MODEL 1
REMARK VINA RESULT:    -4.603      0.000      0.000
REMARK INTER + INTRA:          -5.036
REMARK INTER:                  -5.007
REMARK INTRA:                  -0.029
REMARK UNBOUND:                -0.029
REMARK SMILES O=C([O-])c1ccc(O)cc1
REMARK SMILES IDX 4 1 5 2 10 3 6 4 9 5 7 6 2 7 1 8 3 9 8 10
REMARK H PARENT 8 11
REMARK Flexibility Score: inf
ROOT
ATOM      1  C   UNL     1      20.703   0.458 -20.289  1.00  0.00    -0.003 A 
ATOM      2  C   UNL     1      19.555  -0.340 -20.441  1.00  0.00     0.014 A 
ATOM      3  C   UNL     1      21.182   0.725 -18.993  1.00  0.00     0.014 A 
ATOM      4  C   UNL     1      18.900  -0.859 -19.319  1.00  0.00     0.047 A 
ATOM      5  C   UNL     1      20.523   0.205 -17.873  1.00  0.00     0.047 A 
ATOM      6  C   UNL     1      19.380  -0.588 -18.035  1.00  0.00     0.115 A 
ENDROOT
BRANCH   1   7
ATOM      7  C   UNL     1      21.395   1.005 -21.477  1.00  0.00     0.071 C 
ATOM      8  O   UNL     1      21.581   2.246 -21.595  1.00  0.00    -0.545 OA
ATOM      9  O   UNL     1      21.850   0.158 -22.479  1.00  0.00    -0.545 OA
ENDBRANCH   1   7
BRANCH   6  10
ATOM     10  O   UNL     1      18.717  -1.112 -16.927  1.00  0.00    -0.508 OA
ATOM     11  H   UNL     1      19.164  -1.168 -16.019  1.00  0.00     0.293 HD
ENDBRANCH   6  10
TORSDOF 2
ENDMDL
MODEL 2
REMARK VINA RESULT:    -4.442      1.371      4.461
REMARK INTER + INTRA:          -4.861
REMARK INTER:                  -4.827
REMARK INTRA:                  -0.033
REMARK UNBOUND:                -0.029
REMARK SMILES O=C([O-])c1ccc(O)cc1
REMARK SMILES IDX 4 1 5 2 10 3 6 4 9 5 7 6 2 7 1 8 3 9 8 10
REMARK H PARENT 8 11
REMARK Flexibility Score: inf
ROOT
ATOM      1  C   UNL     1      20.207  -0.433 -20.152  1.00  0.00    -0.003 A 
ATOM      2  C   UNL     1      20.773   0.837 -19.942  1.00  0.00     0.014 A 
ATOM      3  C   UNL     1      20.440  -1.091 -21.374  1.00  0.00     0.014 A 
ATOM      4  C   UNL     1      21.557   1.435 -20.935  1.00  0.00     0.047 A 
ATOM      5  C   UNL     1      21.224  -0.489 -22.364  1.00  0.00     0.047 A 
ATOM      6  C   UNL     1      21.783   0.776 -22.146  1.00  0.00     0.115 A 
ENDROOT
BRANCH   1   7
ATOM      7  C   UNL     1      19.379  -1.064 -19.101  1.00  0.00     0.071 C 
ATOM      8  O   UNL     1      18.699  -0.357 -18.310  1.00  0.00    -0.545 OA
ATOM      9  O   UNL     1      19.339  -2.447 -18.971  1.00  0.00    -0.545 OA
ENDBRANCH   1   7
BRANCH   6  10
ATOM     10  O   UNL     1      22.566   1.385 -23.125  1.00  0.00    -0.508 OA
ATOM     11  H   UNL     1      22.795   0.911 -23.991  1.00  0.00     0.293 HD
ENDBRANCH   6  10
TORSDOF 2
ENDMDL
MODEL 3
REMARK VINA RESULT:    -4.386      1.824      3.901
REMARK INTER + INTRA:          -4.800
REMARK INTER:                  -4.771
REMARK INTRA:                  -0.029
REMARK UNBOUND:                -0.029
REMARK SMILES O=C([O-])c1ccc(O)cc1
REMARK SMILES IDX 4 1 5 2 10 3 6 4 9 5 7 6 2 7 1 8 3 9 8 10
REMARK H PARENT 8 11
REMARK Flexibility Score: inf
ROOT
ATOM      1  C   UNL     1      20.832   0.264 -18.621  1.00  0.00    -0.003 A 
ATOM      2  C   UNL     1      20.357  -1.030 -18.901  1.00  0.00     0.014 A 
ATOM      3  C   UNL     1      21.246   1.084 -19.686  1.00  0.00     0.014 A 
ATOM      4  C   UNL     1      20.296  -1.492 -20.220  1.00  0.00     0.047 A 
ATOM      5  C   UNL     1      21.185   0.618 -21.004  1.00  0.00     0.047 A 
ATOM      6  C   UNL     1      20.711  -0.672 -21.272  1.00  0.00     0.115 A 
ENDROOT
BRANCH   1   7
ATOM      7  C   UNL     1      20.894   0.751 -17.225  1.00  0.00     0.071 C 
ATOM      8  O   UNL     1      19.842   0.882 -16.544  1.00  0.00    -0.545 OA
ATOM      9  O   UNL     1      22.115   1.069 -16.644  1.00  0.00    -0.545 OA
ENDBRANCH   1   7
BRANCH   6  10
ATOM     10  O   UNL     1      20.645  -1.146 -22.581  1.00  0.00    -0.508 OA
ATOM     11  H   UNL     1      21.478  -1.254 -23.148  1.00  0.00     0.293 HD
ENDBRANCH   6  10
TORSDOF 2
ENDMDL
MODEL 4
REMARK VINA RESULT:    -4.297      2.517      3.828
REMARK INTER + INTRA:          -4.704
REMARK INTER:                  -4.671
REMARK INTRA:                  -0.032
REMARK UNBOUND:                -0.029
REMARK SMILES O=C([O-])c1ccc(O)cc1
REMARK SMILES IDX 4 1 5 2 10 3 6 4 9 5 7 6 2 7 1 8 3 9 8 10
REMARK H PARENT 8 11
REMARK Flexibility Score: inf
ROOT
ATOM      1  C   UNL     1      21.171   0.746 -17.715  1.00  0.00    -0.003 A 
ATOM      2  C   UNL     1      19.995   0.016 -17.465  1.00  0.00     0.014 A 
ATOM      3  C   UNL     1      21.523   1.039 -19.045  1.00  0.00     0.014 A 
ATOM      4  C   UNL     1      19.188  -0.409 -18.525  1.00  0.00     0.047 A 
ATOM      5  C   UNL     1      20.713   0.611 -20.103  1.00  0.00     0.047 A 
ATOM      6  C   UNL     1      19.544  -0.115 -19.843  1.00  0.00     0.115 A 
ENDROOT
BRANCH   1   7
ATOM      7  C   UNL     1      22.024   1.196 -16.592  1.00  0.00     0.071 C 
ATOM      8  O   UNL     1      23.279   1.207 -16.705  1.00  0.00    -0.545 OA
ATOM      9  O   UNL     1      21.452   1.614 -15.397  1.00  0.00    -0.545 OA
ENDBRANCH   1   7
BRANCH   6  10
ATOM     10  O   UNL     1      18.729  -0.546 -20.889  1.00  0.00    -0.508 OA
ATOM     11  H   UNL     1      18.289   0.110 -21.523  1.00  0.00     0.293 HD
ENDBRANCH   6  10
TORSDOF 2
ENDMDL
MODEL 5
REMARK VINA RESULT:    -4.274     18.770     19.815
REMARK INTER + INTRA:          -4.678
REMARK INTER:                  -4.650
REMARK INTRA:                  -0.028
REMARK UNBOUND:                -0.029
REMARK SMILES O=C([O-])c1ccc(O)cc1
REMARK SMILES IDX 4 1 5 2 10 3 6 4 9 5 7 6 2 7 1 8 3 9 8 10
REMARK H PARENT 8 11
REMARK Flexibility Score: inf
ROOT
ATOM      1  C   UNL     1       4.663   5.387  -8.963  1.00  0.00    -0.003 A 
ATOM      2  C   UNL     1       5.907   4.791  -9.234  1.00  0.00     0.014 A 
ATOM      3  C   UNL     1       3.910   4.927  -7.867  1.00  0.00     0.014 A 
ATOM      4  C   UNL     1       6.388   3.757  -8.424  1.00  0.00     0.047 A 
ATOM      5  C   UNL     1       4.394   3.892  -7.059  1.00  0.00     0.047 A 
ATOM      6  C   UNL     1       5.635   3.305  -7.337  1.00  0.00     0.115 A 
ENDROOT
BRANCH   1   7
ATOM      7  C   UNL     1       4.155   6.481  -9.821  1.00  0.00     0.071 C 
ATOM      8  O   UNL     1       3.875   6.269 -11.030  1.00  0.00    -0.545 OA
ATOM      9  O   UNL     1       3.980   7.758  -9.303  1.00  0.00    -0.545 OA
ENDBRANCH   1   7
BRANCH   6  10
ATOM     10  O   UNL     1       6.128   2.274  -6.539  1.00  0.00    -0.508 OA
ATOM     11  H   UNL     1       7.000   1.806  -6.756  1.00  0.00     0.293 HD
ENDBRANCH   6  10
TORSDOF 2
ENDMDL
MODEL 6
REMARK VINA RESULT:    -4.239     16.844     17.727
REMARK INTER + INTRA:          -4.640
REMARK INTER:                  -4.613
REMARK INTRA:                  -0.027
REMARK UNBOUND:                -0.029
REMARK SMILES O=C([O-])c1ccc(O)cc1
REMARK SMILES IDX 4 1 5 2 10 3 6 4 9 5 7 6 2 7 1 8 3 9 8 10
REMARK H PARENT 8 11
REMARK Flexibility Score: inf
ROOT
ATOM      1  C   UNL     1       8.515  -7.119  -9.121  1.00  0.00    -0.003 A 
ATOM      2  C   UNL     1       9.915  -7.142  -8.989  1.00  0.00     0.014 A 
ATOM      3  C   UNL     1       7.756  -6.367  -8.206  1.00  0.00     0.014 A 
ATOM      4  C   UNL     1      10.541  -6.427  -7.962  1.00  0.00     0.047 A 
ATOM      5  C   UNL     1       8.385  -5.653  -7.181  1.00  0.00     0.047 A 
ATOM      6  C   UNL     1       9.780  -5.683  -7.057  1.00  0.00     0.115 A 
ENDROOT
BRANCH   1   7
ATOM      7  C   UNL     1       7.855  -7.876 -10.208  1.00  0.00     0.071 C 
ATOM      8  O   UNL     1       7.276  -8.968  -9.968  1.00  0.00    -0.545 OA
ATOM      9  O   UNL     1       7.864  -7.391 -11.510  1.00  0.00    -0.545 OA
ENDBRANCH   1   7
BRANCH   6  10
ATOM     10  O   UNL     1      10.418  -4.976  -6.040  1.00  0.00    -0.508 OA
ATOM     11  H   UNL     1      10.463  -3.963  -6.046  1.00  0.00     0.293 HD
ENDBRANCH   6  10
TORSDOF 2
ENDMDL
MODEL 7
REMARK VINA RESULT:    -4.232     15.938     17.337
REMARK INTER + INTRA:          -4.633
REMARK INTER:                  -4.601
REMARK INTRA:                  -0.032
REMARK UNBOUND:                -0.029
REMARK SMILES O=C([O-])c1ccc(O)cc1
REMARK SMILES IDX 4 1 5 2 10 3 6 4 9 5 7 6 2 7 1 8 3 9 8 10
REMARK H PARENT 8 11
REMARK Flexibility Score: inf
ROOT
ATOM      1  C   UNL     1       9.749  -6.189  -8.375  1.00  0.00    -0.003 A 
ATOM      2  C   UNL     1       9.156  -5.629  -9.521  1.00  0.00     0.014 A 
ATOM      3  C   UNL     1       9.038  -6.167  -7.160  1.00  0.00     0.014 A 
ATOM      4  C   UNL     1       7.880  -5.061  -9.452  1.00  0.00     0.047 A 
ATOM      5  C   UNL     1       7.762  -5.598  -7.095  1.00  0.00     0.047 A 
ATOM      6  C   UNL     1       7.181  -5.043  -8.242  1.00  0.00     0.115 A 
ENDROOT
BRANCH   1   7
ATOM      7  C   UNL     1      11.099  -6.789  -8.449  1.00  0.00     0.071 C 
ATOM      8  O   UNL     1      11.367  -7.843  -7.814  1.00  0.00    -0.545 OA
ATOM      9  O   UNL     1      12.091  -6.198  -9.222  1.00  0.00    -0.545 OA
ENDBRANCH   1   7
BRANCH   6  10
ATOM     10  O   UNL     1       5.910  -4.474  -8.190  1.00  0.00    -0.508 OA
ATOM     11  H   UNL     1       5.074  -5.046  -8.157  1.00  0.00     0.293 HD
ENDBRANCH   6  10
TORSDOF 2
ENDMDL
MODEL 8
REMARK VINA RESULT:    -4.109     17.285     18.632
REMARK INTER + INTRA:          -4.499
REMARK INTER:                  -4.464
REMARK INTRA:                  -0.035
REMARK UNBOUND:                -0.029
REMARK SMILES O=C([O-])c1ccc(O)cc1
REMARK SMILES IDX 4 1 5 2 10 3 6 4 9 5 7 6 2 7 1 8 3 9 8 10
REMARK H PARENT 8 11
REMARK Flexibility Score: inf
ROOT
ATOM      1  C   UNL     1       9.316  -7.452  -7.570  1.00  0.00    -0.003 A 
ATOM      2  C   UNL     1       9.843  -6.166  -7.354  1.00  0.00     0.014 A 
ATOM      3  C   UNL     1       8.194  -7.864  -6.827  1.00  0.00     0.014 A 
ATOM      4  C   UNL     1       9.258  -5.310  -6.415  1.00  0.00     0.047 A 
ATOM      5  C   UNL     1       7.613  -7.005  -5.888  1.00  0.00     0.047 A 
ATOM      6  C   UNL     1       8.145  -5.727  -5.680  1.00  0.00     0.115 A 
ENDROOT
BRANCH   1   7
ATOM      7  C   UNL     1       9.936  -8.355  -8.565  1.00  0.00     0.071 C 
ATOM      8  O   UNL     1      11.088  -8.118  -9.017  1.00  0.00    -0.545 OA
ATOM      9  O   UNL     1       9.255  -9.480  -9.015  1.00  0.00    -0.545 OA
ENDBRANCH   1   7
BRANCH   6  10
ATOM     10  O   UNL     1       7.573  -4.863  -4.748  1.00  0.00    -0.508 OA
ATOM     11  H   UNL     1       7.793  -3.874  -4.737  1.00  0.00     0.293 HD
ENDBRANCH   6  10
TORSDOF 2
ENDMDL
MODEL 9
REMARK VINA RESULT:    -4.104      0.889      4.398
REMARK INTER + INTRA:          -4.494
REMARK INTER:                  -4.463
REMARK INTRA:                  -0.030
REMARK UNBOUND:                -0.029
REMARK SMILES O=C([O-])c1ccc(O)cc1
REMARK SMILES IDX 4 1 5 2 10 3 6 4 9 5 7 6 2 7 1 8 3 9 8 10
REMARK H PARENT 8 11
REMARK Flexibility Score: inf
ROOT
ATOM      1  C   UNL     1      19.598  -0.098 -18.081  1.00  0.00    -0.003 A 
ATOM      2  C   UNL     1      19.104  -0.419 -19.358  1.00  0.00     0.014 A 
ATOM      3  C   UNL     1      20.779   0.659 -17.976  1.00  0.00     0.014 A 
ATOM      4  C   UNL     1      19.778   0.010 -20.506  1.00  0.00     0.047 A 
ATOM      5  C   UNL     1      21.451   1.086 -19.127  1.00  0.00     0.047 A 
ATOM      6  C   UNL     1      20.951   0.761 -20.395  1.00  0.00     0.115 A 
ENDROOT
BRANCH   1   7
ATOM      7  C   UNL     1      18.883  -0.553 -16.867  1.00  0.00     0.071 C 
ATOM      8  O   UNL     1      18.534  -1.757 -16.742  1.00  0.00    -0.545 OA
ATOM      9  O   UNL     1      18.587   0.343 -15.848  1.00  0.00    -0.545 OA
ENDBRANCH   1   7
BRANCH   6  10
ATOM     10  O   UNL     1      21.611   1.181 -21.547  1.00  0.00    -0.508 OA
ATOM     11  H   UNL     1      21.133   1.244 -22.439  1.00  0.00     0.293 HD
ENDBRANCH   6  10
TORSDOF 2
ENDMDL
