MODEL 1
REMARK VINA RESULT:    -2.708      0.000      0.000
REMARK INTER + INTRA:          -2.708
REMARK INTER:                  -2.708
REMARK INTRA:                   0.000
REMARK UNBOUND:                 0.000
REMARK SMILES CC(=O)[O-]
REMARK SMILES IDX 1 1 2 2 3 3 4 4
REMARK H PARENT
REMARK Flexibility Score: inf
ROOT
ATOM      1  C   UNL     1      77.757  57.070   6.574  1.00  0.00     0.063 C 
ATOM      2  C   UNL     1      77.693  56.212   7.791  1.00  0.00     0.038 C 
ATOM      3  O   UNL     1      77.662  56.738   8.935  1.00  0.00    -0.550 OA
ATOM      4  O   UNL     1      77.721  54.828   7.670  1.00  0.00    -0.550 OA
ENDROOT
TORSDOF 0
ENDMDL
MODEL 2
REMARK VINA RESULT:    -2.708      0.079      1.620
REMARK INTER + INTRA:          -2.708
REMARK INTER:                  -2.708
REMARK INTRA:                   0.000
REMARK UNBOUND:                 0.000
REMARK SMILES CC(=O)[O-]
REMARK SMILES IDX 1 1 2 2 3 3 4 4
REMARK H PARENT
REMARK Flexibility Score: inf
ROOT
ATOM      1  C   UNL     1      77.760  57.049   6.566  1.00  0.00     0.063 C 
ATOM      2  C   UNL     1      77.725  56.171   7.771  1.00  0.00     0.038 C 
ATOM      3  O   UNL     1      77.733  54.919   7.641  1.00  0.00    -0.550 OA
ATOM      4  O   UNL     1      77.630  56.732   9.038  1.00  0.00    -0.550 OA
ENDROOT
TORSDOF 0
ENDMDL
MODEL 3
REMARK VINA RESULT:    -2.414     13.618     13.728
REMARK INTER + INTRA:          -2.414
REMARK INTER:                  -2.414
REMARK INTRA:                   0.000
REMARK UNBOUND:                 0.000
REMARK SMILES CC(=O)[O-]
REMARK SMILES IDX 1 1 2 2 3 3 4 4
REMARK H PARENT
REMARK Flexibility Score: inf
ROOT
ATOM      1  C   UNL     1      84.097  66.853  13.811  1.00  0.00     0.063 C 
ATOM      2  C   UNL     1      84.127  65.925  14.977  1.00  0.00     0.038 C 
ATOM      3  O   UNL     1      83.359  66.115  15.956  1.00  0.00    -0.550 OA
ATOM      4  O   UNL     1      85.040  64.879  15.011  1.00  0.00    -0.550 OA
ENDROOT
TORSDOF 0
ENDMDL
MODEL 4
REMARK VINA RESULT:    -2.345      2.743      3.197
REMARK INTER + INTRA:          -2.345
REMARK INTER:                  -2.345
REMARK INTRA:                   0.000
REMARK UNBOUND:                 0.000
REMARK SMILES CC(=O)[O-]
REMARK SMILES IDX 1 1 2 2 3 3 4 4
REMARK H PARENT
REMARK Flexibility Score: inf
ROOT
ATOM      1  C   UNL     1      77.805  56.677   8.998  1.00  0.00     0.063 C 
ATOM      2  C   UNL     1      78.530  57.143  10.214  1.00  0.00     0.038 C 
ATOM      3  O   UNL     1      78.525  56.443  11.260  1.00  0.00    -0.550 OA
ATOM      4  O   UNL     1      79.167  58.377  10.215  1.00  0.00    -0.550 OA
ENDROOT
TORSDOF 0
ENDMDL
MODEL 5
REMARK VINA RESULT:    -2.240     13.709     14.269
REMARK INTER + INTRA:          -2.240
REMARK INTER:                  -2.240
REMARK INTRA:                   0.000
REMARK UNBOUND:                 0.000
REMARK SMILES CC(=O)[O-]
REMARK SMILES IDX 1 1 2 2 3 3 4 4
REMARK H PARENT
REMARK Flexibility Score: inf
ROOT
ATOM      1  C   UNL     1      84.596  65.129  17.862  1.00  0.00     0.063 C 
ATOM      2  C   UNL     1      84.200  65.138  16.425  1.00  0.00     0.038 C 
ATOM      3  O   UNL     1      84.662  64.273  15.636  1.00  0.00    -0.550 OA
ATOM      4  O   UNL     1      83.361  66.134  15.940  1.00  0.00    -0.550 OA
ENDROOT
TORSDOF 0
ENDMDL
MODEL 6
REMARK VINA RESULT:    -2.210      1.816      2.146
REMARK INTER + INTRA:          -2.210
REMARK INTER:                  -2.210
REMARK INTRA:                   0.000
REMARK UNBOUND:                 0.000
REMARK SMILES CC(=O)[O-]
REMARK SMILES IDX 1 1 2 2 3 3 4 4
REMARK H PARENT
REMARK Flexibility Score: inf
ROOT
ATOM      1  C   UNL     1      77.760  56.681   8.934  1.00  0.00     0.063 C 
ATOM      2  C   UNL     1      78.272  55.334   8.552  1.00  0.00     0.038 C 
ATOM      3  O   UNL     1      77.700  54.674   7.645  1.00  0.00    -0.550 OA
ATOM      4  O   UNL     1      79.348  54.779   9.233  1.00  0.00    -0.550 OA
ENDROOT
TORSDOF 0
ENDMDL
MODEL 7
REMARK VINA RESULT:    -2.197     12.855     13.258
REMARK INTER + INTRA:          -2.197
REMARK INTER:                  -2.197
REMARK INTRA:                   0.000
REMARK UNBOUND:                 0.000
REMARK SMILES CC(=O)[O-]
REMARK SMILES IDX 1 1 2 2 3 3 4 4
REMARK H PARENT
REMARK Flexibility Score: inf
ROOT
ATOM      1  C   UNL     1      85.433  61.252  16.961  1.00  0.00     0.063 C 
ATOM      2  C   UNL     1      85.272  62.552  16.249  1.00  0.00     0.038 C 
ATOM      3  O   UNL     1      85.574  62.648  15.031  1.00  0.00    -0.550 OA
ATOM      4  O   UNL     1      84.839  63.676  16.942  1.00  0.00    -0.550 OA
ENDROOT
TORSDOF 0
ENDMDL
MODEL 8
REMARK VINA RESULT:    -2.195     15.517     16.142
REMARK INTER + INTRA:          -2.195
REMARK INTER:                  -2.195
REMARK INTRA:                   0.000
REMARK UNBOUND:                 0.000
REMARK SMILES CC(=O)[O-]
REMARK SMILES IDX 1 1 2 2 3 3 4 4
REMARK H PARENT
REMARK Flexibility Score: inf
ROOT
ATOM      1  C   UNL     1      84.496  65.047  17.891  1.00  0.00     0.063 C 
ATOM      2  C   UNL     1      84.015  65.528  19.217  1.00  0.00     0.038 C 
ATOM      3  O   UNL     1      82.793  65.451  19.512  1.00  0.00    -0.550 OA
ATOM      4  O   UNL     1      84.904  66.112  20.111  1.00  0.00    -0.550 OA
ENDROOT
TORSDOF 0
ENDMDL
MODEL 9
REMARK VINA RESULT:    -2.176     15.793     16.231
REMARK INTER + INTRA:          -2.176
REMARK INTER:                  -2.176
REMARK INTRA:                   0.000
REMARK UNBOUND:                 0.000
REMARK SMILES CC(=O)[O-]
REMARK SMILES IDX 1 1 2 2 3 3 4 4
REMARK H PARENT
REMARK Flexibility Score: inf
ROOT
ATOM      1  C   UNL     1      83.748  63.491  20.102  1.00  0.00     0.063 C 
ATOM      2  C   UNL     1      83.520  64.961  20.000  1.00  0.00     0.038 C 
ATOM      3  O   UNL     1      84.484  65.760  20.125  1.00  0.00    -0.550 OA
ATOM      4  O   UNL     1      82.234  65.456  19.821  1.00  0.00    -0.550 OA
ENDROOT
TORSDOF 0
ENDMDL
