MODEL 1
REMARK VINA RESULT:    -3.700      0.000      0.000
REMARK INTER + INTRA:          -8.075
REMARK INTER:                  -6.296
REMARK INTRA:                  -1.779
REMARK UNBOUND:                -1.779
REMARK SMILES CCCCCCCCCCCCCC(=O)[O-]
REMARK SMILES IDX 8 1 9 2 10 3 11 4 12 5 13 6 14 7 15 8 16 9 7 10 6 11 5 12
REMARK SMILES IDX 4 13 3 14 2 15 1 16
REMARK H PARENT
REMARK Flexibility Score: inf
ROOT
ATOM      1  C   UNL     1    -115.186  10.162  22.378  1.00  0.00     0.000 C 
ENDROOT
BRANCH   1   2
ATOM      2  C   UNL     1    -115.422   9.864  23.864  1.00  0.00     0.000 C 
BRANCH   2   3
ATOM      3  C   UNL     1    -115.987  11.092  24.588  1.00  0.00     0.000 C 
BRANCH   3   4
ATOM      4  C   UNL     1    -114.974  12.242  24.594  1.00  0.00     0.000 C 
BRANCH   4   5
ATOM      5  C   UNL     1    -113.723  11.870  25.404  1.00  0.00     0.006 C 
BRANCH   5   6
ATOM      6  C   UNL     1    -112.442  11.941  24.560  1.00  0.00     0.053 C 
BRANCH   6   7
ATOM      7  C   UNL     1    -111.910  10.578  24.241  1.00  0.00     0.041 C 
ATOM      8  O   UNL     1    -111.972   9.656  25.096  1.00  0.00    -0.550 OA
ATOM      9  O   UNL     1    -111.377  10.316  22.985  1.00  0.00    -0.550 OA
ENDBRANCH   6   7
ENDBRANCH   5   6
ENDBRANCH   4   5
ENDBRANCH   3   4
ENDBRANCH   2   3
ENDBRANCH   1   2
BRANCH   1  10
ATOM     10  C   UNL     1    -116.514  10.306  21.627  1.00  0.00     0.000 C 
BRANCH  10  11
ATOM     11  C   UNL     1    -116.481  11.509  20.676  1.00  0.00    -0.000 C 
BRANCH  11  12
ATOM     12  C   UNL     1    -117.248  12.699  21.266  1.00  0.00    -0.000 C 
BRANCH  12  13
ATOM     13  C   UNL     1    -118.427  12.224  22.124  1.00  0.00    -0.000 C 
BRANCH  13  14
ATOM     14  C   UNL     1    -118.705  13.209  23.270  1.00  0.00    -0.000 C 
BRANCH  14  15
ATOM     15  C   UNL     1    -117.918  14.520  23.127  1.00  0.00    -0.003 C 
ATOM     16  C   UNL     1    -117.534  15.130  24.474  1.00  0.00     0.004 C 
ENDBRANCH  14  15
ENDBRANCH  13  14
ENDBRANCH  12  13
ENDBRANCH  11  12
ENDBRANCH  10  11
ENDBRANCH   1  10
TORSDOF 12
ENDMDL
MODEL 2
REMARK VINA RESULT:    -3.662      1.251      1.903
REMARK INTER + INTRA:          -8.011
REMARK INTER:                  -6.639
REMARK INTRA:                  -1.372
REMARK UNBOUND:                -1.779
REMARK SMILES CCCCCCCCCCCCCC(=O)[O-]
REMARK SMILES IDX 8 1 9 2 10 3 11 4 12 5 13 6 14 7 15 8 16 9 7 10 6 11 5 12
REMARK SMILES IDX 4 13 3 14 2 15 1 16
REMARK H PARENT
REMARK Flexibility Score: inf
ROOT
ATOM      1  C   UNL     1    -116.254  11.407  20.913  1.00  0.00     0.000 C 
ENDROOT
BRANCH   1   2
ATOM      2  C   UNL     1    -115.508  11.015  22.194  1.00  0.00     0.000 C 
BRANCH   2   3
ATOM      3  C   UNL     1    -116.456  10.990  23.398  1.00  0.00     0.000 C 
BRANCH   3   4
ATOM      4  C   UNL     1    -115.691  11.221  24.706  1.00  0.00     0.000 C 
BRANCH   4   5
ATOM      5  C   UNL     1    -114.642  12.331  24.541  1.00  0.00     0.006 C 
BRANCH   5   6
ATOM      6  C   UNL     1    -113.331  12.004  25.271  1.00  0.00     0.053 C 
BRANCH   6   7
ATOM      7  C   UNL     1    -112.746  10.705  24.809  1.00  0.00     0.041 C 
ATOM      8  O   UNL     1    -112.284  10.598  23.643  1.00  0.00    -0.550 OA
ATOM      9  O   UNL     1    -112.681   9.624  25.678  1.00  0.00    -0.550 OA
ENDBRANCH   6   7
ENDBRANCH   5   6
ENDBRANCH   4   5
ENDBRANCH   3   4
ENDBRANCH   2   3
ENDBRANCH   1   2
BRANCH   1  10
ATOM     10  C   UNL     1    -117.326  12.464  21.201  1.00  0.00     0.000 C 
BRANCH  10  11
ATOM     11  C   UNL     1    -117.634  13.292  19.949  1.00  0.00    -0.000 C 
BRANCH  11  12
ATOM     12  C   UNL     1    -118.385  14.580  20.310  1.00  0.00    -0.000 C 
BRANCH  12  13
ATOM     13  C   UNL     1    -119.555  14.288  21.256  1.00  0.00    -0.000 C 
BRANCH  13  14
ATOM     14  C   UNL     1    -119.464  15.148  22.526  1.00  0.00    -0.000 C 
BRANCH  14  15
ATOM     15  C   UNL     1    -118.937  14.362  23.736  1.00  0.00    -0.003 C 
ATOM     16  C   UNL     1    -117.544  14.813  24.174  1.00  0.00     0.004 C 
ENDBRANCH  14  15
ENDBRANCH  13  14
ENDBRANCH  12  13
ENDBRANCH  11  12
ENDBRANCH  10  11
ENDBRANCH   1  10
TORSDOF 12
ENDMDL
MODEL 3
REMARK VINA RESULT:    -3.631      1.221      3.105
REMARK INTER + INTRA:          -7.958
REMARK INTER:                  -6.694
REMARK INTRA:                  -1.264
REMARK UNBOUND:                -1.779
REMARK SMILES CCCCCCCCCCCCCC(=O)[O-]
REMARK SMILES IDX 8 1 9 2 10 3 11 4 12 5 13 6 14 7 15 8 16 9 7 10 6 11 5 12
REMARK SMILES IDX 4 13 3 14 2 15 1 16
REMARK H PARENT
REMARK Flexibility Score: inf
ROOT
ATOM      1  C   UNL     1    -116.577  14.044  24.103  1.00  0.00     0.000 C 
ENDROOT
BRANCH   1   2
ATOM      2  C   UNL     1    -116.769  12.549  23.822  1.00  0.00     0.000 C 
BRANCH   2   3
ATOM      3  C   UNL     1    -115.420  11.851  23.608  1.00  0.00     0.000 C 
BRANCH   3   4
ATOM      4  C   UNL     1    -114.997  11.077  24.861  1.00  0.00     0.000 C 
BRANCH   4   5
ATOM      5  C   UNL     1    -113.826  11.774  25.571  1.00  0.00     0.006 C 
BRANCH   5   6
ATOM      6  C   UNL     1    -112.559  11.807  24.706  1.00  0.00     0.053 C 
BRANCH   6   7
ATOM      7  C   UNL     1    -112.100  10.429  24.338  1.00  0.00     0.041 C 
ATOM      8  O   UNL     1    -111.719   9.628  25.232  1.00  0.00    -0.550 OA
ATOM      9  O   UNL     1    -112.126  10.019  23.012  1.00  0.00    -0.550 OA
ENDBRANCH   6   7
ENDBRANCH   5   6
ENDBRANCH   4   5
ENDBRANCH   3   4
ENDBRANCH   2   3
ENDBRANCH   1   2
BRANCH   1  10
ATOM     10  C   UNL     1    -117.892  14.811  23.927  1.00  0.00     0.000 C 
BRANCH  10  11
ATOM     11  C   UNL     1    -118.792  14.131  22.889  1.00  0.00    -0.000 C 
BRANCH  11  12
ATOM     12  C   UNL     1    -119.017  15.040  21.674  1.00  0.00    -0.000 C 
BRANCH  12  13
ATOM     13  C   UNL     1    -118.382  14.441  20.413  1.00  0.00    -0.000 C 
BRANCH  13  14
ATOM     14  C   UNL     1    -118.405  12.906  20.462  1.00  0.00    -0.000 C 
BRANCH  14  15
ATOM     15  C   UNL     1    -117.358  12.270  19.535  1.00  0.00    -0.003 C 
ATOM     16  C   UNL     1    -116.420  11.314  20.270  1.00  0.00     0.004 C 
ENDBRANCH  14  15
ENDBRANCH  13  14
ENDBRANCH  12  13
ENDBRANCH  11  12
ENDBRANCH  10  11
ENDBRANCH   1  10
TORSDOF 12
ENDMDL
MODEL 4
REMARK VINA RESULT:    -3.604      3.074      5.943
REMARK INTER + INTRA:          -7.912
REMARK INTER:                  -6.538
REMARK INTRA:                  -1.375
REMARK UNBOUND:                -1.779
REMARK SMILES CCCCCCCCCCCCCC(=O)[O-]
REMARK SMILES IDX 8 1 9 2 10 3 11 4 12 5 13 6 14 7 15 8 16 9 7 10 6 11 5 12
REMARK SMILES IDX 4 13 3 14 2 15 1 16
REMARK H PARENT
REMARK Flexibility Score: inf
ROOT
ATOM      1  C   UNL     1    -115.865  10.962  21.374  1.00  0.00     0.000 C 
ENDROOT
BRANCH   1   2
ATOM      2  C   UNL     1    -117.330  11.351  21.139  1.00  0.00     0.000 C 
BRANCH   2   3
ATOM      3  C   UNL     1    -117.460  12.324  19.961  1.00  0.00     0.000 C 
BRANCH   3   4
ATOM      4  C   UNL     1    -118.382  13.496  20.315  1.00  0.00     0.000 C 
BRANCH   4   5
ATOM      5  C   UNL     1    -117.923  14.187  21.608  1.00  0.00     0.006 C 
BRANCH   5   6
ATOM      6  C   UNL     1    -119.080  14.399  22.594  1.00  0.00     0.053 C 
BRANCH   6   7
ATOM      7  C   UNL     1    -118.590  14.549  24.002  1.00  0.00     0.041 C 
ATOM      8  O   UNL     1    -117.562  15.232  24.246  1.00  0.00    -0.550 OA
ATOM      9  O   UNL     1    -119.291  13.961  25.048  1.00  0.00    -0.550 OA
ENDBRANCH   6   7
ENDBRANCH   5   6
ENDBRANCH   4   5
ENDBRANCH   3   4
ENDBRANCH   2   3
ENDBRANCH   1   2
BRANCH   1  10
ATOM     10  C   UNL     1    -115.592  10.712  22.861  1.00  0.00     0.000 C 
BRANCH  10  11
ATOM     11  C   UNL     1    -116.243  11.794  23.730  1.00  0.00    -0.000 C 
BRANCH  11  12
ATOM     12  C   UNL     1    -115.182  12.626  24.462  1.00  0.00    -0.000 C 
BRANCH  12  13
ATOM     13  C   UNL     1    -114.172  11.723  25.178  1.00  0.00    -0.000 C 
BRANCH  13  14
ATOM     14  C   UNL     1    -112.731  12.115  24.816  1.00  0.00    -0.000 C 
BRANCH  14  15
ATOM     15  C   UNL     1    -111.989  11.004  24.057  1.00  0.00    -0.003 C 
ATOM     16  C   UNL     1    -112.460   9.604  24.449  1.00  0.00     0.004 C 
ENDBRANCH  14  15
ENDBRANCH  13  14
ENDBRANCH  12  13
ENDBRANCH  11  12
ENDBRANCH  10  11
ENDBRANCH   1  10
TORSDOF 12
ENDMDL
MODEL 5
REMARK VINA RESULT:    -3.554      1.738      3.274
REMARK INTER + INTRA:          -7.826
REMARK INTER:                  -6.437
REMARK INTRA:                  -1.389
REMARK UNBOUND:                -1.779
REMARK SMILES CCCCCCCCCCCCCC(=O)[O-]
REMARK SMILES IDX 8 1 9 2 10 3 11 4 12 5 13 6 14 7 15 8 16 9 7 10 6 11 5 12
REMARK SMILES IDX 4 13 3 14 2 15 1 16
REMARK H PARENT
REMARK Flexibility Score: inf
ROOT
ATOM      1  C   UNL     1    -116.434  13.427  24.021  1.00  0.00     0.000 C 
ENDROOT
BRANCH   1   2
ATOM      2  C   UNL     1    -116.625  12.469  22.838  1.00  0.00     0.000 C 
BRANCH   2   3
ATOM      3  C   UNL     1    -116.784  11.023  23.320  1.00  0.00     0.000 C 
BRANCH   3   4
ATOM      4  C   UNL     1    -116.308  10.871  24.770  1.00  0.00     0.000 C 
BRANCH   4   5
ATOM      5  C   UNL     1    -114.874  10.322  24.824  1.00  0.00     0.006 C 
BRANCH   5   6
ATOM      6  C   UNL     1    -113.936  11.229  25.632  1.00  0.00     0.053 C 
BRANCH   6   7
ATOM      7  C   UNL     1    -112.673  11.531  24.884  1.00  0.00     0.041 C 
ATOM      8  O   UNL     1    -112.294  12.721  24.735  1.00  0.00    -0.550 OA
ATOM      9  O   UNL     1    -111.899  10.493  24.381  1.00  0.00    -0.550 OA
ENDBRANCH   6   7
ENDBRANCH   5   6
ENDBRANCH   4   5
ENDBRANCH   3   4
ENDBRANCH   2   3
ENDBRANCH   1   2
BRANCH   1  10
ATOM     10  C   UNL     1    -117.492  14.535  24.010  1.00  0.00     0.000 C 
BRANCH  10  11
ATOM     11  C   UNL     1    -118.850  14.003  24.482  1.00  0.00    -0.000 C 
BRANCH  11  12
ATOM     12  C   UNL     1    -119.893  14.081  23.360  1.00  0.00    -0.000 C 
BRANCH  12  13
ATOM     13  C   UNL     1    -119.557  15.205  22.373  1.00  0.00    -0.000 C 
BRANCH  13  14
ATOM     14  C   UNL     1    -119.615  14.699  20.923  1.00  0.00    -0.000 C 
BRANCH  14  15
ATOM     15  C   UNL     1    -118.224  14.591  20.280  1.00  0.00    -0.003 C 
ATOM     16  C   UNL     1    -118.039  13.299  19.485  1.00  0.00     0.004 C 
ENDBRANCH  14  15
ENDBRANCH  13  14
ENDBRANCH  12  13
ENDBRANCH  11  12
ENDBRANCH  10  11
ENDBRANCH   1  10
TORSDOF 12
ENDMDL
MODEL 6
REMARK VINA RESULT:    -3.400      3.439      6.394
REMARK INTER + INTRA:          -7.565
REMARK INTER:                  -6.074
REMARK INTRA:                  -1.490
REMARK UNBOUND:                -1.779
REMARK SMILES CCCCCCCCCCCCCC(=O)[O-]
REMARK SMILES IDX 8 1 9 2 10 3 11 4 12 5 13 6 14 7 15 8 16 9 7 10 6 11 5 12
REMARK SMILES IDX 4 13 3 14 2 15 1 16
REMARK H PARENT
REMARK Flexibility Score: inf
ROOT
ATOM      1  C   UNL     1    -114.182  12.259  24.791  1.00  0.00     0.000 C 
ENDROOT
BRANCH   1   2
ATOM      2  C   UNL     1    -115.179  11.111  24.990  1.00  0.00     0.000 C 
BRANCH   2   3
ATOM      3  C   UNL     1    -116.509  11.409  24.286  1.00  0.00     0.000 C 
BRANCH   3   4
ATOM      4  C   UNL     1    -116.405  12.673  23.425  1.00  0.00     0.000 C 
BRANCH   4   5
ATOM      5  C   UNL     1    -117.268  12.550  22.160  1.00  0.00     0.006 C 
BRANCH   5   6
ATOM      6  C   UNL     1    -118.527  13.425  22.228  1.00  0.00     0.053 C 
BRANCH   6   7
ATOM      7  C   UNL     1    -118.555  14.446  21.133  1.00  0.00     0.041 C 
ATOM      8  O   UNL     1    -117.819  14.310  20.121  1.00  0.00    -0.550 OA
ATOM      9  O   UNL     1    -119.420  15.530  21.215  1.00  0.00    -0.550 OA
ENDBRANCH   6   7
ENDBRANCH   5   6
ENDBRANCH   4   5
ENDBRANCH   3   4
ENDBRANCH   2   3
ENDBRANCH   1   2
BRANCH   1  10
ATOM     10  C   UNL     1    -112.743  11.786  25.024  1.00  0.00     0.000 C 
BRANCH  10  11
ATOM     11  C   UNL     1    -112.711  10.321  25.473  1.00  0.00    -0.000 C 
BRANCH  11  12
ATOM     12  C   UNL     1    -111.818   9.481  24.550  1.00  0.00    -0.000 C 
BRANCH  12  13
ATOM     13  C   UNL     1    -111.600  10.184  23.205  1.00  0.00    -0.000 C 
BRANCH  13  14
ATOM     14  C   UNL     1    -112.190   9.358  22.052  1.00  0.00    -0.000 C 
BRANCH  14  15
ATOM     15  C   UNL     1    -113.669   9.005  22.273  1.00  0.00    -0.003 C 
ATOM     16  C   UNL     1    -114.610   9.822  21.389  1.00  0.00     0.004 C 
ENDBRANCH  14  15
ENDBRANCH  13  14
ENDBRANCH  12  13
ENDBRANCH  11  12
ENDBRANCH  10  11
ENDBRANCH   1  10
TORSDOF 12
ENDMDL
MODEL 7
REMARK VINA RESULT:    -3.250      3.384      6.103
REMARK INTER + INTRA:          -7.310
REMARK INTER:                  -6.011
REMARK INTRA:                  -1.299
REMARK UNBOUND:                -1.779
REMARK SMILES CCCCCCCCCCCCCC(=O)[O-]
REMARK SMILES IDX 8 1 9 2 10 3 11 4 12 5 13 6 14 7 15 8 16 9 7 10 6 11 5 12
REMARK SMILES IDX 4 13 3 14 2 15 1 16
REMARK H PARENT
REMARK Flexibility Score: inf
ROOT
ATOM      1  C   UNL     1    -116.423  13.018  23.698  1.00  0.00     0.000 C 
ENDROOT
BRANCH   1   2
ATOM      2  C   UNL     1    -117.460  14.138  23.850  1.00  0.00     0.000 C 
BRANCH   2   3
ATOM      3  C   UNL     1    -118.712  13.846  23.014  1.00  0.00     0.000 C 
BRANCH   3   4
ATOM      4  C   UNL     1    -119.287  15.135  22.417  1.00  0.00     0.000 C 
BRANCH   4   5
ATOM      5  C   UNL     1    -119.458  15.010  20.896  1.00  0.00     0.006 C 
BRANCH   5   6
ATOM      6  C   UNL     1    -118.176  14.521  20.206  1.00  0.00     0.053 C 
BRANCH   6   7
ATOM      7  C   UNL     1    -118.428  13.315  19.355  1.00  0.00     0.041 C 
ATOM      8  O   UNL     1    -119.566  13.118  18.855  1.00  0.00    -0.550 OA
ATOM      9  O   UNL     1    -117.395  12.425  19.087  1.00  0.00    -0.550 OA
ENDBRANCH   6   7
ENDBRANCH   5   6
ENDBRANCH   4   5
ENDBRANCH   3   4
ENDBRANCH   2   3
ENDBRANCH   1   2
BRANCH   1  10
ATOM     10  C   UNL     1    -116.817  12.051  22.576  1.00  0.00     0.000 C 
BRANCH  10  11
ATOM     11  C   UNL     1    -115.687  11.057  22.283  1.00  0.00    -0.000 C 
BRANCH  11  12
ATOM     12  C   UNL     1    -115.545  10.033  23.415  1.00  0.00    -0.000 C 
BRANCH  12  13
ATOM     13  C   UNL     1    -114.071   9.791  23.759  1.00  0.00    -0.000 C 
BRANCH  13  14
ATOM     14  C   UNL     1    -113.816   9.995  25.261  1.00  0.00    -0.000 C 
BRANCH  14  15
ATOM     15  C   UNL     1    -113.732  11.479  25.649  1.00  0.00    -0.003 C 
ATOM     16  C   UNL     1    -112.682  12.243  24.845  1.00  0.00     0.004 C 
ENDBRANCH  14  15
ENDBRANCH  13  14
ENDBRANCH  12  13
ENDBRANCH  11  12
ENDBRANCH  10  11
ENDBRANCH   1  10
TORSDOF 12
ENDMDL
MODEL 8
REMARK VINA RESULT:    -3.229     17.926     19.912
REMARK INTER + INTRA:          -7.274
REMARK INTER:                  -5.866
REMARK INTRA:                  -1.407
REMARK UNBOUND:                -1.779
REMARK SMILES CCCCCCCCCCCCCC(=O)[O-]
REMARK SMILES IDX 8 1 9 2 10 3 11 4 12 5 13 6 14 7 15 8 16 9 7 10 6 11 5 12
REMARK SMILES IDX 4 13 3 14 2 15 1 16
REMARK H PARENT
REMARK Flexibility Score: inf
ROOT
ATOM      1  C   UNL     1    -101.448  24.602  20.013  1.00  0.00     0.000 C 
ENDROOT
BRANCH   1   2
ATOM      2  C   UNL     1    -102.523  25.691  19.907  1.00  0.00     0.000 C 
BRANCH   2   3
ATOM      3  C   UNL     1    -101.896  27.055  19.598  1.00  0.00     0.000 C 
BRANCH   3   4
ATOM      4  C   UNL     1    -102.571  28.167  20.410  1.00  0.00     0.000 C 
BRANCH   4   5
ATOM      5  C   UNL     1    -103.417  27.581  21.550  1.00  0.00     0.006 C 
BRANCH   5   6
ATOM      6  C   UNL     1    -104.632  28.458  21.882  1.00  0.00     0.053 C 
BRANCH   6   7
ATOM      7  C   UNL     1    -105.912  27.838  21.411  1.00  0.00     0.041 C 
ATOM      8  O   UNL     1    -105.920  27.098  20.392  1.00  0.00    -0.550 OA
ATOM      9  O   UNL     1    -107.089  28.051  22.116  1.00  0.00    -0.550 OA
ENDBRANCH   6   7
ENDBRANCH   5   6
ENDBRANCH   4   5
ENDBRANCH   3   4
ENDBRANCH   2   3
ENDBRANCH   1   2
BRANCH   1  10
ATOM     10  C   UNL     1    -100.172  25.013  19.270  1.00  0.00     0.000 C 
BRANCH  10  11
ATOM     11  C   UNL     1     -99.971  24.164  18.010  1.00  0.00    -0.000 C 
BRANCH  11  12
ATOM     12  C   UNL     1    -100.711  24.774  16.812  1.00  0.00    -0.000 C 
BRANCH  12  13
ATOM     13  C   UNL     1    -101.626  23.740  16.146  1.00  0.00    -0.000 C 
BRANCH  13  14
ATOM     14  C   UNL     1    -101.337  22.327  16.674  1.00  0.00    -0.000 C 
BRANCH  14  15
ATOM     15  C   UNL     1    -102.616  21.562  17.048  1.00  0.00    -0.003 C 
ATOM     16  C   UNL     1    -103.455  22.291  18.096  1.00  0.00     0.004 C 
ENDBRANCH  14  15
ENDBRANCH  13  14
ENDBRANCH  12  13
ENDBRANCH  11  12
ENDBRANCH  10  11
ENDBRANCH   1  10
TORSDOF 12
ENDMDL
MODEL 9
REMARK VINA RESULT:    -3.193     17.482     19.303
REMARK INTER + INTRA:          -7.212
REMARK INTER:                  -6.049
REMARK INTRA:                  -1.163
REMARK UNBOUND:                -1.779
REMARK SMILES CCCCCCCCCCCCCC(=O)[O-]
REMARK SMILES IDX 8 1 9 2 10 3 11 4 12 5 13 6 14 7 15 8 16 9 7 10 6 11 5 12
REMARK SMILES IDX 4 13 3 14 2 15 1 16
REMARK H PARENT
REMARK Flexibility Score: inf
ROOT
ATOM      1  C   UNL     1    -101.042  24.718  19.808  1.00  0.00     0.000 C 
ENDROOT
BRANCH   1   2
ATOM      2  C   UNL     1    -100.356  25.141  18.503  1.00  0.00     0.000 C 
BRANCH   2   3
ATOM      3  C   UNL     1     -99.940  23.917  17.678  1.00  0.00     0.000 C 
BRANCH   3   4
ATOM      4  C   UNL     1    -101.029  23.538  16.669  1.00  0.00     0.000 C 
BRANCH   4   5
ATOM      5  C   UNL     1    -101.572  22.128  16.948  1.00  0.00     0.006 C 
BRANCH   5   6
ATOM      6  C   UNL     1    -103.086  22.031  16.715  1.00  0.00     0.053 C 
BRANCH   6   7
ATOM      7  C   UNL     1    -103.855  22.165  17.993  1.00  0.00     0.041 C 
ATOM      8  O   UNL     1    -105.095  22.380  17.967  1.00  0.00    -0.550 OA
ATOM      9  O   UNL     1    -103.208  22.020  19.213  1.00  0.00    -0.550 OA
ENDBRANCH   6   7
ENDBRANCH   5   6
ENDBRANCH   4   5
ENDBRANCH   3   4
ENDBRANCH   2   3
ENDBRANCH   1   2
BRANCH   1  10
ATOM     10  C   UNL     1    -102.349  25.490  20.019  1.00  0.00     0.000 C 
BRANCH  10  11
ATOM     11  C   UNL     1    -102.262  26.895  19.412  1.00  0.00    -0.000 C 
BRANCH  11  12
ATOM     12  C   UNL     1    -102.055  27.955  20.502  1.00  0.00    -0.000 C 
BRANCH  12  13
ATOM     13  C   UNL     1    -103.358  28.707  20.795  1.00  0.00    -0.000 C 
BRANCH  13  14
ATOM     14  C   UNL     1    -104.103  28.075  21.982  1.00  0.00    -0.000 C 
BRANCH  14  15
ATOM     15  C   UNL     1    -105.620  28.001  21.755  1.00  0.00    -0.003 C 
ATOM     16  C   UNL     1    -105.989  27.323  20.436  1.00  0.00     0.004 C 
ENDBRANCH  14  15
ENDBRANCH  13  14
ENDBRANCH  12  13
ENDBRANCH  11  12
ENDBRANCH  10  11
ENDBRANCH   1  10
TORSDOF 12
ENDMDL
