MODEL 1
REMARK VINA RESULT:    -3.855      0.000      0.000
REMARK INTER + INTRA:          -4.708
REMARK INTER:                  -4.418
REMARK INTRA:                  -0.290
REMARK UNBOUND:                -0.290
REMARK SMILES COC(=O)c1ccccc1O
REMARK SMILES IDX 5 1 6 2 7 3 8 4 9 5 10 6 3 7 4 8 2 9 1 10 11 11
REMARK H PARENT 11 12
REMARK Flexibility Score: inf
ROOT
ATOM      1  C   UNL     1      41.179 184.023 172.142  1.00  0.00     0.101 A 
ATOM      2  C   UNL     1      41.636 182.689 172.116  1.00  0.00     0.019 A 
ATOM      3  C   UNL     1      42.659 182.269 172.968  1.00  0.00     0.001 A 
ATOM      4  C   UNL     1      43.243 183.168 173.859  1.00  0.00     0.004 A 
ATOM      5  C   UNL     1      42.805 184.492 173.900  1.00  0.00     0.047 A 
ATOM      6  C   UNL     1      41.778 184.930 173.049  1.00  0.00     0.130 A 
ENDROOT
BRANCH   1   7
ATOM      7  C   UNL     1      40.089 184.443 171.223  1.00  0.00     0.341 C 
ATOM      8  O   UNL     1      40.119 184.090 170.011  1.00  0.00    -0.246 OA
BRANCH   7   9
ATOM      9  O   UNL     1      39.028 185.225 171.689  1.00  0.00    -0.465 OA
ATOM     10  C   UNL     1      37.936 185.611 170.863  1.00  0.00     0.282 C 
ENDBRANCH   7   9
ENDBRANCH   1   7
BRANCH   6  11
ATOM     11  O   UNL     1      41.361 186.259 173.112  1.00  0.00    -0.507 OA
ATOM     12  H   UNL     1      40.381 186.509 173.156  1.00  0.00     0.293 HD
ENDBRANCH   6  11
TORSDOF 3
ENDMDL
MODEL 2
REMARK VINA RESULT:    -3.688     21.233     22.239
REMARK INTER + INTRA:          -4.518
REMARK INTER:                  -4.199
REMARK INTRA:                  -0.318
REMARK UNBOUND:                -0.290
REMARK SMILES COC(=O)c1ccccc1O
REMARK SMILES IDX 5 1 6 2 7 3 8 4 9 5 10 6 3 7 4 8 2 9 1 10 11 11
REMARK H PARENT 11 12
REMARK Flexibility Score: inf
ROOT
ATOM      1  C   UNL     1      32.943 169.744 157.686  1.00  0.00     0.101 A 
ATOM      2  C   UNL     1      33.031 170.536 156.523  1.00  0.00     0.019 A 
ATOM      3  C   UNL     1      34.163 170.482 155.708  1.00  0.00     0.001 A 
ATOM      4  C   UNL     1      35.224 169.640 156.036  1.00  0.00     0.004 A 
ATOM      5  C   UNL     1      35.156 168.848 157.183  1.00  0.00     0.047 A 
ATOM      6  C   UNL     1      34.025 168.892 158.013  1.00  0.00     0.130 A 
ENDROOT
BRANCH   1   7
ATOM      7  C   UNL     1      31.726 169.822 158.537  1.00  0.00     0.341 C 
ATOM      8  O   UNL     1      30.591 169.593 158.031  1.00  0.00    -0.246 OA
BRANCH   7   9
ATOM      9  O   UNL     1      31.825 170.146 159.892  1.00  0.00    -0.465 OA
ATOM     10  C   UNL     1      31.173 169.399 160.913  1.00  0.00     0.282 C 
ENDBRANCH   7   9
ENDBRANCH   1   7
BRANCH   6  11
ATOM     11  O   UNL     1      33.986 168.090 159.153  1.00  0.00    -0.507 OA
ATOM     12  H   UNL     1      33.580 168.417 160.021  1.00  0.00     0.293 HD
ENDBRANCH   6  11
TORSDOF 3
ENDMDL
MODEL 3
REMARK VINA RESULT:    -3.647      2.036      2.938
REMARK INTER + INTRA:          -4.470
REMARK INTER:                  -4.192
REMARK INTRA:                  -0.278
REMARK UNBOUND:                -0.290
REMARK SMILES COC(=O)c1ccccc1O
REMARK SMILES IDX 5 1 6 2 7 3 8 4 9 5 10 6 3 7 4 8 2 9 1 10 11 11
REMARK H PARENT 11 12
REMARK Flexibility Score: inf
ROOT
ATOM      1  C   UNL     1      39.222 184.585 171.772  1.00  0.00     0.101 A 
ATOM      2  C   UNL     1      39.308 184.986 173.122  1.00  0.00     0.019 A 
ATOM      3  C   UNL     1      40.549 185.182 173.730  1.00  0.00     0.001 A 
ATOM      4  C   UNL     1      41.724 184.983 173.007  1.00  0.00     0.004 A 
ATOM      5  C   UNL     1      41.661 184.585 171.671  1.00  0.00     0.047 A 
ATOM      6  C   UNL     1      40.420 184.384 171.045  1.00  0.00     0.130 A 
ENDROOT
BRANCH   1   7
ATOM      7  C   UNL     1      37.887 184.383 171.150  1.00  0.00     0.341 C 
ATOM      8  O   UNL     1      37.640 184.886 170.018  1.00  0.00    -0.246 OA
BRANCH   7   9
ATOM      9  O   UNL     1      36.902 183.641 171.807  1.00  0.00    -0.465 OA
ATOM     10  C   UNL     1      35.598 183.448 171.272  1.00  0.00     0.282 C 
ENDBRANCH   7   9
ENDBRANCH   1   7
BRANCH   6  11
ATOM     11  O   UNL     1      40.388 183.987 169.709  1.00  0.00    -0.507 OA
ATOM     12  H   UNL     1      39.533 184.010 169.166  1.00  0.00     0.293 HD
ENDBRANCH   6  11
TORSDOF 3
ENDMDL
MODEL 4
REMARK VINA RESULT:    -3.647      1.101      2.449
REMARK INTER + INTRA:          -4.470
REMARK INTER:                  -4.144
REMARK INTRA:                  -0.326
REMARK UNBOUND:                -0.290
REMARK SMILES COC(=O)c1ccccc1O
REMARK SMILES IDX 5 1 6 2 7 3 8 4 9 5 10 6 3 7 4 8 2 9 1 10 11 11
REMARK H PARENT 11 12
REMARK Flexibility Score: inf
ROOT
ATOM      1  C   UNL     1      41.176 184.912 172.814  1.00  0.00     0.101 A 
ATOM      2  C   UNL     1      42.345 184.866 173.601  1.00  0.00     0.019 A 
ATOM      3  C   UNL     1      43.161 183.733 173.599  1.00  0.00     0.001 A 
ATOM      4  C   UNL     1      42.828 182.630 172.815  1.00  0.00     0.004 A 
ATOM      5  C   UNL     1      41.675 182.656 172.029  1.00  0.00     0.047 A 
ATOM      6  C   UNL     1      40.844 183.788 172.021  1.00  0.00     0.130 A 
ENDROOT
BRANCH   1   7
ATOM      7  C   UNL     1      40.326 186.132 172.836  1.00  0.00     0.341 C 
ATOM      8  O   UNL     1      40.865 187.273 172.825  1.00  0.00    -0.246 OA
BRANCH   7   9
ATOM      9  O   UNL     1      38.932 186.025 172.868  1.00  0.00    -0.465 OA
ATOM     10  C   UNL     1      38.080 186.833 172.064  1.00  0.00     0.282 C 
ENDBRANCH   7   9
ENDBRANCH   1   7
BRANCH   6  11
ATOM     11  O   UNL     1      39.699 183.786 171.226  1.00  0.00    -0.507 OA
ATOM     12  H   UNL     1      38.804 184.105 171.579  1.00  0.00     0.293 HD
ENDBRANCH   6  11
TORSDOF 3
ENDMDL
MODEL 5
REMARK VINA RESULT:    -3.631      1.852      4.381
REMARK INTER + INTRA:          -4.452
REMARK INTER:                  -4.166
REMARK INTRA:                  -0.286
REMARK UNBOUND:                -0.290
REMARK SMILES COC(=O)c1ccccc1O
REMARK SMILES IDX 5 1 6 2 7 3 8 4 9 5 10 6 3 7 4 8 2 9 1 10 11 11
REMARK H PARENT 11 12
REMARK Flexibility Score: inf
ROOT
ATOM      1  C   UNL     1      40.596 184.391 172.692  1.00  0.00     0.101 A 
ATOM      2  C   UNL     1      39.780 184.778 173.775  1.00  0.00     0.019 A 
ATOM      3  C   UNL     1      38.424 185.053 173.584  1.00  0.00     0.001 A 
ATOM      4  C   UNL     1      37.860 184.947 172.315  1.00  0.00     0.004 A 
ATOM      5  C   UNL     1      38.650 184.565 171.230  1.00  0.00     0.047 A 
ATOM      6  C   UNL     1      40.015 184.286 171.406  1.00  0.00     0.130 A 
ENDROOT
BRANCH   1   7
ATOM      7  C   UNL     1      42.036 184.105 172.925  1.00  0.00     0.341 C 
ATOM      8  O   UNL     1      42.712 184.859 173.679  1.00  0.00    -0.246 OA
BRANCH   7   9
ATOM      9  O   UNL     1      42.650 183.007 172.316  1.00  0.00    -0.465 OA
ATOM     10  C   UNL     1      43.944 182.546 172.685  1.00  0.00     0.282 C 
ENDBRANCH   7   9
ENDBRANCH   1   7
BRANCH   6  11
ATOM     11  O   UNL     1      40.780 183.907 170.304  1.00  0.00    -0.507 OA
ATOM     12  H   UNL     1      41.481 184.519 169.906  1.00  0.00     0.293 HD
ENDBRANCH   6  11
TORSDOF 3
ENDMDL
MODEL 6
REMARK VINA RESULT:    -3.626      2.041      3.909
REMARK INTER + INTRA:          -4.446
REMARK INTER:                  -4.132
REMARK INTRA:                  -0.314
REMARK UNBOUND:                -0.290
REMARK SMILES COC(=O)c1ccccc1O
REMARK SMILES IDX 5 1 6 2 7 3 8 4 9 5 10 6 3 7 4 8 2 9 1 10 11 11
REMARK H PARENT 11 12
REMARK Flexibility Score: inf
ROOT
ATOM      1  C   UNL     1      41.007 184.159 172.467  1.00  0.00     0.101 A 
ATOM      2  C   UNL     1      39.713 184.093 171.910  1.00  0.00     0.019 A 
ATOM      3  C   UNL     1      38.874 185.208 171.921  1.00  0.00     0.001 A 
ATOM      4  C   UNL     1      39.308 186.406 172.486  1.00  0.00     0.004 A 
ATOM      5  C   UNL     1      40.585 186.492 173.043  1.00  0.00     0.047 A 
ATOM      6  C   UNL     1      41.440 185.379 173.039  1.00  0.00     0.130 A 
ENDROOT
BRANCH   1   7
ATOM      7  C   UNL     1      41.880 182.955 172.441  1.00  0.00     0.341 C 
ATOM      8  O   UNL     1      41.380 181.814 172.645  1.00  0.00    -0.246 OA
BRANCH   7   9
ATOM      9  O   UNL     1      43.250 183.076 172.193  1.00  0.00    -0.465 OA
ATOM     10  C   UNL     1      44.236 182.422 172.984  1.00  0.00     0.282 C 
ENDBRANCH   7   9
ENDBRANCH   1   7
BRANCH   6  11
ATOM     11  O   UNL     1      42.710 185.495 173.603  1.00  0.00    -0.507 OA
ATOM     12  H   UNL     1      43.254 186.346 173.523  1.00  0.00     0.293 HD
ENDBRANCH   6  11
TORSDOF 3
ENDMDL
MODEL 7
REMARK VINA RESULT:    -3.623     22.300     22.994
REMARK INTER + INTRA:          -4.443
REMARK INTER:                  -4.201
REMARK INTRA:                  -0.242
REMARK UNBOUND:                -0.290
REMARK SMILES COC(=O)c1ccccc1O
REMARK SMILES IDX 5 1 6 2 7 3 8 4 9 5 10 6 3 7 4 8 2 9 1 10 11 11
REMARK H PARENT 11 12
REMARK Flexibility Score: inf
ROOT
ATOM      1  C   UNL     1      32.763 170.370 155.891  1.00  0.00     0.101 A 
ATOM      2  C   UNL     1      34.053 170.406 155.320  1.00  0.00     0.019 A 
ATOM      3  C   UNL     1      35.151 169.885 156.007  1.00  0.00     0.001 A 
ATOM      4  C   UNL     1      34.984 169.321 157.270  1.00  0.00     0.004 A 
ATOM      5  C   UNL     1      33.717 169.276 157.853  1.00  0.00     0.047 A 
ATOM      6  C   UNL     1      32.603 169.796 157.175  1.00  0.00     0.130 A 
ENDROOT
BRANCH   1   7
ATOM      7  C   UNL     1      31.612 170.932 155.137  1.00  0.00     0.341 C 
ATOM      8  O   UNL     1      30.448 170.489 155.345  1.00  0.00    -0.246 OA
BRANCH   7   9
ATOM      9  O   UNL     1      31.806 171.950 154.198  1.00  0.00    -0.465 OA
ATOM     10  C   UNL     1      30.967 173.096 154.121  1.00  0.00     0.282 C 
ENDBRANCH   7   9
ENDBRANCH   1   7
BRANCH   6  11
ATOM     11  O   UNL     1      31.348 169.738 157.781  1.00  0.00    -0.507 OA
ATOM     12  H   UNL     1      31.102 170.342 158.555  1.00  0.00     0.293 HD
ENDBRANCH   6  11
TORSDOF 3
ENDMDL
MODEL 8
REMARK VINA RESULT:    -3.529      4.598      7.011
REMARK INTER + INTRA:          -4.334
REMARK INTER:                  -4.060
REMARK INTRA:                  -0.275
REMARK UNBOUND:                -0.290
REMARK SMILES COC(=O)c1ccccc1O
REMARK SMILES IDX 5 1 6 2 7 3 8 4 9 5 10 6 3 7 4 8 2 9 1 10 11 11
REMARK H PARENT 11 12
REMARK Flexibility Score: inf
ROOT
ATOM      1  C   UNL     1      35.311 182.733 171.555  1.00  0.00     0.101 A 
ATOM      2  C   UNL     1      35.073 181.884 172.656  1.00  0.00     0.019 A 
ATOM      3  C   UNL     1      34.215 180.789 172.539  1.00  0.00     0.001 A 
ATOM      4  C   UNL     1      33.583 180.520 171.327  1.00  0.00     0.004 A 
ATOM      5  C   UNL     1      33.805 181.348 170.226  1.00  0.00     0.047 A 
ATOM      6  C   UNL     1      34.664 182.454 170.328  1.00  0.00     0.130 A 
ENDROOT
BRANCH   1   7
ATOM      7  C   UNL     1      36.229 183.893 171.709  1.00  0.00     0.341 C 
ATOM      8  O   UNL     1      36.324 184.474 172.826  1.00  0.00    -0.246 OA
BRANCH   7   9
ATOM      9  O   UNL     1      36.988 184.346 170.627  1.00  0.00    -0.465 OA
ATOM     10  C   UNL     1      38.346 184.753 170.756  1.00  0.00     0.282 C 
ENDBRANCH   7   9
ENDBRANCH   1   7
BRANCH   6  11
ATOM     11  O   UNL     1      34.868 183.264 169.211  1.00  0.00    -0.507 OA
ATOM     12  H   UNL     1      35.157 184.230 169.299  1.00  0.00     0.293 HD
ENDBRANCH   6  11
TORSDOF 3
ENDMDL
