MODEL 1
REMARK VINA RESULT:     0.000      0.000      0.000
REMARK INTER + INTRA:          -0.666
REMARK INTER:                   0.000
REMARK INTRA:                  -0.666
REMARK UNBOUND:                -0.666
REMARK SMILES CCCCCCCCO
REMARK SMILES IDX 5 1 4 2 3 3 2 4 1 5 6 6 7 7 8 8 9 9
REMARK H PARENT 9 10
REMARK Flexibility Score: inf
ROOT
ATOM      1  C   UNL     1     113.856 110.044 117.861  1.00  0.00     0.000 C 
ENDROOT
BRANCH   1   2
ATOM      2  C   UNL     1     113.648 111.281 118.752  1.00  0.00    -0.000 C 
BRANCH   2   3
ATOM      3  C   UNL     1     114.983 111.952 119.136  1.00  0.00    -0.000 C 
BRANCH   3   4
ATOM      4  C   UNL     1     114.987 113.477 118.928  1.00  0.00    -0.003 C 
ATOM      5  C   UNL     1     113.665 114.009 118.379  1.00  0.00     0.004 C 
ENDBRANCH   3   4
ENDBRANCH   2   3
ENDBRANCH   1   2
BRANCH   1   6
ATOM      6  C   UNL     1     114.566 110.379 116.540  1.00  0.00     0.002 C 
BRANCH   6   7
ATOM      7  C   UNL     1     113.738 111.317 115.649  1.00  0.00     0.028 C 
BRANCH   7   8
ATOM      8  C   UNL     1     114.600 112.458 115.101  1.00  0.00     0.156 C 
BRANCH   8   9
ATOM      9  O   UNL     1     115.882 112.411 115.666  1.00  0.00    -0.396 OA
ATOM     10  H   UNL     1     116.497 112.834 115.012  1.00  0.00     0.210 HD
ENDBRANCH   8   9
ENDBRANCH   7   8
ENDBRANCH   6   7
ENDBRANCH   1   6
TORSDOF 7
ENDMDL
MODEL 2
REMARK VINA RESULT:     0.000      8.174      9.016
REMARK INTER + INTRA:          -0.666
REMARK INTER:                   0.000
REMARK INTRA:                  -0.666
REMARK UNBOUND:                -0.666
REMARK SMILES CCCCCCCCO
REMARK SMILES IDX 5 1 4 2 3 3 2 4 1 5 6 6 7 7 8 8 9 9
REMARK H PARENT 9 10
REMARK Flexibility Score: inf
ROOT
ATOM      1  C   UNL     1     107.900 114.354 116.029  1.00  0.00     0.000 C 
ENDROOT
BRANCH   1   2
ATOM      2  C   UNL     1     106.397 114.462 116.345  1.00  0.00    -0.000 C 
BRANCH   2   3
ATOM      3  C   UNL     1     105.695 115.523 115.473  1.00  0.00    -0.000 C 
BRANCH   3   4
ATOM      4  C   UNL     1     104.390 115.024 114.828  1.00  0.00    -0.003 C 
ATOM      5  C   UNL     1     104.067 113.573 115.179  1.00  0.00     0.004 C 
ENDBRANCH   3   4
ENDBRANCH   2   3
ENDBRANCH   1   2
BRANCH   1   6
ATOM      6  C   UNL     1     108.169 113.964 114.567  1.00  0.00     0.002 C 
BRANCH   6   7
ATOM      7  C   UNL     1     107.642 112.563 114.225  1.00  0.00     0.028 C 
BRANCH   7   8
ATOM      8  C   UNL     1     106.868 112.574 112.903  1.00  0.00     0.156 C 
BRANCH   8   9
ATOM      9  O   UNL     1     106.741 113.887 112.427  1.00  0.00    -0.396 OA
ATOM     10  H   UNL     1     107.558 114.077 111.896  1.00  0.00     0.210 HD
ENDBRANCH   8   9
ENDBRANCH   7   8
ENDBRANCH   6   7
ENDBRANCH   1   6
TORSDOF 7
ENDMDL
MODEL 3
REMARK VINA RESULT:     0.000      6.451      7.635
REMARK INTER + INTRA:          -0.666
REMARK INTER:                   0.000
REMARK INTRA:                  -0.666
REMARK UNBOUND:                -0.666
REMARK SMILES CCCCCCCCO
REMARK SMILES IDX 5 1 4 2 3 3 2 4 1 5 6 6 7 7 8 8 9 9
REMARK H PARENT 9 10
REMARK Flexibility Score: inf
ROOT
ATOM      1  C   UNL     1     112.971 112.713 110.851  1.00  0.00     0.000 C 
ENDROOT
BRANCH   1   2
ATOM      2  C   UNL     1     111.816 113.567 111.405  1.00  0.00    -0.000 C 
BRANCH   2   3
ATOM      3  C   UNL     1     111.136 112.907 112.622  1.00  0.00    -0.000 C 
BRANCH   3   4
ATOM      4  C   UNL     1     109.600 112.882 112.530  1.00  0.00    -0.003 C 
ATOM      5  C   UNL     1     109.068 113.509 111.244  1.00  0.00     0.004 C 
ENDBRANCH   3   4
ENDBRANCH   2   3
ENDBRANCH   1   2
BRANCH   1   6
ATOM      6  C   UNL     1     112.509 111.321 110.394  1.00  0.00     0.002 C 
BRANCH   6   7
ATOM      7  C   UNL     1     111.532 111.384 109.210  1.00  0.00     0.028 C 
BRANCH   7   8
ATOM      8  C   UNL     1     110.323 110.473 109.447  1.00  0.00     0.156 C 
BRANCH   8   9
ATOM      9  O   UNL     1     110.376 109.922 110.735  1.00  0.00    -0.396 OA
ATOM     10  H   UNL     1     110.731 109.001 110.636  1.00  0.00     0.210 HD
ENDBRANCH   8   9
ENDBRANCH   7   8
ENDBRANCH   6   7
ENDBRANCH   1   6
TORSDOF 7
ENDMDL
MODEL 4
REMARK VINA RESULT:     0.000      2.516      3.867
REMARK INTER + INTRA:          -0.666
REMARK INTER:                   0.000
REMARK INTRA:                  -0.666
REMARK UNBOUND:                -0.666
REMARK SMILES CCCCCCCCO
REMARK SMILES IDX 5 1 4 2 3 3 2 4 1 5 6 6 7 7 8 8 9 9
REMARK H PARENT 9 10
REMARK Flexibility Score: inf
ROOT
ATOM      1  C   UNL     1     113.090 111.444 121.506  1.00  0.00     0.000 C 
ENDROOT
BRANCH   1   2
ATOM      2  C   UNL     1     114.443 111.368 120.777  1.00  0.00    -0.000 C 
BRANCH   2   3
ATOM      3  C   UNL     1     114.364 110.516 119.494  1.00  0.00    -0.000 C 
BRANCH   3   4
ATOM      4  C   UNL     1     115.000 111.191 118.266  1.00  0.00    -0.003 C 
ATOM      5  C   UNL     1     115.567 112.576 118.572  1.00  0.00     0.004 C 
ENDBRANCH   3   4
ENDBRANCH   2   3
ENDBRANCH   1   2
BRANCH   1   6
ATOM      6  C   UNL     1     111.984 112.064 120.639  1.00  0.00     0.002 C 
BRANCH   6   7
ATOM      7  C   UNL     1     112.268 113.531 120.283  1.00  0.00     0.028 C 
BRANCH   7   8
ATOM      8  C   UNL     1     112.032 113.791 118.792  1.00  0.00     0.156 C 
BRANCH   8   9
ATOM      9  O   UNL     1     111.742 112.590 118.130  1.00  0.00    -0.396 OA
ATOM     10  H   UNL     1     112.539 112.368 117.582  1.00  0.00     0.210 HD
ENDBRANCH   8   9
ENDBRANCH   7   8
ENDBRANCH   6   7
ENDBRANCH   1   6
TORSDOF 7
ENDMDL
MODEL 5
REMARK VINA RESULT:     0.000      7.154      8.301
REMARK INTER + INTRA:          -0.665
REMARK INTER:                   0.000
REMARK INTRA:                  -0.665
REMARK UNBOUND:                -0.666
REMARK SMILES CCCCCCCCO
REMARK SMILES IDX 5 1 4 2 3 3 2 4 1 5 6 6 7 7 8 8 9 9
REMARK H PARENT 9 10
REMARK Flexibility Score: inf
ROOT
ATOM      1  C   UNL     1     106.345 110.111 120.600  1.00  0.00     0.000 C 
ENDROOT
BRANCH   1   2
ATOM      2  C   UNL     1     106.485 108.700 121.198  1.00  0.00    -0.000 C 
BRANCH   2   3
ATOM      3  C   UNL     1     107.894 108.451 121.776  1.00  0.00    -0.000 C 
BRANCH   3   4
ATOM      4  C   UNL     1     108.515 107.116 121.329  1.00  0.00    -0.003 C 
ATOM      5  C   UNL     1     107.605 106.314 120.401  1.00  0.00     0.004 C 
ENDBRANCH   3   4
ENDBRANCH   2   3
ENDBRANCH   1   2
BRANCH   1   6
ATOM      6  C   UNL     1     107.328 110.364 119.446  1.00  0.00     0.002 C 
BRANCH   6   7
ATOM      7  C   UNL     1     107.076 109.441 118.245  1.00  0.00     0.028 C 
BRANCH   7   8
ATOM      8  C   UNL     1     108.386 108.829 117.738  1.00  0.00     0.156 C 
BRANCH   8   9
ATOM      9  O   UNL     1     109.444 109.173 118.592  1.00  0.00    -0.396 OA
ATOM     10  H   UNL     1     109.478 110.164 118.617  1.00  0.00     0.210 HD
ENDBRANCH   8   9
ENDBRANCH   7   8
ENDBRANCH   6   7
ENDBRANCH   1   6
TORSDOF 7
ENDMDL
MODEL 6
REMARK VINA RESULT:     0.000      4.511      5.701
REMARK INTER + INTRA:          -0.665
REMARK INTER:                   0.000
REMARK INTRA:                  -0.665
REMARK UNBOUND:                -0.666
REMARK SMILES CCCCCCCCO
REMARK SMILES IDX 5 1 4 2 3 3 2 4 1 5 6 6 7 7 8 8 9 9
REMARK H PARENT 9 10
REMARK Flexibility Score: inf
ROOT
ATOM      1  C   UNL     1     114.914 115.370 117.454  1.00  0.00     0.000 C 
ENDROOT
BRANCH   1   2
ATOM      2  C   UNL     1     115.246 115.998 118.819  1.00  0.00    -0.000 C 
BRANCH   2   3
ATOM      3  C   UNL     1     113.990 116.548 119.527  1.00  0.00    -0.000 C 
BRANCH   3   4
ATOM      4  C   UNL     1     114.167 117.975 120.074  1.00  0.00    -0.003 C 
ATOM      5  C   UNL     1     115.553 118.554 119.797  1.00  0.00     0.004 C 
ENDBRANCH   3   4
ENDBRANCH   2   3
ENDBRANCH   1   2
BRANCH   1   6
ATOM      6  C   UNL     1     114.275 116.374 116.481  1.00  0.00     0.002 C 
BRANCH   6   7
ATOM      7  C   UNL     1     115.223 117.525 116.115  1.00  0.00     0.028 C 
BRANCH   7   8
ATOM      8  C   UNL     1     114.510 118.877 116.214  1.00  0.00     0.156 C 
BRANCH   8   9
ATOM      9  O   UNL     1     113.220 118.708 116.735  1.00  0.00    -0.396 OA
ATOM     10  H   UNL     1     113.329 118.475 117.694  1.00  0.00     0.210 HD
ENDBRANCH   8   9
ENDBRANCH   7   8
ENDBRANCH   6   7
ENDBRANCH   1   6
TORSDOF 7
ENDMDL
MODEL 7
REMARK VINA RESULT:     0.000      6.884      7.800
REMARK INTER + INTRA:          -0.665
REMARK INTER:                   0.000
REMARK INTRA:                  -0.665
REMARK UNBOUND:                -0.666
REMARK SMILES CCCCCCCCO
REMARK SMILES IDX 5 1 4 2 3 3 2 4 1 5 6 6 7 7 8 8 9 9
REMARK H PARENT 9 10
REMARK Flexibility Score: inf
ROOT
ATOM      1  C   UNL     1     106.912 108.953 115.584  1.00  0.00     0.000 C 
ENDROOT
BRANCH   1   2
ATOM      2  C   UNL     1     107.108 110.185 116.485  1.00  0.00    -0.000 C 
BRANCH   2   3
ATOM      3  C   UNL     1     108.596 110.442 116.803  1.00  0.00    -0.000 C 
BRANCH   3   4
ATOM      4  C   UNL     1     108.873 110.684 118.297  1.00  0.00    -0.003 C 
ATOM      5  C   UNL     1     107.612 110.621 119.157  1.00  0.00     0.004 C 
ENDBRANCH   3   4
ENDBRANCH   2   3
ENDBRANCH   1   2
BRANCH   1   6
ATOM      6  C   UNL     1     107.444 107.662 116.225  1.00  0.00     0.002 C 
BRANCH   6   7
ATOM      7  C   UNL     1     106.685 107.283 117.505  1.00  0.00     0.028 C 
BRANCH   7   8
ATOM      8  C   UNL     1     107.655 106.913 118.631  1.00  0.00     0.156 C 
BRANCH   8   9
ATOM      9  O   UNL     1     108.978 107.142 118.226  1.00  0.00    -0.396 OA
ATOM     10  H   UNL     1     109.133 108.119 118.305  1.00  0.00     0.210 HD
ENDBRANCH   8   9
ENDBRANCH   7   8
ENDBRANCH   6   7
ENDBRANCH   1   6
TORSDOF 7
ENDMDL
MODEL 8
REMARK VINA RESULT:     0.000     13.232     14.398
REMARK INTER + INTRA:          -0.665
REMARK INTER:                   0.000
REMARK INTRA:                  -0.665
REMARK UNBOUND:                -0.666
REMARK SMILES CCCCCCCCO
REMARK SMILES IDX 5 1 4 2 3 3 2 4 1 5 6 6 7 7 8 8 9 9
REMARK H PARENT 9 10
REMARK Flexibility Score: inf
ROOT
ATOM      1  C   UNL     1     106.468 116.650 108.413  1.00  0.00     0.000 C 
ENDROOT
BRANCH   1   2
ATOM      2  C   UNL     1     105.297 115.653 108.397  1.00  0.00    -0.000 C 
BRANCH   2   3
ATOM      3  C   UNL     1     104.173 116.092 107.435  1.00  0.00    -0.000 C 
BRANCH   3   4
ATOM      4  C   UNL     1     102.768 116.022 108.059  1.00  0.00    -0.003 C 
ATOM      5  C   UNL     1     102.779 115.538 109.507  1.00  0.00     0.004 C 
ENDBRANCH   3   4
ENDBRANCH   2   3
ENDBRANCH   1   2
BRANCH   1   6
ATOM      6  C   UNL     1     106.042 118.055 108.867  1.00  0.00     0.002 C 
BRANCH   6   7
ATOM      7  C   UNL     1     105.538 118.077 110.318  1.00  0.00     0.028 C 
BRANCH   7   8
ATOM      8  C   UNL     1     104.229 118.865 110.433  1.00  0.00     0.156 C 
BRANCH   8   9
ATOM      9  O   UNL     1     103.775 119.239 109.161  1.00  0.00    -0.396 OA
ATOM     10  H   UNL     1     104.443 118.899 108.510  1.00  0.00     0.210 HD
ENDBRANCH   8   9
ENDBRANCH   7   8
ENDBRANCH   6   7
ENDBRANCH   1   6
TORSDOF 7
ENDMDL
MODEL 9
REMARK VINA RESULT:     0.001      7.059      8.486
REMARK INTER + INTRA:          -0.665
REMARK INTER:                   0.000
REMARK INTRA:                  -0.665
REMARK UNBOUND:                -0.666
REMARK SMILES CCCCCCCCO
REMARK SMILES IDX 5 1 4 2 3 3 2 4 1 5 6 6 7 7 8 8 9 9
REMARK H PARENT 9 10
REMARK Flexibility Score: inf
ROOT
ATOM      1  C   UNL     1     115.522 115.330 111.777  1.00  0.00     0.000 C 
ENDROOT
BRANCH   1   2
ATOM      2  C   UNL     1     114.422 114.299 111.468  1.00  0.00    -0.000 C 
BRANCH   2   3
ATOM      3  C   UNL     1     114.560 113.711 110.048  1.00  0.00    -0.000 C 
BRANCH   3   4
ATOM      4  C   UNL     1     113.241 113.704 109.255  1.00  0.00    -0.003 C 
ATOM      5  C   UNL     1     112.067 114.282 110.042  1.00  0.00     0.004 C 
ENDBRANCH   3   4
ENDBRANCH   2   3
ENDBRANCH   1   2
BRANCH   1   6
ATOM      6  C   UNL     1     115.493 116.531 110.820  1.00  0.00     0.002 C 
BRANCH   6   7
ATOM      7  C   UNL     1     114.195 117.344 110.934  1.00  0.00     0.028 C 
BRANCH   7   8
ATOM      8  C   UNL     1     113.617 117.655 109.549  1.00  0.00     0.156 C 
BRANCH   8   9
ATOM      9  O   UNL     1     114.357 116.997 108.556  1.00  0.00    -0.396 OA
ATOM     10  H   UNL     1     114.821 116.242 109.002  1.00  0.00     0.210 HD
ENDBRANCH   8   9
ENDBRANCH   7   8
ENDBRANCH   6   7
ENDBRANCH   1   6
TORSDOF 7
ENDMDL
