MODEL 1
REMARK VINA RESULT:    -3.421      0.000      0.000
REMARK INTER + INTRA:          -4.079
REMARK INTER:                  -4.021
REMARK INTRA:                  -0.058
REMARK UNBOUND:                -0.058
REMARK SMILES O=C([O-])CCC(=O)[O-]
REMARK SMILES IDX 4 1 2 2 1 3 3 4 5 5 6 6 7 7 8 8
REMARK H PARENT
REMARK Flexibility Score: inf
ROOT
ATOM      1  C   UNL     1      -2.300   6.541  -8.539  1.00  0.00     0.059 C 
ENDROOT
BRANCH   1   2
ATOM      2  C   UNL     1      -2.590   7.164  -7.207  1.00  0.00     0.042 C 
ATOM      3  O   UNL     1      -2.166   6.627  -6.151  1.00  0.00    -0.550 OA
ATOM      4  O   UNL     1      -3.291   8.361  -7.137  1.00  0.00    -0.550 OA
ENDBRANCH   1   2
BRANCH   1   5
ATOM      5  C   UNL     1      -0.803   6.573  -8.865  1.00  0.00     0.059 C 
BRANCH   5   6
ATOM      6  C   UNL     1      -0.277   5.208  -9.184  1.00  0.00     0.042 C 
ATOM      7  O   UNL     1       0.729   4.758  -8.575  1.00  0.00    -0.550 OA
ATOM      8  O   UNL     1      -0.923   4.416 -10.125  1.00  0.00    -0.550 OA
ENDBRANCH   5   6
ENDBRANCH   1   5
TORSDOF 3
ENDMDL
MODEL 2
REMARK VINA RESULT:    -3.394      7.218      8.170
REMARK INTER + INTRA:          -4.047
REMARK INTER:                  -4.001
REMARK INTRA:                  -0.046
REMARK UNBOUND:                -0.058
REMARK SMILES O=C([O-])CCC(=O)[O-]
REMARK SMILES IDX 4 1 2 2 1 3 3 4 5 5 6 6 7 7 8 8
REMARK H PARENT
REMARK Flexibility Score: inf
ROOT
ATOM      1  C   UNL     1       6.665   8.218  -6.050  1.00  0.00     0.059 C 
ENDROOT
BRANCH   1   2
ATOM      2  C   UNL     1       6.260   8.163  -4.608  1.00  0.00     0.042 C 
ATOM      3  O   UNL     1       6.776   8.953  -3.774  1.00  0.00    -0.550 OA
ATOM      4  O   UNL     1       5.280   7.270  -4.194  1.00  0.00    -0.550 OA
ENDBRANCH   1   2
BRANCH   1   5
ATOM      5  C   UNL     1       6.243   6.953  -6.804  1.00  0.00     0.059 C 
BRANCH   5   6
ATOM      6  C   UNL     1       5.744   7.270  -8.180  1.00  0.00     0.042 C 
ATOM      7  O   UNL     1       4.904   6.517  -8.738  1.00  0.00    -0.550 OA
ATOM      8  O   UNL     1       6.178   8.419  -8.829  1.00  0.00    -0.550 OA
ENDBRANCH   5   6
ENDBRANCH   1   5
TORSDOF 3
ENDMDL
MODEL 3
REMARK VINA RESULT:    -3.388      7.207      8.600
REMARK INTER + INTRA:          -4.040
REMARK INTER:                  -4.006
REMARK INTRA:                  -0.033
REMARK UNBOUND:                -0.058
REMARK SMILES O=C([O-])CCC(=O)[O-]
REMARK SMILES IDX 4 1 2 2 1 3 3 4 5 5 6 6 7 7 8 8
REMARK H PARENT
REMARK Flexibility Score: inf
ROOT
ATOM      1  C   UNL     1       6.311   7.061  -6.829  1.00  0.00     0.059 C 
ENDROOT
BRANCH   1   2
ATOM      2  C   UNL     1       5.788   7.206  -8.227  1.00  0.00     0.042 C 
ATOM      3  O   UNL     1       4.954   6.380  -8.680  1.00  0.00    -0.550 OA
ATOM      4  O   UNL     1       6.191   8.279  -9.012  1.00  0.00    -0.550 OA
ENDBRANCH   1   2
BRANCH   1   5
ATOM      5  C   UNL     1       6.258   8.388  -6.065  1.00  0.00     0.059 C 
BRANCH   5   6
ATOM      6  C   UNL     1       6.165   8.171  -4.587  1.00  0.00     0.042 C 
ATOM      7  O   UNL     1       6.899   8.828  -3.802  1.00  0.00    -0.550 OA
ATOM      8  O   UNL     1       5.239   7.272  -4.072  1.00  0.00    -0.550 OA
ENDBRANCH   5   6
ENDBRANCH   1   5
TORSDOF 3
ENDMDL
MODEL 4
REMARK VINA RESULT:    -3.211     11.318     12.943
REMARK INTER + INTRA:          -3.831
REMARK INTER:                  -3.762
REMARK INTRA:                  -0.069
REMARK UNBOUND:                -0.058
REMARK SMILES O=C([O-])CCC(=O)[O-]
REMARK SMILES IDX 4 1 2 2 1 3 3 4 5 5 6 6 7 7 8 8
REMARK H PARENT
REMARK Flexibility Score: inf
ROOT
ATOM      1  C   UNL     1       2.959  -5.528  -6.771  1.00  0.00     0.059 C 
ENDROOT
BRANCH   1   2
ATOM      2  C   UNL     1       2.637  -4.129  -7.202  1.00  0.00     0.042 C 
ATOM      3  O   UNL     1       3.548  -3.262  -7.270  1.00  0.00    -0.550 OA
ATOM      4  O   UNL     1       1.340  -3.794  -7.568  1.00  0.00    -0.550 OA
ENDBRANCH   1   2
BRANCH   1   5
ATOM      5  C   UNL     1       4.460  -5.714  -6.530  1.00  0.00     0.059 C 
BRANCH   5   6
ATOM      6  C   UNL     1       4.736  -6.258  -5.162  1.00  0.00     0.042 C 
ATOM      7  O   UNL     1       3.797  -6.719  -4.461  1.00  0.00    -0.550 OA
ATOM      8  O   UNL     1       6.038  -6.293  -4.677  1.00  0.00    -0.550 OA
ENDBRANCH   5   6
ENDBRANCH   1   5
TORSDOF 3
ENDMDL
MODEL 5
REMARK VINA RESULT:    -3.194     11.285     13.137
REMARK INTER + INTRA:          -3.812
REMARK INTER:                  -3.749
REMARK INTRA:                  -0.063
REMARK UNBOUND:                -0.058
REMARK SMILES O=C([O-])CCC(=O)[O-]
REMARK SMILES IDX 4 1 2 2 1 3 3 4 5 5 6 6 7 7 8 8
REMARK H PARENT
REMARK Flexibility Score: inf
ROOT
ATOM      1  C   UNL     1       4.429  -5.626  -6.499  1.00  0.00     0.059 C 
ENDROOT
BRANCH   1   2
ATOM      2  C   UNL     1       4.690  -6.224  -5.150  1.00  0.00     0.042 C 
ATOM      3  O   UNL     1       3.744  -6.716  -4.482  1.00  0.00    -0.550 OA
ATOM      4  O   UNL     1       5.985  -6.277  -4.651  1.00  0.00    -0.550 OA
ENDBRANCH   1   2
BRANCH   1   5
ATOM      5  C   UNL     1       2.928  -5.518  -6.790  1.00  0.00     0.059 C 
BRANCH   5   6
ATOM      6  C   UNL     1       2.552  -4.144  -7.250  1.00  0.00     0.042 C 
ATOM      7  O   UNL     1       1.366  -3.891  -7.588  1.00  0.00    -0.550 OA
ATOM      8  O   UNL     1       3.503  -3.131  -7.269  1.00  0.00    -0.550 OA
ENDBRANCH   5   6
ENDBRANCH   1   5
TORSDOF 3
ENDMDL
MODEL 6
REMARK VINA RESULT:    -3.190     11.251     12.859
REMARK INTER + INTRA:          -3.808
REMARK INTER:                  -3.754
REMARK INTRA:                  -0.054
REMARK UNBOUND:                -0.058
REMARK SMILES O=C([O-])CCC(=O)[O-]
REMARK SMILES IDX 4 1 2 2 1 3 3 4 5 5 6 6 7 7 8 8
REMARK H PARENT
REMARK Flexibility Score: inf
ROOT
ATOM      1  C   UNL     1       2.911  -5.442  -6.720  1.00  0.00     0.059 C 
ENDROOT
BRANCH   1   2
ATOM      2  C   UNL     1       2.560  -4.089  -7.261  1.00  0.00     0.042 C 
ATOM      3  O   UNL     1       1.373  -3.826  -7.586  1.00  0.00    -0.550 OA
ATOM      4  O   UNL     1       3.536  -3.106  -7.365  1.00  0.00    -0.550 OA
ENDBRANCH   1   2
BRANCH   1   5
ATOM      5  C   UNL     1       4.418  -5.581  -6.481  1.00  0.00     0.059 C 
BRANCH   5   6
ATOM      6  C   UNL     1       4.711  -6.220  -5.158  1.00  0.00     0.042 C 
ATOM      7  O   UNL     1       5.889  -6.243  -4.713  1.00  0.00    -0.550 OA
ATOM      8  O   UNL     1       3.678  -6.753  -4.399  1.00  0.00    -0.550 OA
ENDBRANCH   5   6
ENDBRANCH   1   5
TORSDOF 3
ENDMDL
MODEL 7
REMARK VINA RESULT:    -3.110      8.477      9.852
REMARK INTER + INTRA:          -3.713
REMARK INTER:                  -3.660
REMARK INTRA:                  -0.053
REMARK UNBOUND:                -0.058
REMARK SMILES O=C([O-])CCC(=O)[O-]
REMARK SMILES IDX 4 1 2 2 1 3 3 4 5 5 6 6 7 7 8 8
REMARK H PARENT
REMARK Flexibility Score: inf
ROOT
ATOM      1  C   UNL     1       7.760   7.770  -6.314  1.00  0.00     0.059 C 
ENDROOT
BRANCH   1   2
ATOM      2  C   UNL     1       8.128   8.648  -7.472  1.00  0.00     0.042 C 
ATOM      3  O   UNL     1       7.482   8.580  -8.550  1.00  0.00    -0.550 OA
ATOM      4  O   UNL     1       9.158   9.572  -7.345  1.00  0.00    -0.550 OA
ENDBRANCH   1   2
BRANCH   1   5
ATOM      5  C   UNL     1       6.276   7.900  -5.956  1.00  0.00     0.059 C 
BRANCH   5   6
ATOM      6  C   UNL     1       6.079   8.095  -4.484  1.00  0.00     0.042 C 
ATOM      7  O   UNL     1       6.719   8.989  -3.871  1.00  0.00    -0.550 OA
ATOM      8  O   UNL     1       5.157   7.315  -3.796  1.00  0.00    -0.550 OA
ENDBRANCH   5   6
ENDBRANCH   1   5
TORSDOF 3
ENDMDL
MODEL 8
REMARK VINA RESULT:    -3.056     12.649     14.251
REMARK INTER + INTRA:          -3.650
REMARK INTER:                  -3.615
REMARK INTRA:                  -0.035
REMARK UNBOUND:                -0.058
REMARK SMILES O=C([O-])CCC(=O)[O-]
REMARK SMILES IDX 4 1 2 2 1 3 3 4 5 5 6 6 7 7 8 8
REMARK H PARENT
REMARK Flexibility Score: inf
ROOT
ATOM      1  C   UNL     1       4.430  -5.814  -6.062  1.00  0.00     0.059 C 
ENDROOT
BRANCH   1   2
ATOM      2  C   UNL     1       3.432  -5.126  -6.944  1.00  0.00     0.042 C 
ATOM      3  O   UNL     1       3.261  -3.882  -6.856  1.00  0.00    -0.550 OA
ATOM      4  O   UNL     1       2.723  -5.853  -7.891  1.00  0.00    -0.550 OA
ENDBRANCH   1   2
BRANCH   1   5
ATOM      5  C   UNL     1       3.751  -6.524  -4.887  1.00  0.00     0.059 C 
BRANCH   5   6
ATOM      6  C   UNL     1       4.495  -7.760  -4.484  1.00  0.00     0.042 C 
ATOM      7  O   UNL     1       5.142  -7.786  -3.403  1.00  0.00    -0.550 OA
ATOM      8  O   UNL     1       4.443  -8.896  -5.281  1.00  0.00    -0.550 OA
ENDBRANCH   5   6
ENDBRANCH   1   5
TORSDOF 3
ENDMDL
