MODEL 1
REMARK VINA RESULT:    -6.969      0.000      0.000
REMARK INTER + INTRA:         -11.061
REMARK INTER:                 -10.024
REMARK INTRA:                  -1.037
REMARK UNBOUND:                -1.037
REMARK SMILES O=c1cc(-c2ccc(O)c(O)c2)oc2cc(O[C@@H]3O[C@H](CO)[C@H](O)[C@H](O)[C@H]3O)cc(O)c12
REMARK SMILES IDX 17 1 16 2 4 3 3 4 13 5 2 6 14 7 1 8 32 9 15 10 30 11 29 12
REMARK SMILES IDX 5 13 6 14 7 15 8 16 12 17 10 18 9 19 11 21 31 23 18 25 27 26
REMARK SMILES IDX 19 27 25 28 20 29 23 30 28 31 26 33 21 35 22 36 24 38
REMARK H PARENT 9 20 11 22 31 24 28 32 26 34 22 37 24 39
REMARK Flexibility Score: inf
ROOT
ATOM      1  O   UNL     1      10.694  16.464  18.385  1.00  0.00    -0.462 OA
ENDROOT
BRANCH   1   2
ATOM      2  C   UNL     1      11.565  16.299  17.296  1.00  0.00     0.130 A 
ATOM      3  C   UNL     1      14.711  18.088  14.194  1.00  0.00     0.138 A 
ATOM      4  C   UNL     1      14.797  16.890  13.475  1.00  0.00     0.100 A 
ATOM      5  O   UNL     1      13.930  18.153  15.267  1.00  0.00    -0.456 OA
ATOM      6  C   UNL     1      14.051  15.784  13.886  1.00  0.00     0.197 A 
ATOM      7  C   UNL     1      13.195  17.134  15.700  1.00  0.00     0.146 A 
ATOM      8  O   UNL     1      14.138  14.729  13.206  1.00  0.00    -0.289 OA
ATOM      9  C   UNL     1      13.221  15.879  15.032  1.00  0.00     0.107 A 
ATOM     10  C   UNL     1      12.386  17.332  16.821  1.00  0.00     0.094 A 
ATOM     11  C   UNL     1      12.414  14.820  15.550  1.00  0.00     0.134 A 
ATOM     12  C   UNL     1      11.596  15.057  16.662  1.00  0.00     0.093 A 
BRANCH   3  13
ATOM     13  C   UNL     1      15.473  19.290  13.786  1.00  0.00     0.021 A 
ATOM     14  C   UNL     1      16.481  19.826  14.606  1.00  0.00     0.016 A 
ATOM     15  C   UNL     1      17.211  20.941  14.192  1.00  0.00     0.051 A 
ATOM     16  C   UNL     1      16.948  21.549  12.961  1.00  0.00     0.157 A 
ATOM     17  C   UNL     1      15.221  19.886  12.541  1.00  0.00     0.062 A 
ATOM     18  C   UNL     1      15.941  21.013  12.122  1.00  0.00     0.158 A 
BRANCH  16  19
ATOM     19  O   UNL     1      17.702  22.671  12.615  1.00  0.00    -0.504 OA
ATOM     20  H   UNL     1      18.079  23.324  13.284  1.00  0.00     0.293 HD
ENDBRANCH  16  19
BRANCH  18  21
ATOM     21  O   UNL     1      15.633  21.560  10.875  1.00  0.00    -0.504 OA
ATOM     22  H   UNL     1      15.079  22.394  10.744  1.00  0.00     0.293 HD
ENDBRANCH  18  21
ENDBRANCH   3  13
BRANCH  11  23
ATOM     23  O   UNL     1      12.375  13.523  15.027  1.00  0.00    -0.507 OA
ATOM     24  H   UNL     1      11.744  13.183  14.321  1.00  0.00     0.293 HD
ENDBRANCH  11  23
ENDBRANCH   1   2
BRANCH   1  25
ATOM     25  C   UNL     1      10.833  17.450  19.410  1.00  0.00     0.339 C 
ATOM     26  C   UNL     1       9.465  18.134  19.668  1.00  0.00     0.214 C 
ATOM     27  O   UNL     1      11.439  16.889  20.573  1.00  0.00    -0.332 OA
ATOM     28  C   UNL     1       9.348  18.502  21.145  1.00  0.00     0.180 C 
ATOM     29  C   UNL     1      10.524  16.242  21.450  1.00  0.00     0.179 C 
ATOM     30  C   UNL     1       9.438  17.221  22.003  1.00  0.00     0.177 C 
BRANCH  26  31
ATOM     31  O   UNL     1       9.349  19.297  18.887  1.00  0.00    -0.384 OA
ATOM     32  H   UNL     1      10.274  19.614  18.710  1.00  0.00     0.211 HD
ENDBRANCH  26  31
BRANCH  28  33
ATOM     33  O   UNL     1       8.135  19.176  21.372  1.00  0.00    -0.387 OA
ATOM     34  H   UNL     1       7.906  19.645  20.525  1.00  0.00     0.211 HD
ENDBRANCH  28  33
BRANCH  29  35
ATOM     35  C   UNL     1       9.978  14.930  20.831  1.00  0.00     0.191 C 
BRANCH  35  36
ATOM     36  O   UNL     1      11.020  14.146  20.310  1.00  0.00    -0.394 OA
ATOM     37  H   UNL     1      11.836  14.369  20.829  1.00  0.00     0.210 HD
ENDBRANCH  35  36
ENDBRANCH  29  35
BRANCH  30  38
ATOM     38  O   UNL     1       8.182  16.586  22.071  1.00  0.00    -0.387 OA
ATOM     39  H   UNL     1       7.897  16.598  23.023  1.00  0.00     0.211 HD
ENDBRANCH  30  38
ENDBRANCH   1  25
TORSDOF 11
ENDMDL
MODEL 2
REMARK VINA RESULT:    -6.543      1.378      2.776
REMARK INTER + INTRA:         -10.448
REMARK INTER:                  -9.693
REMARK INTRA:                  -0.755
REMARK UNBOUND:                -1.037
REMARK SMILES O=c1cc(-c2ccc(O)c(O)c2)oc2cc(O[C@@H]3O[C@H](CO)[C@H](O)[C@H](O)[C@H]3O)cc(O)c12
REMARK SMILES IDX 17 1 16 2 4 3 3 4 13 5 2 6 14 7 1 8 32 9 15 10 30 11 29 12
REMARK SMILES IDX 5 13 6 14 7 15 8 16 12 17 10 18 9 19 11 21 31 23 18 25 27 26
REMARK SMILES IDX 19 27 25 28 20 29 23 30 28 31 26 33 21 35 22 36 24 38
REMARK H PARENT 9 20 11 22 31 24 28 32 26 34 22 37 24 39
REMARK Flexibility Score: inf
ROOT
ATOM      1  O   UNL     1      10.691  16.740  18.377  1.00  0.00    -0.462 OA
ENDROOT
BRANCH   1   2
ATOM      2  C   UNL     1      11.561  16.525  17.295  1.00  0.00     0.130 A 
ATOM      3  C   UNL     1      14.634  18.185  14.053  1.00  0.00     0.138 A 
ATOM      4  C   UNL     1      14.752  16.943  13.419  1.00  0.00     0.100 A 
ATOM      5  O   UNL     1      13.858  18.302  15.125  1.00  0.00    -0.456 OA
ATOM      6  C   UNL     1      14.042  15.847  13.911  1.00  0.00     0.197 A 
ATOM      7  C   UNL     1      13.156  17.295  15.633  1.00  0.00     0.146 A 
ATOM      8  O   UNL     1      14.157  14.750  13.305  1.00  0.00    -0.289 OA
ATOM      9  C   UNL     1      13.216  15.997  15.054  1.00  0.00     0.107 A 
ATOM     10  C   UNL     1      12.348  17.546  16.744  1.00  0.00     0.094 A 
ATOM     11  C   UNL     1      12.444  14.953  15.650  1.00  0.00     0.134 A 
ATOM     12  C   UNL     1      11.626  15.244  16.750  1.00  0.00     0.093 A 
BRANCH   3  13
ATOM     13  C   UNL     1      15.358  19.378  13.557  1.00  0.00     0.021 A 
ATOM     14  C   UNL     1      15.136  19.878  12.263  1.00  0.00     0.016 A 
ATOM     15  C   UNL     1      15.804  21.022  11.822  1.00  0.00     0.051 A 
ATOM     16  C   UNL     1      16.711  21.684  12.655  1.00  0.00     0.157 A 
ATOM     17  C   UNL     1      16.252  20.052  14.403  1.00  0.00     0.062 A 
ATOM     18  C   UNL     1      16.936  21.195  13.965  1.00  0.00     0.158 A 
BRANCH  16  19
ATOM     19  O   UNL     1      17.358  22.811  12.147  1.00  0.00    -0.504 OA
ATOM     20  H   UNL     1      16.884  23.658  11.876  1.00  0.00     0.293 HD
ENDBRANCH  16  19
BRANCH  18  21
ATOM     21  O   UNL     1      17.817  21.812  14.855  1.00  0.00    -0.504 OA
ATOM     22  H   UNL     1      18.772  22.054  14.630  1.00  0.00     0.293 HD
ENDBRANCH  18  21
ENDBRANCH   3  13
BRANCH  11  23
ATOM     23  O   UNL     1      12.441  13.622  15.219  1.00  0.00    -0.507 OA
ATOM     24  H   UNL     1      12.489  13.304  14.266  1.00  0.00     0.293 HD
ENDBRANCH  11  23
ENDBRANCH   1   2
BRANCH   1  25
ATOM     25  C   UNL     1      11.081  16.794  19.751  1.00  0.00     0.339 C 
ATOM     26  C   UNL     1      12.567  17.227  19.855  1.00  0.00     0.214 C 
ATOM     27  O   UNL     1      10.178  17.602  20.503  1.00  0.00    -0.332 OA
ATOM     28  C   UNL     1      12.769  18.059  21.120  1.00  0.00     0.180 C 
ATOM     29  C   UNL     1      10.472  18.993  20.462  1.00  0.00     0.179 C 
ATOM     30  C   UNL     1      11.882  19.321  21.053  1.00  0.00     0.177 C 
BRANCH  26  31
ATOM     31  O   UNL     1      13.400  16.096  19.902  1.00  0.00    -0.384 OA
ATOM     32  H   UNL     1      13.604  15.934  20.861  1.00  0.00     0.211 HD
ENDBRANCH  26  31
BRANCH  28  33
ATOM     33  O   UNL     1      14.126  18.403  21.250  1.00  0.00    -0.387 OA
ATOM     34  H   UNL     1      14.404  18.803  20.383  1.00  0.00     0.211 HD
ENDBRANCH  28  33
BRANCH  29  35
ATOM     35  C   UNL     1      10.188  19.591  19.061  1.00  0.00     0.191 C 
BRANCH  35  36
ATOM     36  O   UNL     1       9.036  19.021  18.492  1.00  0.00    -0.394 OA
ATOM     37  H   UNL     1       8.394  19.763  18.339  1.00  0.00     0.210 HD
ENDBRANCH  35  36
ENDBRANCH  29  35
BRANCH  30  38
ATOM     38  O   UNL     1      12.517  20.329  20.300  1.00  0.00    -0.387 OA
ATOM     39  H   UNL     1      12.457  20.066  19.345  1.00  0.00     0.211 HD
ENDBRANCH  30  38
ENDBRANCH   1  25
TORSDOF 11
ENDMDL
MODEL 3
REMARK VINA RESULT:    -6.399      5.032      7.876
REMARK INTER + INTRA:         -10.241
REMARK INTER:                  -9.266
REMARK INTRA:                  -0.976
REMARK UNBOUND:                -1.037
REMARK SMILES O=c1cc(-c2ccc(O)c(O)c2)oc2cc(O[C@@H]3O[C@H](CO)[C@H](O)[C@H](O)[C@H]3O)cc(O)c12
REMARK SMILES IDX 17 1 16 2 4 3 3 4 13 5 2 6 14 7 1 8 32 9 15 10 30 11 29 12
REMARK SMILES IDX 5 13 6 14 7 15 8 16 12 17 10 18 9 19 11 21 31 23 18 25 27 26
REMARK SMILES IDX 19 27 25 28 20 29 23 30 28 31 26 33 21 35 22 36 24 38
REMARK H PARENT 9 20 11 22 31 24 28 32 26 34 22 37 24 39
REMARK Flexibility Score: inf
ROOT
ATOM      1  O   UNL     1      12.133  15.488  17.922  1.00  0.00    -0.462 OA
ENDROOT
BRANCH   1   2
ATOM      2  C   UNL     1      13.183  14.761  17.335  1.00  0.00     0.130 A 
ATOM      3  C   UNL     1      16.172  11.050  17.354  1.00  0.00     0.138 A 
ATOM      4  C   UNL     1      16.872  11.511  16.232  1.00  0.00     0.100 A 
ATOM      5  O   UNL     1      15.134  11.742  17.809  1.00  0.00    -0.456 OA
ATOM      6  C   UNL     1      16.479  12.700  15.616  1.00  0.00     0.197 A 
ATOM      7  C   UNL     1      14.720  12.881  17.264  1.00  0.00     0.146 A 
ATOM      8  O   UNL     1      17.141  13.095  14.621  1.00  0.00    -0.289 OA
ATOM      9  C   UNL     1      15.370  13.424  16.121  1.00  0.00     0.107 A 
ATOM     10  C   UNL     1      13.636  13.538  17.850  1.00  0.00     0.094 A 
ATOM     11  C   UNL     1      14.873  14.649  15.578  1.00  0.00     0.134 A 
ATOM     12  C   UNL     1      13.798  15.294  16.203  1.00  0.00     0.093 A 
BRANCH   3  13
ATOM     13  C   UNL     1      16.564   9.802  18.048  1.00  0.00     0.021 A 
ATOM     14  C   UNL     1      15.624   9.045  18.768  1.00  0.00     0.016 A 
ATOM     15  C   UNL     1      16.003   7.854  19.391  1.00  0.00     0.051 A 
ATOM     16  C   UNL     1      17.323   7.399  19.316  1.00  0.00     0.157 A 
ATOM     17  C   UNL     1      17.884   9.337  17.954  1.00  0.00     0.062 A 
ATOM     18  C   UNL     1      18.277   8.148  18.586  1.00  0.00     0.158 A 
BRANCH  16  19
ATOM     19  O   UNL     1      17.640   6.210  19.976  1.00  0.00    -0.504 OA
ATOM     20  H   UNL     1      18.544   6.014  20.378  1.00  0.00     0.293 HD
ENDBRANCH  16  19
BRANCH  18  21
ATOM     21  O   UNL     1      19.608   7.748  18.458  1.00  0.00    -0.504 OA
ATOM     22  H   UNL     1      19.897   6.849  18.098  1.00  0.00     0.293 HD
ENDBRANCH  18  21
ENDBRANCH   3  13
BRANCH  11  23
ATOM     23  O   UNL     1      15.380  15.273  14.433  1.00  0.00    -0.507 OA
ATOM     24  H   UNL     1      15.042  15.158  13.492  1.00  0.00     0.293 HD
ENDBRANCH  11  23
ENDBRANCH   1   2
BRANCH   1  25
ATOM     25  C   UNL     1      12.234  16.823  18.422  1.00  0.00     0.339 C 
ATOM     26  C   UNL     1      11.436  17.786  17.505  1.00  0.00     0.214 C 
ATOM     27  O   UNL     1      11.861  16.876  19.798  1.00  0.00    -0.332 OA
ATOM     28  C   UNL     1      10.834  18.910  18.345  1.00  0.00     0.180 C 
ATOM     29  C   UNL     1      10.461  17.000  20.017  1.00  0.00     0.179 C 
ATOM     30  C   UNL     1       9.875  18.310  19.397  1.00  0.00     0.177 C 
BRANCH  26  31
ATOM     31  O   UNL     1      12.282  18.336  16.527  1.00  0.00    -0.384 OA
ATOM     32  H   UNL     1      12.577  19.219  16.871  1.00  0.00     0.211 HD
ENDBRANCH  26  31
BRANCH  28  33
ATOM     33  O   UNL     1      10.161  19.819  17.510  1.00  0.00    -0.387 OA
ATOM     34  H   UNL     1       9.852  20.566  18.090  1.00  0.00     0.211 HD
ENDBRANCH  28  33
BRANCH  29  35
ATOM     35  C   UNL     1       9.712  15.697  19.637  1.00  0.00     0.191 C 
BRANCH  35  36
ATOM     36  O   UNL     1      10.333  14.573  20.207  1.00  0.00    -0.394 OA
ATOM     37  H   UNL     1       9.882  14.406  21.076  1.00  0.00     0.210 HD
ENDBRANCH  35  36
ENDBRANCH  29  35
BRANCH  30  38
ATOM     38  O   UNL     1       8.609  18.071  18.827  1.00  0.00    -0.387 OA
ATOM     39  H   UNL     1       8.645  17.180  18.392  1.00  0.00     0.211 HD
ENDBRANCH  30  38
ENDBRANCH   1  25
TORSDOF 11
ENDMDL
MODEL 4
REMARK VINA RESULT:    -6.378      5.225      7.699
REMARK INTER + INTRA:         -10.211
REMARK INTER:                  -9.383
REMARK INTRA:                  -0.828
REMARK UNBOUND:                -1.037
REMARK SMILES O=c1cc(-c2ccc(O)c(O)c2)oc2cc(O[C@@H]3O[C@H](CO)[C@H](O)[C@H](O)[C@H]3O)cc(O)c12
REMARK SMILES IDX 17 1 16 2 4 3 3 4 13 5 2 6 14 7 1 8 32 9 15 10 30 11 29 12
REMARK SMILES IDX 5 13 6 14 7 15 8 16 12 17 10 18 9 19 11 21 31 23 18 25 27 26
REMARK SMILES IDX 19 27 25 28 20 29 23 30 28 31 26 33 21 35 22 36 24 38
REMARK H PARENT 9 20 11 22 31 24 28 32 26 34 22 37 24 39
REMARK Flexibility Score: inf
ROOT
ATOM      1  O   UNL     1      15.812  10.736  17.268  1.00  0.00    -0.462 OA
ENDROOT
BRANCH   1   2
ATOM      2  C   UNL     1      15.011  11.889  17.216  1.00  0.00     0.130 A 
ATOM      3  C   UNL     1      14.037  16.180  15.385  1.00  0.00     0.138 A 
ATOM      4  C   UNL     1      12.987  16.408  16.283  1.00  0.00     0.100 A 
ATOM      5  O   UNL     1      14.701  15.031  15.432  1.00  0.00    -0.456 OA
ATOM      6  C   UNL     1      12.662  15.432  17.226  1.00  0.00     0.197 A 
ATOM      7  C   UNL     1      14.437  14.070  16.311  1.00  0.00     0.146 A 
ATOM      8  O   UNL     1      11.725  15.677  18.029  1.00  0.00    -0.289 OA
ATOM      9  C   UNL     1      13.387  14.214  17.260  1.00  0.00     0.107 A 
ATOM     10  C   UNL     1      15.226  12.917  16.287  1.00  0.00     0.094 A 
ATOM     11  C   UNL     1      13.149  13.142  18.174  1.00  0.00     0.134 A 
ATOM     12  C   UNL     1      13.973  12.010  18.138  1.00  0.00     0.093 A 
BRANCH   3  13
ATOM     13  C   UNL     1      14.425  17.194  14.378  1.00  0.00     0.021 A 
ATOM     14  C   UNL     1      13.458  17.870  13.615  1.00  0.00     0.016 A 
ATOM     15  C   UNL     1      13.840  18.845  12.692  1.00  0.00     0.051 A 
ATOM     16  C   UNL     1      15.189  19.160  12.504  1.00  0.00     0.157 A 
ATOM     17  C   UNL     1      15.779  17.522  14.207  1.00  0.00     0.062 A 
ATOM     18  C   UNL     1      16.173  18.492  13.274  1.00  0.00     0.158 A 
BRANCH  16  19
ATOM     19  O   UNL     1      15.505  20.131  11.553  1.00  0.00    -0.504 OA
ATOM     20  H   UNL     1      15.889  21.036  11.779  1.00  0.00     0.293 HD
ENDBRANCH  16  19
BRANCH  18  21
ATOM     21  O   UNL     1      17.537  18.764  13.149  1.00  0.00    -0.504 OA
ATOM     22  H   UNL     1      18.253  18.337  13.719  1.00  0.00     0.293 HD
ENDBRANCH  18  21
ENDBRANCH   3  13
BRANCH  11  23
ATOM     23  O   UNL     1      12.124  13.125  19.127  1.00  0.00    -0.507 OA
ATOM     24  H   UNL     1      12.227  13.282  20.115  1.00  0.00     0.293 HD
ENDBRANCH  11  23
ENDBRANCH   1   2
BRANCH   1  25
ATOM     25  C   UNL     1      17.225  10.723  17.478  1.00  0.00     0.339 C 
ATOM     26  C   UNL     1      17.529  10.430  18.970  1.00  0.00     0.214 C 
ATOM     27  O   UNL     1      17.865   9.835  16.562  1.00  0.00    -0.332 OA
ATOM     28  C   UNL     1      18.821   9.624  19.081  1.00  0.00     0.180 C 
ATOM     29  C   UNL     1      17.883   8.478  16.986  1.00  0.00     0.179 C 
ATOM     30  C   UNL     1      18.658   8.284  18.330  1.00  0.00     0.177 C 
BRANCH  26  31
ATOM     31  O   UNL     1      17.668  11.634  19.682  1.00  0.00    -0.384 OA
ATOM     32  H   UNL     1      18.528  11.575  20.174  1.00  0.00     0.211 HD
ENDBRANCH  26  31
BRANCH  28  33
ATOM     33  O   UNL     1      19.133   9.409  20.435  1.00  0.00    -0.387 OA
ATOM     34  H   UNL     1      19.945   9.948  20.630  1.00  0.00     0.211 HD
ENDBRANCH  28  33
BRANCH  29  35
ATOM     35  C   UNL     1      16.466   7.852  16.945  1.00  0.00     0.191 C 
BRANCH  35  36
ATOM     36  O   UNL     1      16.358   6.913  15.906  1.00  0.00    -0.394 OA
ATOM     37  H   UNL     1      16.982   7.203  15.190  1.00  0.00     0.210 HD
ENDBRANCH  35  36
ENDBRANCH  29  35
BRANCH  30  38
ATOM     38  O   UNL     1      18.010   7.339  19.150  1.00  0.00    -0.387 OA
ATOM     39  H   UNL     1      18.616   6.557  19.233  1.00  0.00     0.211 HD
ENDBRANCH  30  38
ENDBRANCH   1  25
TORSDOF 11
ENDMDL
MODEL 5
REMARK VINA RESULT:    -6.353      2.832      8.734
REMARK INTER + INTRA:         -10.175
REMARK INTER:                  -9.350
REMARK INTRA:                  -0.825
REMARK UNBOUND:                -1.037
REMARK SMILES O=c1cc(-c2ccc(O)c(O)c2)oc2cc(O[C@@H]3O[C@H](CO)[C@H](O)[C@H](O)[C@H]3O)cc(O)c12
REMARK SMILES IDX 17 1 16 2 4 3 3 4 13 5 2 6 14 7 1 8 32 9 15 10 30 11 29 12
REMARK SMILES IDX 5 13 6 14 7 15 8 16 12 17 10 18 9 19 11 21 31 23 18 25 27 26
REMARK SMILES IDX 19 27 25 28 20 29 23 30 28 31 26 33 21 35 22 36 24 38
REMARK H PARENT 9 20 11 22 31 24 28 32 26 34 22 37 24 39
REMARK Flexibility Score: inf
ROOT
ATOM      1  O   UNL     1      15.250  16.109  12.945  1.00  0.00    -0.462 OA
ENDROOT
BRANCH   1   2
ATOM      2  C   UNL     1      14.582  15.799  14.141  1.00  0.00     0.130 A 
ATOM      3  C   UNL     1      12.013  17.145  17.923  1.00  0.00     0.138 A 
ATOM      4  C   UNL     1      12.060  15.871  18.503  1.00  0.00     0.100 A 
ATOM      5  O   UNL     1      12.594  17.351  16.747  1.00  0.00    -0.456 OA
ATOM      6  C   UNL     1      12.730  14.839  17.845  1.00  0.00     0.197 A 
ATOM      7  C   UNL     1      13.249  16.406  16.079  1.00  0.00     0.146 A 
ATOM      8  O   UNL     1      12.769  13.712  18.404  1.00  0.00    -0.289 OA
ATOM      9  C   UNL     1      13.347  15.083  16.592  1.00  0.00     0.107 A 
ATOM     10  C   UNL     1      13.850  16.750  14.866  1.00  0.00     0.094 A 
ATOM     11  C   UNL     1      14.059  14.111  15.825  1.00  0.00     0.134 A 
ATOM     12  C   UNL     1      14.669  14.493  14.623  1.00  0.00     0.093 A 
BRANCH   3  13
ATOM     13  C   UNL     1      11.325  18.272  18.592  1.00  0.00     0.021 A 
ATOM     14  C   UNL     1      10.753  19.320  17.850  1.00  0.00     0.016 A 
ATOM     15  C   UNL     1      10.082  20.359  18.495  1.00  0.00     0.051 A 
ATOM     16  C   UNL     1       9.974  20.383  19.888  1.00  0.00     0.157 A 
ATOM     17  C   UNL     1      11.201  18.282  19.990  1.00  0.00     0.062 A 
ATOM     18  C   UNL     1      10.539  19.329  20.647  1.00  0.00     0.158 A 
BRANCH  16  19
ATOM     19  O   UNL     1       9.305  21.460  20.472  1.00  0.00    -0.504 OA
ATOM     20  H   UNL     1       9.710  22.059  21.175  1.00  0.00     0.293 HD
ENDBRANCH  16  19
BRANCH  18  21
ATOM     21  O   UNL     1      10.458  19.279  22.040  1.00  0.00    -0.504 OA
ATOM     22  H   UNL     1      10.244  20.076  22.623  1.00  0.00     0.293 HD
ENDBRANCH  18  21
ENDBRANCH   3  13
BRANCH  11  23
ATOM     23  O   UNL     1      14.196  12.765  16.180  1.00  0.00    -0.507 OA
ATOM     24  H   UNL     1      14.781  12.084  15.724  1.00  0.00     0.293 HD
ENDBRANCH  11  23
ENDBRANCH   1   2
BRANCH   1  25
ATOM     25  C   UNL     1      16.379  16.978  12.833  1.00  0.00     0.339 C 
ATOM     26  C   UNL     1      17.306  16.792  14.063  1.00  0.00     0.214 C 
ATOM     27  O   UNL     1      17.029  16.803  11.575  1.00  0.00    -0.332 OA
ATOM     28  C   UNL     1      18.761  16.989  13.641  1.00  0.00     0.180 C 
ATOM     29  C   UNL     1      17.967  15.734  11.549  1.00  0.00     0.179 C 
ATOM     30  C   UNL     1      19.133  15.940  12.571  1.00  0.00     0.177 C 
BRANCH  26  31
ATOM     31  O   UNL     1      16.979  17.726  15.061  1.00  0.00    -0.384 OA
ATOM     32  H   UNL     1      16.379  18.395  14.639  1.00  0.00     0.211 HD
ENDBRANCH  26  31
BRANCH  28  33
ATOM     33  O   UNL     1      19.599  16.882  14.765  1.00  0.00    -0.387 OA
ATOM     34  H   UNL     1      19.055  16.474  15.490  1.00  0.00     0.211 HD
ENDBRANCH  28  33
BRANCH  29  35
ATOM     35  C   UNL     1      17.259  14.358  11.624  1.00  0.00     0.191 C 
BRANCH  35  36
ATOM     36  O   UNL     1      17.952  13.392  10.875  1.00  0.00    -0.394 OA
ATOM     37  H   UNL     1      18.866  13.747  10.724  1.00  0.00     0.210 HD
ENDBRANCH  35  36
ENDBRANCH  29  35
BRANCH  30  38
ATOM     38  O   UNL     1      19.485  14.720  13.181  1.00  0.00    -0.387 OA
ATOM     39  H   UNL     1      20.477  14.670  13.189  1.00  0.00     0.211 HD
ENDBRANCH  30  38
ENDBRANCH   1  25
TORSDOF 11
ENDMDL
MODEL 6
REMARK VINA RESULT:    -6.346      5.498      7.778
REMARK INTER + INTRA:         -10.165
REMARK INTER:                  -9.330
REMARK INTRA:                  -0.835
REMARK UNBOUND:                -1.037
REMARK SMILES O=c1cc(-c2ccc(O)c(O)c2)oc2cc(O[C@@H]3O[C@H](CO)[C@H](O)[C@H](O)[C@H]3O)cc(O)c12
REMARK SMILES IDX 17 1 16 2 4 3 3 4 13 5 2 6 14 7 1 8 32 9 15 10 30 11 29 12
REMARK SMILES IDX 5 13 6 14 7 15 8 16 12 17 10 18 9 19 11 21 31 23 18 25 27 26
REMARK SMILES IDX 19 27 25 28 20 29 23 30 28 31 26 33 21 35 22 36 24 38
REMARK H PARENT 9 20 11 22 31 24 28 32 26 34 22 37 24 39
REMARK Flexibility Score: inf
ROOT
ATOM      1  O   UNL     1      16.712  10.910  17.173  1.00  0.00    -0.462 OA
ENDROOT
BRANCH   1   2
ATOM      2  C   UNL     1      15.706  11.865  16.955  1.00  0.00     0.130 A 
ATOM      3  C   UNL     1      14.224  15.953  15.004  1.00  0.00     0.138 A 
ATOM      4  C   UNL     1      12.979  15.894  15.641  1.00  0.00     0.100 A 
ATOM      5  O   UNL     1      15.101  14.973  15.187  1.00  0.00    -0.456 OA
ATOM      6  C   UNL     1      12.681  14.813  16.472  1.00  0.00     0.197 A 
ATOM      7  C   UNL     1      14.872  13.924  15.970  1.00  0.00     0.146 A 
ATOM      8  O   UNL     1      11.560  14.801  17.043  1.00  0.00    -0.289 OA
ATOM      9  C   UNL     1      13.635  13.780  16.656  1.00  0.00     0.107 A 
ATOM     10  C   UNL     1      15.884  12.972  16.112  1.00  0.00     0.094 A 
ATOM     11  C   UNL     1      13.447  12.626  17.478  1.00  0.00     0.134 A 
ATOM     12  C   UNL     1      14.490  11.701  17.617  1.00  0.00     0.093 A 
BRANCH   3  13
ATOM     13  C   UNL     1      14.589  17.088  14.126  1.00  0.00     0.021 A 
ATOM     14  C   UNL     1      13.607  17.819  13.435  1.00  0.00     0.016 A 
ATOM     15  C   UNL     1      13.965  18.905  12.635  1.00  0.00     0.051 A 
ATOM     16  C   UNL     1      15.305  19.280  12.500  1.00  0.00     0.157 A 
ATOM     17  C   UNL     1      15.933  17.475  14.008  1.00  0.00     0.062 A 
ATOM     18  C   UNL     1      16.303  18.558  13.198  1.00  0.00     0.158 A 
BRANCH  16  19
ATOM     19  O   UNL     1      15.597  20.365  11.671  1.00  0.00    -0.504 OA
ATOM     20  H   UNL     1      16.501  20.527  11.255  1.00  0.00     0.293 HD
ENDBRANCH  16  19
BRANCH  18  21
ATOM     21  O   UNL     1      17.658  18.884  13.120  1.00  0.00    -0.504 OA
ATOM     22  H   UNL     1      18.339  18.351  12.597  1.00  0.00     0.293 HD
ENDBRANCH  18  21
ENDBRANCH   3  13
BRANCH  11  23
ATOM     23  O   UNL     1      12.268  12.330  18.171  1.00  0.00    -0.507 OA
ATOM     24  H   UNL     1      11.540  11.705  17.869  1.00  0.00     0.293 HD
ENDBRANCH  11  23
ENDBRANCH   1   2
BRANCH   1  25
ATOM     25  C   UNL     1      16.613   9.798  18.067  1.00  0.00     0.339 C 
ATOM     26  C   UNL     1      17.737   8.776  17.756  1.00  0.00     0.214 C 
ATOM     27  O   UNL     1      16.578  10.241  19.423  1.00  0.00    -0.332 OA
ATOM     28  C   UNL     1      18.187   8.102  19.050  1.00  0.00     0.180 C 
ATOM     29  C   UNL     1      17.862  10.465  19.993  1.00  0.00     0.179 C 
ATOM     30  C   UNL     1      18.735   9.169  20.022  1.00  0.00     0.177 C 
BRANCH  26  31
ATOM     31  O   UNL     1      17.269   7.800  16.859  1.00  0.00    -0.384 OA
ATOM     32  H   UNL     1      17.822   6.989  17.009  1.00  0.00     0.211 HD
ENDBRANCH  26  31
BRANCH  28  33
ATOM     33  O   UNL     1      19.163   7.131  18.765  1.00  0.00    -0.387 OA
ATOM     34  H   UNL     1      18.690   6.257  18.712  1.00  0.00     0.211 HD
ENDBRANCH  28  33
BRANCH  29  35
ATOM     35  C   UNL     1      18.547  11.709  19.373  1.00  0.00     0.191 C 
BRANCH  35  36
ATOM     36  O   UNL     1      19.516  12.238  20.242  1.00  0.00    -0.394 OA
ATOM     37  H   UNL     1      20.319  12.435  19.692  1.00  0.00     0.210 HD
ENDBRANCH  35  36
ENDBRANCH  29  35
BRANCH  30  38
ATOM     38  O   UNL     1      20.079   9.464  19.720  1.00  0.00    -0.387 OA
ATOM     39  H   UNL     1      20.077  10.205  19.059  1.00  0.00     0.211 HD
ENDBRANCH  30  38
ENDBRANCH   1  25
TORSDOF 11
ENDMDL
MODEL 7
REMARK VINA RESULT:    -6.229      4.281      8.266
REMARK INTER + INTRA:          -9.996
REMARK INTER:                  -9.001
REMARK INTRA:                  -0.995
REMARK UNBOUND:                -1.037
REMARK SMILES O=c1cc(-c2ccc(O)c(O)c2)oc2cc(O[C@@H]3O[C@H](CO)[C@H](O)[C@H](O)[C@H]3O)cc(O)c12
REMARK SMILES IDX 17 1 16 2 4 3 3 4 13 5 2 6 14 7 1 8 32 9 15 10 30 11 29 12
REMARK SMILES IDX 5 13 6 14 7 15 8 16 12 17 10 18 9 19 11 21 31 23 18 25 27 26
REMARK SMILES IDX 19 27 25 28 20 29 23 30 28 31 26 33 21 35 22 36 24 38
REMARK H PARENT 9 20 11 22 31 24 28 32 26 34 22 37 24 39
REMARK Flexibility Score: inf
ROOT
ATOM      1  O   UNL     1      16.096  12.039  16.282  1.00  0.00    -0.462 OA
ENDROOT
BRANCH   1   2
ATOM      2  C   UNL     1      15.538  13.290  15.970  1.00  0.00     0.130 A 
ATOM      3  C   UNL     1      12.376  16.751  16.831  1.00  0.00     0.138 A 
ATOM      4  C   UNL     1      12.751  17.479  15.696  1.00  0.00     0.100 A 
ATOM      5  O   UNL     1      13.003  15.615  17.117  1.00  0.00    -0.456 OA
ATOM      6  C   UNL     1      13.768  16.996  14.872  1.00  0.00     0.197 A 
ATOM      7  C   UNL     1      13.973  15.106  16.366  1.00  0.00     0.146 A 
ATOM      8  O   UNL     1      14.067  17.667  13.850  1.00  0.00    -0.289 OA
ATOM      9  C   UNL     1      14.420  15.779  15.195  1.00  0.00     0.107 A 
ATOM     10  C   UNL     1      14.536  13.886  16.748  1.00  0.00     0.094 A 
ATOM     11  C   UNL     1      15.472  15.184  14.432  1.00  0.00     0.134 A 
ATOM     12  C   UNL     1      15.999  13.949  14.831  1.00  0.00     0.093 A 
BRANCH   3  13
ATOM     13  C   UNL     1      11.294  17.219  17.726  1.00  0.00     0.021 A 
ATOM     14  C   UNL     1      10.614  16.328  18.574  1.00  0.00     0.016 A 
ATOM     15  C   UNL     1       9.616  16.791  19.434  1.00  0.00     0.051 A 
ATOM     16  C   UNL     1       9.271  18.145  19.461  1.00  0.00     0.157 A 
ATOM     17  C   UNL     1      10.963  18.582  17.766  1.00  0.00     0.062 A 
ATOM     18  C   UNL     1       9.955  19.055  18.618  1.00  0.00     0.158 A 
BRANCH  16  19
ATOM     19  O   UNL     1       8.253  18.541  20.331  1.00  0.00    -0.504 OA
ATOM     20  H   UNL     1       7.393  18.030  20.460  1.00  0.00     0.293 HD
ENDBRANCH  16  19
BRANCH  18  21
ATOM     21  O   UNL     1       9.672  20.422  18.601  1.00  0.00    -0.504 OA
ATOM     22  H   UNL     1      10.268  21.128  19.009  1.00  0.00     0.293 HD
ENDBRANCH  18  21
ENDBRANCH   3  13
BRANCH  11  23
ATOM     23  O   UNL     1      16.043  15.753  13.288  1.00  0.00    -0.507 OA
ATOM     24  H   UNL     1      16.872  15.436  12.816  1.00  0.00     0.293 HD
ENDBRANCH  11  23
ENDBRANCH   1   2
BRANCH   1  25
ATOM     25  C   UNL     1      16.371  11.566  17.603  1.00  0.00     0.339 C 
ATOM     26  C   UNL     1      15.334  10.482  17.996  1.00  0.00     0.214 C 
ATOM     27  O   UNL     1      17.730  11.150  17.718  1.00  0.00    -0.332 OA
ATOM     28  C   UNL     1      15.998   9.440  18.893  1.00  0.00     0.180 C 
ATOM     29  C   UNL     1      17.967   9.814  17.291  1.00  0.00     0.179 C 
ATOM     30  C   UNL     1      17.161   8.769  18.130  1.00  0.00     0.177 C 
BRANCH  26  31
ATOM     31  O   UNL     1      14.255  11.068  18.680  1.00  0.00    -0.384 OA
ATOM     32  H   UNL     1      14.045  11.915  18.206  1.00  0.00     0.211 HD
ENDBRANCH  26  31
BRANCH  28  33
ATOM     33  O   UNL     1      15.047   8.489  19.301  1.00  0.00    -0.387 OA
ATOM     34  H   UNL     1      14.707   8.052  18.475  1.00  0.00     0.211 HD
ENDBRANCH  28  33
BRANCH  29  35
ATOM     35  C   UNL     1      17.825   9.678  15.754  1.00  0.00     0.191 C 
BRANCH  35  36
ATOM     36  O   UNL     1      18.370  10.793  15.095  1.00  0.00    -0.394 OA
ATOM     37  H   UNL     1      17.742  11.030  14.364  1.00  0.00     0.210 HD
ENDBRANCH  35  36
ENDBRANCH  29  35
BRANCH  30  38
ATOM     38  O   UNL     1      16.675   7.735  17.306  1.00  0.00    -0.387 OA
ATOM     39  H   UNL     1      15.711   7.620  17.515  1.00  0.00     0.211 HD
ENDBRANCH  30  38
ENDBRANCH   1  25
TORSDOF 11
ENDMDL
MODEL 8
REMARK VINA RESULT:    -6.228      5.367      8.810
REMARK INTER + INTRA:          -9.996
REMARK INTER:                  -9.091
REMARK INTRA:                  -0.905
REMARK UNBOUND:                -1.037
REMARK SMILES O=c1cc(-c2ccc(O)c(O)c2)oc2cc(O[C@@H]3O[C@H](CO)[C@H](O)[C@H](O)[C@H]3O)cc(O)c12
REMARK SMILES IDX 17 1 16 2 4 3 3 4 13 5 2 6 14 7 1 8 32 9 15 10 30 11 29 12
REMARK SMILES IDX 5 13 6 14 7 15 8 16 12 17 10 18 9 19 11 21 31 23 18 25 27 26
REMARK SMILES IDX 19 27 25 28 20 29 23 30 28 31 26 33 21 35 22 36 24 38
REMARK H PARENT 9 20 11 22 31 24 28 32 26 34 22 37 24 39
REMARK Flexibility Score: inf
ROOT
ATOM      1  O   UNL     1      16.424  11.184  17.530  1.00  0.00    -0.462 OA
ENDROOT
BRANCH   1   2
ATOM      2  C   UNL     1      15.949  12.374  16.954  1.00  0.00     0.130 A 
ATOM      3  C   UNL     1      12.884  16.023  16.906  1.00  0.00     0.138 A 
ATOM      4  C   UNL     1      13.385  16.525  15.699  1.00  0.00     0.100 A 
ATOM      5  O   UNL     1      13.434  14.939  17.442  1.00  0.00    -0.456 OA
ATOM      6  C   UNL     1      14.444  15.873  15.067  1.00  0.00     0.197 A 
ATOM      7  C   UNL     1      14.440  14.276  16.882  1.00  0.00     0.146 A 
ATOM      8  O   UNL     1      14.856  16.341  13.974  1.00  0.00    -0.289 OA
ATOM      9  C   UNL     1      15.012  14.715  15.656  1.00  0.00     0.107 A 
ATOM     10  C   UNL     1      14.914  13.129  17.522  1.00  0.00     0.094 A 
ATOM     11  C   UNL     1      16.096  13.963  15.107  1.00  0.00     0.134 A 
ATOM     12  C   UNL     1      16.533  12.804  15.763  1.00  0.00     0.093 A 
BRANCH   3  13
ATOM     13  C   UNL     1      11.753  16.675  17.604  1.00  0.00     0.021 A 
ATOM     14  C   UNL     1      10.985  15.979  18.554  1.00  0.00     0.016 A 
ATOM     15  C   UNL     1       9.941  16.618  19.225  1.00  0.00     0.051 A 
ATOM     16  C   UNL     1       9.636  17.956  18.959  1.00  0.00     0.157 A 
ATOM     17  C   UNL     1      11.462  18.024  17.350  1.00  0.00     0.062 A 
ATOM     18  C   UNL     1      10.408  18.670  18.011  1.00  0.00     0.158 A 
BRANCH  16  19
ATOM     19  O   UNL     1       8.568  18.530  19.652  1.00  0.00    -0.504 OA
ATOM     20  H   UNL     1       8.654  18.965  20.557  1.00  0.00     0.293 HD
ENDBRANCH  16  19
BRANCH  18  21
ATOM     21  O   UNL     1      10.168  20.012  17.705  1.00  0.00    -0.504 OA
ATOM     22  H   UNL     1      10.380  20.780  18.325  1.00  0.00     0.293 HD
ENDBRANCH  18  21
ENDBRANCH   3  13
BRANCH  11  23
ATOM     23  O   UNL     1      16.785  14.302  13.937  1.00  0.00    -0.507 OA
ATOM     24  H   UNL     1      17.624  14.853  13.878  1.00  0.00     0.293 HD
ENDBRANCH  11  23
ENDBRANCH   1   2
BRANCH   1  25
ATOM     25  C   UNL     1      17.801  10.831  17.677  1.00  0.00     0.339 C 
ATOM     26  C   UNL     1      18.069  10.366  19.132  1.00  0.00     0.214 C 
ATOM     27  O   UNL     1      18.191   9.891  16.677  1.00  0.00    -0.332 OA
ATOM     28  C   UNL     1      19.142   9.279  19.132  1.00  0.00     0.180 C 
ATOM     29  C   UNL     1      17.906   8.538  17.010  1.00  0.00     0.179 C 
ATOM     30  C   UNL     1      18.651   8.072  18.303  1.00  0.00     0.177 C 
BRANCH  26  31
ATOM     31  O   UNL     1      18.503  11.450  19.915  1.00  0.00    -0.384 OA
ATOM     32  H   UNL     1      18.012  12.250  19.589  1.00  0.00     0.211 HD
ENDBRANCH  26  31
BRANCH  28  33
ATOM     33  O   UNL     1      19.431   8.898  20.454  1.00  0.00    -0.387 OA
ATOM     34  H   UNL     1      19.805   9.701  20.907  1.00  0.00     0.211 HD
ENDBRANCH  28  33
BRANCH  29  35
ATOM     35  C   UNL     1      16.382   8.259  16.989  1.00  0.00     0.191 C 
BRANCH  35  36
ATOM     36  O   UNL     1      16.107   6.989  16.456  1.00  0.00    -0.394 OA
ATOM     37  H   UNL     1      15.432   7.118  15.740  1.00  0.00     0.210 HD
ENDBRANCH  35  36
ENDBRANCH  29  35
BRANCH  30  38
ATOM     38  O   UNL     1      17.824   7.243  19.086  1.00  0.00    -0.387 OA
ATOM     39  H   UNL     1      18.008   6.305  18.816  1.00  0.00     0.211 HD
ENDBRANCH  30  38
ENDBRANCH   1  25
TORSDOF 11
ENDMDL
MODEL 9
REMARK VINA RESULT:    -6.192      7.060     10.512
REMARK INTER + INTRA:          -9.943
REMARK INTER:                  -8.914
REMARK INTRA:                  -1.030
REMARK UNBOUND:                -1.037
REMARK SMILES O=c1cc(-c2ccc(O)c(O)c2)oc2cc(O[C@@H]3O[C@H](CO)[C@H](O)[C@H](O)[C@H]3O)cc(O)c12
REMARK SMILES IDX 17 1 16 2 4 3 3 4 13 5 2 6 14 7 1 8 32 9 15 10 30 11 29 12
REMARK SMILES IDX 5 13 6 14 7 15 8 16 12 17 10 18 9 19 11 21 31 23 18 25 27 26
REMARK SMILES IDX 19 27 25 28 20 29 23 30 28 31 26 33 21 35 22 36 24 38
REMARK H PARENT 9 20 11 22 31 24 28 32 26 34 22 37 24 39
REMARK Flexibility Score: inf
ROOT
ATOM      1  O   UNL     1      17.341  18.127  25.534  1.00  0.00    -0.462 OA
ENDROOT
BRANCH   1   2
ATOM      2  C   UNL     1      15.952  18.008  25.366  1.00  0.00     0.130 A 
ATOM      3  C   UNL     1      12.038  18.533  22.698  1.00  0.00     0.138 A 
ATOM      4  C   UNL     1      11.185  18.148  23.739  1.00  0.00     0.100 A 
ATOM      5  O   UNL     1      13.351  18.543  22.897  1.00  0.00    -0.456 OA
ATOM      6  C   UNL     1      11.724  17.795  24.977  1.00  0.00     0.197 A 
ATOM      7  C   UNL     1      13.918  18.222  24.055  1.00  0.00     0.146 A 
ATOM      8  O   UNL     1      10.927  17.472  25.896  1.00  0.00    -0.289 OA
ATOM      9  C   UNL     1      13.129  17.818  25.167  1.00  0.00     0.107 A 
ATOM     10  C   UNL     1      15.308  18.303  24.156  1.00  0.00     0.094 A 
ATOM     11  C   UNL     1      13.797  17.478  26.384  1.00  0.00     0.134 A 
ATOM     12  C   UNL     1      15.192  17.592  26.459  1.00  0.00     0.093 A 
BRANCH   3  13
ATOM     13  C   UNL     1      11.509  18.929  21.373  1.00  0.00     0.021 A 
ATOM     14  C   UNL     1      12.248  19.760  20.513  1.00  0.00     0.016 A 
ATOM     15  C   UNL     1      11.748  20.098  19.254  1.00  0.00     0.051 A 
ATOM     16  C   UNL     1      10.502  19.625  18.831  1.00  0.00     0.157 A 
ATOM     17  C   UNL     1      10.268  18.435  20.942  1.00  0.00     0.062 A 
ATOM     18  C   UNL     1       9.753  18.780  19.684  1.00  0.00     0.158 A 
BRANCH  16  19
ATOM     19  O   UNL     1      10.052  20.015  17.568  1.00  0.00    -0.504 OA
ATOM     20  H   UNL     1       9.162  19.745  17.180  1.00  0.00     0.293 HD
ENDBRANCH  16  19
BRANCH  18  21
ATOM     21  O   UNL     1       8.509  18.260  19.322  1.00  0.00    -0.504 OA
ATOM     22  H   UNL     1       7.841  18.744  18.739  1.00  0.00     0.293 HD
ENDBRANCH  18  21
ENDBRANCH   3  13
BRANCH  11  23
ATOM     23  O   UNL     1      13.157  17.021  27.540  1.00  0.00    -0.507 OA
ATOM     24  H   UNL     1      12.743  17.591  28.258  1.00  0.00     0.293 HD
ENDBRANCH  11  23
ENDBRANCH   1   2
BRANCH   1  25
ATOM     25  C   UNL     1      18.291  18.259  24.474  1.00  0.00     0.339 C 
ATOM     26  C   UNL     1      18.838  19.710  24.440  1.00  0.00     0.214 C 
ATOM     27  O   UNL     1      19.298  17.253  24.569  1.00  0.00    -0.332 OA
ATOM     28  C   UNL     1      20.297  19.697  23.991  1.00  0.00     0.180 C 
ATOM     29  C   UNL     1      20.369  17.584  25.444  1.00  0.00     0.179 C 
ATOM     30  C   UNL     1      21.135  18.868  24.989  1.00  0.00     0.177 C 
BRANCH  26  31
ATOM     31  O   UNL     1      18.082  20.492  23.550  1.00  0.00    -0.384 OA
ATOM     32  H   UNL     1      17.310  19.935  23.268  1.00  0.00     0.211 HD
ENDBRANCH  26  31
BRANCH  28  33
ATOM     33  O   UNL     1      20.778  21.014  23.900  1.00  0.00    -0.387 OA
ATOM     34  H   UNL     1      21.745  20.951  23.673  1.00  0.00     0.211 HD
ENDBRANCH  28  33
BRANCH  29  35
ATOM     35  C   UNL     1      19.912  17.577  26.925  1.00  0.00     0.191 C 
BRANCH  35  36
ATOM     36  O   UNL     1      20.994  17.330  27.787  1.00  0.00    -0.394 OA
ATOM     37  H   UNL     1      21.304  16.406  27.600  1.00  0.00     0.210 HD
ENDBRANCH  35  36
ENDBRANCH  29  35
BRANCH  30  38
ATOM     38  O   UNL     1      21.495  19.656  26.100  1.00  0.00    -0.387 OA
ATOM     39  H   UNL     1      21.302  20.602  25.866  1.00  0.00     0.211 HD
ENDBRANCH  30  38
ENDBRANCH   1  25
TORSDOF 11
ENDMDL
