MODEL 1
REMARK VINA RESULT:    -4.115      0.000      0.000
REMARK INTER + INTRA:          -6.918
REMARK INTER:                  -5.919
REMARK INTRA:                  -0.999
REMARK UNBOUND:                -0.999
REMARK SMILES O=C(CO)[C@@H](O)[C@H](O)[C@@H](O)CO
REMARK SMILES IDX 7 1 9 2 11 3 12 4 10 6 5 8 2 9 1 10 3 11 4 12 6 14 8 16
REMARK H PARENT 12 5 10 7 4 13 6 15 8 17
REMARK Flexibility Score: inf
ROOT
ATOM      1  C   UNL     1       4.341  11.402  24.155  1.00  0.00     0.181 C 
ENDROOT
BRANCH   1   2
ATOM      2  C   UNL     1       2.881  11.880  24.365  1.00  0.00     0.171 C 
BRANCH   2   3
ATOM      3  C   UNL     1       1.895  10.725  24.628  1.00  0.00     0.190 C 
BRANCH   3   4
ATOM      4  O   UNL     1       1.710   9.966  23.464  1.00  0.00    -0.394 OA
ATOM      5  H   UNL     1       2.168   9.098  23.614  1.00  0.00     0.210 HD
ENDBRANCH   3   4
ENDBRANCH   2   3
BRANCH   2   6
ATOM      6  O   UNL     1       2.465  12.621  23.244  1.00  0.00    -0.388 OA
ATOM      7  H   UNL     1       2.450  13.575  23.516  1.00  0.00     0.211 HD
ENDBRANCH   2   6
ENDBRANCH   1   2
BRANCH   1   8
ATOM      8  C   UNL     1       5.364  12.559  24.040  1.00  0.00     0.214 C 
BRANCH   8   9
ATOM      9  C   UNL     1       5.890  12.662  22.627  1.00  0.00     0.189 C 
ATOM     10  O   UNL     1       6.723  11.860  22.228  1.00  0.00    -0.294 OA
BRANCH   9  11
ATOM     11  C   UNL     1       5.406  13.747  21.709  1.00  0.00     0.234 C 
BRANCH  11  12
ATOM     12  O   UNL     1       5.866  14.986  22.169  1.00  0.00    -0.388 OA
ATOM     13  H   UNL     1       5.267  15.240  22.919  1.00  0.00     0.211 HD
ENDBRANCH  11  12
ENDBRANCH   9  11
ENDBRANCH   8   9
BRANCH   8  14
ATOM     14  O   UNL     1       4.763  13.778  24.399  1.00  0.00    -0.382 OA
ATOM     15  H   UNL     1       4.959  14.421  23.667  1.00  0.00     0.211 HD
ENDBRANCH   8  14
ENDBRANCH   1   8
BRANCH   1  16
ATOM     16  O   UNL     1       4.426  10.580  23.017  1.00  0.00    -0.387 OA
ATOM     17  H   UNL     1       4.656  11.169  22.251  1.00  0.00     0.211 HD
ENDBRANCH   1  16
TORSDOF 10
ENDMDL
MODEL 2
REMARK VINA RESULT:    -4.096      2.181      4.017
REMARK INTER + INTRA:          -6.892
REMARK INTER:                  -5.434
REMARK INTRA:                  -1.458
REMARK UNBOUND:                -0.999
REMARK SMILES O=C(CO)[C@@H](O)[C@H](O)[C@@H](O)CO
REMARK SMILES IDX 7 1 9 2 11 3 12 4 10 6 5 8 2 9 1 10 3 11 4 12 6 14 8 16
REMARK H PARENT 12 5 10 7 4 13 6 15 8 17
REMARK Flexibility Score: inf
ROOT
ATOM      1  C   UNL     1       6.216  12.314  22.881  1.00  0.00     0.181 C 
ENDROOT
BRANCH   1   2
ATOM      2  C   UNL     1       5.000  13.270  22.971  1.00  0.00     0.171 C 
BRANCH   2   3
ATOM      3  C   UNL     1       5.077  14.448  21.981  1.00  0.00     0.190 C 
BRANCH   3   4
ATOM      4  O   UNL     1       6.090  14.227  21.037  1.00  0.00    -0.394 OA
ATOM      5  H   UNL     1       6.829  13.768  21.516  1.00  0.00     0.210 HD
ENDBRANCH   3   4
ENDBRANCH   2   3
BRANCH   2   6
ATOM      6  O   UNL     1       4.881  13.755  24.286  1.00  0.00    -0.388 OA
ATOM      7  H   UNL     1       5.308  13.087  24.882  1.00  0.00     0.211 HD
ENDBRANCH   2   6
ENDBRANCH   1   2
BRANCH   1   8
ATOM      8  C   UNL     1       5.985  10.946  23.569  1.00  0.00     0.214 C 
BRANCH   8   9
ATOM      9  C   UNL     1       7.016  10.717  24.651  1.00  0.00     0.189 C 
ATOM     10  O   UNL     1       8.134  10.321  24.352  1.00  0.00    -0.294 OA
BRANCH   9  11
ATOM     11  C   UNL     1       6.677  10.963  26.092  1.00  0.00     0.234 C 
BRANCH  11  12
ATOM     12  O   UNL     1       6.465  12.332  26.294  1.00  0.00    -0.388 OA
ATOM     13  H   UNL     1       7.367  12.742  26.362  1.00  0.00     0.211 HD
ENDBRANCH  11  12
ENDBRANCH   9  11
ENDBRANCH   8   9
BRANCH   8  14
ATOM     14  O   UNL     1       4.701  10.898  24.138  1.00  0.00    -0.382 OA
ATOM     15  H   UNL     1       4.377  11.836  24.195  1.00  0.00     0.211 HD
ENDBRANCH   8  14
ENDBRANCH   1   8
BRANCH   1  16
ATOM     16  O   UNL     1       7.360  12.929  23.421  1.00  0.00    -0.387 OA
ATOM     17  H   UNL     1       7.167  13.111  24.378  1.00  0.00     0.211 HD
ENDBRANCH   1  16
TORSDOF 10
ENDMDL
MODEL 3
REMARK VINA RESULT:    -4.036      2.496      4.036
REMARK INTER + INTRA:          -6.805
REMARK INTER:                  -5.742
REMARK INTRA:                  -1.064
REMARK UNBOUND:                -0.999
REMARK SMILES O=C(CO)[C@@H](O)[C@H](O)[C@@H](O)CO
REMARK SMILES IDX 7 1 9 2 11 3 12 4 10 6 5 8 2 9 1 10 3 11 4 12 6 14 8 16
REMARK H PARENT 12 5 10 7 4 13 6 15 8 17
REMARK Flexibility Score: inf
ROOT
ATOM      1  C   UNL     1       6.014  12.108  22.802  1.00  0.00     0.181 C 
ENDROOT
BRANCH   1   2
ATOM      2  C   UNL     1       4.862  13.121  23.024  1.00  0.00     0.171 C 
BRANCH   2   3
ATOM      3  C   UNL     1       4.808  14.226  21.951  1.00  0.00     0.190 C 
BRANCH   3   4
ATOM      4  O   UNL     1       5.901  15.093  22.086  1.00  0.00    -0.394 OA
ATOM      5  H   UNL     1       6.590  14.786  21.439  1.00  0.00     0.210 HD
ENDBRANCH   3   4
ENDBRANCH   2   3
BRANCH   2   6
ATOM      6  O   UNL     1       4.984  13.698  24.300  1.00  0.00    -0.388 OA
ATOM      7  H   UNL     1       4.801  12.981  24.962  1.00  0.00     0.211 HD
ENDBRANCH   2   6
ENDBRANCH   1   2
BRANCH   1   8
ATOM      8  C   UNL     1       6.933  11.931  24.036  1.00  0.00     0.214 C 
BRANCH   8   9
ATOM      9  C   UNL     1       7.561  10.555  24.034  1.00  0.00     0.189 C 
ATOM     10  O   UNL     1       6.871   9.570  24.254  1.00  0.00    -0.294 OA
BRANCH   9  11
ATOM     11  C   UNL     1       9.030  10.388  23.773  1.00  0.00     0.234 C 
BRANCH  11  12
ATOM     12  O   UNL     1       9.344  10.927  22.520  1.00  0.00    -0.388 OA
ATOM     13  H   UNL     1       8.698  10.528  21.880  1.00  0.00     0.211 HD
ENDBRANCH  11  12
ENDBRANCH   9  11
ENDBRANCH   8   9
BRANCH   8  14
ATOM     14  O   UNL     1       7.947  12.902  24.032  1.00  0.00    -0.382 OA
ATOM     15  H   UNL     1       8.812  12.414  24.002  1.00  0.00     0.211 HD
ENDBRANCH   8  14
ENDBRANCH   1   8
BRANCH   1  16
ATOM     16  O   UNL     1       6.785  12.483  21.687  1.00  0.00    -0.387 OA
ATOM     17  H   UNL     1       7.018  11.648  21.202  1.00  0.00     0.211 HD
ENDBRANCH   1  16
TORSDOF 10
ENDMDL
MODEL 4
REMARK VINA RESULT:    -3.934      0.998      1.542
REMARK INTER + INTRA:          -6.659
REMARK INTER:                  -5.829
REMARK INTRA:                  -0.830
REMARK UNBOUND:                -0.999
REMARK SMILES O=C(CO)[C@@H](O)[C@H](O)[C@@H](O)CO
REMARK SMILES IDX 7 1 9 2 11 3 12 4 10 6 5 8 2 9 1 10 3 11 4 12 6 14 8 16
REMARK H PARENT 12 5 10 7 4 13 6 15 8 17
REMARK Flexibility Score: inf
ROOT
ATOM      1  C   UNL     1       4.359  11.272  24.159  1.00  0.00     0.181 C 
ENDROOT
BRANCH   1   2
ATOM      2  C   UNL     1       3.015  12.034  24.283  1.00  0.00     0.171 C 
BRANCH   2   3
ATOM      3  C   UNL     1       1.808  11.105  24.516  1.00  0.00     0.190 C 
BRANCH   3   4
ATOM      4  O   UNL     1       1.712  10.160  23.485  1.00  0.00    -0.394 OA
ATOM      5  H   UNL     1       1.730   9.265  23.915  1.00  0.00     0.210 HD
ENDBRANCH   3   4
ENDBRANCH   2   3
BRANCH   2   6
ATOM      6  O   UNL     1       2.807  12.810  23.129  1.00  0.00    -0.388 OA
ATOM      7  H   UNL     1       3.669  12.834  22.637  1.00  0.00     0.211 HD
ENDBRANCH   2   6
ENDBRANCH   1   2
BRANCH   1   8
ATOM      8  C   UNL     1       5.600  12.198  24.144  1.00  0.00     0.214 C 
BRANCH   8   9
ATOM      9  C   UNL     1       6.229  12.218  22.769  1.00  0.00     0.189 C 
ATOM     10  O   UNL     1       5.754  12.924  21.892  1.00  0.00    -0.294 OA
BRANCH   9  11
ATOM     11  C   UNL     1       7.430  11.369  22.468  1.00  0.00     0.234 C 
BRANCH  11  12
ATOM     12  O   UNL     1       8.492  12.190  22.069  1.00  0.00    -0.388 OA
ATOM     13  H   UNL     1       9.309  11.629  22.126  1.00  0.00     0.211 HD
ENDBRANCH  11  12
ENDBRANCH   9  11
ENDBRANCH   8   9
BRANCH   8  14
ATOM     14  O   UNL     1       5.236  13.506  24.505  1.00  0.00    -0.382 OA
ATOM     15  H   UNL     1       5.874  14.117  24.050  1.00  0.00     0.211 HD
ENDBRANCH   8  14
ENDBRANCH   1   8
BRANCH   1  16
ATOM     16  O   UNL     1       4.356  10.464  23.007  1.00  0.00    -0.387 OA
ATOM     17  H   UNL     1       3.438  10.501  22.629  1.00  0.00     0.211 HD
ENDBRANCH   1  16
TORSDOF 10
ENDMDL
MODEL 5
REMARK VINA RESULT:    -3.914      1.306      4.491
REMARK INTER + INTRA:          -6.629
REMARK INTER:                  -5.207
REMARK INTRA:                  -1.423
REMARK UNBOUND:                -0.999
REMARK SMILES O=C(CO)[C@@H](O)[C@H](O)[C@@H](O)CO
REMARK SMILES IDX 7 1 9 2 11 3 12 4 10 6 5 8 2 9 1 10 3 11 4 12 6 14 8 16
REMARK H PARENT 12 5 10 7 4 13 6 15 8 17
REMARK Flexibility Score: inf
ROOT
ATOM      1  C   UNL     1       3.890  12.814  24.040  1.00  0.00     0.181 C 
ENDROOT
BRANCH   1   2
ATOM      2  C   UNL     1       5.096  11.933  23.624  1.00  0.00     0.171 C 
BRANCH   2   3
ATOM      3  C   UNL     1       6.040  12.627  22.622  1.00  0.00     0.190 C 
BRANCH   3   4
ATOM      4  O   UNL     1       5.964  14.020  22.764  1.00  0.00    -0.394 OA
ATOM      5  H   UNL     1       6.630  14.272  23.457  1.00  0.00     0.210 HD
ENDBRANCH   3   4
ENDBRANCH   2   3
BRANCH   2   6
ATOM      6  O   UNL     1       4.628  10.723  23.083  1.00  0.00    -0.388 OA
ATOM      7  H   UNL     1       5.345  10.372  22.493  1.00  0.00     0.211 HD
ENDBRANCH   2   6
ENDBRANCH   1   2
BRANCH   1   8
ATOM      8  C   UNL     1       3.067  12.228  25.213  1.00  0.00     0.214 C 
BRANCH   8   9
ATOM      9  C   UNL     1       1.638  11.983  24.785  1.00  0.00     0.189 C 
ATOM     10  O   UNL     1       0.851  12.916  24.727  1.00  0.00    -0.294 OA
BRANCH   9  11
ATOM     11  C   UNL     1       1.173  10.598  24.438  1.00  0.00     0.234 C 
BRANCH  11  12
ATOM     12  O   UNL     1       1.915  10.116  23.355  1.00  0.00    -0.388 OA
ATOM     13  H   UNL     1       1.387   9.369  22.970  1.00  0.00     0.211 HD
ENDBRANCH  11  12
ENDBRANCH   9  11
ENDBRANCH   8   9
BRANCH   8  14
ATOM     14  O   UNL     1       3.633  11.018  25.649  1.00  0.00    -0.382 OA
ATOM     15  H   UNL     1       2.933  10.321  25.547  1.00  0.00     0.211 HD
ENDBRANCH   8  14
ENDBRANCH   1   8
BRANCH   1  16
ATOM     16  O   UNL     1       3.049  13.040  22.935  1.00  0.00    -0.387 OA
ATOM     17  H   UNL     1       2.132  12.775  23.211  1.00  0.00     0.211 HD
ENDBRANCH   1  16
TORSDOF 10
ENDMDL
MODEL 6
REMARK VINA RESULT:    -3.866      1.705      4.215
REMARK INTER + INTRA:          -6.560
REMARK INTER:                  -5.308
REMARK INTRA:                  -1.252
REMARK UNBOUND:                -0.999
REMARK SMILES O=C(CO)[C@@H](O)[C@H](O)[C@@H](O)CO
REMARK SMILES IDX 7 1 9 2 11 3 12 4 10 6 5 8 2 9 1 10 3 11 4 12 6 14 8 16
REMARK H PARENT 12 5 10 7 4 13 6 15 8 17
REMARK Flexibility Score: inf
ROOT
ATOM      1  C   UNL     1       5.597  11.278  23.170  1.00  0.00     0.181 C 
ENDROOT
BRANCH   1   2
ATOM      2  C   UNL     1       6.759  11.761  22.265  1.00  0.00     0.171 C 
BRANCH   2   3
ATOM      3  C   UNL     1       8.118  11.807  22.990  1.00  0.00     0.190 C 
BRANCH   3   4
ATOM      4  O   UNL     1       8.122  12.823  23.956  1.00  0.00    -0.394 OA
ATOM      5  H   UNL     1       8.850  12.605  24.595  1.00  0.00     0.210 HD
ENDBRANCH   3   4
ENDBRANCH   2   3
BRANCH   2   6
ATOM      6  O   UNL     1       6.450  13.030  21.743  1.00  0.00    -0.388 OA
ATOM      7  H   UNL     1       6.334  12.921  20.764  1.00  0.00     0.211 HD
ENDBRANCH   2   6
ENDBRANCH   1   2
BRANCH   1   8
ATOM      8  C   UNL     1       4.589  12.394  23.537  1.00  0.00     0.214 C 
BRANCH   8   9
ATOM      9  C   UNL     1       3.349  11.801  24.168  1.00  0.00     0.189 C 
ATOM     10  O   UNL     1       3.260  10.590  24.314  1.00  0.00    -0.294 OA
BRANCH   9  11
ATOM     11  C   UNL     1       2.220  12.686  24.609  1.00  0.00     0.234 C 
BRANCH  11  12
ATOM     12  O   UNL     1       2.530  13.249  25.853  1.00  0.00    -0.388 OA
ATOM     13  H   UNL     1       2.531  14.233  25.716  1.00  0.00     0.211 HD
ENDBRANCH  11  12
ENDBRANCH   9  11
ENDBRANCH   8   9
BRANCH   8  14
ATOM     14  O   UNL     1       5.174  13.303  24.435  1.00  0.00    -0.382 OA
ATOM     15  H   UNL     1       4.577  14.097  24.468  1.00  0.00     0.211 HD
ENDBRANCH   8  14
ENDBRANCH   1   8
BRANCH   1  16
ATOM     16  O   UNL     1       6.106  10.693  24.344  1.00  0.00    -0.387 OA
ATOM     17  H   UNL     1       7.034  11.029  24.457  1.00  0.00     0.211 HD
ENDBRANCH   1  16
TORSDOF 10
ENDMDL
MODEL 7
REMARK VINA RESULT:    -3.795      1.976      3.384
REMARK INTER + INTRA:          -6.458
REMARK INTER:                  -5.450
REMARK INTRA:                  -1.008
REMARK UNBOUND:                -0.999
REMARK SMILES O=C(CO)[C@@H](O)[C@H](O)[C@@H](O)CO
REMARK SMILES IDX 7 1 9 2 11 3 12 4 10 6 5 8 2 9 1 10 3 11 4 12 6 14 8 16
REMARK H PARENT 12 5 10 7 4 13 6 15 8 17
REMARK Flexibility Score: inf
ROOT
ATOM      1  C   UNL     1       5.143  12.836  24.281  1.00  0.00     0.181 C 
ENDROOT
BRANCH   1   2
ATOM      2  C   UNL     1       4.550  13.044  22.864  1.00  0.00     0.171 C 
BRANCH   2   3
ATOM      3  C   UNL     1       5.030  14.343  22.188  1.00  0.00     0.190 C 
BRANCH   3   4
ATOM      4  O   UNL     1       6.102  14.076  21.324  1.00  0.00    -0.394 OA
ATOM      5  H   UNL     1       6.763  13.549  21.845  1.00  0.00     0.210 HD
ENDBRANCH   3   4
ENDBRANCH   2   3
BRANCH   2   6
ATOM      6  O   UNL     1       3.146  13.032  22.938  1.00  0.00    -0.388 OA
ATOM      7  H   UNL     1       2.885  12.183  23.382  1.00  0.00     0.211 HD
ENDBRANCH   2   6
ENDBRANCH   1   2
BRANCH   1   8
ATOM      8  C   UNL     1       6.463  12.026  24.289  1.00  0.00     0.214 C 
BRANCH   8   9
ATOM      9  C   UNL     1       6.333  10.794  23.422  1.00  0.00     0.189 C 
ATOM     10  O   UNL     1       5.407  10.017  23.603  1.00  0.00    -0.294 OA
BRANCH   9  11
ATOM     11  C   UNL     1       7.339  10.511  22.344  1.00  0.00     0.234 C 
BRANCH  11  12
ATOM     12  O   UNL     1       7.325  11.553  21.410  1.00  0.00    -0.388 OA
ATOM     13  H   UNL     1       8.216  11.987  21.469  1.00  0.00     0.211 HD
ENDBRANCH  11  12
ENDBRANCH   9  11
ENDBRANCH   8   9
BRANCH   8  14
ATOM     14  O   UNL     1       7.523  12.816  23.814  1.00  0.00    -0.382 OA
ATOM     15  H   UNL     1       8.161  12.925  24.569  1.00  0.00     0.211 HD
ENDBRANCH   8  14
ENDBRANCH   1   8
BRANCH   1  16
ATOM     16  O   UNL     1       4.200  12.214  25.118  1.00  0.00    -0.387 OA
ATOM     17  H   UNL     1       4.477  12.398  26.054  1.00  0.00     0.211 HD
ENDBRANCH   1  16
TORSDOF 10
ENDMDL
MODEL 8
REMARK VINA RESULT:    -3.769      2.179      3.191
REMARK INTER + INTRA:          -6.421
REMARK INTER:                  -5.204
REMARK INTRA:                  -1.217
REMARK UNBOUND:                -0.999
REMARK SMILES O=C(CO)[C@@H](O)[C@H](O)[C@@H](O)CO
REMARK SMILES IDX 7 1 9 2 11 3 12 4 10 6 5 8 2 9 1 10 3 11 4 12 6 14 8 16
REMARK H PARENT 12 5 10 7 4 13 6 15 8 17
REMARK Flexibility Score: inf
ROOT
ATOM      1  C   UNL     1       2.199  10.830  25.532  1.00  0.00     0.181 C 
ENDROOT
BRANCH   1   2
ATOM      2  C   UNL     1       0.970  10.378  24.703  1.00  0.00     0.171 C 
BRANCH   2   3
ATOM      3  C   UNL     1       0.053   9.396  25.460  1.00  0.00     0.190 C 
BRANCH   3   4
ATOM      4  O   UNL     1      -0.614   8.555  24.558  1.00  0.00    -0.394 OA
ATOM      5  H   UNL     1       0.086   8.025  24.093  1.00  0.00     0.210 HD
ENDBRANCH   3   4
ENDBRANCH   2   3
BRANCH   2   6
ATOM      6  O   UNL     1       1.404   9.797  23.499  1.00  0.00    -0.388 OA
ATOM      7  H   UNL     1       0.771  10.087  22.791  1.00  0.00     0.211 HD
ENDBRANCH   2   6
ENDBRANCH   1   2
BRANCH   1   8
ATOM      8  C   UNL     1       3.024  11.954  24.859  1.00  0.00     0.214 C 
BRANCH   8   9
ATOM      9  C   UNL     1       4.460  11.519  24.672  1.00  0.00     0.189 C 
ATOM     10  O   UNL     1       5.236  11.560  25.616  1.00  0.00    -0.294 OA
BRANCH   9  11
ATOM     11  C   UNL     1       4.944  11.042  23.334  1.00  0.00     0.234 C 
BRANCH  11  12
ATOM     12  O   UNL     1       4.236   9.893  22.965  1.00  0.00    -0.388 OA
ATOM     13  H   UNL     1       4.080   9.385  23.803  1.00  0.00     0.211 HD
ENDBRANCH  11  12
ENDBRANCH   9  11
ENDBRANCH   8   9
BRANCH   8  14
ATOM     14  O   UNL     1       2.474  12.279  23.607  1.00  0.00    -0.382 OA
ATOM     15  H   UNL     1       2.925  13.110  23.302  1.00  0.00     0.211 HD
ENDBRANCH   8  14
ENDBRANCH   1   8
BRANCH   1  16
ATOM     16  O   UNL     1       3.033   9.730  25.807  1.00  0.00    -0.387 OA
ATOM     17  H   UNL     1       3.878  10.094  26.181  1.00  0.00     0.211 HD
ENDBRANCH   1  16
TORSDOF 10
ENDMDL
MODEL 9
REMARK VINA RESULT:    -3.729      2.349      5.482
REMARK INTER + INTRA:          -6.364
REMARK INTER:                  -5.229
REMARK INTRA:                  -1.134
REMARK UNBOUND:                -0.999
REMARK SMILES O=C(CO)[C@@H](O)[C@H](O)[C@@H](O)CO
REMARK SMILES IDX 7 1 9 2 11 3 12 4 10 6 5 8 2 9 1 10 3 11 4 12 6 14 8 16
REMARK H PARENT 12 5 10 7 4 13 6 15 8 17
REMARK Flexibility Score: inf
ROOT
ATOM      1  C   UNL     1       2.343  11.406  24.815  1.00  0.00     0.181 C 
ENDROOT
BRANCH   1   2
ATOM      2  C   UNL     1       3.780  10.891  25.087  1.00  0.00     0.171 C 
BRANCH   2   3
ATOM      3  C   UNL     1       4.684  10.923  23.839  1.00  0.00     0.190 C 
BRANCH   3   4
ATOM      4  O   UNL     1       4.299   9.925  22.931  1.00  0.00    -0.394 OA
ATOM      5  H   UNL     1       3.315  10.008  22.817  1.00  0.00     0.210 HD
ENDBRANCH   3   4
ENDBRANCH   2   3
BRANCH   2   6
ATOM      6  O   UNL     1       3.720   9.585  25.603  1.00  0.00    -0.388 OA
ATOM      7  H   UNL     1       3.136   9.059  24.997  1.00  0.00     0.211 HD
ENDBRANCH   2   6
ENDBRANCH   1   2
BRANCH   1   8
ATOM      8  C   UNL     1       1.298  10.275  24.652  1.00  0.00     0.214 C 
BRANCH   8   9
ATOM      9  C   UNL     1      -0.099  10.810  24.873  1.00  0.00     0.189 C 
ATOM     10  O   UNL     1      -0.278  12.013  24.994  1.00  0.00    -0.294 OA
BRANCH   9  11
ATOM     11  C   UNL     1      -1.270   9.874  24.956  1.00  0.00     0.234 C 
BRANCH  11  12
ATOM     12  O   UNL     1      -0.851   8.576  24.643  1.00  0.00    -0.388 OA
ATOM     13  H   UNL     1      -1.509   8.225  23.989  1.00  0.00     0.211 HD
ENDBRANCH  11  12
ENDBRANCH   9  11
ENDBRANCH   8   9
BRANCH   8  14
ATOM     14  O   UNL     1       1.380   9.718  23.365  1.00  0.00    -0.382 OA
ATOM     15  H   UNL     1       2.189  10.104  22.936  1.00  0.00     0.211 HD
ENDBRANCH   8  14
ENDBRANCH   1   8
BRANCH   1  16
ATOM     16  O   UNL     1       2.329  12.233  23.677  1.00  0.00    -0.387 OA
ATOM     17  H   UNL     1       2.579  13.146  23.979  1.00  0.00     0.211 HD
ENDBRANCH   1  16
TORSDOF 10
ENDMDL
