MODEL 1
REMARK VINA RESULT:    -3.646      0.000      0.000
REMARK INTER + INTRA:          -4.493
REMARK INTER:                  -4.391
REMARK INTRA:                  -0.102
REMARK UNBOUND:                -0.102
REMARK SMILES CC[C@@H](C)[C@@H]([NH3+])C(=O)[O-]
REMARK SMILES IDX 3 1 4 2 5 3 6 4 7 8 8 9 9 10 2 11 1 12
REMARK H PARENT 6 5 6 6 6 7
REMARK Flexibility Score: inf
ROOT
ATOM      1  C   UNL     1     176.161 174.734 169.218  1.00  0.00     0.050 C 
ATOM      2  C   UNL     1     176.978 173.890 170.219  1.00  0.00     0.014 C 
ENDROOT
BRANCH   1   3
ATOM      3  C   UNL     1     176.660 176.209 169.117  1.00  0.00     0.230 C 
BRANCH   3   4
ATOM      4  N   UNL     1     175.900 176.983 168.124  1.00  0.00    -0.350 N 
ATOM      5  H   UNL     1     175.155 176.378 167.707  1.00  0.00     0.345 HD
ATOM      6  H   UNL     1     176.513 177.330 167.352  1.00  0.00     0.345 HD
ATOM      7  H   UNL     1     175.433 177.798 168.585  1.00  0.00     0.345 HD
ENDBRANCH   3   4
BRANCH   3   8
ATOM      8  C   UNL     1     176.670 176.911 170.455  1.00  0.00     0.099 C 
ATOM      9  O   UNL     1     175.591 177.225 171.027  1.00  0.00    -0.544 OA
ATOM     10  O   UNL     1     177.879 177.187 171.081  1.00  0.00    -0.544 OA
ENDBRANCH   3   8
ENDBRANCH   1   3
BRANCH   1  11
ATOM     11  C   UNL     1     176.135 174.069 167.819  1.00  0.00     0.006 C 
ATOM     12  C   UNL     1     174.725 173.693 167.359  1.00  0.00     0.004 C 
ENDBRANCH   1  11
TORSDOF 4
ENDMDL
MODEL 2
REMARK VINA RESULT:    -3.503      1.796      2.605
REMARK INTER + INTRA:          -4.322
REMARK INTER:                  -4.204
REMARK INTRA:                  -0.118
REMARK UNBOUND:                -0.102
REMARK SMILES CC[C@@H](C)[C@@H]([NH3+])C(=O)[O-]
REMARK SMILES IDX 3 1 4 2 5 3 6 4 7 8 8 9 9 10 2 11 1 12
REMARK H PARENT 6 5 6 6 6 7
REMARK Flexibility Score: inf
ROOT
ATOM      1  C   UNL     1     176.188 174.608 168.155  1.00  0.00     0.050 C 
ATOM      2  C   UNL     1     174.950 173.876 167.598  1.00  0.00     0.014 C 
ENDROOT
BRANCH   1   3
ATOM      3  C   UNL     1     176.160 174.753 169.709  1.00  0.00     0.230 C 
BRANCH   3   4
ATOM      4  N   UNL     1     176.874 173.655 170.379  1.00  0.00    -0.350 N 
ATOM      5  H   UNL     1     176.449 173.489 171.321  1.00  0.00     0.345 HD
ATOM      6  H   UNL     1     177.888 173.875 170.508  1.00  0.00     0.345 HD
ATOM      7  H   UNL     1     176.780 172.775 169.823  1.00  0.00     0.345 HD
ENDBRANCH   3   4
BRANCH   3   8
ATOM      8  C   UNL     1     176.675 176.094 170.176  1.00  0.00     0.099 C 
ATOM      9  O   UNL     1     177.892 176.398 170.052  1.00  0.00    -0.544 OA
ATOM     10  O   UNL     1     175.793 177.021 170.719  1.00  0.00    -0.544 OA
ENDBRANCH   3   8
ENDBRANCH   1   3
BRANCH   1  11
ATOM     11  C   UNL     1     177.498 173.921 167.694  1.00  0.00     0.006 C 
ATOM     12  C   UNL     1     178.397 174.837 166.862  1.00  0.00     0.004 C 
ENDBRANCH   1  11
TORSDOF 4
ENDMDL
MODEL 3
REMARK VINA RESULT:    -3.493      1.236      2.062
REMARK INTER + INTRA:          -4.309
REMARK INTER:                  -4.291
REMARK INTRA:                  -0.018
REMARK UNBOUND:                -0.102
REMARK SMILES CC[C@@H](C)[C@@H]([NH3+])C(=O)[O-]
REMARK SMILES IDX 3 1 4 2 5 3 6 4 7 8 8 9 9 10 2 11 1 12
REMARK H PARENT 6 5 6 6 6 7
REMARK Flexibility Score: inf
ROOT
ATOM      1  C   UNL     1     176.501 174.295 167.924  1.00  0.00     0.050 C 
ATOM      2  C   UNL     1     175.018 173.967 167.649  1.00  0.00     0.014 C 
ENDROOT
BRANCH   1   3
ATOM      3  C   UNL     1     176.720 175.766 168.397  1.00  0.00     0.230 C 
BRANCH   3   4
ATOM      4  N   UNL     1     175.733 176.687 167.814  1.00  0.00    -0.350 N 
ATOM      5  H   UNL     1     174.898 176.745 168.443  1.00  0.00     0.345 HD
ATOM      6  H   UNL     1     175.414 176.367 166.871  1.00  0.00     0.345 HD
ATOM      7  H   UNL     1     176.142 177.646 167.732  1.00  0.00     0.345 HD
ENDBRANCH   3   4
BRANCH   3   8
ATOM      8  C   UNL     1     176.753 175.893 169.902  1.00  0.00     0.099 C 
ATOM      9  O   UNL     1     175.693 175.814 170.579  1.00  0.00    -0.544 OA
ATOM     10  O   UNL     1     177.967 176.066 170.555  1.00  0.00    -0.544 OA
ENDBRANCH   3   8
ENDBRANCH   1   3
BRANCH   1  11
ATOM     11  C   UNL     1     177.113 173.297 168.940  1.00  0.00     0.006 C 
ATOM     12  C   UNL     1     178.574 172.956 168.639  1.00  0.00     0.004 C 
ENDBRANCH   1  11
TORSDOF 4
ENDMDL
MODEL 4
REMARK VINA RESULT:    -3.440     11.814     12.869
REMARK INTER + INTRA:          -4.246
REMARK INTER:                  -4.151
REMARK INTRA:                  -0.096
REMARK UNBOUND:                -0.102
REMARK SMILES CC[C@@H](C)[C@@H]([NH3+])C(=O)[O-]
REMARK SMILES IDX 3 1 4 2 5 3 6 4 7 8 8 9 9 10 2 11 1 12
REMARK H PARENT 6 5 6 6 6 7
REMARK Flexibility Score: inf
ROOT
ATOM      1  C   UNL     1     164.803 177.672 167.918  1.00  0.00     0.050 C 
ATOM      2  C   UNL     1     165.750 178.809 167.480  1.00  0.00     0.014 C 
ENDROOT
BRANCH   1   3
ATOM      3  C   UNL     1     163.334 178.154 168.133  1.00  0.00     0.230 C 
BRANCH   3   4
ATOM      4  N   UNL     1     162.404 177.541 167.173  1.00  0.00    -0.350 N 
ATOM      5  H   UNL     1     162.814 177.593 166.211  1.00  0.00     0.345 HD
ATOM      6  H   UNL     1     161.480 178.028 167.164  1.00  0.00     0.345 HD
ATOM      7  H   UNL     1     162.260 176.532 167.408  1.00  0.00     0.345 HD
ENDBRANCH   3   4
BRANCH   3   8
ATOM      8  C   UNL     1     162.858 177.947 169.551  1.00  0.00     0.099 C 
ATOM      9  O   UNL     1     163.668 177.983 170.517  1.00  0.00    -0.544 OA
ATOM     10  O   UNL     1     161.506 177.746 169.804  1.00  0.00    -0.544 OA
ENDBRANCH   3   8
ENDBRANCH   1   3
BRANCH   1  11
ATOM     11  C   UNL     1     164.849 176.491 166.915  1.00  0.00     0.006 C 
ATOM     12  C   UNL     1     165.947 176.641 165.861  1.00  0.00     0.004 C 
ENDBRANCH   1  11
TORSDOF 4
ENDMDL
MODEL 5
REMARK VINA RESULT:    -3.434      1.727      2.560
REMARK INTER + INTRA:          -4.239
REMARK INTER:                  -4.097
REMARK INTRA:                  -0.141
REMARK UNBOUND:                -0.102
REMARK SMILES CC[C@@H](C)[C@@H]([NH3+])C(=O)[O-]
REMARK SMILES IDX 3 1 4 2 5 3 6 4 7 8 8 9 9 10 2 11 1 12
REMARK H PARENT 6 5 6 6 6 7
REMARK Flexibility Score: inf
ROOT
ATOM      1  C   UNL     1     176.540 174.432 168.171  1.00  0.00     0.050 C 
ATOM      2  C   UNL     1     175.193 173.943 167.599  1.00  0.00     0.014 C 
ENDROOT
BRANCH   1   3
ATOM      3  C   UNL     1     176.436 175.828 168.860  1.00  0.00     0.230 C 
BRANCH   3   4
ATOM      4  N   UNL     1     175.724 175.759 170.145  1.00  0.00    -0.350 N 
ATOM      5  H   UNL     1     176.419 175.746 170.927  1.00  0.00     0.345 HD
ATOM      6  H   UNL     1     175.133 174.900 170.214  1.00  0.00     0.345 HD
ATOM      7  H   UNL     1     175.119 176.604 170.265  1.00  0.00     0.345 HD
ENDBRANCH   3   4
BRANCH   3   8
ATOM      8  C   UNL     1     177.781 176.495 169.025  1.00  0.00     0.099 C 
ATOM      9  O   UNL     1     178.109 177.025 170.121  1.00  0.00    -0.544 OA
ATOM     10  O   UNL     1     178.686 176.497 167.971  1.00  0.00    -0.544 OA
ENDBRANCH   3   8
ENDBRANCH   1   3
BRANCH   1  11
ATOM     11  C   UNL     1     177.146 173.387 169.142  1.00  0.00     0.006 C 
ATOM     12  C   UNL     1     178.540 172.917 168.723  1.00  0.00     0.004 C 
ENDBRANCH   1  11
TORSDOF 4
ENDMDL
MODEL 6
REMARK VINA RESULT:    -3.397     13.529     14.018
REMARK INTER + INTRA:          -4.194
REMARK INTER:                  -4.109
REMARK INTRA:                  -0.084
REMARK UNBOUND:                -0.102
REMARK SMILES CC[C@@H](C)[C@@H]([NH3+])C(=O)[O-]
REMARK SMILES IDX 3 1 4 2 5 3 6 4 7 8 8 9 9 10 2 11 1 12
REMARK H PARENT 6 5 6 6 6 7
REMARK Flexibility Score: inf
ROOT
ATOM      1  C   UNL     1     174.816 162.045 168.239  1.00  0.00     0.050 C 
ATOM      2  C   UNL     1     175.114 162.414 169.707  1.00  0.00     0.014 C 
ENDROOT
BRANCH   1   3
ATOM      3  C   UNL     1     173.563 162.779 167.670  1.00  0.00     0.230 C 
BRANCH   3   4
ATOM      4  N   UNL     1     173.829 163.395 166.361  1.00  0.00    -0.350 N 
ATOM      5  H   UNL     1     174.766 163.861 166.381  1.00  0.00     0.345 HD
ATOM      6  H   UNL     1     173.110 164.113 166.118  1.00  0.00     0.345 HD
ATOM      7  H   UNL     1     173.849 162.661 165.617  1.00  0.00     0.345 HD
ENDBRANCH   3   4
BRANCH   3   8
ATOM      8  C   UNL     1     172.346 161.887 167.607  1.00  0.00     0.099 C 
ATOM      9  O   UNL     1     172.023 161.166 168.590  1.00  0.00    -0.544 OA
ATOM     10  O   UNL     1     171.551 161.881 166.468  1.00  0.00    -0.544 OA
ENDBRANCH   3   8
ENDBRANCH   1   3
BRANCH   1  11
ATOM     11  C   UNL     1     176.053 162.297 167.339  1.00  0.00     0.006 C 
ATOM     12  C   UNL     1     177.210 162.966 168.082  1.00  0.00     0.004 C 
ENDBRANCH   1  11
TORSDOF 4
ENDMDL
MODEL 7
REMARK VINA RESULT:    -3.377     13.674     14.344
REMARK INTER + INTRA:          -4.170
REMARK INTER:                  -4.109
REMARK INTRA:                  -0.061
REMARK UNBOUND:                -0.102
REMARK SMILES CC[C@@H](C)[C@@H]([NH3+])C(=O)[O-]
REMARK SMILES IDX 3 1 4 2 5 3 6 4 7 8 8 9 9 10 2 11 1 12
REMARK H PARENT 6 5 6 6 6 7
REMARK Flexibility Score: inf
ROOT
ATOM      1  C   UNL     1     174.425 162.398 168.393  1.00  0.00     0.050 C 
ATOM      2  C   UNL     1     175.422 162.189 167.234  1.00  0.00     0.014 C 
ENDROOT
BRANCH   1   3
ATOM      3  C   UNL     1     173.086 161.625 168.190  1.00  0.00     0.230 C 
BRANCH   3   4
ATOM      4  N   UNL     1     172.375 161.406 169.459  1.00  0.00    -0.350 N 
ATOM      5  H   UNL     1     171.553 162.052 169.513  1.00  0.00     0.345 HD
ATOM      6  H   UNL     1     172.991 161.588 170.284  1.00  0.00     0.345 HD
ATOM      7  H   UNL     1     172.018 160.425 169.505  1.00  0.00     0.345 HD
ENDBRANCH   3   4
BRANCH   3   8
ATOM      8  C   UNL     1     172.183 162.285 167.174  1.00  0.00     0.099 C 
ATOM      9  O   UNL     1     171.291 161.624 166.577  1.00  0.00    -0.544 OA
ATOM     10  O   UNL     1     172.311 163.645 166.916  1.00  0.00    -0.544 OA
ENDBRANCH   3   8
ENDBRANCH   1   3
BRANCH   1  11
ATOM     11  C   UNL     1     175.068 162.030 169.755  1.00  0.00     0.006 C 
ATOM     12  C   UNL     1     176.505 161.524 169.623  1.00  0.00     0.004 C 
ENDBRANCH   1  11
TORSDOF 4
ENDMDL
MODEL 8
REMARK VINA RESULT:    -3.342      2.775      3.806
REMARK INTER + INTRA:          -4.128
REMARK INTER:                  -3.963
REMARK INTRA:                  -0.166
REMARK UNBOUND:                -0.102
REMARK SMILES CC[C@@H](C)[C@@H]([NH3+])C(=O)[O-]
REMARK SMILES IDX 3 1 4 2 5 3 6 4 7 8 8 9 9 10 2 11 1 12
REMARK H PARENT 6 5 6 6 6 7
REMARK Flexibility Score: inf
ROOT
ATOM      1  C   UNL     1     177.917 174.466 169.725  1.00  0.00     0.050 C 
ATOM      2  C   UNL     1     178.469 173.613 170.886  1.00  0.00     0.014 C 
ENDROOT
BRANCH   1   3
ATOM      3  C   UNL     1     176.379 174.297 169.524  1.00  0.00     0.230 C 
BRANCH   3   4
ATOM      4  N   UNL     1     175.622 175.436 170.067  1.00  0.00    -0.350 N 
ATOM      5  H   UNL     1     175.228 175.999 169.277  1.00  0.00     0.345 HD
ATOM      6  H   UNL     1     176.226 176.060 170.647  1.00  0.00     0.345 HD
ATOM      7  H   UNL     1     174.824 175.091 170.648  1.00  0.00     0.345 HD
ENDBRANCH   3   4
BRANCH   3   8
ATOM      8  C   UNL     1     176.006 174.041 168.083  1.00  0.00     0.099 C 
ATOM      9  O   UNL     1     176.882 174.058 167.177  1.00  0.00    -0.544 OA
ATOM     10  O   UNL     1     174.689 173.748 167.751  1.00  0.00    -0.544 OA
ENDBRANCH   3   8
ENDBRANCH   1   3
BRANCH   1  11
ATOM     11  C   UNL     1     178.284 175.960 169.907  1.00  0.00     0.006 C 
ATOM     12  C   UNL     1     178.916 176.580 168.660  1.00  0.00     0.004 C 
ENDBRANCH   1  11
TORSDOF 4
ENDMDL
MODEL 9
REMARK VINA RESULT:    -3.275     11.130     12.000
REMARK INTER + INTRA:          -4.047
REMARK INTER:                  -4.081
REMARK INTRA:                   0.034
REMARK UNBOUND:                -0.102
REMARK SMILES CC[C@@H](C)[C@@H]([NH3+])C(=O)[O-]
REMARK SMILES IDX 3 1 4 2 5 3 6 4 7 8 8 9 9 10 2 11 1 12
REMARK H PARENT 6 5 6 6 6 7
REMARK Flexibility Score: inf
ROOT
ATOM      1  C   UNL     1     164.745 176.600 166.749  1.00  0.00     0.050 C 
ATOM      2  C   UNL     1     163.563 176.798 165.777  1.00  0.00     0.014 C 
ENDROOT
BRANCH   1   3
ATOM      3  C   UNL     1     166.110 176.415 166.017  1.00  0.00     0.230 C 
BRANCH   3   4
ATOM      4  N   UNL     1     166.714 175.103 166.295  1.00  0.00    -0.350 N 
ATOM      5  H   UNL     1     166.561 174.857 167.301  1.00  0.00     0.345 HD
ATOM      6  H   UNL     1     167.742 175.103 166.108  1.00  0.00     0.345 HD
ATOM      7  H   UNL     1     166.257 174.367 165.709  1.00  0.00     0.345 HD
ENDBRANCH   3   4
BRANCH   3   8
ATOM      8  C   UNL     1     166.008 176.657 164.529  1.00  0.00     0.099 C 
ATOM      9  O   UNL     1     166.153 177.814 164.051  1.00  0.00    -0.544 OA
ATOM     10  O   UNL     1     165.784 175.588 163.669  1.00  0.00    -0.544 OA
ENDBRANCH   3   8
ENDBRANCH   1   3
BRANCH   1  11
ATOM     11  C   UNL     1     164.826 177.762 167.772  1.00  0.00     0.006 C 
ATOM     12  C   UNL     1     165.911 178.785 167.433  1.00  0.00     0.004 C 
ENDBRANCH   1  11
TORSDOF 4
ENDMDL
