MODEL 1
REMARK VINA RESULT:    -3.997      0.000      0.000
REMARK INTER + INTRA:         -15.880
REMARK INTER:                 -10.541
REMARK INTRA:                  -5.340
REMARK UNBOUND:                -5.340
REMARK SMILES CCCCCCCCCCCCCCCCCCCCCCCCCCCCCC(=O)[O-]
REMARK SMILES IDX 16 1 17 2 18 3 19 4 20 5 21 6 22 7 23 8 24 9 25 10 26 11
REMARK SMILES IDX 27 12 28 13 29 14 30 15 31 16 32 17 15 18 14 19 13 20 12 21
REMARK SMILES IDX 11 22 10 23 9 24 8 25 7 26 6 27 5 28 4 29 3 30 2 31 1 32
REMARK H PARENT
REMARK Flexibility Score: inf
ROOT
ATOM      1  C   UNL     1     164.779 160.713 182.881  1.00  0.00     0.000 C 
ENDROOT
BRANCH   1   2
ATOM      2  C   UNL     1     165.939 159.986 183.578  1.00  0.00     0.000 C 
BRANCH   2   3
ATOM      3  C   UNL     1     167.188 160.873 183.728  1.00  0.00     0.000 C 
BRANCH   3   4
ATOM      4  C   UNL     1     168.260 160.583 182.661  1.00  0.00     0.000 C 
BRANCH   4   5
ATOM      5  C   UNL     1     168.398 161.652 181.559  1.00  0.00     0.000 C 
BRANCH   5   6
ATOM      6  C   UNL     1     168.059 161.185 180.130  1.00  0.00     0.000 C 
BRANCH   6   7
ATOM      7  C   UNL     1     166.597 161.447 179.713  1.00  0.00     0.000 C 
BRANCH   7   8
ATOM      8  C   UNL     1     165.823 160.153 179.394  1.00  0.00     0.000 C 
BRANCH   8   9
ATOM      9  C   UNL     1     165.184 160.163 177.995  1.00  0.00     0.000 C 
BRANCH   9  10
ATOM     10  C   UNL     1     165.745 161.219 177.029  1.00  0.00     0.000 C 
BRANCH  10  11
ATOM     11  C   UNL     1     164.709 161.726 176.015  1.00  0.00     0.000 C 
BRANCH  11  12
ATOM     12  C   UNL     1     163.319 161.160 176.331  1.00  0.00     0.000 C 
BRANCH  12  13
ATOM     13  C   UNL     1     162.212 162.027 175.716  1.00  0.00     0.006 C 
BRANCH  13  14
ATOM     14  C   UNL     1     162.124 161.857 174.193  1.00  0.00     0.053 C 
BRANCH  14  15
ATOM     15  C   UNL     1     160.935 161.036 173.792  1.00  0.00     0.041 C 
ATOM     16  O   UNL     1     159.913 161.000 174.528  1.00  0.00    -0.550 OA
ATOM     17  O   UNL     1     160.927 160.374 172.572  1.00  0.00    -0.550 OA
ENDBRANCH  14  15
ENDBRANCH  13  14
ENDBRANCH  12  13
ENDBRANCH  11  12
ENDBRANCH  10  11
ENDBRANCH   9  10
ENDBRANCH   8   9
ENDBRANCH   7   8
ENDBRANCH   6   7
ENDBRANCH   5   6
ENDBRANCH   4   5
ENDBRANCH   3   4
ENDBRANCH   2   3
ENDBRANCH   1   2
BRANCH   1  18
ATOM     18  C   UNL     1     164.954 162.240 182.853  1.00  0.00     0.000 C 
BRANCH  18  19
ATOM     19  C   UNL     1     163.657 162.940 183.282  1.00  0.00     0.000 C 
BRANCH  19  20
ATOM     20  C   UNL     1     162.508 161.935 183.451  1.00  0.00     0.000 C 
BRANCH  20  21
ATOM     21  C   UNL     1     161.145 162.631 183.607  1.00  0.00     0.000 C 
BRANCH  21  22
ATOM     22  C   UNL     1     160.124 162.163 182.554  1.00  0.00     0.000 C 
BRANCH  22  23
ATOM     23  C   UNL     1     159.970 160.627 182.519  1.00  0.00     0.000 C 
BRANCH  23  24
ATOM     24  C   UNL     1     159.885 160.035 181.098  1.00  0.00    -0.000 C 
BRANCH  24  25
ATOM     25  C   UNL     1     160.252 161.007 179.963  1.00  0.00    -0.000 C 
BRANCH  25  26
ATOM     26  C   UNL     1     161.705 160.899 179.458  1.00  0.00    -0.000 C 
BRANCH  26  27
ATOM     27  C   UNL     1     162.633 162.022 179.973  1.00  0.00    -0.000 C 
BRANCH  27  28
ATOM     28  C   UNL     1     162.523 163.306 179.133  1.00  0.00    -0.000 C 
BRANCH  28  29
ATOM     29  C   UNL     1     161.552 164.331 179.739  1.00  0.00    -0.000 C 
BRANCH  29  30
ATOM     30  C   UNL     1     162.270 165.583 180.277  1.00  0.00    -0.000 C 
BRANCH  30  31
ATOM     31  C   UNL     1     162.059 165.778 181.786  1.00  0.00    -0.003 C 
ATOM     32  C   UNL     1     160.605 166.086 182.143  1.00  0.00     0.004 C 
ENDBRANCH  30  31
ENDBRANCH  29  30
ENDBRANCH  28  29
ENDBRANCH  27  28
ENDBRANCH  26  27
ENDBRANCH  25  26
ENDBRANCH  24  25
ENDBRANCH  23  24
ENDBRANCH  22  23
ENDBRANCH  21  22
ENDBRANCH  20  21
ENDBRANCH  19  20
ENDBRANCH  18  19
ENDBRANCH   1  18
TORSDOF 28
ENDMDL
MODEL 2
REMARK VINA RESULT:    -3.930      1.898      4.408
REMARK INTER + INTRA:         -15.703
REMARK INTER:                  -9.852
REMARK INTRA:                  -5.850
REMARK UNBOUND:                -5.340
REMARK SMILES CCCCCCCCCCCCCCCCCCCCCCCCCCCCCC(=O)[O-]
REMARK SMILES IDX 16 1 17 2 18 3 19 4 20 5 21 6 22 7 23 8 24 9 25 10 26 11
REMARK SMILES IDX 27 12 28 13 29 14 30 15 31 16 32 17 15 18 14 19 13 20 12 21
REMARK SMILES IDX 11 22 10 23 9 24 8 25 7 26 6 27 5 28 4 29 3 30 2 31 1 32
REMARK H PARENT
REMARK Flexibility Score: inf
ROOT
ATOM      1  C   UNL     1     164.239 163.639 181.739  1.00  0.00     0.000 C 
ENDROOT
BRANCH   1   2
ATOM      2  C   UNL     1     164.082 163.407 183.249  1.00  0.00     0.000 C 
BRANCH   2   3
ATOM      3  C   UNL     1     165.406 163.576 184.014  1.00  0.00     0.000 C 
BRANCH   3   4
ATOM      4  C   UNL     1     166.634 163.617 183.084  1.00  0.00     0.000 C 
BRANCH   4   5
ATOM      5  C   UNL     1     167.730 162.578 183.396  1.00  0.00     0.000 C 
BRANCH   5   6
ATOM      6  C   UNL     1     167.374 161.535 184.473  1.00  0.00     0.000 C 
BRANCH   6   7
ATOM      7  C   UNL     1     166.998 160.149 183.907  1.00  0.00     0.000 C 
BRANCH   7   8
ATOM      8  C   UNL     1     165.491 160.005 183.625  1.00  0.00     0.000 C 
BRANCH   8   9
ATOM      9  C   UNL     1     165.161 159.957 182.123  1.00  0.00     0.000 C 
BRANCH   9  10
ATOM     10  C   UNL     1     166.381 159.875 181.190  1.00  0.00     0.000 C 
BRANCH  10  11
ATOM     11  C   UNL     1     166.504 161.079 180.245  1.00  0.00     0.000 C 
BRANCH  11  12
ATOM     12  C   UNL     1     165.300 161.150 179.298  1.00  0.00     0.000 C 
BRANCH  12  13
ATOM     13  C   UNL     1     165.610 160.481 177.952  1.00  0.00     0.006 C 
BRANCH  13  14
ATOM     14  C   UNL     1     166.210 161.467 176.940  1.00  0.00     0.053 C 
BRANCH  14  15
ATOM     15  C   UNL     1     165.941 161.046 175.526  1.00  0.00     0.041 C 
ATOM     16  O   UNL     1     166.409 161.715 174.567  1.00  0.00    -0.550 OA
ATOM     17  O   UNL     1     165.241 159.875 175.271  1.00  0.00    -0.550 OA
ENDBRANCH  14  15
ENDBRANCH  13  14
ENDBRANCH  12  13
ENDBRANCH  11  12
ENDBRANCH  10  11
ENDBRANCH   9  10
ENDBRANCH   8   9
ENDBRANCH   7   8
ENDBRANCH   6   7
ENDBRANCH   5   6
ENDBRANCH   4   5
ENDBRANCH   3   4
ENDBRANCH   2   3
ENDBRANCH   1   2
BRANCH   1  18
ATOM     18  C   UNL     1     163.058 164.402 181.120  1.00  0.00     0.000 C 
BRANCH  18  19
ATOM     19  C   UNL     1     162.021 164.755 182.196  1.00  0.00     0.000 C 
BRANCH  19  20
ATOM     20  C   UNL     1     160.708 163.988 181.981  1.00  0.00     0.000 C 
BRANCH  20  21
ATOM     21  C   UNL     1     160.507 162.877 183.026  1.00  0.00     0.000 C 
BRANCH  21  22
ATOM     22  C   UNL     1     160.383 161.483 182.384  1.00  0.00     0.000 C 
BRANCH  22  23
ATOM     23  C   UNL     1     161.726 160.969 181.822  1.00  0.00     0.000 C 
BRANCH  23  24
ATOM     24  C   UNL     1     161.689 160.627 180.319  1.00  0.00    -0.000 C 
BRANCH  24  25
ATOM     25  C   UNL     1     160.364 160.952 179.608  1.00  0.00    -0.000 C 
BRANCH  25  26
ATOM     26  C   UNL     1     160.505 161.769 178.308  1.00  0.00    -0.000 C 
BRANCH  26  27
ATOM     27  C   UNL     1     161.376 163.037 178.457  1.00  0.00    -0.000 C 
BRANCH  27  28
ATOM     28  C   UNL     1     162.484 163.115 177.392  1.00  0.00    -0.000 C 
BRANCH  28  29
ATOM     29  C   UNL     1     162.501 161.892 176.462  1.00  0.00    -0.000 C 
BRANCH  29  30
ATOM     30  C   UNL     1     162.471 162.278 174.971  1.00  0.00    -0.000 C 
BRANCH  30  31
ATOM     31  C   UNL     1     161.644 161.297 174.128  1.00  0.00    -0.003 C 
ATOM     32  C   UNL     1     162.429 160.730 172.945  1.00  0.00     0.004 C 
ENDBRANCH  30  31
ENDBRANCH  29  30
ENDBRANCH  28  29
ENDBRANCH  27  28
ENDBRANCH  26  27
ENDBRANCH  25  26
ENDBRANCH  24  25
ENDBRANCH  23  24
ENDBRANCH  22  23
ENDBRANCH  21  22
ENDBRANCH  20  21
ENDBRANCH  19  20
ENDBRANCH  18  19
ENDBRANCH   1  18
TORSDOF 28
ENDMDL
MODEL 3
REMARK VINA RESULT:    -3.893      2.868      6.136
REMARK INTER + INTRA:         -15.604
REMARK INTER:                  -9.267
REMARK INTRA:                  -6.337
REMARK UNBOUND:                -5.340
REMARK SMILES CCCCCCCCCCCCCCCCCCCCCCCCCCCCCC(=O)[O-]
REMARK SMILES IDX 16 1 17 2 18 3 19 4 20 5 21 6 22 7 23 8 24 9 25 10 26 11
REMARK SMILES IDX 27 12 28 13 29 14 30 15 31 16 32 17 15 18 14 19 13 20 12 21
REMARK SMILES IDX 11 22 10 23 9 24 8 25 7 26 6 27 5 28 4 29 3 30 2 31 1 32
REMARK H PARENT
REMARK Flexibility Score: inf
ROOT
ATOM      1  C   UNL     1     163.699 160.633 182.898  1.00  0.00     0.000 C 
ENDROOT
BRANCH   1   2
ATOM      2  C   UNL     1     163.615 162.167 182.880  1.00  0.00     0.000 C 
BRANCH   2   3
ATOM      3  C   UNL     1     162.185 162.683 183.115  1.00  0.00     0.000 C 
BRANCH   3   4
ATOM      4  C   UNL     1     161.250 161.611 183.704  1.00  0.00     0.000 C 
BRANCH   4   5
ATOM      5  C   UNL     1     160.195 161.050 182.730  1.00  0.00     0.000 C 
BRANCH   5   6
ATOM      6  C   UNL     1     160.067 161.793 181.386  1.00  0.00     0.000 C 
BRANCH   6   7
ATOM      7  C   UNL     1     160.156 160.874 180.149  1.00  0.00     0.000 C 
BRANCH   7   8
ATOM      8  C   UNL     1     161.565 160.291 179.935  1.00  0.00     0.000 C 
BRANCH   8   9
ATOM      9  C   UNL     1     162.598 161.352 179.513  1.00  0.00     0.000 C 
BRANCH   9  10
ATOM     10  C   UNL     1     162.539 161.766 178.034  1.00  0.00     0.000 C 
BRANCH  10  11
ATOM     11  C   UNL     1     162.323 163.274 177.834  1.00  0.00     0.000 C 
BRANCH  11  12
ATOM     12  C   UNL     1     161.646 163.892 179.064  1.00  0.00     0.000 C 
BRANCH  12  13
ATOM     13  C   UNL     1     162.202 165.291 179.362  1.00  0.00     0.006 C 
BRANCH  13  14
ATOM     14  C   UNL     1     162.096 165.651 180.850  1.00  0.00     0.053 C 
BRANCH  14  15
ATOM     15  C   UNL     1     160.724 166.141 181.208  1.00  0.00     0.041 C 
ATOM     16  O   UNL     1     159.878 165.349 181.701  1.00  0.00    -0.550 OA
ATOM     17  O   UNL     1     160.408 167.486 181.068  1.00  0.00    -0.550 OA
ENDBRANCH  14  15
ENDBRANCH  13  14
ENDBRANCH  12  13
ENDBRANCH  11  12
ENDBRANCH  10  11
ENDBRANCH   9  10
ENDBRANCH   8   9
ENDBRANCH   7   8
ENDBRANCH   6   7
ENDBRANCH   5   6
ENDBRANCH   4   5
ENDBRANCH   3   4
ENDBRANCH   2   3
ENDBRANCH   1   2
BRANCH   1  18
ATOM     18  C   UNL     1     165.142 160.109 182.960  1.00  0.00     0.000 C 
BRANCH  18  19
ATOM     19  C   UNL     1     166.077 161.171 183.557  1.00  0.00     0.000 C 
BRANCH  19  20
ATOM     20  C   UNL     1     167.378 160.543 184.078  1.00  0.00     0.000 C 
BRANCH  20  21
ATOM     21  C   UNL     1     168.460 160.459 182.989  1.00  0.00     0.000 C 
BRANCH  21  22
ATOM     22  C   UNL     1     168.760 161.830 182.355  1.00  0.00     0.000 C 
BRANCH  22  23
ATOM     23  C   UNL     1     168.681 161.799 180.814  1.00  0.00     0.000 C 
BRANCH  23  24
ATOM     24  C   UNL     1     167.748 160.707 180.253  1.00  0.00    -0.000 C 
BRANCH  24  25
ATOM     25  C   UNL     1     166.521 161.229 179.484  1.00  0.00    -0.000 C 
BRANCH  25  26
ATOM     26  C   UNL     1     165.871 162.494 180.079  1.00  0.00    -0.000 C 
BRANCH  26  27
ATOM     27  C   UNL     1     165.766 163.672 179.083  1.00  0.00    -0.000 C 
BRANCH  27  28
ATOM     28  C   UNL     1     167.047 164.524 179.045  1.00  0.00    -0.000 C 
BRANCH  28  29
ATOM     29  C   UNL     1     167.247 165.352 180.324  1.00  0.00    -0.000 C 
BRANCH  29  30
ATOM     30  C   UNL     1     165.964 166.078 180.768  1.00  0.00    -0.000 C 
BRANCH  30  31
ATOM     31  C   UNL     1     165.551 165.716 182.203  1.00  0.00    -0.003 C 
ATOM     32  C   UNL     1     166.567 164.809 182.898  1.00  0.00     0.004 C 
ENDBRANCH  30  31
ENDBRANCH  29  30
ENDBRANCH  28  29
ENDBRANCH  27  28
ENDBRANCH  26  27
ENDBRANCH  25  26
ENDBRANCH  24  25
ENDBRANCH  23  24
ENDBRANCH  22  23
ENDBRANCH  21  22
ENDBRANCH  20  21
ENDBRANCH  19  20
ENDBRANCH  18  19
ENDBRANCH   1  18
TORSDOF 28
ENDMDL
MODEL 4
REMARK VINA RESULT:    -3.882      2.916      6.626
REMARK INTER + INTRA:         -15.577
REMARK INTER:                 -10.338
REMARK INTRA:                  -5.239
REMARK UNBOUND:                -5.340
REMARK SMILES CCCCCCCCCCCCCCCCCCCCCCCCCCCCCC(=O)[O-]
REMARK SMILES IDX 16 1 17 2 18 3 19 4 20 5 21 6 22 7 23 8 24 9 25 10 26 11
REMARK SMILES IDX 27 12 28 13 29 14 30 15 31 16 32 17 15 18 14 19 13 20 12 21
REMARK SMILES IDX 11 22 10 23 9 24 8 25 7 26 6 27 5 28 4 29 3 30 2 31 1 32
REMARK H PARENT
REMARK Flexibility Score: inf
ROOT
ATOM      1  C   UNL     1     164.898 163.624 183.181  1.00  0.00     0.000 C 
ENDROOT
BRANCH   1   2
ATOM      2  C   UNL     1     163.822 162.836 182.419  1.00  0.00     0.000 C 
BRANCH   2   3
ATOM      3  C   UNL     1     163.794 161.347 182.808  1.00  0.00     0.000 C 
BRANCH   3   4
ATOM      4  C   UNL     1     162.396 160.869 183.243  1.00  0.00     0.000 C 
BRANCH   4   5
ATOM      5  C   UNL     1     161.314 161.965 183.302  1.00  0.00     0.000 C 
BRANCH   5   6
ATOM      6  C   UNL     1     159.984 161.628 182.601  1.00  0.00     0.000 C 
BRANCH   6   7
ATOM      7  C   UNL     1     159.944 160.219 181.972  1.00  0.00     0.000 C 
BRANCH   7   8
ATOM      8  C   UNL     1     159.910 160.251 180.432  1.00  0.00     0.000 C 
BRANCH   8   9
ATOM      9  C   UNL     1     161.190 160.840 179.813  1.00  0.00     0.000 C 
BRANCH   9  10
ATOM     10  C   UNL     1     160.963 161.765 178.606  1.00  0.00     0.000 C 
BRANCH  10  11
ATOM     11  C   UNL     1     161.556 163.169 178.799  1.00  0.00     0.000 C 
BRANCH  11  12
ATOM     12  C   UNL     1     160.901 163.875 179.992  1.00  0.00     0.000 C 
BRANCH  12  13
ATOM     13  C   UNL     1     161.524 165.258 180.232  1.00  0.00     0.006 C 
BRANCH  13  14
ATOM     14  C   UNL     1     161.676 165.572 181.727  1.00  0.00     0.053 C 
BRANCH  14  15
ATOM     15  C   UNL     1     162.361 166.886 181.952  1.00  0.00     0.041 C 
ATOM     16  O   UNL     1     161.883 167.942 181.459  1.00  0.00    -0.550 OA
ATOM     17  O   UNL     1     163.482 166.955 182.770  1.00  0.00    -0.550 OA
ENDBRANCH  14  15
ENDBRANCH  13  14
ENDBRANCH  12  13
ENDBRANCH  11  12
ENDBRANCH  10  11
ENDBRANCH   9  10
ENDBRANCH   8   9
ENDBRANCH   7   8
ENDBRANCH   6   7
ENDBRANCH   5   6
ENDBRANCH   4   5
ENDBRANCH   3   4
ENDBRANCH   2   3
ENDBRANCH   1   2
BRANCH   1  18
ATOM     18  C   UNL     1     166.324 163.129 182.895  1.00  0.00     0.000 C 
BRANCH  18  19
ATOM     19  C   UNL     1     167.145 163.070 184.192  1.00  0.00     0.000 C 
BRANCH  19  20
ATOM     20  C   UNL     1     167.378 161.620 184.642  1.00  0.00     0.000 C 
BRANCH  20  21
ATOM     21  C   UNL     1     167.429 160.645 183.453  1.00  0.00     0.000 C 
BRANCH  21  22
ATOM     22  C   UNL     1     168.763 160.724 182.688  1.00  0.00     0.000 C 
BRANCH  22  23
ATOM     23  C   UNL     1     168.636 160.245 181.226  1.00  0.00     0.000 C 
BRANCH  23  24
ATOM     24  C   UNL     1     167.449 160.865 180.461  1.00  0.00    -0.000 C 
BRANCH  24  25
ATOM     25  C   UNL     1     166.232 159.940 180.287  1.00  0.00    -0.000 C 
BRANCH  25  26
ATOM     26  C   UNL     1     165.002 160.600 179.632  1.00  0.00    -0.000 C 
BRANCH  26  27
ATOM     27  C   UNL     1     165.304 161.955 178.953  1.00  0.00    -0.000 C 
BRANCH  27  28
ATOM     28  C   UNL     1     164.788 162.013 177.504  1.00  0.00    -0.000 C 
BRANCH  28  29
ATOM     29  C   UNL     1     164.714 160.628 176.844  1.00  0.00    -0.000 C 
BRANCH  29  30
ATOM     30  C   UNL     1     163.893 160.633 175.541  1.00  0.00    -0.000 C 
BRANCH  30  31
ATOM     31  C   UNL     1     163.083 161.926 175.362  1.00  0.00    -0.003 C 
ATOM     32  C   UNL     1     161.630 161.661 174.968  1.00  0.00     0.004 C 
ENDBRANCH  30  31
ENDBRANCH  29  30
ENDBRANCH  28  29
ENDBRANCH  27  28
ENDBRANCH  26  27
ENDBRANCH  25  26
ENDBRANCH  24  25
ENDBRANCH  23  24
ENDBRANCH  22  23
ENDBRANCH  21  22
ENDBRANCH  20  21
ENDBRANCH  19  20
ENDBRANCH  18  19
ENDBRANCH   1  18
TORSDOF 28
ENDMDL
MODEL 5
REMARK VINA RESULT:    -3.882      3.020      7.210
REMARK INTER + INTRA:         -15.577
REMARK INTER:                  -9.501
REMARK INTRA:                  -6.076
REMARK UNBOUND:                -5.340
REMARK SMILES CCCCCCCCCCCCCCCCCCCCCCCCCCCCCC(=O)[O-]
REMARK SMILES IDX 16 1 17 2 18 3 19 4 20 5 21 6 22 7 23 8 24 9 25 10 26 11
REMARK SMILES IDX 27 12 28 13 29 14 30 15 31 16 32 17 15 18 14 19 13 20 12 21
REMARK SMILES IDX 11 22 10 23 9 24 8 25 7 26 6 27 5 28 4 29 3 30 2 31 1 32
REMARK H PARENT
REMARK Flexibility Score: inf
ROOT
ATOM      1  C   UNL     1     162.978 161.352 178.896  1.00  0.00     0.000 C 
ENDROOT
BRANCH   1   2
ATOM      2  C   UNL     1     162.050 160.404 179.672  1.00  0.00     0.000 C 
BRANCH   2   3
ATOM      3  C   UNL     1     160.663 161.017 179.932  1.00  0.00     0.000 C 
BRANCH   3   4
ATOM      4  C   UNL     1     160.152 160.756 181.361  1.00  0.00     0.000 C 
BRANCH   4   5
ATOM      5  C   UNL     1     160.333 161.925 182.349  1.00  0.00     0.000 C 
BRANCH   5   6
ATOM      6  C   UNL     1     161.232 161.637 183.567  1.00  0.00     0.000 C 
BRANCH   6   7
ATOM      7  C   UNL     1     162.590 160.996 183.209  1.00  0.00     0.000 C 
BRANCH   7   8
ATOM      8  C   UNL     1     163.552 161.977 182.515  1.00  0.00     0.000 C 
BRANCH   8   9
ATOM      9  C   UNL     1     163.804 163.255 183.335  1.00  0.00     0.000 C 
BRANCH   9  10
ATOM     10  C   UNL     1     163.705 164.568 182.542  1.00  0.00     0.000 C 
BRANCH  10  11
ATOM     11  C   UNL     1     162.274 164.898 182.091  1.00  0.00     0.000 C 
BRANCH  11  12
ATOM     12  C   UNL     1     162.128 164.723 180.575  1.00  0.00     0.000 C 
BRANCH  12  13
ATOM     13  C   UNL     1     161.418 165.926 179.940  1.00  0.00     0.006 C 
BRANCH  13  14
ATOM     14  C   UNL     1     160.285 166.462 180.826  1.00  0.00     0.053 C 
BRANCH  14  15
ATOM     15  C   UNL     1     160.342 167.954 180.962  1.00  0.00     0.041 C 
ATOM     16  O   UNL     1     160.736 168.663 179.998  1.00  0.00    -0.550 OA
ATOM     17  O   UNL     1     159.888 168.565 182.123  1.00  0.00    -0.550 OA
ENDBRANCH  14  15
ENDBRANCH  13  14
ENDBRANCH  12  13
ENDBRANCH  11  12
ENDBRANCH  10  11
ENDBRANCH   9  10
ENDBRANCH   8   9
ENDBRANCH   7   8
ENDBRANCH   6   7
ENDBRANCH   5   6
ENDBRANCH   4   5
ENDBRANCH   3   4
ENDBRANCH   2   3
ENDBRANCH   1   2
BRANCH   1  18
ATOM     18  C   UNL     1     163.998 160.611 178.017  1.00  0.00     0.000 C 
BRANCH  18  19
ATOM     19  C   UNL     1     164.519 161.531 176.903  1.00  0.00     0.000 C 
BRANCH  19  20
ATOM     20  C   UNL     1     164.275 163.009 177.238  1.00  0.00     0.000 C 
BRANCH  20  21
ATOM     21  C   UNL     1     165.542 163.702 177.767  1.00  0.00     0.000 C 
BRANCH  21  22
ATOM     22  C   UNL     1     165.401 164.141 179.236  1.00  0.00     0.000 C 
BRANCH  22  23
ATOM     23  C   UNL     1     166.415 163.440 180.164  1.00  0.00     0.000 C 
BRANCH  23  24
ATOM     24  C   UNL     1     167.458 162.580 179.422  1.00  0.00    -0.000 C 
BRANCH  24  25
ATOM     25  C   UNL     1     167.896 161.304 180.160  1.00  0.00    -0.000 C 
BRANCH  25  26
ATOM     26  C   UNL     1     166.827 160.195 180.234  1.00  0.00    -0.000 C 
BRANCH  26  27
ATOM     27  C   UNL     1     166.250 159.974 181.650  1.00  0.00    -0.000 C 
BRANCH  27  28
ATOM     28  C   UNL     1     167.287 160.241 182.755  1.00  0.00    -0.000 C 
BRANCH  28  29
ATOM     29  C   UNL     1     166.646 160.698 184.074  1.00  0.00    -0.000 C 
BRANCH  29  30
ATOM     30  C   UNL     1     167.302 161.969 184.645  1.00  0.00    -0.000 C 
BRANCH  30  31
ATOM     31  C   UNL     1     167.902 162.863 183.550  1.00  0.00    -0.003 C 
ATOM     32  C   UNL     1     167.418 164.310 183.639  1.00  0.00     0.004 C 
ENDBRANCH  30  31
ENDBRANCH  29  30
ENDBRANCH  28  29
ENDBRANCH  27  28
ENDBRANCH  26  27
ENDBRANCH  25  26
ENDBRANCH  24  25
ENDBRANCH  23  24
ENDBRANCH  22  23
ENDBRANCH  21  22
ENDBRANCH  20  21
ENDBRANCH  19  20
ENDBRANCH  18  19
ENDBRANCH   1  18
TORSDOF 28
ENDMDL
MODEL 6
REMARK VINA RESULT:    -3.871      5.004      9.835
REMARK INTER + INTRA:         -15.548
REMARK INTER:                 -12.229
REMARK INTRA:                  -3.319
REMARK UNBOUND:                -5.340
REMARK SMILES CCCCCCCCCCCCCCCCCCCCCCCCCCCCCC(=O)[O-]
REMARK SMILES IDX 16 1 17 2 18 3 19 4 20 5 21 6 22 7 23 8 24 9 25 10 26 11
REMARK SMILES IDX 27 12 28 13 29 14 30 15 31 16 32 17 15 18 14 19 13 20 12 21
REMARK SMILES IDX 11 22 10 23 9 24 8 25 7 26 6 27 5 28 4 29 3 30 2 31 1 32
REMARK H PARENT
REMARK Flexibility Score: inf
ROOT
ATOM      1  C   UNL     1     168.360 161.503 182.608  1.00  0.00     0.000 C 
ENDROOT
BRANCH   1   2
ATOM      2  C   UNL     1     167.425 161.498 183.827  1.00  0.00     0.000 C 
BRANCH   2   3
ATOM      3  C   UNL     1     166.633 160.186 183.960  1.00  0.00     0.000 C 
BRANCH   3   4
ATOM      4  C   UNL     1     165.635 159.969 182.806  1.00  0.00     0.000 C 
BRANCH   4   5
ATOM      5  C   UNL     1     164.259 160.638 182.993  1.00  0.00     0.000 C 
BRANCH   5   6
ATOM      6  C   UNL     1     164.152 162.094 182.500  1.00  0.00     0.000 C 
BRANCH   6   7
ATOM      7  C   UNL     1     163.012 162.899 183.159  1.00  0.00     0.000 C 
BRANCH   7   8
ATOM      8  C   UNL     1     161.774 162.038 183.472  1.00  0.00     0.000 C 
BRANCH   8   9
ATOM      9  C   UNL     1     160.483 162.586 182.838  1.00  0.00     0.000 C 
BRANCH   9  10
ATOM     10  C   UNL     1     160.242 162.160 181.380  1.00  0.00     0.000 C 
BRANCH  10  11
ATOM     11  C   UNL     1     160.360 160.644 181.164  1.00  0.00     0.000 C 
BRANCH  11  12
ATOM     12  C   UNL     1     161.438 160.327 180.119  1.00  0.00     0.000 C 
BRANCH  12  13
ATOM     13  C   UNL     1     161.676 161.522 179.185  1.00  0.00     0.006 C 
BRANCH  13  14
ATOM     14  C   UNL     1     163.159 161.908 179.106  1.00  0.00     0.053 C 
BRANCH  14  15
ATOM     15  C   UNL     1     163.994 160.799 178.537  1.00  0.00     0.041 C 
ATOM     16  O   UNL     1     163.967 160.557 177.302  1.00  0.00    -0.550 OA
ATOM     17  O   UNL     1     164.857 160.087 179.360  1.00  0.00    -0.550 OA
ENDBRANCH  14  15
ENDBRANCH  13  14
ENDBRANCH  12  13
ENDBRANCH  11  12
ENDBRANCH  10  11
ENDBRANCH   9  10
ENDBRANCH   8   9
ENDBRANCH   7   8
ENDBRANCH   6   7
ENDBRANCH   5   6
ENDBRANCH   4   5
ENDBRANCH   3   4
ENDBRANCH   2   3
ENDBRANCH   1   2
BRANCH   1  18
ATOM     18  C   UNL     1     169.239 160.246 182.518  1.00  0.00     0.000 C 
BRANCH  18  19
ATOM     19  C   UNL     1     170.261 160.383 181.380  1.00  0.00     0.000 C 
BRANCH  19  20
ATOM     20  C   UNL     1     171.701 160.339 181.913  1.00  0.00     0.000 C 
BRANCH  20  21
ATOM     21  C   UNL     1     172.239 161.741 182.247  1.00  0.00     0.000 C 
BRANCH  21  22
ATOM     22  C   UNL     1     173.364 161.702 183.297  1.00  0.00     0.000 C 
BRANCH  22  23
ATOM     23  C   UNL     1     174.201 160.407 183.221  1.00  0.00     0.000 C 
BRANCH  23  24
ATOM     24  C   UNL     1     175.574 160.584 182.542  1.00  0.00    -0.000 C 
BRANCH  24  25
ATOM     25  C   UNL     1     176.176 161.996 182.647  1.00  0.00    -0.000 C 
BRANCH  25  26
ATOM     26  C   UNL     1     177.557 162.065 183.328  1.00  0.00    -0.000 C 
BRANCH  26  27
ATOM     27  C   UNL     1     177.766 163.329 184.193  1.00  0.00    -0.000 C 
BRANCH  27  28
ATOM     28  C   UNL     1     176.913 164.517 183.712  1.00  0.00    -0.000 C 
BRANCH  28  29
ATOM     29  C   UNL     1     176.115 165.174 184.848  1.00  0.00    -0.000 C 
BRANCH  29  30
ATOM     30  C   UNL     1     174.771 165.756 184.370  1.00  0.00    -0.000 C 
BRANCH  30  31
ATOM     31  C   UNL     1     174.290 165.122 183.056  1.00  0.00    -0.003 C 
ATOM     32  C   UNL     1     172.891 165.589 182.655  1.00  0.00     0.004 C 
ENDBRANCH  30  31
ENDBRANCH  29  30
ENDBRANCH  28  29
ENDBRANCH  27  28
ENDBRANCH  26  27
ENDBRANCH  25  26
ENDBRANCH  24  25
ENDBRANCH  23  24
ENDBRANCH  22  23
ENDBRANCH  21  22
ENDBRANCH  20  21
ENDBRANCH  19  20
ENDBRANCH  18  19
ENDBRANCH   1  18
TORSDOF 28
ENDMDL
MODEL 7
REMARK VINA RESULT:    -3.857      1.635      3.204
REMARK INTER + INTRA:         -15.510
REMARK INTER:                  -9.668
REMARK INTRA:                  -5.842
REMARK UNBOUND:                -5.340
REMARK SMILES CCCCCCCCCCCCCCCCCCCCCCCCCCCCCC(=O)[O-]
REMARK SMILES IDX 16 1 17 2 18 3 19 4 20 5 21 6 22 7 23 8 24 9 25 10 26 11
REMARK SMILES IDX 27 12 28 13 29 14 30 15 31 16 32 17 15 18 14 19 13 20 12 21
REMARK SMILES IDX 11 22 10 23 9 24 8 25 7 26 6 27 5 28 4 29 3 30 2 31 1 32
REMARK H PARENT
REMARK Flexibility Score: inf
ROOT
ATOM      1  C   UNL     1     164.576 162.341 181.826  1.00  0.00     0.000 C 
ENDROOT
BRANCH   1   2
ATOM      2  C   UNL     1     164.240 160.850 181.674  1.00  0.00     0.000 C 
BRANCH   2   3
ATOM      3  C   UNL     1     165.398 159.936 182.111  1.00  0.00     0.000 C 
BRANCH   3   4
ATOM      4  C   UNL     1     165.568 159.876 183.641  1.00  0.00     0.000 C 
BRANCH   4   5
ATOM      5  C   UNL     1     166.974 160.234 184.161  1.00  0.00     0.000 C 
BRANCH   5   6
ATOM      6  C   UNL     1     167.330 161.733 184.144  1.00  0.00     0.000 C 
BRANCH   6   7
ATOM      7  C   UNL     1     168.114 162.180 182.892  1.00  0.00     0.000 C 
BRANCH   7   8
ATOM      8  C   UNL     1     169.080 161.099 182.372  1.00  0.00     0.000 C 
BRANCH   8   9
ATOM      9  C   UNL     1     168.853 160.750 180.890  1.00  0.00     0.000 C 
BRANCH   9  10
ATOM     10  C   UNL     1     167.918 161.707 180.132  1.00  0.00     0.000 C 
BRANCH  10  11
ATOM     11  C   UNL     1     167.055 161.001 179.076  1.00  0.00     0.000 C 
BRANCH  11  12
ATOM     12  C   UNL     1     166.271 162.023 178.244  1.00  0.00     0.000 C 
BRANCH  12  13
ATOM     13  C   UNL     1     164.791 161.633 178.132  1.00  0.00     0.006 C 
BRANCH  13  14
ATOM     14  C   UNL     1     164.386 161.305 176.689  1.00  0.00     0.053 C 
BRANCH  14  15
ATOM     15  C   UNL     1     163.562 162.400 176.079  1.00  0.00     0.041 C 
ATOM     16  O   UNL     1     162.714 162.133 175.188  1.00  0.00    -0.550 OA
ATOM     17  O   UNL     1     163.679 163.701 176.550  1.00  0.00    -0.550 OA
ENDBRANCH  14  15
ENDBRANCH  13  14
ENDBRANCH  12  13
ENDBRANCH  11  12
ENDBRANCH  10  11
ENDBRANCH   9  10
ENDBRANCH   8   9
ENDBRANCH   7   8
ENDBRANCH   6   7
ENDBRANCH   5   6
ENDBRANCH   4   5
ENDBRANCH   3   4
ENDBRANCH   2   3
ENDBRANCH   1   2
BRANCH   1  18
ATOM     18  C   UNL     1     163.729 163.043 182.899  1.00  0.00     0.000 C 
BRANCH  18  19
ATOM     19  C   UNL     1     162.665 162.087 183.458  1.00  0.00     0.000 C 
BRANCH  19  20
ATOM     20  C   UNL     1     161.310 162.791 183.621  1.00  0.00     0.000 C 
BRANCH  20  21
ATOM     21  C   UNL     1     160.162 161.999 182.972  1.00  0.00     0.000 C 
BRANCH  21  22
ATOM     22  C   UNL     1     160.599 160.592 182.525  1.00  0.00     0.000 C 
BRANCH  22  23
ATOM     23  C   UNL     1     160.427 160.373 181.007  1.00  0.00     0.000 C 
BRANCH  23  24
ATOM     24  C   UNL     1     160.255 161.674 180.198  1.00  0.00    -0.000 C 
BRANCH  24  25
ATOM     25  C   UNL     1     161.481 162.094 179.369  1.00  0.00    -0.000 C 
BRANCH  25  26
ATOM     26  C   UNL     1     161.917 163.562 179.548  1.00  0.00    -0.000 C 
BRANCH  26  27
ATOM     27  C   UNL     1     160.891 164.432 180.309  1.00  0.00    -0.000 C 
BRANCH  27  28
ATOM     28  C   UNL     1     161.566 165.481 181.210  1.00  0.00    -0.000 C 
BRANCH  28  29
ATOM     29  C   UNL     1     160.569 166.202 182.130  1.00  0.00    -0.000 C 
BRANCH  29  30
ATOM     30  C   UNL     1     160.725 167.734 182.091  1.00  0.00    -0.000 C 
BRANCH  30  31
ATOM     31  C   UNL     1     160.244 168.339 180.764  1.00  0.00    -0.003 C 
ATOM     32  C   UNL     1     160.652 169.803 180.602  1.00  0.00     0.004 C 
ENDBRANCH  30  31
ENDBRANCH  29  30
ENDBRANCH  28  29
ENDBRANCH  27  28
ENDBRANCH  26  27
ENDBRANCH  25  26
ENDBRANCH  24  25
ENDBRANCH  23  24
ENDBRANCH  22  23
ENDBRANCH  21  22
ENDBRANCH  20  21
ENDBRANCH  19  20
ENDBRANCH  18  19
ENDBRANCH   1  18
TORSDOF 28
ENDMDL
MODEL 8
REMARK VINA RESULT:    -3.830      3.315      7.698
REMARK INTER + INTRA:         -15.440
REMARK INTER:                  -9.503
REMARK INTRA:                  -5.938
REMARK UNBOUND:                -5.340
REMARK SMILES CCCCCCCCCCCCCCCCCCCCCCCCCCCCCC(=O)[O-]
REMARK SMILES IDX 16 1 17 2 18 3 19 4 20 5 21 6 22 7 23 8 24 9 25 10 26 11
REMARK SMILES IDX 27 12 28 13 29 14 30 15 31 16 32 17 15 18 14 19 13 20 12 21
REMARK SMILES IDX 11 22 10 23 9 24 8 25 7 26 6 27 5 28 4 29 3 30 2 31 1 32
REMARK H PARENT
REMARK Flexibility Score: inf
ROOT
ATOM      1  C   UNL     1     163.155 161.382 178.779  1.00  0.00     0.000 C 
ENDROOT
BRANCH   1   2
ATOM      2  C   UNL     1     162.180 160.506 179.580  1.00  0.00     0.000 C 
BRANCH   2   3
ATOM      3  C   UNL     1     160.847 161.218 179.870  1.00  0.00     0.000 C 
BRANCH   3   4
ATOM      4  C   UNL     1     160.224 160.797 181.214  1.00  0.00     0.000 C 
BRANCH   4   5
ATOM      5  C   UNL     1     160.075 161.927 182.252  1.00  0.00     0.000 C 
BRANCH   5   6
ATOM      6  C   UNL     1     161.018 161.845 183.468  1.00  0.00     0.000 C 
BRANCH   6   7
ATOM      7  C   UNL     1     162.288 161.003 183.223  1.00  0.00     0.000 C 
BRANCH   7   8
ATOM      8  C   UNL     1     163.481 161.846 182.732  1.00  0.00     0.000 C 
BRANCH   8   9
ATOM      9  C   UNL     1     163.603 163.197 183.459  1.00  0.00     0.000 C 
BRANCH   9  10
ATOM     10  C   UNL     1     163.534 164.434 182.549  1.00  0.00     0.000 C 
BRANCH  10  11
ATOM     11  C   UNL     1     162.964 164.131 181.156  1.00  0.00     0.000 C 
BRANCH  11  12
ATOM     12  C   UNL     1     161.738 165.006 180.868  1.00  0.00     0.000 C 
BRANCH  12  13
ATOM     13  C   UNL     1     161.041 165.433 182.168  1.00  0.00     0.006 C 
BRANCH  13  14
ATOM     14  C   UNL     1     160.571 166.893 182.120  1.00  0.00     0.053 C 
BRANCH  14  15
ATOM     15  C   UNL     1     161.723 167.845 181.996  1.00  0.00     0.041 C 
ATOM     16  O   UNL     1     162.674 167.798 182.820  1.00  0.00    -0.550 OA
ATOM     17  O   UNL     1     161.781 168.730 180.928  1.00  0.00    -0.550 OA
ENDBRANCH  14  15
ENDBRANCH  13  14
ENDBRANCH  12  13
ENDBRANCH  11  12
ENDBRANCH  10  11
ENDBRANCH   9  10
ENDBRANCH   8   9
ENDBRANCH   7   8
ENDBRANCH   6   7
ENDBRANCH   5   6
ENDBRANCH   4   5
ENDBRANCH   3   4
ENDBRANCH   2   3
ENDBRANCH   1   2
BRANCH   1  18
ATOM     18  C   UNL     1     164.309 160.584 178.153  1.00  0.00     0.000 C 
BRANCH  18  19
ATOM     19  C   UNL     1     165.658 161.244 178.473  1.00  0.00     0.000 C 
BRANCH  19  20
ATOM     20  C   UNL     1     165.785 161.560 179.971  1.00  0.00     0.000 C 
BRANCH  20  21
ATOM     21  C   UNL     1     166.205 160.329 180.791  1.00  0.00     0.000 C 
BRANCH  21  22
ATOM     22  C   UNL     1     167.710 160.328 181.117  1.00  0.00     0.000 C 
BRANCH  22  23
ATOM     23  C   UNL     1     167.988 160.303 182.634  1.00  0.00     0.000 C 
BRANCH  23  24
ATOM     24  C   UNL     1     166.866 160.923 183.490  1.00  0.00    -0.000 C 
BRANCH  24  25
ATOM     25  C   UNL     1     167.346 161.769 184.682  1.00  0.00    -0.000 C 
BRANCH  25  26
ATOM     26  C   UNL     1     167.252 163.295 184.478  1.00  0.00    -0.000 C 
BRANCH  26  27
ATOM     27  C   UNL     1     167.125 163.722 182.998  1.00  0.00    -0.000 C 
BRANCH  27  28
ATOM     28  C   UNL     1     168.437 164.300 182.440  1.00  0.00    -0.000 C 
BRANCH  28  29
ATOM     29  C   UNL     1     168.767 163.775 181.034  1.00  0.00    -0.000 C 
BRANCH  29  30
ATOM     30  C   UNL     1     170.263 163.456 180.855  1.00  0.00    -0.000 C 
BRANCH  30  31
ATOM     31  C   UNL     1     170.909 162.925 182.143  1.00  0.00    -0.003 C 
ATOM     32  C   UNL     1     171.334 161.462 182.030  1.00  0.00     0.004 C 
ENDBRANCH  30  31
ENDBRANCH  29  30
ENDBRANCH  28  29
ENDBRANCH  27  28
ENDBRANCH  26  27
ENDBRANCH  25  26
ENDBRANCH  24  25
ENDBRANCH  23  24
ENDBRANCH  22  23
ENDBRANCH  21  22
ENDBRANCH  20  21
ENDBRANCH  19  20
ENDBRANCH  18  19
ENDBRANCH   1  18
TORSDOF 28
ENDMDL
MODEL 9
REMARK VINA RESULT:    -3.813      5.233      7.874
REMARK INTER + INTRA:         -15.395
REMARK INTER:                 -11.245
REMARK INTRA:                  -4.150
REMARK UNBOUND:                -5.340
REMARK SMILES CCCCCCCCCCCCCCCCCCCCCCCCCCCCCC(=O)[O-]
REMARK SMILES IDX 16 1 17 2 18 3 19 4 20 5 21 6 22 7 23 8 24 9 25 10 26 11
REMARK SMILES IDX 27 12 28 13 29 14 30 15 31 16 32 17 15 18 14 19 13 20 12 21
REMARK SMILES IDX 11 22 10 23 9 24 8 25 7 26 6 27 5 28 4 29 3 30 2 31 1 32
REMARK H PARENT
REMARK Flexibility Score: inf
ROOT
ATOM      1  C   UNL     1     164.480 162.090 179.327  1.00  0.00     0.000 C 
ENDROOT
BRANCH   1   2
ATOM      2  C   UNL     1     165.261 161.434 180.476  1.00  0.00     0.000 C 
BRANCH   2   3
ATOM      3  C   UNL     1     164.352 160.638 181.429  1.00  0.00     0.000 C 
BRANCH   3   4
ATOM      4  C   UNL     1     164.769 160.774 182.906  1.00  0.00     0.000 C 
BRANCH   4   5
ATOM      5  C   UNL     1     165.527 162.069 183.259  1.00  0.00     0.000 C 
BRANCH   5   6
ATOM      6  C   UNL     1     166.918 161.876 183.894  1.00  0.00     0.000 C 
BRANCH   6   7
ATOM      7  C   UNL     1     167.441 160.426 183.833  1.00  0.00     0.000 C 
BRANCH   7   8
ATOM      8  C   UNL     1     168.483 160.211 182.719  1.00  0.00     0.000 C 
BRANCH   8   9
ATOM      9  C   UNL     1     169.067 161.528 182.178  1.00  0.00     0.000 C 
BRANCH   9  10
ATOM     10  C   UNL     1     170.602 161.575 182.094  1.00  0.00     0.000 C 
BRANCH  10  11
ATOM     11  C   UNL     1     171.253 160.185 182.137  1.00  0.00     0.000 C 
BRANCH  11  12
ATOM     12  C   UNL     1     172.642 160.256 182.785  1.00  0.00     0.000 C 
BRANCH  12  13
ATOM     13  C   UNL     1     173.612 161.085 181.932  1.00  0.00     0.006 C 
BRANCH  13  14
ATOM     14  C   UNL     1     174.645 161.829 182.790  1.00  0.00     0.053 C 
BRANCH  14  15
ATOM     15  C   UNL     1     176.048 161.446 182.430  1.00  0.00     0.041 C 
ATOM     16  O   UNL     1     176.907 161.264 183.333  1.00  0.00    -0.550 OA
ATOM     17  O   UNL     1     176.386 161.214 181.103  1.00  0.00    -0.550 OA
ENDBRANCH  14  15
ENDBRANCH  13  14
ENDBRANCH  12  13
ENDBRANCH  11  12
ENDBRANCH  10  11
ENDBRANCH   9  10
ENDBRANCH   8   9
ENDBRANCH   7   8
ENDBRANCH   6   7
ENDBRANCH   5   6
ENDBRANCH   4   5
ENDBRANCH   3   4
ENDBRANCH   2   3
ENDBRANCH   1   2
BRANCH   1  18
ATOM     18  C   UNL     1     163.702 161.079 178.472  1.00  0.00     0.000 C 
BRANCH  18  19
ATOM     19  C   UNL     1     162.532 161.767 177.753  1.00  0.00     0.000 C 
BRANCH  19  20
ATOM     20  C   UNL     1     161.985 162.944 178.575  1.00  0.00     0.000 C 
BRANCH  20  21
ATOM     21  C   UNL     1     160.714 162.567 179.355  1.00  0.00     0.000 C 
BRANCH  21  22
ATOM     22  C   UNL     1     160.327 161.089 179.165  1.00  0.00     0.000 C 
BRANCH  22  23
ATOM     23  C   UNL     1     160.553 160.249 180.440  1.00  0.00     0.000 C 
BRANCH  23  24
ATOM     24  C   UNL     1     159.996 160.893 181.725  1.00  0.00    -0.000 C 
BRANCH  24  25
ATOM     25  C   UNL     1     161.027 161.109 182.846  1.00  0.00    -0.000 C 
BRANCH  25  26
ATOM     26  C   UNL     1     160.861 162.420 183.640  1.00  0.00    -0.000 C 
BRANCH  26  27
ATOM     27  C   UNL     1     162.087 163.359 183.562  1.00  0.00    -0.000 C 
BRANCH  27  28
ATOM     28  C   UNL     1     162.491 163.675 182.111  1.00  0.00    -0.000 C 
BRANCH  28  29
ATOM     29  C   UNL     1     162.164 165.121 181.705  1.00  0.00    -0.000 C 
BRANCH  29  30
ATOM     30  C   UNL     1     160.701 165.503 181.997  1.00  0.00    -0.000 C 
BRANCH  30  31
ATOM     31  C   UNL     1     160.556 166.961 182.459  1.00  0.00    -0.003 C 
ATOM     32  C   UNL     1     161.881 167.721 182.437  1.00  0.00     0.004 C 
ENDBRANCH  30  31
ENDBRANCH  29  30
ENDBRANCH  28  29
ENDBRANCH  27  28
ENDBRANCH  26  27
ENDBRANCH  25  26
ENDBRANCH  24  25
ENDBRANCH  23  24
ENDBRANCH  22  23
ENDBRANCH  21  22
ENDBRANCH  20  21
ENDBRANCH  19  20
ENDBRANCH  18  19
ENDBRANCH   1  18
TORSDOF 28
ENDMDL
