MODEL 1
REMARK VINA RESULT:    13.004      0.000      0.000
REMARK INTER + INTRA:          17.688
REMARK INTER:                  18.326
REMARK INTRA:                  -0.638
REMARK UNBOUND:                -0.638
REMARK SMILES COc1c(O[C@H]2O[C@@H](C(=O)[O-])[C@@H](O)[C@H](O)[C@@H]2O)cc(O)c2c(=O)cc(-c3ccccc3)oc12
REMARK SMILES IDX 5 1 6 2 8 3 12 4 7 5 14 6 16 7 9 8 10 9 11 10 13 11 15 13
REMARK SMILES IDX 17 15 4 17 3 18 18 19 33 20 19 21 21 22 32 23 22 24 25 25
REMARK SMILES IDX 24 26 23 27 2 28 1 29 20 30 26 32 27 33 31 34 28 35 30 36
REMARK SMILES IDX 29 37
REMARK H PARENT 13 12 15 14 17 16 20 31
REMARK Flexibility Score: inf
ROOT
ATOM      1  O   UNL     1      61.209  21.030  22.928  1.00  0.00    -0.458 OA
ENDROOT
BRANCH   1   2
ATOM      2  C   UNL     1      62.314  21.743  23.496  1.00  0.00     0.339 C 
ATOM      3  C   UNL     1      63.622  23.654  23.239  1.00  0.00     0.199 C 
ATOM      4  C   UNL     1      63.330  24.217  24.651  1.00  0.00     0.180 C 
ATOM      5  O   UNL     1      62.495  22.946  22.762  1.00  0.00    -0.328 OA
ATOM      6  C   UNL     1      62.959  23.066  25.622  1.00  0.00     0.181 C 
ATOM      7  C   UNL     1      61.974  22.055  24.977  1.00  0.00     0.214 C 
BRANCH   3   8
ATOM      8  C   UNL     1      63.942  24.756  22.272  1.00  0.00     0.073 C 
ATOM      9  O   UNL     1      64.096  24.498  21.047  1.00  0.00    -0.547 OA
ATOM     10  O   UNL     1      64.005  26.080  22.706  1.00  0.00    -0.547 OA
ENDBRANCH   3   8
BRANCH   4  11
ATOM     11  O   UNL     1      62.307  25.190  24.612  1.00  0.00    -0.387 OA
ATOM     12  H   UNL     1      61.549  24.858  25.162  1.00  0.00     0.211 HD
ENDBRANCH   4  11
BRANCH   6  13
ATOM     13  O   UNL     1      64.112  22.421  26.119  1.00  0.00    -0.387 OA
ATOM     14  H   UNL     1      63.968  22.183  27.074  1.00  0.00     0.211 HD
ENDBRANCH   6  13
BRANCH   7  15
ATOM     15  O   UNL     1      61.888  20.875  25.741  1.00  0.00    -0.384 OA
ATOM     16  H   UNL     1      62.695  20.821  26.316  1.00  0.00     0.211 HD
ENDBRANCH   7  15
ENDBRANCH   1   2
BRANCH   1  17
ATOM     17  C   UNL     1      59.893  21.505  22.973  1.00  0.00     0.172 A 
ATOM     18  C   UNL     1      59.377  22.265  21.906  1.00  0.00     0.205 A 
ATOM     19  C   UNL     1      59.063  21.163  24.046  1.00  0.00     0.097 A 
ATOM     20  C   UNL     1      58.017  22.608  21.889  1.00  0.00     0.188 A 
ATOM     21  C   UNL     1      57.694  21.485  24.038  1.00  0.00     0.134 A 
ATOM     22  C   UNL     1      57.158  22.258  22.968  1.00  0.00     0.111 A 
ATOM     23  O   UNL     1      57.543  23.257  20.829  1.00  0.00    -0.452 OA
ATOM     24  C   UNL     1      55.823  22.725  22.899  1.00  0.00     0.197 A 
ATOM     25  C   UNL     1      56.277  23.644  20.709  1.00  0.00     0.138 A 
ATOM     26  C   UNL     1      55.389  23.410  21.770  1.00  0.00     0.100 A 
ATOM     27  O   UNL     1      55.007  22.562  23.845  1.00  0.00    -0.289 OA
BRANCH  18  28
ATOM     28  O   UNL     1      60.173  22.661  20.821  1.00  0.00    -0.490 OA
ATOM     29  C   UNL     1      60.785  21.751  19.915  1.00  0.00     0.278 C 
ENDBRANCH  18  28
BRANCH  21  30
ATOM     30  O   UNL     1      56.941  20.994  25.111  1.00  0.00    -0.507 OA
ATOM     31  H   UNL     1      55.947  21.080  25.230  1.00  0.00     0.293 HD
ENDBRANCH  21  30
BRANCH  25  32
ATOM     32  C   UNL     1      55.840  24.299  19.441  1.00  0.00     0.017 A 
ATOM     33  C   UNL     1      55.645  23.569  18.248  1.00  0.00     0.012 A 
ATOM     34  C   UNL     1      55.666  25.698  19.410  1.00  0.00     0.012 A 
ATOM     35  C   UNL     1      55.363  24.226  17.045  1.00  0.00     0.001 A 
ATOM     36  C   UNL     1      55.402  26.355  18.206  1.00  0.00     0.001 A 
ATOM     37  C   UNL     1      55.250  25.619  17.026  1.00  0.00     0.000 A 
ENDBRANCH  25  32
ENDBRANCH   1  17
TORSDOF 9
ENDMDL
