MODEL 1
REMARK VINA RESULT:    -3.788      0.000      0.000
REMARK INTER + INTRA:          -6.119
REMARK INTER:                  -5.781
REMARK INTRA:                  -0.338
REMARK UNBOUND:                -0.338
REMARK SMILES CC1=CCC[C@H](C)C(=O)C[C@H](C(C)C)C(=O)C1
REMARK SMILES IDX 8 1 9 2 6 3 7 4 5 5 4 6 3 7 2 8 1 9 10 11 11 12 15 13 16 14
REMARK SMILES IDX 17 15 12 17 13 18 14 19
REMARK H PARENT
REMARK Flexibility Score: 70.00
ROOT
ATOM      1  C   UNL     1      17.208  26.758  28.368  1.00  0.00     0.136 C 
ATOM      2  O   UNL     1      16.020  26.886  28.631  1.00  0.00    -0.299 OA
ENDROOT
BRANCH   1   3
ATOM      3  C   UNL     1      17.808  25.370  28.181  1.00  0.00     0.053 C 
ATOM      4  C   UNL     1      16.862  24.419  27.428  1.00  0.00     0.016 C 
BRANCH   3   5
ATOM      5  C   UNL     1      19.201  25.418  27.512  1.00  0.00     0.015 C 
BRANCH   5   6
ATOM      6  C   UNL     1      20.351  25.092  28.482  1.00  0.00     0.028 C 
BRANCH   6   7
ATOM      7  C   UNL     1      21.641  25.802  28.141  1.00  0.00    -0.028 C 
ATOM      8  C   UNL     1      22.051  27.007  28.620  1.00  0.00    -0.070 CG0
ATOM      9  C   UNL     1      23.324  27.576  28.039  1.00  0.00     0.039 C 
ATOM     10  G   UNL     1      21.366  27.778  29.746  1.00  0.00     0.000 G0
ENDBRANCH   6   7
ENDBRANCH   5   6
ENDBRANCH   3   5
ENDBRANCH   1   3
BRANCH   1  11
ATOM     11  C   UNL     1      18.080  27.989  28.273  1.00  0.00     0.087 C 
BRANCH  11  12
ATOM     12  C   UNL     1      18.811  28.368  29.594  1.00  0.00     0.066 C 
BRANCH  12  13
ATOM     13  C   UNL     1      20.271  28.730  29.328  1.00  0.00     0.140 C 
ATOM     14  O   UNL     1      20.561  29.808  28.826  1.00  0.00    -0.299 OA
BRANCH  13  15
ATOM     15  C   UNL     1      21.374  27.796  29.758  1.00  0.00     0.106 CG0
ATOM     16  G   UNL     1      22.030  27.009  28.626  1.00  0.00     0.000 G0
ENDBRANCH  13  15
ENDBRANCH  12  13
BRANCH  12  17
ATOM     17  C   UNL     1      18.078  29.449  30.465  1.00  0.00    -0.006 C 
ATOM     18  C   UNL     1      16.849  30.057  29.764  1.00  0.00     0.008 C 
ATOM     19  C   UNL     1      17.623  28.851  31.811  1.00  0.00     0.008 C 
ENDBRANCH  12  17
ENDBRANCH  11  12
ENDBRANCH   1  11
TORSDOF 1
ENDMDL
MODEL 2
REMARK VINA RESULT:    -3.681      2.290      4.853
REMARK INTER + INTRA:          -5.956
REMARK INTER:                  -5.420
REMARK INTRA:                  -0.536
REMARK UNBOUND:                -0.338
REMARK SMILES CC1=CCC[C@H](C)C(=O)C[C@H](C(C)C)C(=O)C1
REMARK SMILES IDX 8 1 9 2 6 3 7 4 5 5 4 6 3 7 2 8 1 9 10 11 11 12 15 13 16 14
REMARK SMILES IDX 17 15 12 17 13 18 14 19
REMARK H PARENT
REMARK Flexibility Score: 70.00
ROOT
ATOM      1  C   UNL     1      19.573  31.183  31.344  1.00  0.00     0.136 C 
ATOM      2  O   UNL     1      20.179  31.322  32.397  1.00  0.00    -0.299 OA
ENDROOT
BRANCH   1   3
ATOM      3  C   UNL     1      20.313  31.272  30.015  1.00  0.00     0.053 C 
ATOM      4  C   UNL     1      20.760  32.706  29.688  1.00  0.00     0.016 C 
BRANCH   3   5
ATOM      5  C   UNL     1      21.502  30.285  29.939  1.00  0.00     0.015 C 
BRANCH   5   6
ATOM      6  C   UNL     1      21.082  28.815  30.114  1.00  0.00     0.028 C 
BRANCH   6   7
ATOM      7  C   UNL     1      20.305  28.270  28.938  1.00  0.00    -0.028 C 
ATOM      8  C   UNL     1      19.001  27.886  28.938  1.00  0.00    -0.070 CG0
ATOM      9  C   UNL     1      18.472  27.255  27.672  1.00  0.00     0.039 C 
ATOM     10  G   UNL     1      18.024  28.118  30.089  1.00  0.00     0.000 G0
ENDBRANCH   6   7
ENDBRANCH   5   6
ENDBRANCH   3   5
ENDBRANCH   1   3
BRANCH   1  11
ATOM     11  C   UNL     1      18.078  30.967  31.376  1.00  0.00     0.087 C 
BRANCH  11  12
ATOM     12  C   UNL     1      17.435  30.677  29.988  1.00  0.00     0.066 C 
BRANCH  12  13
ATOM     13  C   UNL     1      17.008  29.214  29.877  1.00  0.00     0.140 C 
ATOM     14  O   UNL     1      15.866  28.925  29.544  1.00  0.00    -0.299 OA
BRANCH  13  15
ATOM     15  C   UNL     1      18.014  28.112  30.096  1.00  0.00     0.106 CG0
ATOM     16  G   UNL     1      18.992  27.894  28.943  1.00  0.00     0.000 G0
ENDBRANCH  13  15
ENDBRANCH  12  13
BRANCH  12  17
ATOM     17  C   UNL     1      16.288  31.665  29.574  1.00  0.00    -0.006 C 
ATOM     18  C   UNL     1      15.307  31.967  30.721  1.00  0.00     0.008 C 
ATOM     19  C   UNL     1      16.873  33.001  29.072  1.00  0.00     0.008 C 
ENDBRANCH  12  17
ENDBRANCH  11  12
ENDBRANCH   1  11
TORSDOF 1
ENDMDL
MODEL 3
REMARK VINA RESULT:    -3.665      2.566      4.933
REMARK INTER + INTRA:          -5.931
REMARK INTER:                  -5.798
REMARK INTRA:                  -0.133
REMARK UNBOUND:                -0.338
REMARK SMILES CC1=CCC[C@H](C)C(=O)C[C@H](C(C)C)C(=O)C1
REMARK SMILES IDX 8 1 9 2 6 3 7 4 5 5 4 6 3 7 2 8 1 9 10 11 11 12 15 13 16 14
REMARK SMILES IDX 17 15 12 17 13 18 14 19
REMARK H PARENT
REMARK Flexibility Score: 70.00
ROOT
ATOM      1  C   UNL     1      19.238  30.410  29.613  1.00  0.00     0.136 C 
ATOM      2  O   UNL     1      19.682  31.550  29.605  1.00  0.00    -0.299 OA
ENDROOT
BRANCH   1   3
ATOM      3  C   UNL     1      19.918  29.316  28.800  1.00  0.00     0.053 C 
ATOM      4  C   UNL     1      20.846  28.439  29.657  1.00  0.00     0.016 C 
BRANCH   3   5
ATOM      5  C   UNL     1      18.902  28.452  28.015  1.00  0.00     0.015 C 
BRANCH   5   6
ATOM      6  C   UNL     1      18.723  27.041  28.604  1.00  0.00     0.028 C 
BRANCH   6   7
ATOM      7  C   UNL     1      17.324  26.495  28.435  1.00  0.00    -0.028 C 
ATOM      8  C   UNL     1      16.242  26.793  29.202  1.00  0.00    -0.070 CG0
ATOM      9  C   UNL     1      14.971  26.027  28.920  1.00  0.00     0.039 C 
ATOM     10  G   UNL     1      16.200  27.891  30.264  1.00  0.00     0.000 G0
ENDBRANCH   6   7
ENDBRANCH   5   6
ENDBRANCH   3   5
ENDBRANCH   1   3
BRANCH   1  11
ATOM     11  C   UNL     1      17.985  30.112  30.403  1.00  0.00     0.087 C 
BRANCH  11  12
ATOM     12  C   UNL     1      16.656  30.388  29.640  1.00  0.00     0.066 C 
BRANCH  12  13
ATOM     13  C   UNL     1      15.678  29.226  29.804  1.00  0.00     0.140 C 
ATOM     14  O   UNL     1      14.502  29.358  29.494  1.00  0.00    -0.299 OA
BRANCH  13  15
ATOM     15  C   UNL     1      16.172  27.880  30.271  1.00  0.00     0.106 CG0
ATOM     16  G   UNL     1      16.236  26.805  29.187  1.00  0.00     0.000 G0
ENDBRANCH  13  15
ENDBRANCH  12  13
BRANCH  12  17
ATOM     17  C   UNL     1      15.993  31.775  29.954  1.00  0.00    -0.006 C 
ATOM     18  C   UNL     1      16.128  32.189  31.431  1.00  0.00     0.008 C 
ATOM     19  C   UNL     1      16.607  32.886  29.080  1.00  0.00     0.008 C 
ENDBRANCH  12  17
ENDBRANCH  11  12
ENDBRANCH   1  11
TORSDOF 1
ENDMDL
MODEL 4
REMARK VINA RESULT:    -3.559      2.602      5.275
REMARK INTER + INTRA:          -5.769
REMARK INTER:                  -5.676
REMARK INTRA:                  -0.093
REMARK UNBOUND:                -0.338
REMARK SMILES CC1=CCC[C@H](C)C(=O)C[C@H](C(C)C)C(=O)C1
REMARK SMILES IDX 8 1 9 2 6 3 7 4 5 5 4 6 3 7 2 8 1 9 10 11 11 12 15 13 16 14
REMARK SMILES IDX 17 15 12 17 13 18 14 19
REMARK H PARENT
REMARK Flexibility Score: 70.00
ROOT
ATOM      1  C   UNL     1      16.198  27.993  29.875  1.00  0.00     0.136 C 
ATOM      2  O   UNL     1      16.150  26.886  29.356  1.00  0.00    -0.299 OA
ENDROOT
BRANCH   1   3
ATOM      3  C   UNL     1      14.926  28.809  30.061  1.00  0.00     0.053 C 
ATOM      4  C   UNL     1      14.473  28.863  31.530  1.00  0.00     0.016 C 
BRANCH   3   5
ATOM      5  C   UNL     1      15.048  30.230  29.461  1.00  0.00     0.015 C 
BRANCH   5   6
ATOM      6  C   UNL     1      15.395  31.303  30.509  1.00  0.00     0.028 C 
BRANCH   6   7
ATOM      7  C   UNL     1      16.293  32.394  29.974  1.00  0.00    -0.028 C 
ATOM      8  C   UNL     1      17.645  32.460  30.096  1.00  0.00    -0.070 CG0
ATOM      9  C   UNL     1      18.318  33.713  29.587  1.00  0.00     0.039 C 
ATOM     10  G   UNL     1      18.529  31.337  30.635  1.00  0.00     0.000 G0
ENDBRANCH   6   7
ENDBRANCH   5   6
ENDBRANCH   3   5
ENDBRANCH   1   3
BRANCH   1  11
ATOM     11  C   UNL     1      17.538  28.557  30.287  1.00  0.00     0.087 C 
BRANCH  11  12
ATOM     12  C   UNL     1      18.359  29.192  29.126  1.00  0.00     0.066 C 
BRANCH  12  13
ATOM     13  C   UNL     1      19.138  30.414  29.610  1.00  0.00     0.140 C 
ATOM     14  O   UNL     1      20.219  30.697  29.112  1.00  0.00    -0.299 OA
BRANCH  13  15
ATOM     15  C   UNL     1      18.541  31.330  30.649  1.00  0.00     0.106 CG0
ATOM     16  G   UNL     1      17.646  32.436  30.095  1.00  0.00     0.000 G0
ENDBRANCH  13  15
ENDBRANCH  12  13
BRANCH  12  17
ATOM     17  C   UNL     1      19.263  28.185  28.332  1.00  0.00    -0.006 C 
ATOM     18  C   UNL     1      19.911  27.116  29.231  1.00  0.00     0.008 C 
ATOM     19  C   UNL     1      18.451  27.469  27.234  1.00  0.00     0.008 C 
ENDBRANCH  12  17
ENDBRANCH  11  12
ENDBRANCH   1  11
TORSDOF 1
ENDMDL
MODEL 5
REMARK VINA RESULT:    -3.547      2.066      4.209
REMARK INTER + INTRA:          -5.751
REMARK INTER:                  -5.805
REMARK INTRA:                   0.054
REMARK UNBOUND:                -0.338
REMARK SMILES CC1=CCC[C@H](C)C(=O)C[C@H](C(C)C)C(=O)C1
REMARK SMILES IDX 8 1 9 2 6 3 7 4 5 5 4 6 3 7 2 8 1 9 10 11 11 12 15 13 16 14
REMARK SMILES IDX 17 15 12 17 13 18 14 19
REMARK H PARENT
REMARK Flexibility Score: 70.00
ROOT
ATOM      1  C   UNL     1      20.613  25.779  28.864  1.00  0.00     0.136 C 
ATOM      2  O   UNL     1      21.373  24.882  29.205  1.00  0.00    -0.299 OA
ENDROOT
BRANCH   1   3
ATOM      3  C   UNL     1      19.633  25.561  27.719  1.00  0.00     0.053 C 
ATOM      4  C   UNL     1      20.100  24.464  26.748  1.00  0.00     0.016 C 
BRANCH   3   5
ATOM      5  C   UNL     1      18.196  25.287  28.221  1.00  0.00     0.015 C 
BRANCH   5   6
ATOM      6  C   UNL     1      17.265  26.506  28.092  1.00  0.00     0.028 C 
BRANCH   6   7
ATOM      7  C   UNL     1      17.161  27.317  29.362  1.00  0.00    -0.028 C 
ATOM      8  C   UNL     1      17.784  28.497  29.621  1.00  0.00    -0.070 CG0
ATOM      9  C   UNL     1      17.628  29.064  31.012  1.00  0.00     0.039 C 
ATOM     10  G   UNL     1      18.557  29.320  28.592  1.00  0.00     0.000 G0
ENDBRANCH   6   7
ENDBRANCH   5   6
ENDBRANCH   3   5
ENDBRANCH   1   3
BRANCH   1  11
ATOM     11  C   UNL     1      20.690  27.116  29.563  1.00  0.00     0.087 C 
BRANCH  11  12
ATOM     12  C   UNL     1      21.000  28.321  28.627  1.00  0.00     0.066 C 
BRANCH  12  13
ATOM     13  C   UNL     1      20.045  29.483  28.894  1.00  0.00     0.140 C 
ATOM     14  O   UNL     1      20.474  30.560  29.285  1.00  0.00    -0.299 OA
BRANCH  13  15
ATOM     15  C   UNL     1      18.573  29.337  28.600  1.00  0.00     0.106 CG0
ATOM     16  G   UNL     1      17.796  28.490  29.606  1.00  0.00     0.000 G0
ENDBRANCH  13  15
ENDBRANCH  12  13
BRANCH  12  17
ATOM     17  C   UNL     1      22.502  28.774  28.613  1.00  0.00    -0.006 C 
ATOM     18  C   UNL     1      23.087  28.970  30.024  1.00  0.00     0.008 C 
ATOM     19  C   UNL     1      23.376  27.750  27.863  1.00  0.00     0.008 C 
ENDBRANCH  12  17
ENDBRANCH  11  12
ENDBRANCH   1  11
TORSDOF 1
ENDMDL
MODEL 6
REMARK VINA RESULT:    -3.520      2.136      4.205
REMARK INTER + INTRA:          -5.710
REMARK INTER:                  -5.519
REMARK INTRA:                  -0.191
REMARK UNBOUND:                -0.338
REMARK SMILES CC1=CCC[C@H](C)C(=O)C[C@H](C(C)C)C(=O)C1
REMARK SMILES IDX 8 1 9 2 6 3 7 4 5 5 4 6 3 7 2 8 1 9 10 11 11 12 15 13 16 14
REMARK SMILES IDX 17 15 12 17 13 18 14 19
REMARK H PARENT
REMARK Flexibility Score: 70.00
ROOT
ATOM      1  C   UNL     1      19.049  25.725  27.721  1.00  0.00     0.136 C 
ATOM      2  O   UNL     1      18.960  24.702  27.057  1.00  0.00    -0.299 OA
ENDROOT
BRANCH   1   3
ATOM      3  C   UNL     1      20.286  25.983  28.572  1.00  0.00     0.053 C 
ATOM      4  C   UNL     1      21.487  25.128  28.134  1.00  0.00     0.016 C 
BRANCH   3   5
ATOM      5  C   UNL     1      20.659  27.483  28.625  1.00  0.00     0.015 C 
BRANCH   5   6
ATOM      6  C   UNL     1      20.578  28.079  30.042  1.00  0.00     0.028 C 
BRANCH   6   7
ATOM      7  C   UNL     1      19.870  29.413  30.091  1.00  0.00    -0.028 C 
ATOM      8  C   UNL     1      18.539  29.615  30.282  1.00  0.00    -0.070 CG0
ATOM      9  C   UNL     1      18.040  31.036  30.168  1.00  0.00     0.039 C 
ATOM     10  G   UNL     1      17.539  28.530  30.676  1.00  0.00     0.000 G0
ENDBRANCH   6   7
ENDBRANCH   5   6
ENDBRANCH   3   5
ENDBRANCH   1   3
BRANCH   1  11
ATOM     11  C   UNL     1      17.901  26.707  27.721  1.00  0.00     0.087 C 
BRANCH  11  12
ATOM     12  C   UNL     1      16.966  26.612  28.962  1.00  0.00     0.066 C 
BRANCH  12  13
ATOM     13  C   UNL     1      16.685  27.996  29.545  1.00  0.00     0.140 C 
ATOM     14  O   UNL     1      15.732  28.653  29.148  1.00  0.00    -0.299 OA
BRANCH  13  15
ATOM     15  C   UNL     1      17.532  28.530  30.672  1.00  0.00     0.106 CG0
ATOM     16  G   UNL     1      18.535  29.609  30.269  1.00  0.00     0.000 G0
ENDBRANCH  13  15
ENDBRANCH  12  13
BRANCH  12  17
ATOM     17  C   UNL     1      15.653  25.783  28.735  1.00  0.00    -0.006 C 
ATOM     18  C   UNL     1      15.695  24.922  27.459  1.00  0.00     0.008 C 
ATOM     19  C   UNL     1      15.376  24.857  29.936  1.00  0.00     0.008 C 
ENDBRANCH  12  17
ENDBRANCH  11  12
ENDBRANCH   1  11
TORSDOF 1
ENDMDL
MODEL 7
REMARK VINA RESULT:    -3.391      3.349      5.869
REMARK INTER + INTRA:          -5.513
REMARK INTER:                  -4.901
REMARK INTRA:                  -0.612
REMARK UNBOUND:                -0.338
REMARK SMILES CC1=CCC[C@H](C)C(=O)C[C@H](C(C)C)C(=O)C1
REMARK SMILES IDX 8 1 9 2 6 3 7 4 5 5 4 6 3 7 2 8 1 9 10 11 11 12 15 13 16 14
REMARK SMILES IDX 17 15 12 17 13 18 14 19
REMARK H PARENT
REMARK Flexibility Score: 70.00
ROOT
ATOM      1  C   UNL     1      17.465  28.948  31.380  1.00  0.00     0.136 C 
ATOM      2  O   UNL     1      16.825  28.266  32.169  1.00  0.00    -0.299 OA
ENDROOT
BRANCH   1   3
ATOM      3  C   UNL     1      16.918  29.222  29.984  1.00  0.00     0.053 C 
ATOM      4  C   UNL     1      16.858  27.953  29.118  1.00  0.00     0.016 C 
BRANCH   3   5
ATOM      5  C   UNL     1      15.547  29.938  30.022  1.00  0.00     0.015 C 
BRANCH   5   6
ATOM      6  C   UNL     1      15.651  31.459  29.809  1.00  0.00     0.028 C 
BRANCH   6   7
ATOM      7  C   UNL     1      15.875  32.229  31.090  1.00  0.00    -0.028 C 
ATOM      8  C   UNL     1      17.056  32.736  31.533  1.00  0.00    -0.070 CG0
ATOM      9  C   UNL     1      17.060  33.363  32.907  1.00  0.00     0.039 C 
ATOM     10  G   UNL     1      18.345  32.786  30.716  1.00  0.00     0.000 G0
ENDBRANCH   6   7
ENDBRANCH   5   6
ENDBRANCH   3   5
ENDBRANCH   1   3
BRANCH   1  11
ATOM     11  C   UNL     1      18.820  29.475  31.790  1.00  0.00     0.087 C 
BRANCH  11  12
ATOM     12  C   UNL     1      19.492  30.416  30.747  1.00  0.00     0.066 C 
BRANCH  12  13
ATOM     13  C   UNL     1      19.450  31.870  31.215  1.00  0.00     0.140 C 
ATOM     14  O   UNL     1      20.333  32.314  31.937  1.00  0.00    -0.299 OA
BRANCH  13  15
ATOM     15  C   UNL     1      18.365  32.794  30.723  1.00  0.00     0.106 CG0
ATOM     16  G   UNL     1      17.066  32.746  31.526  1.00  0.00     0.000 G0
ENDBRANCH  13  15
ENDBRANCH  12  13
BRANCH  12  17
ATOM     17  C   UNL     1      20.928  29.976  30.294  1.00  0.00    -0.006 C 
ATOM     18  C   UNL     1      21.715  29.248  31.400  1.00  0.00     0.008 C 
ATOM     19  C   UNL     1      20.854  29.052  29.062  1.00  0.00     0.008 C 
ENDBRANCH  12  17
ENDBRANCH  11  12
ENDBRANCH   1  11
TORSDOF 1
ENDMDL
MODEL 8
REMARK VINA RESULT:    -3.389      2.233      3.488
REMARK INTER + INTRA:          -5.510
REMARK INTER:                  -5.223
REMARK INTRA:                  -0.287
REMARK UNBOUND:                -0.338
REMARK SMILES CC1=CCC[C@H](C)C(=O)C[C@H](C(C)C)C(=O)C1
REMARK SMILES IDX 8 1 9 2 6 3 7 4 5 5 4 6 3 7 2 8 1 9 10 11 11 12 15 13 16 14
REMARK SMILES IDX 17 15 12 17 13 18 14 19
REMARK H PARENT
REMARK Flexibility Score: 70.00
ROOT
ATOM      1  C   UNL     1      19.081  27.155  28.188  1.00  0.00     0.136 C 
ATOM      2  O   UNL     1      18.685  26.221  27.504  1.00  0.00    -0.299 OA
ENDROOT
BRANCH   1   3
ATOM      3  C   UNL     1      20.263  26.968  29.132  1.00  0.00     0.053 C 
ATOM      4  C   UNL     1      20.845  25.547  29.067  1.00  0.00     0.016 C 
BRANCH   3   5
ATOM      5  C   UNL     1      21.362  28.033  28.912  1.00  0.00     0.015 C 
BRANCH   5   6
ATOM      6  C   UNL     1      21.833  28.698  30.218  1.00  0.00     0.028 C 
BRANCH   6   7
ATOM      7  C   UNL     1      21.874  30.207  30.140  1.00  0.00    -0.028 C 
ATOM      8  C   UNL     1      20.825  31.054  30.310  1.00  0.00    -0.070 CG0
ATOM      9  C   UNL     1      21.083  32.522  30.063  1.00  0.00     0.039 C 
ATOM     10  G   UNL     1      19.440  30.640  30.805  1.00  0.00     0.000 G0
ENDBRANCH   6   7
ENDBRANCH   5   6
ENDBRANCH   3   5
ENDBRANCH   1   3
BRANCH   1  11
ATOM     11  C   UNL     1      18.357  28.479  28.119  1.00  0.00     0.087 C 
BRANCH  11  12
ATOM     12  C   UNL     1      17.857  29.017  29.491  1.00  0.00     0.066 C 
BRANCH  12  13
ATOM     13  C   UNL     1      18.394  30.422  29.758  1.00  0.00     0.140 C 
ATOM     14  O   UNL     1      17.933  31.386  29.162  1.00  0.00    -0.299 OA
BRANCH  13  15
ATOM     15  C   UNL     1      19.442  30.644  30.820  1.00  0.00     0.106 CG0
ATOM     16  G   UNL     1      20.818  31.046  30.293  1.00  0.00     0.000 G0
ENDBRANCH  13  15
ENDBRANCH  12  13
BRANCH  12  17
ATOM     17  C   UNL     1      16.305  28.921  29.709  1.00  0.00    -0.006 C 
ATOM     18  C   UNL     1      15.762  27.488  29.561  1.00  0.00     0.008 C 
ATOM     19  C   UNL     1      15.916  29.446  31.105  1.00  0.00     0.008 C 
ENDBRANCH  12  17
ENDBRANCH  11  12
ENDBRANCH   1  11
TORSDOF 1
ENDMDL
MODEL 9
REMARK VINA RESULT:    -3.299      2.721      4.048
REMARK INTER + INTRA:          -5.373
REMARK INTER:                  -5.341
REMARK INTRA:                  -0.031
REMARK UNBOUND:                -0.338
REMARK SMILES CC1=CCC[C@H](C)C(=O)C[C@H](C(C)C)C(=O)C1
REMARK SMILES IDX 8 1 9 2 6 3 7 4 5 5 4 6 3 7 2 8 1 9 10 11 11 12 15 13 16 14
REMARK SMILES IDX 17 15 12 17 13 18 14 19
REMARK H PARENT
REMARK Flexibility Score: 70.00
ROOT
ATOM      1  C   UNL     1      17.986  28.753  29.889  1.00  0.00     0.136 C 
ATOM      2  O   UNL     1      17.275  28.199  30.717  1.00  0.00    -0.299 OA
ENDROOT
BRANCH   1   3
ATOM      3  C   UNL     1      18.998  27.947  29.084  1.00  0.00     0.053 C 
ATOM      4  C   UNL     1      18.375  27.303  27.835  1.00  0.00     0.016 C 
BRANCH   3   5
ATOM      5  C   UNL     1      20.251  28.778  28.719  1.00  0.00     0.015 C 
BRANCH   5   6
ATOM      6  C   UNL     1      21.190  29.017  29.915  1.00  0.00     0.028 C 
BRANCH   6   7
ATOM      7  C   UNL     1      21.536  30.473  30.123  1.00  0.00    -0.028 C 
ATOM      8  C   UNL     1      20.878  31.353  30.923  1.00  0.00    -0.070 CG0
ATOM      9  C   UNL     1      21.333  32.793  30.876  1.00  0.00     0.039 C 
ATOM     10  G   UNL     1      19.777  30.979  31.913  1.00  0.00     0.000 G0
ENDBRANCH   6   7
ENDBRANCH   5   6
ENDBRANCH   3   5
ENDBRANCH   1   3
BRANCH   1  11
ATOM     11  C   UNL     1      17.877  30.249  29.707  1.00  0.00     0.087 C 
BRANCH  11  12
ATOM     12  C   UNL     1      17.328  31.015  30.946  1.00  0.00     0.066 C 
BRANCH  12  13
ATOM     13  C   UNL     1      18.459  31.693  31.716  1.00  0.00     0.140 C 
ATOM     14  O   UNL     1      18.286  32.789  32.235  1.00  0.00    -0.299 OA
BRANCH  13  15
ATOM     15  C   UNL     1      19.774  30.982  31.916  1.00  0.00     0.106 CG0
ATOM     16  G   UNL     1      20.864  31.349  30.910  1.00  0.00     0.000 G0
ENDBRANCH  13  15
ENDBRANCH  12  13
BRANCH  12  17
ATOM     17  C   UNL     1      16.143  31.996  30.639  1.00  0.00    -0.006 C 
ATOM     18  C   UNL     1      16.253  32.665  29.257  1.00  0.00     0.008 C 
ATOM     19  C   UNL     1      14.790  31.261  30.717  1.00  0.00     0.008 C 
ENDBRANCH  12  17
ENDBRANCH  11  12
ENDBRANCH   1  11
TORSDOF 1
ENDMDL
