MODEL 1
REMARK VINA RESULT:    -5.592      0.000      0.000
REMARK INTER + INTRA:          -9.171
REMARK INTER:                  -7.880
REMARK INTRA:                  -1.291
REMARK UNBOUND:                -1.291
REMARK SMILES COc1c(O[C@@H]2O[C@H](C(=O)[O-])[C@H](O)[C@@H](O)[C@@H]2O)cc(O)c2c(=O)cc(-c3ccccc3)oc12
REMARK SMILES IDX 5 1 6 2 8 3 12 4 7 5 14 6 16 7 9 8 10 9 11 10 13 11 15 13
REMARK SMILES IDX 17 15 4 17 3 18 18 19 33 20 19 21 21 22 32 23 22 24 25 25
REMARK SMILES IDX 24 26 23 27 2 28 1 29 20 30 26 32 27 33 31 34 28 35 30 36
REMARK SMILES IDX 29 37
REMARK H PARENT 13 12 15 14 17 16 20 31
REMARK Flexibility Score: inf
ROOT
ATOM      1  O   UNL     1      23.371  18.730   5.470  1.00  0.00    -0.458 OA
ENDROOT
BRANCH   1   2
ATOM      2  C   UNL     1      23.752  18.937   6.838  1.00  0.00     0.339 C 
ATOM      3  C   UNL     1      22.909  19.101   9.017  1.00  0.00     0.199 C 
ATOM      4  C   UNL     1      24.301  19.689   9.429  1.00  0.00     0.180 C 
ATOM      5  O   UNL     1      22.627  19.264   7.632  1.00  0.00    -0.328 OA
ATOM      6  C   UNL     1      24.781  20.700   8.374  1.00  0.00     0.181 C 
ATOM      7  C   UNL     1      24.840  20.035   6.977  1.00  0.00     0.214 C 
BRANCH   3   8
ATOM      8  C   UNL     1      21.784  19.735   9.783  1.00  0.00     0.073 C 
ATOM      9  O   UNL     1      21.218  20.769   9.341  1.00  0.00    -0.547 OA
ATOM     10  O   UNL     1      21.338  19.163  10.969  1.00  0.00    -0.547 OA
ENDBRANCH   3   8
BRANCH   4  11
ATOM     11  O   UNL     1      24.264  20.300  10.694  1.00  0.00    -0.387 OA
ATOM     12  H   UNL     1      24.032  19.589  11.346  1.00  0.00     0.211 HD
ENDBRANCH   4  11
BRANCH   6  13
ATOM     13  O   UNL     1      26.055  21.188   8.709  1.00  0.00    -0.387 OA
ATOM     14  H   UNL     1      26.676  20.413   8.687  1.00  0.00     0.211 HD
ENDBRANCH   6  13
BRANCH   7  15
ATOM     15  O   UNL     1      24.681  21.018   5.989  1.00  0.00    -0.384 OA
ATOM     16  H   UNL     1      25.453  21.638   6.072  1.00  0.00     0.211 HD
ENDBRANCH   7  15
ENDBRANCH   1   2
BRANCH   1  17
ATOM     17  C   UNL     1      23.447  17.503   4.797  1.00  0.00     0.172 A 
ATOM     18  C   UNL     1      22.302  16.711   4.586  1.00  0.00     0.205 A 
ATOM     19  C   UNL     1      24.700  17.051   4.378  1.00  0.00     0.097 A 
ATOM     20  C   UNL     1      22.421  15.503   3.853  1.00  0.00     0.188 A 
ATOM     21  C   UNL     1      24.834  15.856   3.669  1.00  0.00     0.134 A 
ATOM     22  C   UNL     1      23.692  15.076   3.386  1.00  0.00     0.111 A 
ATOM     23  O   UNL     1      21.346  14.757   3.606  1.00  0.00    -0.452 OA
ATOM     24  C   UNL     1      23.758  13.869   2.661  1.00  0.00     0.197 A 
ATOM     25  C   UNL     1      21.377  13.607   2.937  1.00  0.00     0.138 A 
ATOM     26  C   UNL     1      22.597  13.134   2.437  1.00  0.00     0.100 A 
ATOM     27  O   UNL     1      24.850  13.435   2.203  1.00  0.00    -0.289 OA
BRANCH  18  28
ATOM     28  O   UNL     1      21.094  17.157   5.156  1.00  0.00    -0.490 OA
ATOM     29  C   UNL     1      20.055  17.864   4.491  1.00  0.00     0.278 C 
ENDBRANCH  18  28
BRANCH  21  30
ATOM     30  O   UNL     1      26.103  15.453   3.250  1.00  0.00    -0.507 OA
ATOM     31  H   UNL     1      26.267  15.090   2.319  1.00  0.00     0.293 HD
ENDBRANCH  21  30
BRANCH  25  32
ATOM     32  C   UNL     1      20.112  12.861   2.726  1.00  0.00     0.017 A 
ATOM     33  C   UNL     1      19.032  13.490   2.078  1.00  0.00     0.012 A 
ATOM     34  C   UNL     1      19.953  11.537   3.181  1.00  0.00     0.012 A 
ATOM     35  C   UNL     1      17.830  12.806   1.875  1.00  0.00     0.001 A 
ATOM     36  C   UNL     1      18.747  10.857   2.975  1.00  0.00     0.001 A 
ATOM     37  C   UNL     1      17.688  11.490   2.321  1.00  0.00     0.000 A 
ENDBRANCH  25  32
ENDBRANCH   1  17
TORSDOF 9
ENDMDL
MODEL 2
REMARK VINA RESULT:    -4.248      2.667      7.915
REMARK INTER + INTRA:          -7.277
REMARK INTER:                  -7.628
REMARK INTRA:                   0.351
REMARK UNBOUND:                -1.291
REMARK SMILES COc1c(O[C@@H]2O[C@H](C(=O)[O-])[C@H](O)[C@@H](O)[C@@H]2O)cc(O)c2c(=O)cc(-c3ccccc3)oc12
REMARK SMILES IDX 5 1 6 2 8 3 12 4 7 5 14 6 16 7 9 8 10 9 11 10 13 11 15 13
REMARK SMILES IDX 17 15 4 17 3 18 18 19 33 20 19 21 21 22 32 23 22 24 25 25
REMARK SMILES IDX 24 26 23 27 2 28 1 29 20 30 26 32 27 33 31 34 28 35 30 36
REMARK SMILES IDX 29 37
REMARK H PARENT 13 12 15 14 17 16 20 31
REMARK Flexibility Score: inf
ROOT
ATOM      1  O   UNL     1      23.872  19.926   5.045  1.00  0.00    -0.458 OA
ENDROOT
BRANCH   1   2
ATOM      2  C   UNL     1      23.512  18.788   4.248  1.00  0.00     0.339 C 
ATOM      3  C   UNL     1      21.771  17.289   3.795  1.00  0.00     0.199 C 
ATOM      4  C   UNL     1      22.831  16.398   3.062  1.00  0.00     0.180 C 
ATOM      5  O   UNL     1      22.351  18.161   4.758  1.00  0.00    -0.328 OA
ATOM      6  C   UNL     1      24.128  16.335   3.886  1.00  0.00     0.181 C 
ATOM      7  C   UNL     1      24.671  17.761   4.146  1.00  0.00     0.214 C 
BRANCH   3   8
ATOM      8  C   UNL     1      20.736  16.461   4.502  1.00  0.00     0.073 C 
ATOM      9  O   UNL     1      21.087  15.533   5.277  1.00  0.00    -0.547 OA
ATOM     10  O   UNL     1      19.385  16.738   4.331  1.00  0.00    -0.547 OA
ENDBRANCH   3   8
BRANCH   4  11
ATOM     11  O   UNL     1      22.355  15.099   2.821  1.00  0.00    -0.387 OA
ATOM     12  H   UNL     1      21.659  14.919   3.506  1.00  0.00     0.211 HD
ENDBRANCH   4  11
BRANCH   6  13
ATOM     13  O   UNL     1      25.102  15.585   3.206  1.00  0.00    -0.387 OA
ATOM     14  H   UNL     1      25.233  16.017   2.321  1.00  0.00     0.211 HD
ENDBRANCH   6  13
BRANCH   7  15
ATOM     15  O   UNL     1      25.434  17.759   5.323  1.00  0.00    -0.384 OA
ATOM     16  H   UNL     1      24.813  17.548   6.070  1.00  0.00     0.211 HD
ENDBRANCH   7  15
ENDBRANCH   1   2
BRANCH   1  17
ATOM     17  C   UNL     1      23.766  19.987   6.442  1.00  0.00     0.172 A 
ATOM     18  C   UNL     1      22.521  19.865   7.087  1.00  0.00     0.205 A 
ATOM     19  C   UNL     1      24.922  20.221   7.187  1.00  0.00     0.097 A 
ATOM     20  C   UNL     1      22.470  19.879   8.505  1.00  0.00     0.188 A 
ATOM     21  C   UNL     1      24.886  20.253   8.582  1.00  0.00     0.134 A 
ATOM     22  C   UNL     1      23.660  20.067   9.256  1.00  0.00     0.111 A 
ATOM     23  O   UNL     1      21.310  19.726   9.138  1.00  0.00    -0.452 OA
ATOM     24  C   UNL     1      23.559  20.073  10.662  1.00  0.00     0.197 A 
ATOM     25  C   UNL     1      21.179  19.739  10.463  1.00  0.00     0.138 A 
ATOM     26  C   UNL     1      22.315  19.908  11.265  1.00  0.00     0.100 A 
ATOM     27  O   UNL     1      24.574  20.220  11.395  1.00  0.00    -0.289 OA
BRANCH  18  28
ATOM     28  O   UNL     1      21.376  19.771   6.271  1.00  0.00    -0.490 OA
ATOM     29  C   UNL     1      20.503  20.834   5.913  1.00  0.00     0.278 C 
ENDBRANCH  18  28
BRANCH  21  30
ATOM     30  O   UNL     1      26.071  20.469   9.288  1.00  0.00    -0.507 OA
ATOM     31  H   UNL     1      26.596  19.704   9.695  1.00  0.00     0.293 HD
ENDBRANCH  21  30
BRANCH  25  32
ATOM     32  C   UNL     1      19.831  19.561  11.056  1.00  0.00     0.017 A 
ATOM     33  C   UNL     1      19.703  19.333  12.439  1.00  0.00     0.012 A 
ATOM     34  C   UNL     1      18.667  19.590  10.262  1.00  0.00     0.012 A 
ATOM     35  C   UNL     1      18.441  19.157  13.016  1.00  0.00     0.001 A 
ATOM     36  C   UNL     1      17.407  19.414  10.845  1.00  0.00     0.001 A 
ATOM     37  C   UNL     1      17.294  19.199  12.220  1.00  0.00     0.000 A 
ENDBRANCH  25  32
ENDBRANCH   1  17
TORSDOF 9
ENDMDL
