MODEL 1
REMARK VINA RESULT:    -4.337      0.000      0.000
REMARK INTER + INTRA:          -4.464
REMARK INTER:                  -4.464
REMARK INTRA:                   0.000
REMARK UNBOUND:                 0.000
REMARK SMILES Oc1ccc2[nH]ccc2c1
REMARK SMILES IDX 3 1 4 2 5 3 9 4 8 5 7 6 6 7 10 8 2 9 1 11
REMARK H PARENT 6 10 1 12
REMARK Flexibility Score: inf
ROOT
ATOM      1  C   UNL     1     125.561 126.176 120.505  1.00  0.00     0.048 A 
ATOM      2  C   UNL     1     125.958 124.966 121.103  1.00  0.00     0.030 A 
ATOM      3  C   UNL     1     125.365 124.611 122.313  1.00  0.00     0.046 A 
ATOM      4  C   UNL     1     124.423 125.405 122.912  1.00  0.00     0.003 A 
ATOM      5  C   UNL     1     124.039 124.779 124.078  1.00  0.00     0.028 A 
ATOM      6  C   UNL     1     124.789 123.608 124.126  1.00  0.00     0.083 A 
ATOM      7  N   UNL     1     125.596 123.510 123.045  1.00  0.00    -0.361 N 
ATOM      8  C   UNL     1     124.007 126.608 122.347  1.00  0.00     0.056 A 
ATOM      9  C   UNL     1     124.589 126.998 121.122  1.00  0.00     0.116 A 
ATOM     10  H   UNL     1     126.263 122.735 122.829  1.00  0.00     0.166 HD
ENDROOT
BRANCH   9  11
ATOM     11  O   UNL     1     124.213 128.191 120.509  1.00  0.00    -0.508 OA
ATOM     12  H   UNL     1     123.308 128.612 120.685  1.00  0.00     0.293 HD
ENDBRANCH   9  11
TORSDOF 1
ENDMDL
MODEL 2
REMARK VINA RESULT:    -4.322      2.573      3.692
REMARK INTER + INTRA:          -4.449
REMARK INTER:                  -4.449
REMARK INTRA:                   0.000
REMARK UNBOUND:                 0.000
REMARK SMILES Oc1ccc2[nH]ccc2c1
REMARK SMILES IDX 3 1 4 2 5 3 9 4 8 5 7 6 6 7 10 8 2 9 1 11
REMARK H PARENT 6 10 1 12
REMARK Flexibility Score: inf
ROOT
ATOM      1  C   UNL     1     123.313 125.892 125.559  1.00  0.00     0.048 A 
ATOM      2  C   UNL     1     123.162 124.634 126.172  1.00  0.00     0.030 A 
ATOM      3  C   UNL     1     123.509 123.505 125.433  1.00  0.00     0.046 A 
ATOM      4  C   UNL     1     123.982 123.601 124.151  1.00  0.00     0.003 A 
ATOM      5  C   UNL     1     124.229 122.321 123.706  1.00  0.00     0.028 A 
ATOM      6  C   UNL     1     123.882 121.493 124.770  1.00  0.00     0.083 A 
ATOM      7  N   UNL     1     123.444 122.222 125.822  1.00  0.00    -0.361 N 
ATOM      8  C   UNL     1     124.144 124.831 123.516  1.00  0.00     0.056 A 
ATOM      9  C   UNL     1     123.801 125.995 124.236  1.00  0.00     0.116 A 
ATOM     10  H   UNL     1     123.120 121.856 126.745  1.00  0.00     0.166 HD
ENDROOT
BRANCH   9  11
ATOM     11  O   UNL     1     123.941 127.252 123.654  1.00  0.00    -0.508 OA
ATOM     12  H   UNL     1     124.496 127.978 124.093  1.00  0.00     0.293 HD
ENDBRANCH   9  11
TORSDOF 1
ENDMDL
MODEL 3
REMARK VINA RESULT:    -4.313      3.097      3.499
REMARK INTER + INTRA:          -4.439
REMARK INTER:                  -4.439
REMARK INTRA:                   0.000
REMARK UNBOUND:                 0.000
REMARK SMILES Oc1ccc2[nH]ccc2c1
REMARK SMILES IDX 3 1 4 2 5 3 9 4 8 5 7 6 6 7 10 8 2 9 1 11
REMARK H PARENT 6 10 1 12
REMARK Flexibility Score: inf
ROOT
ATOM      1  C   UNL     1     126.184 122.167 120.474  1.00  0.00     0.048 A 
ATOM      2  C   UNL     1     125.000 121.750 121.111  1.00  0.00     0.030 A 
ATOM      3  C   UNL     1     124.683 122.327 122.339  1.00  0.00     0.046 A 
ATOM      4  C   UNL     1     125.488 123.271 122.919  1.00  0.00     0.003 A 
ATOM      5  C   UNL     1     124.901 123.636 124.111  1.00  0.00     0.028 A 
ATOM      6  C   UNL     1     123.740 122.873 124.193  1.00  0.00     0.083 A 
ATOM      7  N   UNL     1     123.612 122.076 123.108  1.00  0.00    -0.361 N 
ATOM      8  C   UNL     1     126.666 123.707 122.315  1.00  0.00     0.056 A 
ATOM      9  C   UNL     1     127.017 123.141 121.071  1.00  0.00     0.116 A 
ATOM     10  H   UNL     1     122.837 121.403 122.913  1.00  0.00     0.166 HD
ENDROOT
BRANCH   9  11
ATOM     11  O   UNL     1     128.182 123.537 120.420  1.00  0.00    -0.508 OA
ATOM     12  H   UNL     1     129.095 123.392 120.836  1.00  0.00     0.293 HD
ENDBRANCH   9  11
TORSDOF 1
ENDMDL
MODEL 4
REMARK VINA RESULT:    -4.311      4.134      4.890
REMARK INTER + INTRA:          -4.437
REMARK INTER:                  -4.437
REMARK INTRA:                   0.000
REMARK UNBOUND:                 0.000
REMARK SMILES Oc1ccc2[nH]ccc2c1
REMARK SMILES IDX 3 1 4 2 5 3 9 4 8 5 7 6 6 7 10 8 2 9 1 11
REMARK H PARENT 6 10 1 12
REMARK Flexibility Score: inf
ROOT
ATOM      1  C   UNL     1     122.282 121.580 120.509  1.00  0.00     0.048 A 
ATOM      2  C   UNL     1     121.978 122.788 121.162  1.00  0.00     0.030 A 
ATOM      3  C   UNL     1     122.636 123.065 122.359  1.00  0.00     0.046 A 
ATOM      4  C   UNL     1     123.552 122.198 122.893  1.00  0.00     0.003 A 
ATOM      5  C   UNL     1     124.015 122.758 124.064  1.00  0.00     0.028 A 
ATOM      6  C   UNL     1     123.337 123.967 124.181  1.00  0.00     0.083 A 
ATOM      7  N   UNL     1     122.497 124.150 123.137  1.00  0.00    -0.361 N 
ATOM      8  C   UNL     1     123.876 120.994 122.271  1.00  0.00     0.056 A 
ATOM      9  C   UNL     1     123.227 120.683 121.058  1.00  0.00     0.116 A 
ATOM     10  H   UNL     1     121.869 124.968 122.974  1.00  0.00     0.166 HD
ENDROOT
BRANCH   9  11
ATOM     11  O   UNL     1     123.510 119.493 120.391  1.00  0.00    -0.508 OA
ATOM     12  H   UNL     1     124.453 119.263 120.099  1.00  0.00     0.293 HD
ENDBRANCH   9  11
TORSDOF 1
ENDMDL
MODEL 5
REMARK VINA RESULT:    -4.305      3.100      3.500
REMARK INTER + INTRA:          -4.430
REMARK INTER:                  -4.430
REMARK INTRA:                   0.000
REMARK UNBOUND:                 0.000
REMARK SMILES Oc1ccc2[nH]ccc2c1
REMARK SMILES IDX 3 1 4 2 5 3 9 4 8 5 7 6 6 7 10 8 2 9 1 11
REMARK H PARENT 6 10 1 12
REMARK Flexibility Score: inf
ROOT
ATOM      1  C   UNL     1     121.589 125.598 120.488  1.00  0.00     0.048 A 
ATOM      2  C   UNL     1     122.789 125.904 121.156  1.00  0.00     0.030 A 
ATOM      3  C   UNL     1     123.045 125.256 122.363  1.00  0.00     0.046 A 
ATOM      4  C   UNL     1     122.167 124.348 122.893  1.00  0.00     0.003 A 
ATOM      5  C   UNL     1     122.709 123.894 124.075  1.00  0.00     0.028 A 
ATOM      6  C   UNL     1     123.919 124.569 124.204  1.00  0.00     0.083 A 
ATOM      7  N   UNL     1     124.120 125.399 123.154  1.00  0.00    -0.361 N 
ATOM      8  C   UNL     1     120.972 124.022 122.257  1.00  0.00     0.056 A 
ATOM      9  C   UNL     1     120.680 124.661 121.033  1.00  0.00     0.116 A 
ATOM     10  H   UNL     1     124.943 126.023 122.998  1.00  0.00     0.166 HD
ENDROOT
BRANCH   9  11
ATOM     11  O   UNL     1     119.500 124.376 120.351  1.00  0.00    -0.508 OA
ATOM     12  H   UNL     1     119.496 123.789 119.524  1.00  0.00     0.293 HD
ENDBRANCH   9  11
TORSDOF 1
ENDMDL
MODEL 6
REMARK VINA RESULT:    -4.286      3.690      4.415
REMARK INTER + INTRA:          -4.411
REMARK INTER:                  -4.411
REMARK INTRA:                   0.000
REMARK UNBOUND:                 0.000
REMARK SMILES Oc1ccc2[nH]ccc2c1
REMARK SMILES IDX 3 1 4 2 5 3 9 4 8 5 7 6 6 7 10 8 2 9 1 11
REMARK H PARENT 6 10 1 12
REMARK Flexibility Score: inf
ROOT
ATOM      1  C   UNL     1     125.104 121.373 120.404  1.00  0.00     0.048 A 
ATOM      2  C   UNL     1     125.693 122.485 121.034  1.00  0.00     0.030 A 
ATOM      3  C   UNL     1     125.227 122.838 122.299  1.00  0.00     0.046 A 
ATOM      4  C   UNL     1     124.231 122.134 122.921  1.00  0.00     0.003 A 
ATOM      5  C   UNL     1     124.007 122.730 124.143  1.00  0.00     0.028 A 
ATOM      6  C   UNL     1     124.903 123.793 124.199  1.00  0.00     0.083 A 
ATOM      7  N   UNL     1     125.647 123.853 123.070  1.00  0.00    -0.361 N 
ATOM      8  C   UNL     1     123.628 121.028 122.326  1.00  0.00     0.056 A 
ATOM      9  C   UNL     1     124.074 120.645 121.043  1.00  0.00     0.116 A 
ATOM     10  H   UNL     1     126.392 124.551 122.848  1.00  0.00     0.166 HD
ENDROOT
BRANCH   9  11
ATOM     11  O   UNL     1     123.509 119.548 120.398  1.00  0.00    -0.508 OA
ATOM     12  H   UNL     1     123.306 119.567 119.405  1.00  0.00     0.293 HD
ENDBRANCH   9  11
TORSDOF 1
ENDMDL
MODEL 7
REMARK VINA RESULT:    -4.272      2.200      2.672
REMARK INTER + INTRA:          -4.397
REMARK INTER:                  -4.397
REMARK INTRA:                   0.000
REMARK UNBOUND:                 0.000
REMARK SMILES Oc1ccc2[nH]ccc2c1
REMARK SMILES IDX 3 1 4 2 5 3 9 4 8 5 7 6 6 7 10 8 2 9 1 11
REMARK H PARENT 6 10 1 12
REMARK Flexibility Score: inf
ROOT
ATOM      1  C   UNL     1     123.012 125.303 122.022  1.00  0.00     0.048 A 
ATOM      2  C   UNL     1     122.646 124.316 122.957  1.00  0.00     0.030 A 
ATOM      3  C   UNL     1     122.962 124.539 124.296  1.00  0.00     0.046 A 
ATOM      4  C   UNL     1     123.606 125.677 124.703  1.00  0.00     0.003 A 
ATOM      5  C   UNL     1     123.767 125.592 126.069  1.00  0.00     0.028 A 
ATOM      6  C   UNL     1     123.197 124.374 126.427  1.00  0.00     0.083 A 
ATOM      7  N   UNL     1     122.706 123.735 125.340  1.00  0.00    -0.361 N 
ATOM      8  C   UNL     1     123.981 126.673 123.804  1.00  0.00     0.056 A 
ATOM      9  C   UNL     1     123.677 126.478 122.440  1.00  0.00     0.116 A 
ATOM     10  H   UNL     1     122.228 122.807 125.322  1.00  0.00     0.166 HD
ENDROOT
BRANCH   9  11
ATOM     11  O   UNL     1     124.027 127.440 121.494  1.00  0.00    -0.508 OA
ATOM     12  H   UNL     1     124.295 127.180 120.552  1.00  0.00     0.293 HD
ENDBRANCH   9  11
TORSDOF 1
ENDMDL
MODEL 8
REMARK VINA RESULT:    -4.271      3.164      4.253
REMARK INTER + INTRA:          -4.396
REMARK INTER:                  -4.396
REMARK INTRA:                   0.000
REMARK UNBOUND:                 0.000
REMARK SMILES Oc1ccc2[nH]ccc2c1
REMARK SMILES IDX 3 1 4 2 5 3 9 4 8 5 7 6 6 7 10 8 2 9 1 11
REMARK H PARENT 6 10 1 12
REMARK Flexibility Score: inf
ROOT
ATOM      1  C   UNL     1     121.993 123.972 125.596  1.00  0.00     0.048 A 
ATOM      2  C   UNL     1     123.274 123.950 126.177  1.00  0.00     0.030 A 
ATOM      3  C   UNL     1     124.375 123.914 125.324  1.00  0.00     0.046 A 
ATOM      4  C   UNL     1     124.230 123.900 123.962  1.00  0.00     0.003 A 
ATOM      5  C   UNL     1     125.494 123.865 123.414  1.00  0.00     0.028 A 
ATOM      6  C   UNL     1     126.362 123.858 124.501  1.00  0.00     0.083 A 
ATOM      7  N   UNL     1     125.673 123.889 125.666  1.00  0.00    -0.361 N 
ATOM      8  C   UNL     1     122.976 123.922 123.355  1.00  0.00     0.056 A 
ATOM      9  C   UNL     1     121.840 123.958 124.190  1.00  0.00     0.116 A 
ATOM     10  H   UNL     1     126.073 123.892 126.630  1.00  0.00     0.166 HD
ENDROOT
BRANCH   9  11
ATOM     11  O   UNL     1     120.560 123.980 123.641  1.00  0.00    -0.508 OA
ATOM     12  H   UNL     1     120.349 123.497 122.775  1.00  0.00     0.293 HD
ENDBRANCH   9  11
TORSDOF 1
ENDMDL
MODEL 9
REMARK VINA RESULT:    -4.268      2.440      3.287
REMARK INTER + INTRA:          -4.393
REMARK INTER:                  -4.393
REMARK INTRA:                   0.000
REMARK UNBOUND:                 0.000
REMARK SMILES Oc1ccc2[nH]ccc2c1
REMARK SMILES IDX 3 1 4 2 5 3 9 4 8 5 7 6 6 7 10 8 2 9 1 11
REMARK H PARENT 6 10 1 12
REMARK Flexibility Score: inf
ROOT
ATOM      1  C   UNL     1     125.319 124.740 121.975  1.00  0.00     0.048 A 
ATOM      2  C   UNL     1     124.360 125.140 122.925  1.00  0.00     0.030 A 
ATOM      3  C   UNL     1     124.581 124.798 124.257  1.00  0.00     0.046 A 
ATOM      4  C   UNL     1     125.692 124.096 124.645  1.00  0.00     0.003 A 
ATOM      5  C   UNL     1     125.613 123.922 126.009  1.00  0.00     0.028 A 
ATOM      6  C   UNL     1     124.428 124.544 126.387  1.00  0.00     0.083 A 
ATOM      7  N   UNL     1     123.802 125.078 125.313  1.00  0.00    -0.361 N 
ATOM      8  C   UNL     1     126.660 123.685 123.730  1.00  0.00     0.056 A 
ATOM      9  C   UNL     1     126.466 124.015 122.372  1.00  0.00     0.116 A 
ATOM     10  H   UNL     1     122.897 125.599 125.311  1.00  0.00     0.166 HD
ENDROOT
BRANCH   9  11
ATOM     11  O   UNL     1     127.399 123.632 121.412  1.00  0.00    -0.508 OA
ATOM     12  H   UNL     1     127.601 124.216 120.609  1.00  0.00     0.293 HD
ENDBRANCH   9  11
TORSDOF 1
ENDMDL
