MODEL 1
REMARK VINA RESULT:    11.031      0.000      0.000
REMARK INTER + INTRA:          20.687
REMARK INTER:                  21.348
REMARK INTRA:                  -0.661
REMARK UNBOUND:                -0.661
REMARK SMILES CCCCCCCCCCCCCCCCCC(=O)[O-]
REMARK SMILES IDX 10 1 11 2 12 3 13 4 14 5 15 6 16 7 17 8 18 9 19 10 20 11
REMARK SMILES IDX 9 12 8 13 7 14 6 15 5 16 4 17 3 18 2 19 1 20
REMARK H PARENT
REMARK Flexibility Score: inf
ROOT
ATOM      1  C   UNL     1     -19.595  -0.430 -16.663  1.00  0.00     0.000 C 
ENDROOT
BRANCH   1   2
ATOM      2  C   UNL     1     -20.005  -1.803 -16.107  1.00  0.00     0.000 C 
BRANCH   2   3
ATOM      3  C   UNL     1     -19.997  -2.904 -17.181  1.00  0.00     0.000 C 
BRANCH   3   4
ATOM      4  C   UNL     1     -19.892  -2.329 -18.611  1.00  0.00     0.000 C 
BRANCH   4   5
ATOM      5  C   UNL     1     -19.660  -3.402 -19.693  1.00  0.00     0.000 C 
BRANCH   5   6
ATOM      6  C   UNL     1     -18.192  -3.588 -20.120  1.00  0.00     0.000 C 
BRANCH   6   7
ATOM      7  C   UNL     1     -17.886  -4.920 -20.838  1.00  0.00     0.006 C 
BRANCH   7   8
ATOM      8  C   UNL     1     -16.833  -4.817 -21.953  1.00  0.00     0.053 C 
BRANCH   8   9
ATOM      9  C   UNL     1     -16.708  -6.092 -22.730  1.00  0.00     0.041 C 
ATOM     10  O   UNL     1     -15.905  -6.986 -22.354  1.00  0.00    -0.550 OA
ATOM     11  O   UNL     1     -17.449  -6.276 -23.890  1.00  0.00    -0.550 OA
ENDBRANCH   8   9
ENDBRANCH   7   8
ENDBRANCH   6   7
ENDBRANCH   5   6
ENDBRANCH   4   5
ENDBRANCH   3   4
ENDBRANCH   2   3
ENDBRANCH   1   2
BRANCH   1  12
ATOM     12  C   UNL     1     -18.855   0.432 -15.630  1.00  0.00     0.000 C 
BRANCH  12  13
ATOM     13  C   UNL     1     -19.805   1.445 -14.980  1.00  0.00    -0.000 C 
BRANCH  13  14
ATOM     14  C   UNL     1     -19.051   2.370 -14.017  1.00  0.00    -0.000 C 
BRANCH  14  15
ATOM     15  C   UNL     1     -19.770   3.721 -13.876  1.00  0.00    -0.000 C 
BRANCH  15  16
ATOM     16  C   UNL     1     -20.056   4.391 -15.233  1.00  0.00    -0.000 C 
BRANCH  16  17
ATOM     17  C   UNL     1     -19.772   5.905 -15.283  1.00  0.00    -0.000 C 
BRANCH  17  18
ATOM     18  C   UNL     1     -18.488   6.304 -16.034  1.00  0.00    -0.000 C 
BRANCH  18  19
ATOM     19  C   UNL     1     -18.497   5.931 -17.530  1.00  0.00    -0.003 C 
ATOM     20  C   UNL     1     -18.877   7.107 -18.430  1.00  0.00     0.004 C 
ENDBRANCH  18  19
ENDBRANCH  17  18
ENDBRANCH  16  17
ENDBRANCH  15  16
ENDBRANCH  14  15
ENDBRANCH  13  14
ENDBRANCH  12  13
ENDBRANCH   1  12
TORSDOF 16
ENDMDL
