MODEL 1
REMARK VINA RESULT:    -2.817      0.000      0.000
REMARK INTER + INTRA:          -6.141
REMARK INTER:                  -4.300
REMARK INTRA:                  -1.842
REMARK UNBOUND:                -1.842
REMARK SMILES CC(=O)CCC=C(C)CCC=C(C)CCC=C(C)C
REMARK SMILES IDX 10 1 11 2 12 3 13 4 14 5 15 6 16 7 18 8 17 9 19 10 9 11 7 12
REMARK SMILES IDX 6 13 8 14 5 15 4 16 2 17 3 18 1 19
REMARK H PARENT
REMARK Flexibility Score: inf
ROOT
ATOM      1  C   UNL     1       9.970 -35.876  12.875  1.00  0.00     0.032 C 
ENDROOT
BRANCH   1   2
ATOM      2  C   UNL     1       9.056 -36.982  13.338  1.00  0.00    -0.028 C 
ATOM      3  C   UNL     1       7.708 -36.885  13.400  1.00  0.00    -0.077 C 
ATOM      4  C   UNL     1       6.973 -35.654  12.921  1.00  0.00     0.039 C 
BRANCH   3   5
ATOM      5  C   UNL     1       6.913 -38.051  13.948  1.00  0.00     0.034 C 
BRANCH   5   6
ATOM      6  C   UNL     1       5.897 -37.572  14.991  1.00  0.00     0.032 C 
BRANCH   6   7
ATOM      7  C   UNL     1       6.574 -37.277  16.307  1.00  0.00    -0.028 C 
ATOM      8  C   UNL     1       5.879 -34.871  16.305  1.00  0.00     0.039 C 
ATOM      9  C   UNL     1       6.557 -36.072  16.919  1.00  0.00    -0.080 C 
ATOM     10  C   UNL     1       7.257 -35.933  18.246  1.00  0.00     0.039 C 
ENDBRANCH   6   7
ENDBRANCH   5   6
ENDBRANCH   3   5
ENDBRANCH   1   2
BRANCH   1  11
ATOM     11  C   UNL     1      10.654 -35.206  14.073  1.00  0.00     0.034 C 
BRANCH  11  12
ATOM     12  C   UNL     1       9.976 -33.900  14.429  1.00  0.00    -0.077 C 
ATOM     13  C   UNL     1       9.068 -33.883  15.434  1.00  0.00    -0.028 C 
ATOM     14  C   UNL     1      10.339 -32.647  13.666  1.00  0.00     0.039 C 
BRANCH  13  15
ATOM     15  C   UNL     1       8.386 -32.640  15.947  1.00  0.00     0.035 C 
BRANCH  15  16
ATOM     16  C   UNL     1       9.329 -31.852  16.860  1.00  0.00     0.079 C 
BRANCH  16  17
ATOM     17  C   UNL     1       8.837 -31.880  18.283  1.00  0.00     0.130 C 
ATOM     18  O   UNL     1       7.863 -32.560  18.568  1.00  0.00    -0.300 OA
ATOM     19  C   UNL     1       9.514 -31.081  19.356  1.00  0.00     0.087 C 
ENDBRANCH  16  17
ENDBRANCH  15  16
ENDBRANCH  13  15
ENDBRANCH  11  12
ENDBRANCH   1  11
TORSDOF 9
ENDMDL
MODEL 2
REMARK VINA RESULT:    -2.048     12.700     16.285
REMARK INTER + INTRA:          -4.968
REMARK INTER:                  -4.414
REMARK INTRA:                  -0.554
REMARK UNBOUND:                -1.842
REMARK SMILES CC(=O)CCC=C(C)CCC=C(C)CCC=C(C)C
REMARK SMILES IDX 10 1 11 2 12 3 13 4 14 5 15 6 16 7 18 8 17 9 19 10 9 11 7 12
REMARK SMILES IDX 6 13 8 14 5 15 4 16 2 17 3 18 1 19
REMARK H PARENT
REMARK Flexibility Score: inf
ROOT
ATOM      1  C   UNL     1      21.174 -26.052  13.847  1.00  0.00     0.032 C 
ENDROOT
BRANCH   1   2
ATOM      2  C   UNL     1      20.468 -24.790  13.420  1.00  0.00    -0.028 C 
ATOM      3  C   UNL     1      20.128 -23.784  14.256  1.00  0.00    -0.077 C 
ATOM      4  C   UNL     1      20.508 -23.798  15.719  1.00  0.00     0.039 C 
BRANCH   3   5
ATOM      5  C   UNL     1      19.360 -22.600  13.707  1.00  0.00     0.034 C 
BRANCH   5   6
ATOM      6  C   UNL     1      20.237 -21.343  13.696  1.00  0.00     0.032 C 
BRANCH   6   7
ATOM      7  C   UNL     1      19.974 -20.492  14.913  1.00  0.00    -0.028 C 
ATOM      8  C   UNL     1      20.467 -18.348  13.716  1.00  0.00     0.039 C 
ATOM      9  C   UNL     1      20.054 -19.143  14.933  1.00  0.00    -0.080 C 
ATOM     10  C   UNL     1      19.738 -18.424  16.218  1.00  0.00     0.039 C 
ENDBRANCH   6   7
ENDBRANCH   5   6
ENDBRANCH   3   5
ENDBRANCH   1   2
BRANCH   1  11
ATOM     11  C   UNL     1      20.865 -27.198  12.875  1.00  0.00     0.034 C 
BRANCH  11  12
ATOM     12  C   UNL     1      20.778 -28.522  13.603  1.00  0.00    -0.077 C 
ATOM     13  C   UNL     1      19.917 -29.465  13.151  1.00  0.00    -0.028 C 
ATOM     14  C   UNL     1      21.662 -28.764  14.804  1.00  0.00     0.039 C 
BRANCH  13  15
ATOM     15  C   UNL     1      19.793 -30.853  13.727  1.00  0.00     0.035 C 
BRANCH  15  16
ATOM     16  C   UNL     1      18.622 -31.596  13.079  1.00  0.00     0.079 C 
BRANCH  16  17
ATOM     17  C   UNL     1      17.527 -31.841  14.084  1.00  0.00     0.130 C 
ATOM     18  O   UNL     1      17.773 -32.477  15.097  1.00  0.00    -0.300 OA
ATOM     19  C   UNL     1      16.137 -31.323  13.861  1.00  0.00     0.087 C 
ENDBRANCH  16  17
ENDBRANCH  15  16
ENDBRANCH  13  15
ENDBRANCH  11  12
ENDBRANCH   1  11
TORSDOF 9
ENDMDL
MODEL 3
REMARK VINA RESULT:    -1.793      2.589      5.904
REMARK INTER + INTRA:          -4.578
REMARK INTER:                  -3.413
REMARK INTRA:                  -1.165
REMARK UNBOUND:                -1.842
REMARK SMILES CC(=O)CCC=C(C)CCC=C(C)CCC=C(C)C
REMARK SMILES IDX 10 1 11 2 12 3 13 4 14 5 15 6 16 7 18 8 17 9 19 10 9 11 7 12
REMARK SMILES IDX 6 13 8 14 5 15 4 16 2 17 3 18 1 19
REMARK H PARENT
REMARK Flexibility Score: inf
ROOT
ATOM      1  C   UNL     1       9.382 -35.434  13.961  1.00  0.00     0.032 C 
ENDROOT
BRANCH   1   2
ATOM      2  C   UNL     1      10.372 -34.435  13.418  1.00  0.00    -0.028 C 
ATOM      3  C   UNL     1      10.450 -33.144  13.813  1.00  0.00    -0.077 C 
ATOM      4  C   UNL     1       9.585 -32.594  14.923  1.00  0.00     0.039 C 
BRANCH   3   5
ATOM      5  C   UNL     1      11.449 -32.229  13.135  1.00  0.00     0.034 C 
BRANCH   5   6
ATOM      6  C   UNL     1      12.093 -31.281  14.153  1.00  0.00     0.032 C 
BRANCH   6   7
ATOM      7  C   UNL     1      13.520 -31.682  14.434  1.00  0.00    -0.028 C 
ATOM      8  C   UNL     1      14.467 -29.574  13.470  1.00  0.00     0.039 C 
ATOM      9  C   UNL     1      14.597 -30.916  14.150  1.00  0.00    -0.080 C 
ATOM     10  C   UNL     1      15.963 -31.437  14.513  1.00  0.00     0.039 C 
ENDBRANCH   6   7
ENDBRANCH   5   6
ENDBRANCH   3   5
ENDBRANCH   1   2
BRANCH   1  11
ATOM     11  C   UNL     1       8.114 -35.461  13.099  1.00  0.00     0.034 C 
BRANCH  11  12
ATOM     12  C   UNL     1       6.958 -34.787  13.806  1.00  0.00    -0.077 C 
ATOM     13  C   UNL     1       6.919 -34.797  15.159  1.00  0.00    -0.028 C 
ATOM     14  C   UNL     1       5.885 -34.108  12.986  1.00  0.00     0.039 C 
BRANCH  13  15
ATOM     15  C   UNL     1       5.876 -34.092  15.989  1.00  0.00     0.035 C 
BRANCH  15  16
ATOM     16  C   UNL     1       6.472 -32.845  16.647  1.00  0.00     0.079 C 
BRANCH  16  17
ATOM     17  C   UNL     1       7.354 -33.227  17.807  1.00  0.00     0.130 C 
ATOM     18  O   UNL     1       7.198 -34.311  18.348  1.00  0.00    -0.300 OA
ATOM     19  C   UNL     1       8.416 -32.298  18.316  1.00  0.00     0.087 C 
ENDBRANCH  16  17
ENDBRANCH  15  16
ENDBRANCH  13  15
ENDBRANCH  11  12
ENDBRANCH   1  11
TORSDOF 9
ENDMDL
MODEL 4
REMARK VINA RESULT:    -1.458      3.766      7.226
REMARK INTER + INTRA:          -4.066
REMARK INTER:                  -3.257
REMARK INTRA:                  -0.809
REMARK UNBOUND:                -1.842
REMARK SMILES CC(=O)CCC=C(C)CCC=C(C)CCC=C(C)C
REMARK SMILES IDX 10 1 11 2 12 3 13 4 14 5 15 6 16 7 18 8 17 9 19 10 9 11 7 12
REMARK SMILES IDX 6 13 8 14 5 15 4 16 2 17 3 18 1 19
REMARK H PARENT
REMARK Flexibility Score: inf
ROOT
ATOM      1  C   UNL     1      10.166 -32.693  14.061  1.00  0.00     0.032 C 
ENDROOT
BRANCH   1   2
ATOM      2  C   UNL     1      11.505 -32.145  13.635  1.00  0.00    -0.028 C 
ATOM      3  C   UNL     1      12.254 -31.297  14.375  1.00  0.00    -0.077 C 
ATOM      4  C   UNL     1      11.844 -30.877  15.768  1.00  0.00     0.039 C 
BRANCH   3   5
ATOM      5  C   UNL     1      13.550 -30.769  13.799  1.00  0.00     0.034 C 
BRANCH   5   6
ATOM      6  C   UNL     1      14.726 -31.081  14.732  1.00  0.00     0.032 C 
BRANCH   6   7
ATOM      7  C   UNL     1      16.028 -31.102  13.970  1.00  0.00    -0.028 C 
ATOM      8  C   UNL     1      17.088 -32.760  15.518  1.00  0.00     0.039 C 
ATOM      9  C   UNL     1      17.092 -31.867  14.301  1.00  0.00    -0.080 C 
ATOM     10  C   UNL     1      18.319 -31.803  13.429  1.00  0.00     0.039 C 
ENDBRANCH   6   7
ENDBRANCH   5   6
ENDBRANCH   3   5
ENDBRANCH   1   2
BRANCH   1  11
ATOM     11  C   UNL     1       9.891 -34.037  13.375  1.00  0.00     0.034 C 
BRANCH  11  12
ATOM     12  C   UNL     1       8.662 -34.705  13.955  1.00  0.00    -0.077 C 
ATOM     13  C   UNL     1       8.667 -35.070  15.258  1.00  0.00    -0.028 C 
ATOM     14  C   UNL     1       7.459 -34.933  13.070  1.00  0.00     0.039 C 
BRANCH  13  15
ATOM     15  C   UNL     1       7.484 -35.662  15.982  1.00  0.00     0.035 C 
BRANCH  15  16
ATOM     16  C   UNL     1       7.339 -35.034  17.371  1.00  0.00     0.079 C 
BRANCH  16  17
ATOM     17  C   UNL     1       7.173 -33.541  17.263  1.00  0.00     0.130 C 
ATOM     18  O   UNL     1       6.327 -33.083  16.509  1.00  0.00    -0.300 OA
ATOM     19  C   UNL     1       8.032 -32.603  18.058  1.00  0.00     0.087 C 
ENDBRANCH  16  17
ENDBRANCH  15  16
ENDBRANCH  13  15
ENDBRANCH  11  12
ENDBRANCH   1  11
TORSDOF 9
ENDMDL
MODEL 5
REMARK VINA RESULT:    -1.166      1.561      4.719
REMARK INTER + INTRA:          -3.621
REMARK INTER:                  -2.961
REMARK INTRA:                  -0.660
REMARK UNBOUND:                -1.842
REMARK SMILES CC(=O)CCC=C(C)CCC=C(C)CCC=C(C)C
REMARK SMILES IDX 10 1 11 2 12 3 13 4 14 5 15 6 16 7 18 8 17 9 19 10 9 11 7 12
REMARK SMILES IDX 6 13 8 14 5 15 4 16 2 17 3 18 1 19
REMARK H PARENT
REMARK Flexibility Score: inf
ROOT
ATOM      1  C   UNL     1       9.572 -36.736  13.713  1.00  0.00     0.032 C 
ENDROOT
BRANCH   1   2
ATOM      2  C   UNL     1       9.579 -35.276  13.337  1.00  0.00    -0.028 C 
ATOM      3  C   UNL     1      10.698 -34.530  13.192  1.00  0.00    -0.077 C 
ATOM      4  C   UNL     1      12.080 -35.129  13.317  1.00  0.00     0.039 C 
BRANCH   3   5
ATOM      5  C   UNL     1      10.560 -33.056  12.876  1.00  0.00     0.034 C 
BRANCH   5   6
ATOM      6  C   UNL     1      10.213 -32.261  14.140  1.00  0.00     0.032 C 
BRANCH   6   7
ATOM      7  C   UNL     1       8.816 -32.579  14.611  1.00  0.00    -0.028 C 
ATOM      8  C   UNL     1       9.283 -31.886  16.971  1.00  0.00     0.039 C 
ATOM      9  C   UNL     1       8.377 -32.398  15.876  1.00  0.00    -0.080 C 
ATOM     10  C   UNL     1       6.945 -32.737  16.195  1.00  0.00     0.039 C 
ENDBRANCH   6   7
ENDBRANCH   5   6
ENDBRANCH   3   5
ENDBRANCH   1   2
BRANCH   1  11
ATOM     11  C   UNL     1       8.462 -37.481  12.960  1.00  0.00     0.034 C 
BRANCH  11  12
ATOM     12  C   UNL     1       7.164 -37.459  13.739  1.00  0.00    -0.077 C 
ATOM     13  C   UNL     1       7.135 -36.853  14.950  1.00  0.00    -0.028 C 
ATOM     14  C   UNL     1       5.933 -38.101  13.142  1.00  0.00     0.039 C 
BRANCH  13  15
ATOM     15  C   UNL     1       5.893 -36.683  15.789  1.00  0.00     0.035 C 
BRANCH  15  16
ATOM     16  C   UNL     1       6.167 -35.738  16.961  1.00  0.00     0.079 C 
BRANCH  16  17
ATOM     17  C   UNL     1       7.405 -36.162  17.707  1.00  0.00     0.130 C 
ATOM     18  O   UNL     1       7.337 -37.075  18.515  1.00  0.00    -0.300 OA
ATOM     19  C   UNL     1       8.721 -35.478  17.481  1.00  0.00     0.087 C 
ENDBRANCH  16  17
ENDBRANCH  15  16
ENDBRANCH  13  15
ENDBRANCH  11  12
ENDBRANCH   1  11
TORSDOF 9
ENDMDL
MODEL 6
REMARK VINA RESULT:    -1.130      2.180      4.690
REMARK INTER + INTRA:          -3.566
REMARK INTER:                  -3.193
REMARK INTRA:                  -0.373
REMARK UNBOUND:                -1.842
REMARK SMILES CC(=O)CCC=C(C)CCC=C(C)CCC=C(C)C
REMARK SMILES IDX 10 1 11 2 12 3 13 4 14 5 15 6 16 7 18 8 17 9 19 10 9 11 7 12
REMARK SMILES IDX 6 13 8 14 5 15 4 16 2 17 3 18 1 19
REMARK H PARENT
REMARK Flexibility Score: inf
ROOT
ATOM      1  C   UNL     1       9.605 -32.223  17.057  1.00  0.00     0.032 C 
ENDROOT
BRANCH   1   2
ATOM      2  C   UNL     1       8.257 -32.434  16.414  1.00  0.00    -0.028 C 
ATOM      3  C   UNL     1       7.192 -32.988  17.036  1.00  0.00    -0.077 C 
ATOM      4  C   UNL     1       7.233 -33.379  18.495  1.00  0.00     0.039 C 
BRANCH   3   5
ATOM      5  C   UNL     1       5.915 -33.203  16.252  1.00  0.00     0.034 C 
BRANCH   5   6
ATOM      6  C   UNL     1       6.030 -34.443  15.358  1.00  0.00     0.032 C 
BRANCH   6   7
ATOM      7  C   UNL     1       5.986 -35.707  16.181  1.00  0.00    -0.028 C 
ATOM      8  C   UNL     1       5.886 -37.199  14.173  1.00  0.00     0.039 C 
ATOM      9  C   UNL     1       5.942 -36.954  15.662  1.00  0.00    -0.080 C 
ATOM     10  C   UNL     1       5.928 -38.125  16.610  1.00  0.00     0.039 C 
ENDBRANCH   6   7
ENDBRANCH   5   6
ENDBRANCH   3   5
ENDBRANCH   1   2
BRANCH   1  11
ATOM     11  C   UNL     1      10.508 -31.378  16.150  1.00  0.00     0.034 C 
BRANCH  11  12
ATOM     12  C   UNL     1      10.662 -32.016  14.785  1.00  0.00    -0.077 C 
ATOM     13  C   UNL     1       9.654 -32.779  14.300  1.00  0.00    -0.028 C 
ATOM     14  C   UNL     1      11.928 -31.774  13.996  1.00  0.00     0.039 C 
BRANCH  13  15
ATOM     15  C   UNL     1       9.640 -33.399  12.925  1.00  0.00     0.035 C 
BRANCH  15  16
ATOM     16  C   UNL     1       8.988 -34.784  12.971  1.00  0.00     0.079 C 
BRANCH  16  17
ATOM     17  C   UNL     1      10.037 -35.862  13.043  1.00  0.00     0.130 C 
ATOM     18  O   UNL     1       9.697 -37.018  13.247  1.00  0.00    -0.300 OA
ATOM     19  C   UNL     1      11.493 -35.544  12.875  1.00  0.00     0.087 C 
ENDBRANCH  16  17
ENDBRANCH  15  16
ENDBRANCH  13  15
ENDBRANCH  11  12
ENDBRANCH   1  11
TORSDOF 9
ENDMDL
MODEL 7
REMARK VINA RESULT:    -0.244      1.940      5.913
REMARK INTER + INTRA:          -2.214
REMARK INTER:                  -0.491
REMARK INTRA:                  -1.723
REMARK UNBOUND:                -1.842
REMARK SMILES CC(=O)CCC=C(C)CCC=C(C)CCC=C(C)C
REMARK SMILES IDX 10 1 11 2 12 3 13 4 14 5 15 6 16 7 18 8 17 9 19 10 9 11 7 12
REMARK SMILES IDX 6 13 8 14 5 15 4 16 2 17 3 18 1 19
REMARK H PARENT
REMARK Flexibility Score: inf
ROOT
ATOM      1  C   UNL     1       9.316 -31.763  18.694  1.00  0.00     0.032 C 
ENDROOT
BRANCH   1   2
ATOM      2  C   UNL     1       9.583 -32.189  17.272  1.00  0.00    -0.028 C 
ATOM      3  C   UNL     1      10.274 -31.454  16.371  1.00  0.00    -0.077 C 
ATOM      4  C   UNL     1      10.927 -30.143  16.741  1.00  0.00     0.039 C 
BRANCH   3   5
ATOM      5  C   UNL     1      10.412 -31.972  14.955  1.00  0.00     0.034 C 
BRANCH   5   6
ATOM      6  C   UNL     1       9.068 -32.493  14.434  1.00  0.00     0.032 C 
BRANCH   6   7
ATOM      7  C   UNL     1       9.268 -33.667  13.507  1.00  0.00    -0.028 C 
ATOM      8  C   UNL     1       9.588 -35.296  15.381  1.00  0.00     0.039 C 
ATOM      9  C   UNL     1       9.483 -34.936  13.918  1.00  0.00    -0.080 C 
ATOM     10  C   UNL     1       9.639 -36.011  12.875  1.00  0.00     0.039 C 
ENDBRANCH   6   7
ENDBRANCH   5   6
ENDBRANCH   3   5
ENDBRANCH   1   2
BRANCH   1  11
ATOM     11  C   UNL     1       8.020 -32.399  19.212  1.00  0.00     0.034 C 
BRANCH  11  12
ATOM     12  C   UNL     1       7.021 -32.595  18.091  1.00  0.00    -0.077 C 
ATOM     13  C   UNL     1       7.017 -33.767  17.413  1.00  0.00    -0.028 C 
ATOM     14  C   UNL     1       6.047 -31.486  17.767  1.00  0.00     0.039 C 
BRANCH  13  15
ATOM     15  C   UNL     1       6.024 -34.127  16.337  1.00  0.00     0.035 C 
BRANCH  15  16
ATOM     16  C   UNL     1       5.875 -35.647  16.235  1.00  0.00     0.079 C 
BRANCH  16  17
ATOM     17  C   UNL     1       6.205 -36.120  14.844  1.00  0.00     0.130 C 
ATOM     18  O   UNL     1       6.100 -35.345  13.905  1.00  0.00    -0.300 OA
ATOM     19  C   UNL     1       6.655 -37.528  14.587  1.00  0.00     0.087 C 
ENDBRANCH  16  17
ENDBRANCH  15  16
ENDBRANCH  13  15
ENDBRANCH  11  12
ENDBRANCH   1  11
TORSDOF 9
ENDMDL
