MODEL 1
REMARK VINA RESULT:    -5.127      0.000      0.000
REMARK INTER + INTRA:          -6.504
REMARK INTER:                  -6.176
REMARK INTRA:                  -0.328
REMARK UNBOUND:                -0.328
REMARK SMILES O=c1c(O)c(-c2ccc(O)c(O)c2)oc2cc(O)cc(O)c12
REMARK SMILES IDX 5 1 3 2 2 3 1 4 22 5 20 6 19 7 17 8 16 9 15 10 14 11 6 12
REMARK SMILES IDX 7 13 8 14 9 15 13 16 11 17 10 18 12 20 4 22 21 24 18 26
REMARK H PARENT 10 19 12 21 4 23 21 25 18 27
REMARK Flexibility Score: inf
ROOT
ATOM      1  C   UNL     1       8.733  11.973  61.330  1.00  0.00     0.180 A 
ATOM      2  C   UNL     1       9.559  13.034  61.750  1.00  0.00     0.208 A 
ATOM      3  C   UNL     1       8.975  14.138  62.389  1.00  0.00     0.238 A 
ATOM      4  O   UNL     1       9.703  15.099  62.759  1.00  0.00    -0.285 OA
ATOM      5  C   UNL     1       7.582  14.155  62.616  1.00  0.00     0.111 A 
ATOM      6  C   UNL     1       6.916  15.227  63.256  1.00  0.00     0.134 A 
ATOM      7  C   UNL     1       5.528  15.165  63.454  1.00  0.00     0.093 A 
ATOM      8  C   UNL     1       4.797  14.055  63.025  1.00  0.00     0.123 A 
ATOM      9  C   UNL     1       5.449  12.993  62.391  1.00  0.00     0.094 A 
ATOM     10  C   UNL     1       6.832  13.037  62.184  1.00  0.00     0.146 A 
ATOM     11  O   UNL     1       7.427  12.017  61.575  1.00  0.00    -0.452 OA
ENDROOT
BRANCH   1  12
ATOM     12  C   UNL     1       9.273  10.784  60.634  1.00  0.00     0.025 A 
ATOM     13  C   UNL     1       9.316  10.714  59.232  1.00  0.00     0.016 A 
ATOM     14  C   UNL     1       9.807   9.572  58.598  1.00  0.00     0.051 A 
ATOM     15  C   UNL     1      10.249   8.474  59.344  1.00  0.00     0.157 A 
ATOM     16  C   UNL     1       9.694   9.675  61.384  1.00  0.00     0.062 A 
ATOM     17  C   UNL     1      10.189   8.524  60.757  1.00  0.00     0.158 A 
BRANCH  15  18
ATOM     18  O   UNL     1      10.733   7.364  58.648  1.00  0.00    -0.504 OA
ATOM     19  H   UNL     1      10.203   6.861  57.949  1.00  0.00     0.293 HD
ENDBRANCH  15  18
BRANCH  17  20
ATOM     20  O   UNL     1      10.602   7.466  61.568  1.00  0.00    -0.504 OA
ATOM     21  H   UNL     1       9.970   6.845  62.052  1.00  0.00     0.293 HD
ENDBRANCH  17  20
ENDBRANCH   1  12
BRANCH   2  22
ATOM     22  O   UNL     1      10.942  12.970  61.557  1.00  0.00    -0.502 OA
ATOM     23  H   UNL     1      11.425  13.562  60.893  1.00  0.00     0.293 HD
ENDBRANCH   2  22
BRANCH   6  24
ATOM     24  O   UNL     1       7.619  16.350  63.697  1.00  0.00    -0.507 OA
ATOM     25  H   UNL     1       8.178  16.910  63.064  1.00  0.00     0.293 HD
ENDBRANCH   6  24
BRANCH   8  26
ATOM     26  O   UNL     1       3.420  14.018  63.234  1.00  0.00    -0.508 OA
ATOM     27  H   UNL     1       3.009  14.316  64.111  1.00  0.00     0.293 HD
ENDBRANCH   8  26
TORSDOF 6
ENDMDL
MODEL 2
REMARK VINA RESULT:    -4.937      1.962      3.627
REMARK INTER + INTRA:          -6.275
REMARK INTER:                  -6.115
REMARK INTRA:                  -0.161
REMARK UNBOUND:                -0.328
REMARK SMILES O=c1c(O)c(-c2ccc(O)c(O)c2)oc2cc(O)cc(O)c12
REMARK SMILES IDX 5 1 3 2 2 3 1 4 22 5 20 6 19 7 17 8 16 9 15 10 14 11 6 12
REMARK SMILES IDX 7 13 8 14 9 15 13 16 11 17 10 18 12 20 4 22 21 24 18 26
REMARK H PARENT 10 19 12 21 4 23 21 25 18 27
REMARK Flexibility Score: inf
ROOT
ATOM      1  C   UNL     1       8.092  13.431  62.116  1.00  0.00     0.180 A 
ATOM      2  C   UNL     1       6.725  13.764  62.182  1.00  0.00     0.208 A 
ATOM      3  C   UNL     1       6.358  15.036  62.647  1.00  0.00     0.238 A 
ATOM      4  O   UNL     1       5.137  15.342  62.721  1.00  0.00    -0.285 OA
ATOM      5  C   UNL     1       7.359  15.959  63.017  1.00  0.00     0.111 A 
ATOM      6  C   UNL     1       7.074  17.261  63.491  1.00  0.00     0.134 A 
ATOM      7  C   UNL     1       8.127  18.124  63.830  1.00  0.00     0.093 A 
ATOM      8  C   UNL     1       9.455  17.711  63.704  1.00  0.00     0.123 A 
ATOM      9  C   UNL     1       9.743  16.425  63.237  1.00  0.00     0.094 A 
ATOM     10  C   UNL     1       8.707  15.550  62.895  1.00  0.00     0.146 A 
ATOM     11  O   UNL     1       9.008  14.332  62.458  1.00  0.00    -0.452 OA
ENDROOT
BRANCH   1  12
ATOM     12  C   UNL     1       8.557  12.104  61.654  1.00  0.00     0.025 A 
ATOM     13  C   UNL     1       9.278  11.957  60.458  1.00  0.00     0.016 A 
ATOM     14  C   UNL     1       9.685  10.692  60.031  1.00  0.00     0.051 A 
ATOM     15  C   UNL     1       9.370   9.550  60.776  1.00  0.00     0.157 A 
ATOM     16  C   UNL     1       8.220  10.958  62.391  1.00  0.00     0.062 A 
ATOM     17  C   UNL     1       8.625   9.684  61.972  1.00  0.00     0.158 A 
BRANCH  15  18
ATOM     18  O   UNL     1       9.811   8.315  60.295  1.00  0.00    -0.504 OA
ATOM     19  H   UNL     1      10.780   8.031  60.274  1.00  0.00     0.293 HD
ENDBRANCH  15  18
BRANCH  17  20
ATOM     20  O   UNL     1       8.265   8.592  62.763  1.00  0.00    -0.504 OA
ATOM     21  H   UNL     1       7.746   7.795  62.423  1.00  0.00     0.293 HD
ENDBRANCH  17  20
ENDBRANCH   1  12
BRANCH   2  22
ATOM     22  O   UNL     1       5.755  12.849  61.763  1.00  0.00    -0.502 OA
ATOM     23  H   UNL     1       5.850  12.312  60.910  1.00  0.00     0.293 HD
ENDBRANCH   2  22
BRANCH   6  24
ATOM     24  O   UNL     1       5.757  17.704  63.627  1.00  0.00    -0.507 OA
ATOM     25  H   UNL     1       5.514  18.470  64.245  1.00  0.00     0.293 HD
ENDBRANCH   6  24
BRANCH   8  26
ATOM     26  O   UNL     1      10.482  18.588  64.047  1.00  0.00    -0.508 OA
ATOM     27  H   UNL     1      10.905  19.201  63.360  1.00  0.00     0.293 HD
ENDBRANCH   8  26
TORSDOF 6
ENDMDL
MODEL 3
REMARK VINA RESULT:    -4.923     12.693     14.713
REMARK INTER + INTRA:          -6.259
REMARK INTER:                  -5.949
REMARK INTRA:                  -0.310
REMARK UNBOUND:                -0.328
REMARK SMILES O=c1c(O)c(-c2ccc(O)c(O)c2)oc2cc(O)cc(O)c12
REMARK SMILES IDX 5 1 3 2 2 3 1 4 22 5 20 6 19 7 17 8 16 9 15 10 14 11 6 12
REMARK SMILES IDX 7 13 8 14 9 15 13 16 11 17 10 18 12 20 4 22 21 24 18 26
REMARK H PARENT 10 19 12 21 4 23 21 25 18 27
REMARK Flexibility Score: inf
ROOT
ATOM      1  C   UNL     1       4.126  14.126  75.071  1.00  0.00     0.180 A 
ATOM      2  C   UNL     1       4.353  15.514  74.999  1.00  0.00     0.208 A 
ATOM      3  C   UNL     1       3.275  16.390  75.200  1.00  0.00     0.238 A 
ATOM      4  O   UNL     1       3.464  17.635  75.127  1.00  0.00    -0.285 OA
ATOM      5  C   UNL     1       1.996  15.867  75.489  1.00  0.00     0.111 A 
ATOM      6  C   UNL     1       0.859  16.681  75.708  1.00  0.00     0.134 A 
ATOM      7  C   UNL     1      -0.377  16.084  76.000  1.00  0.00     0.093 A 
ATOM      8  C   UNL     1      -0.497  14.695  76.076  1.00  0.00     0.123 A 
ATOM      9  C   UNL     1       0.623  13.886  75.860  1.00  0.00     0.094 A 
ATOM     10  C   UNL     1       1.864  14.462  75.567  1.00  0.00     0.146 A 
ATOM     11  O   UNL     1       2.910  13.670  75.360  1.00  0.00    -0.452 OA
ENDROOT
BRANCH   1  12
ATOM     12  C   UNL     1       5.207  13.140  74.853  1.00  0.00     0.025 A 
ATOM     13  C   UNL     1       5.375  12.501  73.614  1.00  0.00     0.016 A 
ATOM     14  C   UNL     1       6.388  11.557  73.439  1.00  0.00     0.051 A 
ATOM     15  C   UNL     1       7.241  11.219  74.496  1.00  0.00     0.157 A 
ATOM     16  C   UNL     1       6.047  12.786  75.921  1.00  0.00     0.062 A 
ATOM     17  C   UNL     1       7.066  11.840  75.755  1.00  0.00     0.158 A 
BRANCH  15  18
ATOM     18  O   UNL     1       8.236  10.269  74.254  1.00  0.00    -0.504 OA
ATOM     19  H   UNL     1       8.086   9.271  74.299  1.00  0.00     0.293 HD
ENDBRANCH  15  18
BRANCH  17  20
ATOM     20  O   UNL     1       7.871  11.548  76.858  1.00  0.00    -0.504 OA
ATOM     21  H   UNL     1       8.735  11.029  76.805  1.00  0.00     0.293 HD
ENDBRANCH  17  20
ENDBRANCH   1  12
BRANCH   2  22
ATOM     22  O   UNL     1       5.638  16.007  74.761  1.00  0.00    -0.502 OA
ATOM     23  H   UNL     1       6.114  15.876  73.876  1.00  0.00     0.293 HD
ENDBRANCH   2  22
BRANCH   6  24
ATOM     24  O   UNL     1       0.947  18.072  75.639  1.00  0.00    -0.507 OA
ATOM     25  H   UNL     1       0.243  18.628  75.167  1.00  0.00     0.293 HD
ENDBRANCH   6  24
BRANCH   8  26
ATOM     26  O   UNL     1      -1.736  14.128  76.368  1.00  0.00    -0.508 OA
ATOM     27  H   UNL     1      -2.545  14.294  75.782  1.00  0.00     0.293 HD
ENDBRANCH   8  26
TORSDOF 6
ENDMDL
MODEL 4
REMARK VINA RESULT:    -4.781      2.942      4.054
REMARK INTER + INTRA:          -6.087
REMARK INTER:                  -5.763
REMARK INTRA:                  -0.325
REMARK UNBOUND:                -0.328
REMARK SMILES O=c1c(O)c(-c2ccc(O)c(O)c2)oc2cc(O)cc(O)c12
REMARK SMILES IDX 5 1 3 2 2 3 1 4 22 5 20 6 19 7 17 8 16 9 15 10 14 11 6 12
REMARK SMILES IDX 7 13 8 14 9 15 13 16 11 17 10 18 12 20 4 22 21 24 18 26
REMARK H PARENT 10 19 12 21 4 23 21 25 18 27
REMARK Flexibility Score: inf
ROOT
ATOM      1  C   UNL     1       7.434  12.347  63.044  1.00  0.00     0.180 A 
ATOM      2  C   UNL     1       6.094  12.739  62.866  1.00  0.00     0.208 A 
ATOM      3  C   UNL     1       5.327  13.068  63.994  1.00  0.00     0.238 A 
ATOM      4  O   UNL     1       4.122  13.409  63.849  1.00  0.00    -0.285 OA
ATOM      5  C   UNL     1       5.917  13.021  65.276  1.00  0.00     0.111 A 
ATOM      6  C   UNL     1       5.215  13.340  66.463  1.00  0.00     0.134 A 
ATOM      7  C   UNL     1       5.875  13.277  67.699  1.00  0.00     0.093 A 
ATOM      8  C   UNL     1       7.218  12.903  67.771  1.00  0.00     0.123 A 
ATOM      9  C   UNL     1       7.917  12.585  66.602  1.00  0.00     0.094 A 
ATOM     10  C   UNL     1       7.276  12.641  65.360  1.00  0.00     0.146 A 
ATOM     11  O   UNL     1       7.961  12.329  64.265  1.00  0.00    -0.452 OA
ENDROOT
BRANCH   1  12
ATOM     12  C   UNL     1       8.301  11.968  61.905  1.00  0.00     0.025 A 
ATOM     13  C   UNL     1       9.056  12.926  61.210  1.00  0.00     0.016 A 
ATOM     14  C   UNL     1       9.848  12.548  60.125  1.00  0.00     0.051 A 
ATOM     15  C   UNL     1       9.891  11.215  59.701  1.00  0.00     0.157 A 
ATOM     16  C   UNL     1       8.325  10.634  61.468  1.00  0.00     0.062 A 
ATOM     17  C   UNL     1       9.116  10.245  60.380  1.00  0.00     0.158 A 
BRANCH  15  18
ATOM     18  O   UNL     1      10.706  10.903  58.611  1.00  0.00    -0.504 OA
ATOM     19  H   UNL     1      11.665  10.596  58.692  1.00  0.00     0.293 HD
ENDBRANCH  15  18
BRANCH  17  20
ATOM     20  O   UNL     1       9.100   8.899  60.010  1.00  0.00    -0.504 OA
ATOM     21  H   UNL     1       9.785   8.472  59.404  1.00  0.00     0.293 HD
ENDBRANCH  17  20
ENDBRANCH   1  12
BRANCH   2  22
ATOM     22  O   UNL     1       5.548  12.825  61.582  1.00  0.00    -0.502 OA
ATOM     23  H   UNL     1       6.057  12.533  60.757  1.00  0.00     0.293 HD
ENDBRANCH   2  22
BRANCH   6  24
ATOM     24  O   UNL     1       3.872  13.718  66.424  1.00  0.00    -0.507 OA
ATOM     25  H   UNL     1       3.338  13.877  67.271  1.00  0.00     0.293 HD
ENDBRANCH   6  24
BRANCH   8  26
ATOM     26  O   UNL     1       7.851  12.850  69.011  1.00  0.00    -0.508 OA
ATOM     27  H   UNL     1       7.713  13.573  69.707  1.00  0.00     0.293 HD
ENDBRANCH   8  26
TORSDOF 6
ENDMDL
MODEL 5
REMARK VINA RESULT:    -4.777      1.141      1.820
REMARK INTER + INTRA:          -6.083
REMARK INTER:                  -5.761
REMARK INTRA:                  -0.322
REMARK UNBOUND:                -0.328
REMARK SMILES O=c1c(O)c(-c2ccc(O)c(O)c2)oc2cc(O)cc(O)c12
REMARK SMILES IDX 5 1 3 2 2 3 1 4 22 5 20 6 19 7 17 8 16 9 15 10 14 11 6 12
REMARK SMILES IDX 7 13 8 14 9 15 13 16 11 17 10 18 12 20 4 22 21 24 18 26
REMARK H PARENT 10 19 12 21 4 23 21 25 18 27
REMARK Flexibility Score: inf
ROOT
ATOM      1  C   UNL     1       7.938  12.384  61.981  1.00  0.00     0.180 A 
ATOM      2  C   UNL     1       8.614  13.607  62.158  1.00  0.00     0.208 A 
ATOM      3  C   UNL     1       7.877  14.743  62.525  1.00  0.00     0.238 A 
ATOM      4  O   UNL     1       8.469  15.846  62.675  1.00  0.00    -0.285 OA
ATOM      5  C   UNL     1       6.485  14.635  62.729  1.00  0.00     0.111 A 
ATOM      6  C   UNL     1       5.671  15.730  63.103  1.00  0.00     0.134 A 
ATOM      7  C   UNL     1       4.294  15.539  63.296  1.00  0.00     0.093 A 
ATOM      8  C   UNL     1       3.718  14.279  63.122  1.00  0.00     0.123 A 
ATOM      9  C   UNL     1       4.518  13.193  62.752  1.00  0.00     0.094 A 
ATOM     10  C   UNL     1       5.892  13.363  62.554  1.00  0.00     0.146 A 
ATOM     11  O   UNL     1       6.628  12.316  62.197  1.00  0.00    -0.452 OA
ENDROOT
BRANCH   1  12
ATOM     12  C   UNL     1       8.643  11.147  61.577  1.00  0.00     0.025 A 
ATOM     13  C   UNL     1       9.239  10.301  62.527  1.00  0.00     0.016 A 
ATOM     14  C   UNL     1       9.918   9.152  62.120  1.00  0.00     0.051 A 
ATOM     15  C   UNL     1      10.032   8.831  60.762  1.00  0.00     0.157 A 
ATOM     16  C   UNL     1       8.775  10.839  60.214  1.00  0.00     0.062 A 
ATOM     17  C   UNL     1       9.455   9.688  59.796  1.00  0.00     0.158 A 
BRANCH  15  18
ATOM     18  O   UNL     1      10.722   7.665  60.423  1.00  0.00    -0.504 OA
ATOM     19  H   UNL     1      11.472   7.630  59.748  1.00  0.00     0.293 HD
ENDBRANCH  15  18
BRANCH  17  20
ATOM     20  O   UNL     1       9.534   9.439  58.424  1.00  0.00    -0.504 OA
ATOM     21  H   UNL     1       9.260   8.569  57.992  1.00  0.00     0.293 HD
ENDBRANCH  17  20
ENDBRANCH   1  12
BRANCH   2  22
ATOM     22  O   UNL     1      10.001  13.676  61.998  1.00  0.00    -0.502 OA
ATOM     23  H   UNL     1      10.592  14.209  62.624  1.00  0.00     0.293 HD
ENDBRANCH   2  22
BRANCH   6  24
ATOM     24  O   UNL     1       6.215  17.002  63.285  1.00  0.00    -0.507 OA
ATOM     25  H   UNL     1       7.198  17.136  63.497  1.00  0.00     0.293 HD
ENDBRANCH   6  24
BRANCH   8  26
ATOM     26  O   UNL     1       2.349  14.116  63.321  1.00  0.00    -0.508 OA
ATOM     27  H   UNL     1       1.973  13.850  64.224  1.00  0.00     0.293 HD
ENDBRANCH   8  26
TORSDOF 6
ENDMDL
MODEL 6
REMARK VINA RESULT:    -4.749      9.333     11.101
REMARK INTER + INTRA:          -6.049
REMARK INTER:                  -5.784
REMARK INTRA:                  -0.266
REMARK UNBOUND:                -0.328
REMARK SMILES O=c1c(O)c(-c2ccc(O)c(O)c2)oc2cc(O)cc(O)c12
REMARK SMILES IDX 5 1 3 2 2 3 1 4 22 5 20 6 19 7 17 8 16 9 15 10 14 11 6 12
REMARK SMILES IDX 7 13 8 14 9 15 13 16 11 17 10 18 12 20 4 22 21 24 18 26
REMARK H PARENT 10 19 12 21 4 23 21 25 18 27
REMARK Flexibility Score: inf
ROOT
ATOM      1  C   UNL     1      -1.938  13.817  60.403  1.00  0.00     0.180 A 
ATOM      2  C   UNL     1      -1.099  14.923  60.642  1.00  0.00     0.208 A 
ATOM      3  C   UNL     1      -1.625  16.216  60.501  1.00  0.00     0.238 A 
ATOM      4  O   UNL     1      -0.881  17.215  60.700  1.00  0.00    -0.285 OA
ATOM      5  C   UNL     1      -2.980  16.383  60.145  1.00  0.00     0.111 A 
ATOM      6  C   UNL     1      -3.588  17.652  59.986  1.00  0.00     0.134 A 
ATOM      7  C   UNL     1      -4.945  17.734  59.640  1.00  0.00     0.093 A 
ATOM      8  C   UNL     1      -5.703  16.577  59.450  1.00  0.00     0.123 A 
ATOM      9  C   UNL     1      -5.108  15.321  59.605  1.00  0.00     0.094 A 
ATOM     10  C   UNL     1      -3.757  15.218  59.949  1.00  0.00     0.146 A 
ATOM     11  O   UNL     1      -3.214  14.013  60.085  1.00  0.00    -0.452 OA
ENDROOT
BRANCH   1  12
ATOM     12  C   UNL     1      -1.452  12.423  60.514  1.00  0.00     0.025 A 
ATOM     13  C   UNL     1      -1.216  11.638  59.374  1.00  0.00     0.016 A 
ATOM     14  C   UNL     1      -0.781  10.319  59.505  1.00  0.00     0.051 A 
ATOM     15  C   UNL     1      -0.588   9.751  60.769  1.00  0.00     0.157 A 
ATOM     16  C   UNL     1      -1.281  11.849  61.784  1.00  0.00     0.062 A 
ATOM     17  C   UNL     1      -0.845  10.526  61.925  1.00  0.00     0.158 A 
BRANCH  15  18
ATOM     18  O   UNL     1      -0.148   8.427  60.830  1.00  0.00    -0.504 OA
ATOM     19  H   UNL     1       0.759   8.119  60.510  1.00  0.00     0.293 HD
ENDBRANCH  15  18
BRANCH  17  20
ATOM     20  O   UNL     1      -0.684  10.027  63.219  1.00  0.00    -0.504 OA
ATOM     21  H   UNL     1      -1.203  10.356  64.019  1.00  0.00     0.293 HD
ENDBRANCH  17  20
ENDBRANCH   1  12
BRANCH   2  22
ATOM     22  O   UNL     1       0.226  14.731  61.041  1.00  0.00    -0.502 OA
ATOM     23  H   UNL     1       0.469  14.268  61.909  1.00  0.00     0.293 HD
ENDBRANCH   2  22
BRANCH   6  24
ATOM     24  O   UNL     1      -2.858  18.827  60.169  1.00  0.00    -0.507 OA
ATOM     25  H   UNL     1      -3.054  19.665  59.634  1.00  0.00     0.293 HD
ENDBRANCH   6  24
BRANCH   8  26
ATOM     26  O   UNL     1      -7.050  16.686  59.107  1.00  0.00    -0.508 OA
ATOM     27  H   UNL     1      -7.340  17.097  58.228  1.00  0.00     0.293 HD
ENDBRANCH   8  26
TORSDOF 6
ENDMDL
MODEL 7
REMARK VINA RESULT:    -4.747      2.192      2.746
REMARK INTER + INTRA:          -6.047
REMARK INTER:                  -5.717
REMARK INTRA:                  -0.330
REMARK UNBOUND:                -0.328
REMARK SMILES O=c1c(O)c(-c2ccc(O)c(O)c2)oc2cc(O)cc(O)c12
REMARK SMILES IDX 5 1 3 2 2 3 1 4 22 5 20 6 19 7 17 8 16 9 15 10 14 11 6 12
REMARK SMILES IDX 7 13 8 14 9 15 13 16 11 17 10 18 12 20 4 22 21 24 18 26
REMARK H PARENT 10 19 12 21 4 23 21 25 18 27
REMARK Flexibility Score: inf
ROOT
ATOM      1  C   UNL     1       7.605  12.285  62.564  1.00  0.00     0.180 A 
ATOM      2  C   UNL     1       8.038  12.394  63.899  1.00  0.00     0.208 A 
ATOM      3  C   UNL     1       7.123  12.815  64.877  1.00  0.00     0.238 A 
ATOM      4  O   UNL     1       7.502  12.927  66.075  1.00  0.00    -0.285 OA
ATOM      5  C   UNL     1       5.791  13.098  64.509  1.00  0.00     0.111 A 
ATOM      6  C   UNL     1       4.807  13.524  65.433  1.00  0.00     0.134 A 
ATOM      7  C   UNL     1       3.500  13.777  64.990  1.00  0.00     0.093 A 
ATOM      8  C   UNL     1       3.160  13.614  63.645  1.00  0.00     0.123 A 
ATOM      9  C   UNL     1       4.128  13.195  62.728  1.00  0.00     0.094 A 
ATOM     10  C   UNL     1       5.436  12.938  63.150  1.00  0.00     0.146 A 
ATOM     11  O   UNL     1       6.338  12.546  62.257  1.00  0.00    -0.452 OA
ENDROOT
BRANCH   1  12
ATOM     12  C   UNL     1       8.515  11.866  61.474  1.00  0.00     0.025 A 
ATOM     13  C   UNL     1       9.338  12.790  60.812  1.00  0.00     0.016 A 
ATOM     14  C   UNL     1      10.170  12.375  59.771  1.00  0.00     0.051 A 
ATOM     15  C   UNL     1      10.188  11.038  59.360  1.00  0.00     0.157 A 
ATOM     16  C   UNL     1       8.514  10.528  61.048  1.00  0.00     0.062 A 
ATOM     17  C   UNL     1       9.346  10.102  60.005  1.00  0.00     0.158 A 
BRANCH  15  18
ATOM     18  O   UNL     1      11.046  10.688  58.315  1.00  0.00    -0.504 OA
ATOM     19  H   UNL     1      11.979  10.325  58.449  1.00  0.00     0.293 HD
ENDBRANCH  15  18
BRANCH  17  20
ATOM     20  O   UNL     1       9.301   8.754  59.645  1.00  0.00    -0.504 OA
ATOM     21  H   UNL     1      10.070   8.111  59.768  1.00  0.00     0.293 HD
ENDBRANCH  17  20
ENDBRANCH   1  12
BRANCH   2  22
ATOM     22  O   UNL     1       9.350  12.060  64.246  1.00  0.00    -0.502 OA
ATOM     23  H   UNL     1      10.152  12.418  63.741  1.00  0.00     0.293 HD
ENDBRANCH   2  22
BRANCH   6  24
ATOM     24  O   UNL     1       5.115  13.696  66.783  1.00  0.00    -0.507 OA
ATOM     25  H   UNL     1       5.936  13.272  67.201  1.00  0.00     0.293 HD
ENDBRANCH   6  24
BRANCH   8  26
ATOM     26  O   UNL     1       1.854  13.871  63.232  1.00  0.00    -0.508 OA
ATOM     27  H   UNL     1       1.076  13.830  63.879  1.00  0.00     0.293 HD
ENDBRANCH   8  26
TORSDOF 6
ENDMDL
MODEL 8
REMARK VINA RESULT:    -4.739      9.522     12.380
REMARK INTER + INTRA:          -6.037
REMARK INTER:                  -5.852
REMARK INTRA:                  -0.184
REMARK UNBOUND:                -0.328
REMARK SMILES O=c1c(O)c(-c2ccc(O)c(O)c2)oc2cc(O)cc(O)c12
REMARK SMILES IDX 5 1 3 2 2 3 1 4 22 5 20 6 19 7 17 8 16 9 15 10 14 11 6 12
REMARK SMILES IDX 7 13 8 14 9 15 13 16 11 17 10 18 12 20 4 22 21 24 18 26
REMARK H PARENT 10 19 12 21 4 23 21 25 18 27
REMARK Flexibility Score: inf
ROOT
ATOM      1  C   UNL     1      -1.499   8.114  61.216  1.00  0.00     0.180 A 
ATOM      2  C   UNL     1      -2.325   7.024  60.881  1.00  0.00     0.208 A 
ATOM      3  C   UNL     1      -1.926   5.731  61.253  1.00  0.00     0.238 A 
ATOM      4  O   UNL     1      -2.652   4.745  60.949  1.00  0.00    -0.285 OA
ATOM      5  C   UNL     1      -0.723   5.551  61.968  1.00  0.00     0.111 A 
ATOM      6  C   UNL     1      -0.251   4.282  62.382  1.00  0.00     0.134 A 
ATOM      7  C   UNL     1       0.952   4.188  63.098  1.00  0.00     0.093 A 
ATOM      8  C   UNL     1       1.689   5.333  63.406  1.00  0.00     0.123 A 
ATOM      9  C   UNL     1       1.229   6.589  62.999  1.00  0.00     0.094 A 
ATOM     10  C   UNL     1       0.033   6.704  62.283  1.00  0.00     0.146 A 
ATOM     11  O   UNL     1      -0.380   7.908  61.904  1.00  0.00    -0.452 OA
ENDROOT
BRANCH   1  12
ATOM     12  C   UNL     1      -1.843   9.505  60.844  1.00  0.00     0.025 A 
ATOM     13  C   UNL     1      -2.958  10.155  61.396  1.00  0.00     0.016 A 
ATOM     14  C   UNL     1      -3.276  11.459  61.012  1.00  0.00     0.051 A 
ATOM     15  C   UNL     1      -2.502  12.133  60.061  1.00  0.00     0.157 A 
ATOM     16  C   UNL     1      -1.078  10.171  59.874  1.00  0.00     0.062 A 
ATOM     17  C   UNL     1      -1.389  11.479  59.481  1.00  0.00     0.158 A 
BRANCH  15  18
ATOM     18  O   UNL     1      -2.872  13.437  59.724  1.00  0.00    -0.504 OA
ATOM     19  H   UNL     1      -2.784  14.228  60.346  1.00  0.00     0.293 HD
ENDBRANCH  15  18
BRANCH  17  20
ATOM     20  O   UNL     1      -0.575  12.083  58.521  1.00  0.00    -0.504 OA
ATOM     21  H   UNL     1      -0.360  13.069  58.503  1.00  0.00     0.293 HD
ENDBRANCH  17  20
ENDBRANCH   1  12
BRANCH   2  22
ATOM     22  O   UNL     1      -3.536   7.234  60.217  1.00  0.00    -0.502 OA
ATOM     23  H   UNL     1      -4.392   7.461  60.709  1.00  0.00     0.293 HD
ENDBRANCH   2  22
BRANCH   6  24
ATOM     24  O   UNL     1      -0.965   3.120  62.089  1.00  0.00    -0.507 OA
ATOM     25  H   UNL     1      -1.629   3.080  61.325  1.00  0.00     0.293 HD
ENDBRANCH   6  24
BRANCH   8  26
ATOM     26  O   UNL     1       2.880   5.211  64.119  1.00  0.00    -0.508 OA
ATOM     27  H   UNL     1       3.349   6.020  64.509  1.00  0.00     0.293 HD
ENDBRANCH   8  26
TORSDOF 6
ENDMDL
MODEL 9
REMARK VINA RESULT:    -4.720     12.689     15.081
REMARK INTER + INTRA:          -6.014
REMARK INTER:                  -5.690
REMARK INTRA:                  -0.325
REMARK UNBOUND:                -0.328
REMARK SMILES O=c1c(O)c(-c2ccc(O)c(O)c2)oc2cc(O)cc(O)c12
REMARK SMILES IDX 5 1 3 2 2 3 1 4 22 5 20 6 19 7 17 8 16 9 15 10 14 11 6 12
REMARK SMILES IDX 7 13 8 14 9 15 13 16 11 17 10 18 12 20 4 22 21 24 18 26
REMARK H PARENT 10 19 12 21 4 23 21 25 18 27
REMARK Flexibility Score: inf
ROOT
ATOM      1  C   UNL     1       3.468  13.104  75.212  1.00  0.00     0.180 A 
ATOM      2  C   UNL     1       2.383  12.274  75.557  1.00  0.00     0.208 A 
ATOM      3  C   UNL     1       1.145  12.864  75.854  1.00  0.00     0.238 A 
ATOM      4  O   UNL     1       0.169  12.132  76.175  1.00  0.00    -0.285 OA
ATOM      5  C   UNL     1       1.006  14.266  75.782  1.00  0.00     0.111 A 
ATOM      6  C   UNL     1      -0.208  14.939  76.063  1.00  0.00     0.134 A 
ATOM      7  C   UNL     1      -0.268  16.336  75.959  1.00  0.00     0.093 A 
ATOM      8  C   UNL     1       0.857  17.072  75.583  1.00  0.00     0.123 A 
ATOM      9  C   UNL     1       2.059  16.414  75.305  1.00  0.00     0.094 A 
ATOM     10  C   UNL     1       2.140  15.021  75.403  1.00  0.00     0.146 A 
ATOM     11  O   UNL     1       3.295  14.420  75.139  1.00  0.00    -0.452 OA
ENDROOT
BRANCH   1  12
ATOM     12  C   UNL     1       4.808  12.558  74.903  1.00  0.00     0.025 A 
ATOM     13  C   UNL     1       5.165  12.190  73.595  1.00  0.00     0.016 A 
ATOM     14  C   UNL     1       6.427  11.656  73.332  1.00  0.00     0.051 A 
ATOM     15  C   UNL     1       7.351  11.462  74.365  1.00  0.00     0.157 A 
ATOM     16  C   UNL     1       5.725  12.344  75.944  1.00  0.00     0.062 A 
ATOM     17  C   UNL     1       6.994  11.808  75.690  1.00  0.00     0.158 A 
BRANCH  15  18
ATOM     18  O   UNL     1       8.598  10.927  74.034  1.00  0.00    -0.504 OA
ATOM     19  H   UNL     1       9.245  11.360  73.391  1.00  0.00     0.293 HD
ENDBRANCH  15  18
BRANCH  17  20
ATOM     20  O   UNL     1       7.858  11.636  76.773  1.00  0.00    -0.504 OA
ATOM     21  H   UNL     1       7.788  12.151  77.638  1.00  0.00     0.293 HD
ENDBRANCH  17  20
ENDBRANCH   1  12
BRANCH   2  22
ATOM     22  O   UNL     1       2.535  10.885  75.573  1.00  0.00    -0.502 OA
ATOM     23  H   UNL     1       2.771  10.375  76.415  1.00  0.00     0.293 HD
ENDBRANCH   2  22
BRANCH   6  24
ATOM     24  O   UNL     1      -1.350  14.232  76.441  1.00  0.00    -0.507 OA
ATOM     25  H   UNL     1      -1.944  13.774  75.759  1.00  0.00     0.293 HD
ENDBRANCH   6  24
BRANCH   8  26
ATOM     26  O   UNL     1       0.770  18.460  75.487  1.00  0.00    -0.508 OA
ATOM     27  H   UNL     1       0.033  18.908  74.956  1.00  0.00     0.293 HD
ENDBRANCH   8  26
TORSDOF 6
ENDMDL
