MODEL 1
REMARK VINA RESULT:    -3.192      0.000      0.000
REMARK INTER + INTRA:          -3.794
REMARK INTER:                  -3.752
REMARK INTRA:                  -0.041
REMARK UNBOUND:                -0.041
REMARK SMILES CCCCC(=O)[O-]
REMARK SMILES IDX 4 1 5 2 6 3 7 4 3 5 2 6 1 7
REMARK H PARENT
REMARK Flexibility Score: inf
ROOT
ATOM      1  C   UNL     1       7.376  49.061   8.875  1.00  0.00     0.053 C 
ENDROOT
BRANCH   1   2
ATOM      2  C   UNL     1       7.618  47.747   9.551  1.00  0.00     0.041 C 
ATOM      3  O   UNL     1       7.382  46.670   8.944  1.00  0.00    -0.550 OA
ATOM      4  O   UNL     1       8.136  47.712  10.840  1.00  0.00    -0.550 OA
ENDBRANCH   1   2
BRANCH   1   5
ATOM      5  C   UNL     1       6.152  49.788   9.453  1.00  0.00     0.006 C 
BRANCH   5   6
ATOM      6  C   UNL     1       4.842  48.985   9.365  1.00  0.00    -0.003 C 
ATOM      7  C   UNL     1       4.410  48.404  10.712  1.00  0.00     0.004 C 
ENDBRANCH   5   6
ENDBRANCH   1   5
TORSDOF 3
ENDMDL
MODEL 2
REMARK VINA RESULT:    -3.114      0.828      1.476
REMARK INTER + INTRA:          -3.701
REMARK INTER:                  -3.676
REMARK INTRA:                  -0.025
REMARK UNBOUND:                -0.041
REMARK SMILES CCCCC(=O)[O-]
REMARK SMILES IDX 4 1 5 2 6 3 7 4 3 5 2 6 1 7
REMARK H PARENT
REMARK Flexibility Score: inf
ROOT
ATOM      1  C   UNL     1       7.503  49.270   9.912  1.00  0.00     0.053 C 
ENDROOT
BRANCH   1   2
ATOM      2  C   UNL     1       7.805  47.920  10.484  1.00  0.00     0.041 C 
ATOM      3  O   UNL     1       8.381  47.818  11.599  1.00  0.00    -0.550 OA
ATOM      4  O   UNL     1       7.422  46.773   9.800  1.00  0.00    -0.550 OA
ENDBRANCH   1   2
BRANCH   1   5
ATOM      5  C   UNL     1       6.370  49.216   8.875  1.00  0.00     0.006 C 
BRANCH   5   6
ATOM      6  C   UNL     1       4.997  49.647   9.418  1.00  0.00    -0.003 C 
ATOM      7  C   UNL     1       4.383  48.619  10.369  1.00  0.00     0.004 C 
ENDBRANCH   5   6
ENDBRANCH   1   5
TORSDOF 3
ENDMDL
MODEL 3
REMARK VINA RESULT:    -0.744      7.937      8.832
REMARK INTER + INTRA:          -0.915
REMARK INTER:                  -0.820
REMARK INTRA:                  -0.096
REMARK UNBOUND:                -0.041
REMARK SMILES CCCCC(=O)[O-]
REMARK SMILES IDX 4 1 5 2 6 3 7 4 3 5 2 6 1 7
REMARK H PARENT
REMARK Flexibility Score: inf
ROOT
ATOM      1  C   UNL     1      14.022  46.070   9.962  1.00  0.00     0.053 C 
ENDROOT
BRANCH   1   2
ATOM      2  C   UNL     1      14.854  47.101   9.264  1.00  0.00     0.041 C 
ATOM      3  O   UNL     1      16.017  46.818   8.875  1.00  0.00    -0.550 OA
ATOM      4  O   UNL     1      14.332  48.364   9.014  1.00  0.00    -0.550 OA
ENDBRANCH   1   2
BRANCH   1   5
ATOM      5  C   UNL     1      13.357  45.100   8.973  1.00  0.00     0.006 C 
BRANCH   5   6
ATOM      6  C   UNL     1      13.662  43.616   9.244  1.00  0.00    -0.003 C 
ATOM      7  C   UNL     1      15.124  43.368   9.614  1.00  0.00     0.004 C 
ENDBRANCH   5   6
ENDBRANCH   1   5
TORSDOF 3
ENDMDL
