MODEL 1
REMARK VINA RESULT:    -3.952      0.000      0.000
REMARK INTER + INTRA:         -13.265
REMARK INTER:                  -9.959
REMARK INTRA:                  -3.305
REMARK UNBOUND:                -3.305
REMARK SMILES CCCCCCCCCCCCCCCCCCCCCCCCCCCC(=O)[O-]
REMARK SMILES IDX 15 1 16 2 17 3 18 4 19 5 20 6 21 7 22 8 23 9 24 10 25 11
REMARK SMILES IDX 26 12 27 13 28 14 29 15 30 16 14 17 13 18 12 19 11 20 10 21
REMARK SMILES IDX 9 22 8 23 7 24 6 25 5 26 4 27 3 28 2 29 1 30
REMARK H PARENT
REMARK Flexibility Score: inf
ROOT
ATOM      1  C   UNL     1      31.350  57.656  83.281  1.00  0.00     0.000 C 
ENDROOT
BRANCH   1   2
ATOM      2  C   UNL     1      31.331  58.201  81.842  1.00  0.00     0.000 C 
BRANCH   2   3
ATOM      3  C   UNL     1      29.910  58.293  81.263  1.00  0.00     0.000 C 
BRANCH   3   4
ATOM      4  C   UNL     1      29.844  59.131  79.977  1.00  0.00     0.000 C 
BRANCH   4   5
ATOM      5  C   UNL     1      29.504  58.249  78.766  1.00  0.00     0.000 C 
BRANCH   5   6
ATOM      6  C   UNL     1      29.413  59.040  77.450  1.00  0.00     0.000 C 
BRANCH   6   7
ATOM      7  C   UNL     1      28.741  60.422  77.557  1.00  0.00     0.000 C 
BRANCH   7   8
ATOM      8  C   UNL     1      27.230  60.420  77.241  1.00  0.00     0.000 C 
BRANCH   8   9
ATOM      9  C   UNL     1      26.583  61.802  77.444  1.00  0.00     0.000 C 
BRANCH   9  10
ATOM     10  C   UNL     1      25.900  62.339  76.175  1.00  0.00     0.000 C 
BRANCH  10  11
ATOM     11  C   UNL     1      25.651  63.861  76.157  1.00  0.00     0.000 C 
BRANCH  11  12
ATOM     12  C   UNL     1      26.069  64.580  74.861  1.00  0.00     0.006 C 
BRANCH  12  13
ATOM     13  C   UNL     1      26.842  65.880  75.118  1.00  0.00     0.053 C 
BRANCH  13  14
ATOM     14  C   UNL     1      25.896  67.023  75.313  1.00  0.00     0.041 C 
ATOM     15  O   UNL     1      26.163  67.933  76.143  1.00  0.00    -0.550 OA
ATOM     16  O   UNL     1      24.719  67.088  74.576  1.00  0.00    -0.550 OA
ENDBRANCH  13  14
ENDBRANCH  12  13
ENDBRANCH  11  12
ENDBRANCH  10  11
ENDBRANCH   9  10
ENDBRANCH   8   9
ENDBRANCH   7   8
ENDBRANCH   6   7
ENDBRANCH   5   6
ENDBRANCH   4   5
ENDBRANCH   3   4
ENDBRANCH   2   3
ENDBRANCH   1   2
BRANCH   1  17
ATOM     17  C   UNL     1      30.032  57.921  84.028  1.00  0.00     0.000 C 
BRANCH  17  18
ATOM     18  C   UNL     1      30.242  58.181  85.532  1.00  0.00     0.000 C 
BRANCH  18  19
ATOM     19  C   UNL     1      28.912  58.324  86.293  1.00  0.00     0.000 C 
BRANCH  19  20
ATOM     20  C   UNL     1      28.760  59.703  86.959  1.00  0.00     0.000 C 
BRANCH  20  21
ATOM     21  C   UNL     1      27.419  59.860  87.693  1.00  0.00     0.000 C 
BRANCH  21  22
ATOM     22  C   UNL     1      26.506  58.634  87.539  1.00  0.00    -0.000 C 
BRANCH  22  23
ATOM     23  C   UNL     1      25.218  59.006  86.788  1.00  0.00    -0.000 C 
BRANCH  23  24
ATOM     24  C   UNL     1      25.369  58.899  85.262  1.00  0.00    -0.000 C 
BRANCH  24  25
ATOM     25  C   UNL     1      25.077  60.224  84.542  1.00  0.00    -0.000 C 
BRANCH  25  26
ATOM     26  C   UNL     1      26.321  61.122  84.527  1.00  0.00    -0.000 C 
BRANCH  26  27
ATOM     27  C   UNL     1      27.348  60.630  83.496  1.00  0.00    -0.000 C 
BRANCH  27  28
ATOM     28  C   UNL     1      27.720  61.715  82.472  1.00  0.00    -0.000 C 
BRANCH  28  29
ATOM     29  C   UNL     1      26.922  61.592  81.165  1.00  0.00    -0.003 C 
ATOM     30  C   UNL     1      26.494  60.149  80.916  1.00  0.00     0.004 C 
ENDBRANCH  28  29
ENDBRANCH  27  28
ENDBRANCH  26  27
ENDBRANCH  25  26
ENDBRANCH  24  25
ENDBRANCH  23  24
ENDBRANCH  22  23
ENDBRANCH  21  22
ENDBRANCH  20  21
ENDBRANCH  19  20
ENDBRANCH  18  19
ENDBRANCH  17  18
ENDBRANCH   1  17
TORSDOF 26
ENDMDL
MODEL 2
REMARK VINA RESULT:    -3.936      1.196      3.549
REMARK INTER + INTRA:         -13.224
REMARK INTER:                  -9.306
REMARK INTRA:                  -3.918
REMARK UNBOUND:                -3.305
REMARK SMILES CCCCCCCCCCCCCCCCCCCCCCCCCCCC(=O)[O-]
REMARK SMILES IDX 15 1 16 2 17 3 18 4 19 5 20 6 21 7 22 8 23 9 24 10 25 11
REMARK SMILES IDX 26 12 27 13 28 14 29 15 30 16 14 17 13 18 12 19 11 20 10 21
REMARK SMILES IDX 9 22 8 23 7 24 6 25 5 26 4 27 3 28 2 29 1 30
REMARK H PARENT
REMARK Flexibility Score: inf
ROOT
ATOM      1  C   UNL     1      27.648  61.225  82.657  1.00  0.00     0.000 C 
ENDROOT
BRANCH   1   2
ATOM      2  C   UNL     1      27.081  62.278  81.689  1.00  0.00     0.000 C 
BRANCH   2   3
ATOM      3  C   UNL     1      26.919  61.740  80.258  1.00  0.00     0.000 C 
BRANCH   3   4
ATOM      4  C   UNL     1      27.231  60.240  80.146  1.00  0.00     0.000 C 
BRANCH   4   5
ATOM      5  C   UNL     1      28.469  60.002  79.268  1.00  0.00     0.000 C 
BRANCH   5   6
ATOM      6  C   UNL     1      28.503  60.898  78.019  1.00  0.00     0.000 C 
BRANCH   6   7
ATOM      7  C   UNL     1      27.904  60.273  76.744  1.00  0.00     0.000 C 
BRANCH   7   8
ATOM      8  C   UNL     1      26.540  60.865  76.327  1.00  0.00     0.000 C 
BRANCH   8   9
ATOM      9  C   UNL     1      26.397  62.346  76.720  1.00  0.00     0.000 C 
BRANCH   9  10
ATOM     10  C   UNL     1      24.953  62.864  76.598  1.00  0.00     0.000 C 
BRANCH  10  11
ATOM     11  C   UNL     1      24.672  64.201  77.315  1.00  0.00     0.000 C 
BRANCH  11  12
ATOM     12  C   UNL     1      24.257  65.365  76.395  1.00  0.00     0.006 C 
BRANCH  12  13
ATOM     13  C   UNL     1      25.404  66.343  76.110  1.00  0.00     0.053 C 
BRANCH  13  14
ATOM     14  C   UNL     1      26.188  65.898  74.915  1.00  0.00     0.041 C 
ATOM     15  O   UNL     1      27.390  65.541  75.041  1.00  0.00    -0.550 OA
ATOM     16  O   UNL     1      25.591  65.875  73.659  1.00  0.00    -0.550 OA
ENDBRANCH  13  14
ENDBRANCH  12  13
ENDBRANCH  11  12
ENDBRANCH  10  11
ENDBRANCH   9  10
ENDBRANCH   8   9
ENDBRANCH   7   8
ENDBRANCH   6   7
ENDBRANCH   5   6
ENDBRANCH   4   5
ENDBRANCH   3   4
ENDBRANCH   2   3
ENDBRANCH   1   2
BRANCH   1  17
ATOM     17  C   UNL     1      27.063  61.351  84.073  1.00  0.00     0.000 C 
BRANCH  17  18
ATOM     18  C   UNL     1      25.528  61.468  84.075  1.00  0.00     0.000 C 
BRANCH  18  19
ATOM     19  C   UNL     1      24.835  60.095  84.124  1.00  0.00     0.000 C 
BRANCH  19  20
ATOM     20  C   UNL     1      25.652  59.050  84.904  1.00  0.00     0.000 C 
BRANCH  20  21
ATOM     21  C   UNL     1      25.253  58.975  86.387  1.00  0.00     0.000 C 
BRANCH  21  22
ATOM     22  C   UNL     1      26.452  58.731  87.316  1.00  0.00    -0.000 C 
BRANCH  22  23
ATOM     23  C   UNL     1      27.328  59.990  87.414  1.00  0.00    -0.000 C 
BRANCH  23  24
ATOM     24  C   UNL     1      28.751  59.766  86.880  1.00  0.00    -0.000 C 
BRANCH  24  25
ATOM     25  C   UNL     1      29.097  58.278  86.715  1.00  0.00    -0.000 C 
BRANCH  25  26
ATOM     26  C   UNL     1      29.790  58.026  85.369  1.00  0.00    -0.000 C 
BRANCH  26  27
ATOM     27  C   UNL     1      28.820  57.406  84.353  1.00  0.00    -0.000 C 
BRANCH  27  28
ATOM     28  C   UNL     1      29.022  57.958  82.932  1.00  0.00    -0.000 C 
BRANCH  28  29
ATOM     29  C   UNL     1      30.272  58.843  82.815  1.00  0.00    -0.003 C 
ATOM     30  C   UNL     1      31.273  58.254  81.825  1.00  0.00     0.004 C 
ENDBRANCH  28  29
ENDBRANCH  27  28
ENDBRANCH  26  27
ENDBRANCH  25  26
ENDBRANCH  24  25
ENDBRANCH  23  24
ENDBRANCH  22  23
ENDBRANCH  21  22
ENDBRANCH  20  21
ENDBRANCH  19  20
ENDBRANCH  18  19
ENDBRANCH  17  18
ENDBRANCH   1  17
TORSDOF 26
ENDMDL
MODEL 3
REMARK VINA RESULT:    -3.858      3.328      4.196
REMARK INTER + INTRA:         -13.027
REMARK INTER:                  -8.287
REMARK INTRA:                  -4.741
REMARK UNBOUND:                -3.305
REMARK SMILES CCCCCCCCCCCCCCCCCCCCCCCCCCCC(=O)[O-]
REMARK SMILES IDX 15 1 16 2 17 3 18 4 19 5 20 6 21 7 22 8 23 9 24 10 25 11
REMARK SMILES IDX 26 12 27 13 28 14 29 15 30 16 14 17 13 18 12 19 11 20 10 21
REMARK SMILES IDX 9 22 8 23 7 24 6 25 5 26 4 27 3 28 2 29 1 30
REMARK H PARENT
REMARK Flexibility Score: inf
ROOT
ATOM      1  C   UNL     1      31.406  57.390  83.498  1.00  0.00     0.000 C 
ENDROOT
BRANCH   1   2
ATOM      2  C   UNL     1      31.621  58.026  82.114  1.00  0.00     0.000 C 
BRANCH   2   3
ATOM      3  C   UNL     1      30.361  58.731  81.585  1.00  0.00     0.000 C 
BRANCH   3   4
ATOM      4  C   UNL     1      30.188  58.580  80.066  1.00  0.00     0.000 C 
BRANCH   4   5
ATOM      5  C   UNL     1      28.727  58.264  79.711  1.00  0.00     0.000 C 
BRANCH   5   6
ATOM      6  C   UNL     1      27.860  59.524  79.551  1.00  0.00     0.000 C 
BRANCH   6   7
ATOM      7  C   UNL     1      28.503  60.668  78.743  1.00  0.00     0.000 C 
BRANCH   7   8
ATOM      8  C   UNL     1      27.564  61.317  77.703  1.00  0.00     0.000 C 
BRANCH   8   9
ATOM      9  C   UNL     1      26.681  60.283  76.981  1.00  0.00     0.000 C 
BRANCH   9  10
ATOM     10  C   UNL     1      27.266  59.828  75.633  1.00  0.00     0.000 C 
BRANCH  10  11
ATOM     11  C   UNL     1      27.606  58.327  75.538  1.00  0.00     0.000 C 
BRANCH  11  12
ATOM     12  C   UNL     1      28.949  57.917  76.170  1.00  0.00     0.006 C 
BRANCH  12  13
ATOM     13  C   UNL     1      30.097  58.869  75.810  1.00  0.00     0.053 C 
BRANCH  13  14
ATOM     14  C   UNL     1      30.719  58.474  74.507  1.00  0.00     0.041 C 
ATOM     15  O   UNL     1      31.654  57.630  74.480  1.00  0.00    -0.550 OA
ATOM     16  O   UNL     1      30.263  59.036  73.319  1.00  0.00    -0.550 OA
ENDBRANCH  13  14
ENDBRANCH  12  13
ENDBRANCH  11  12
ENDBRANCH  10  11
ENDBRANCH   9  10
ENDBRANCH   8   9
ENDBRANCH   7   8
ENDBRANCH   6   7
ENDBRANCH   5   6
ENDBRANCH   4   5
ENDBRANCH   3   4
ENDBRANCH   2   3
ENDBRANCH   1   2
BRANCH   1  17
ATOM     17  C   UNL     1      30.305  58.095  84.306  1.00  0.00     0.000 C 
BRANCH  17  18
ATOM     18  C   UNL     1      29.522  57.130  85.216  1.00  0.00     0.000 C 
BRANCH  18  19
ATOM     19  C   UNL     1      29.136  57.775  86.560  1.00  0.00     0.000 C 
BRANCH  19  20
ATOM     20  C   UNL     1      29.372  59.295  86.572  1.00  0.00     0.000 C 
BRANCH  20  21
ATOM     21  C   UNL     1      28.169  60.075  87.129  1.00  0.00     0.000 C 
BRANCH  21  22
ATOM     22  C   UNL     1      27.083  59.160  87.713  1.00  0.00    -0.000 C 
BRANCH  22  23
ATOM     23  C   UNL     1      25.803  59.226  86.865  1.00  0.00    -0.000 C 
BRANCH  23  24
ATOM     24  C   UNL     1      26.029  59.894  85.500  1.00  0.00    -0.000 C 
BRANCH  24  25
ATOM     25  C   UNL     1      25.898  58.910  84.328  1.00  0.00    -0.000 C 
BRANCH  25  26
ATOM     26  C   UNL     1      26.898  59.252  83.215  1.00  0.00    -0.000 C 
BRANCH  26  27
ATOM     27  C   UNL     1      27.652  60.553  83.527  1.00  0.00    -0.000 C 
BRANCH  27  28
ATOM     28  C   UNL     1      27.247  61.707  82.595  1.00  0.00    -0.000 C 
BRANCH  28  29
ATOM     29  C   UNL     1      25.985  61.391  81.779  1.00  0.00    -0.003 C 
ATOM     30  C   UNL     1      25.735  62.458  80.717  1.00  0.00     0.004 C 
ENDBRANCH  28  29
ENDBRANCH  27  28
ENDBRANCH  26  27
ENDBRANCH  25  26
ENDBRANCH  24  25
ENDBRANCH  23  24
ENDBRANCH  22  23
ENDBRANCH  21  22
ENDBRANCH  20  21
ENDBRANCH  19  20
ENDBRANCH  18  19
ENDBRANCH  17  18
ENDBRANCH   1  17
TORSDOF 26
ENDMDL
MODEL 4
REMARK VINA RESULT:    -3.851      1.395      4.115
REMARK INTER + INTRA:         -13.009
REMARK INTER:                  -9.438
REMARK INTRA:                  -3.571
REMARK UNBOUND:                -3.305
REMARK SMILES CCCCCCCCCCCCCCCCCCCCCCCCCCCC(=O)[O-]
REMARK SMILES IDX 15 1 16 2 17 3 18 4 19 5 20 6 21 7 22 8 23 9 24 10 25 11
REMARK SMILES IDX 26 12 27 13 28 14 29 15 30 16 14 17 13 18 12 19 11 20 10 21
REMARK SMILES IDX 9 22 8 23 7 24 6 25 5 26 4 27 3 28 2 29 1 30
REMARK H PARENT
REMARK Flexibility Score: inf
ROOT
ATOM      1  C   UNL     1      27.180  62.275  80.908  1.00  0.00     0.000 C 
ENDROOT
BRANCH   1   2
ATOM      2  C   UNL     1      26.991  61.447  79.625  1.00  0.00     0.000 C 
BRANCH   2   3
ATOM      3  C   UNL     1      28.296  61.284  78.829  1.00  0.00     0.000 C 
BRANCH   3   4
ATOM      4  C   UNL     1      28.440  59.889  78.200  1.00  0.00     0.000 C 
BRANCH   4   5
ATOM      5  C   UNL     1      27.100  59.137  78.225  1.00  0.00     0.000 C 
BRANCH   5   6
ATOM      6  C   UNL     1      26.426  59.061  76.845  1.00  0.00     0.000 C 
BRANCH   6   7
ATOM      7  C   UNL     1      25.563  60.280  76.465  1.00  0.00     0.000 C 
BRANCH   7   8
ATOM      8  C   UNL     1      26.282  61.313  75.571  1.00  0.00     0.000 C 
BRANCH   8   9
ATOM      9  C   UNL     1      25.613  62.698  75.616  1.00  0.00     0.000 C 
BRANCH   9  10
ATOM     10  C   UNL     1      25.758  63.480  74.298  1.00  0.00     0.000 C 
BRANCH  10  11
ATOM     11  C   UNL     1      26.151  64.963  74.456  1.00  0.00     0.000 C 
BRANCH  11  12
ATOM     12  C   UNL     1      25.623  65.651  75.729  1.00  0.00     0.006 C 
BRANCH  12  13
ATOM     13  C   UNL     1      26.047  67.121  75.836  1.00  0.00     0.053 C 
BRANCH  13  14
ATOM     14  C   UNL     1      24.885  67.976  76.236  1.00  0.00     0.041 C 
ATOM     15  O   UNL     1      24.453  68.865  75.454  1.00  0.00    -0.550 OA
ATOM     16  O   UNL     1      24.275  67.788  77.471  1.00  0.00    -0.550 OA
ENDBRANCH  13  14
ENDBRANCH  12  13
ENDBRANCH  11  12
ENDBRANCH  10  11
ENDBRANCH   9  10
ENDBRANCH   8   9
ENDBRANCH   7   8
ENDBRANCH   6   7
ENDBRANCH   5   6
ENDBRANCH   4   5
ENDBRANCH   3   4
ENDBRANCH   2   3
ENDBRANCH   1   2
BRANCH   1  17
ATOM     17  C   UNL     1      27.139  61.410  82.178  1.00  0.00     0.000 C 
BRANCH  17  18
ATOM     18  C   UNL     1      26.683  59.965  81.901  1.00  0.00     0.000 C 
BRANCH  18  19
ATOM     19  C   UNL     1      27.664  58.923  82.467  1.00  0.00     0.000 C 
BRANCH  19  20
ATOM     20  C   UNL     1      29.124  59.217  82.080  1.00  0.00     0.000 C 
BRANCH  20  21
ATOM     21  C   UNL     1      30.128  58.701  83.123  1.00  0.00     0.000 C 
BRANCH  21  22
ATOM     22  C   UNL     1      29.475  58.393  84.479  1.00  0.00    -0.000 C 
BRANCH  22  23
ATOM     23  C   UNL     1      30.545  58.137  85.552  1.00  0.00    -0.000 C 
BRANCH  23  24
ATOM     24  C   UNL     1      30.007  57.334  86.747  1.00  0.00    -0.000 C 
BRANCH  24  25
ATOM     25  C   UNL     1      28.479  57.415  86.878  1.00  0.00    -0.000 C 
BRANCH  25  26
ATOM     26  C   UNL     1      28.081  58.113  88.186  1.00  0.00    -0.000 C 
BRANCH  26  27
ATOM     27  C   UNL     1      27.167  59.317  87.915  1.00  0.00    -0.000 C 
BRANCH  27  28
ATOM     28  C   UNL     1      27.900  60.465  87.201  1.00  0.00    -0.000 C 
BRANCH  28  29
ATOM     29  C   UNL     1      27.216  60.876  85.889  1.00  0.00    -0.003 C 
ATOM     30  C   UNL     1      26.030  59.968  85.579  1.00  0.00     0.004 C 
ENDBRANCH  28  29
ENDBRANCH  27  28
ENDBRANCH  26  27
ENDBRANCH  25  26
ENDBRANCH  24  25
ENDBRANCH  23  24
ENDBRANCH  22  23
ENDBRANCH  21  22
ENDBRANCH  20  21
ENDBRANCH  19  20
ENDBRANCH  18  19
ENDBRANCH  17  18
ENDBRANCH   1  17
TORSDOF 26
ENDMDL
MODEL 5
REMARK VINA RESULT:    -3.825      3.889      9.194
REMARK INTER + INTRA:         -12.944
REMARK INTER:                  -8.662
REMARK INTRA:                  -4.282
REMARK UNBOUND:                -3.305
REMARK SMILES CCCCCCCCCCCCCCCCCCCCCCCCCCCC(=O)[O-]
REMARK SMILES IDX 15 1 16 2 17 3 18 4 19 5 20 6 21 7 22 8 23 9 24 10 25 11
REMARK SMILES IDX 26 12 27 13 28 14 29 15 30 16 14 17 13 18 12 19 11 20 10 21
REMARK SMILES IDX 9 22 8 23 7 24 6 25 5 26 4 27 3 28 2 29 1 30
REMARK H PARENT
REMARK Flexibility Score: inf
ROOT
ATOM      1  C   UNL     1      27.953  59.867  82.310  1.00  0.00     0.000 C 
ENDROOT
BRANCH   1   2
ATOM      2  C   UNL     1      26.802  58.853  82.426  1.00  0.00     0.000 C 
BRANCH   2   3
ATOM      3  C   UNL     1      27.004  57.858  83.581  1.00  0.00     0.000 C 
BRANCH   3   4
ATOM      4  C   UNL     1      25.788  57.777  84.517  1.00  0.00     0.000 C 
BRANCH   4   5
ATOM      5  C   UNL     1      25.371  59.177  84.993  1.00  0.00     0.000 C 
BRANCH   5   6
ATOM      6  C   UNL     1      25.960  59.548  86.364  1.00  0.00     0.000 C 
BRANCH   6   7
ATOM      7  C   UNL     1      27.132  60.548  86.329  1.00  0.00     0.000 C 
BRANCH   7   8
ATOM      8  C   UNL     1      28.394  60.073  87.082  1.00  0.00     0.000 C 
BRANCH   8   9
ATOM      9  C   UNL     1      28.327  58.584  87.464  1.00  0.00     0.000 C 
BRANCH   9  10
ATOM     10  C   UNL     1      29.212  57.694  86.574  1.00  0.00     0.000 C 
BRANCH  10  11
ATOM     11  C   UNL     1      30.065  58.449  85.534  1.00  0.00     0.000 C 
BRANCH  11  12
ATOM     12  C   UNL     1      31.061  57.579  84.745  1.00  0.00     0.006 C 
BRANCH  12  13
ATOM     13  C   UNL     1      30.617  57.319  83.299  1.00  0.00     0.053 C 
BRANCH  13  14
ATOM     14  C   UNL     1      31.566  57.960  82.335  1.00  0.00     0.041 C 
ATOM     15  O   UNL     1      31.158  58.850  81.541  1.00  0.00    -0.550 OA
ATOM     16  O   UNL     1      32.902  57.578  82.315  1.00  0.00    -0.550 OA
ENDBRANCH  13  14
ENDBRANCH  12  13
ENDBRANCH  11  12
ENDBRANCH  10  11
ENDBRANCH   9  10
ENDBRANCH   8   9
ENDBRANCH   7   8
ENDBRANCH   6   7
ENDBRANCH   5   6
ENDBRANCH   4   5
ENDBRANCH   3   4
ENDBRANCH   2   3
ENDBRANCH   1   2
BRANCH   1  17
ATOM     17  C   UNL     1      27.525  61.290  82.703  1.00  0.00     0.000 C 
BRANCH  17  18
ATOM     18  C   UNL     1      27.266  62.193  81.482  1.00  0.00     0.000 C 
BRANCH  18  19
ATOM     19  C   UNL     1      25.771  62.279  81.124  1.00  0.00     0.000 C 
BRANCH  19  20
ATOM     20  C   UNL     1      25.506  62.000  79.635  1.00  0.00     0.000 C 
BRANCH  20  21
ATOM     21  C   UNL     1      25.095  60.543  79.370  1.00  0.00     0.000 C 
BRANCH  21  22
ATOM     22  C   UNL     1      26.241  59.694  78.799  1.00  0.00    -0.000 C 
BRANCH  22  23
ATOM     23  C   UNL     1      27.039  60.490  77.754  1.00  0.00    -0.000 C 
BRANCH  23  24
ATOM     24  C   UNL     1      28.490  60.751  78.188  1.00  0.00    -0.000 C 
BRANCH  24  25
ATOM     25  C   UNL     1      29.164  59.507  78.787  1.00  0.00    -0.000 C 
BRANCH  25  26
ATOM     26  C   UNL     1      29.351  58.421  77.719  1.00  0.00    -0.000 C 
BRANCH  26  27
ATOM     27  C   UNL     1      30.202  58.935  76.548  1.00  0.00    -0.000 C 
BRANCH  27  28
ATOM     28  C   UNL     1      29.701  58.425  75.187  1.00  0.00    -0.000 C 
BRANCH  28  29
ATOM     29  C   UNL     1      30.737  58.612  74.069  1.00  0.00    -0.003 C 
ATOM     30  C   UNL     1      30.112  58.387  72.696  1.00  0.00     0.004 C 
ENDBRANCH  28  29
ENDBRANCH  27  28
ENDBRANCH  26  27
ENDBRANCH  25  26
ENDBRANCH  24  25
ENDBRANCH  23  24
ENDBRANCH  22  23
ENDBRANCH  21  22
ENDBRANCH  20  21
ENDBRANCH  19  20
ENDBRANCH  18  19
ENDBRANCH  17  18
ENDBRANCH   1  17
TORSDOF 26
ENDMDL
MODEL 6
REMARK VINA RESULT:    -3.790      1.190      2.515
REMARK INTER + INTRA:         -12.855
REMARK INTER:                  -9.563
REMARK INTRA:                  -3.292
REMARK UNBOUND:                -3.305
REMARK SMILES CCCCCCCCCCCCCCCCCCCCCCCCCCCC(=O)[O-]
REMARK SMILES IDX 15 1 16 2 17 3 18 4 19 5 20 6 21 7 22 8 23 9 24 10 25 11
REMARK SMILES IDX 26 12 27 13 28 14 29 15 30 16 14 17 13 18 12 19 11 20 10 21
REMARK SMILES IDX 9 22 8 23 7 24 6 25 5 26 4 27 3 28 2 29 1 30
REMARK H PARENT
REMARK Flexibility Score: inf
ROOT
ATOM      1  C   UNL     1      30.136  58.138  81.687  1.00  0.00     0.000 C 
ENDROOT
BRANCH   1   2
ATOM      2  C   UNL     1      30.224  58.758  80.282  1.00  0.00     0.000 C 
BRANCH   2   3
ATOM      3  C   UNL     1      28.842  59.063  79.682  1.00  0.00     0.000 C 
BRANCH   3   4
ATOM      4  C   UNL     1      28.816  60.376  78.884  1.00  0.00     0.000 C 
BRANCH   4   5
ATOM      5  C   UNL     1      27.763  61.340  79.452  1.00  0.00     0.000 C 
BRANCH   5   6
ATOM      6  C   UNL     1      26.356  61.103  78.878  1.00  0.00     0.000 C 
BRANCH   6   7
ATOM      7  C   UNL     1      26.296  60.882  77.354  1.00  0.00     0.000 C 
BRANCH   7   8
ATOM      8  C   UNL     1      26.146  62.179  76.529  1.00  0.00     0.000 C 
BRANCH   8   9
ATOM      9  C   UNL     1      25.104  63.140  77.129  1.00  0.00     0.000 C 
BRANCH   9  10
ATOM     10  C   UNL     1      24.881  64.397  76.270  1.00  0.00     0.000 C 
BRANCH  10  11
ATOM     11  C   UNL     1      26.131  64.915  75.529  1.00  0.00     0.000 C 
BRANCH  11  12
ATOM     12  C   UNL     1      25.990  66.316  74.904  1.00  0.00     0.006 C 
BRANCH  12  13
ATOM     13  C   UNL     1      26.192  67.449  75.918  1.00  0.00     0.053 C 
BRANCH  13  14
ATOM     14  C   UNL     1      24.879  68.066  76.285  1.00  0.00     0.041 C 
ATOM     15  O   UNL     1      24.330  67.783  77.384  1.00  0.00    -0.550 OA
ATOM     16  O   UNL     1      24.261  68.957  75.415  1.00  0.00    -0.550 OA
ENDBRANCH  13  14
ENDBRANCH  12  13
ENDBRANCH  11  12
ENDBRANCH  10  11
ENDBRANCH   9  10
ENDBRANCH   8   9
ENDBRANCH   7   8
ENDBRANCH   6   7
ENDBRANCH   5   6
ENDBRANCH   4   5
ENDBRANCH   3   4
ENDBRANCH   2   3
ENDBRANCH   1   2
BRANCH   1  17
ATOM     17  C   UNL     1      31.485  57.585  82.173  1.00  0.00     0.000 C 
BRANCH  17  18
ATOM     18  C   UNL     1      31.626  57.617  83.707  1.00  0.00     0.000 C 
BRANCH  18  19
ATOM     19  C   UNL     1      30.273  57.814  84.415  1.00  0.00     0.000 C 
BRANCH  19  20
ATOM     20  C   UNL     1      30.414  57.876  85.946  1.00  0.00     0.000 C 
BRANCH  20  21
ATOM     21  C   UNL     1      29.098  58.254  86.646  1.00  0.00     0.000 C 
BRANCH  21  22
ATOM     22  C   UNL     1      28.896  59.772  86.756  1.00  0.00    -0.000 C 
BRANCH  22  23
ATOM     23  C   UNL     1      27.458  60.099  87.190  1.00  0.00    -0.000 C 
BRANCH  23  24
ATOM     24  C   UNL     1      26.733  58.890  87.801  1.00  0.00    -0.000 C 
BRANCH  24  25
ATOM     25  C   UNL     1      25.414  58.563  87.084  1.00  0.00    -0.000 C 
BRANCH  25  26
ATOM     26  C   UNL     1      25.220  59.468  85.860  1.00  0.00    -0.000 C 
BRANCH  26  27
ATOM     27  C   UNL     1      25.258  58.655  84.558  1.00  0.00    -0.000 C 
BRANCH  27  28
ATOM     28  C   UNL     1      26.669  58.581  83.951  1.00  0.00    -0.000 C 
BRANCH  28  29
ATOM     29  C   UNL     1      26.844  59.518  82.747  1.00  0.00    -0.003 C 
ATOM     30  C   UNL     1      27.815  60.650  83.068  1.00  0.00     0.004 C 
ENDBRANCH  28  29
ENDBRANCH  27  28
ENDBRANCH  26  27
ENDBRANCH  25  26
ENDBRANCH  24  25
ENDBRANCH  23  24
ENDBRANCH  22  23
ENDBRANCH  21  22
ENDBRANCH  20  21
ENDBRANCH  19  20
ENDBRANCH  18  19
ENDBRANCH  17  18
ENDBRANCH   1  17
TORSDOF 26
ENDMDL
MODEL 7
REMARK VINA RESULT:    -3.778      4.134      8.854
REMARK INTER + INTRA:         -12.825
REMARK INTER:                  -8.450
REMARK INTRA:                  -4.375
REMARK UNBOUND:                -3.305
REMARK SMILES CCCCCCCCCCCCCCCCCCCCCCCCCCCC(=O)[O-]
REMARK SMILES IDX 15 1 16 2 17 3 18 4 19 5 20 6 21 7 22 8 23 9 24 10 25 11
REMARK SMILES IDX 26 12 27 13 28 14 29 15 30 16 14 17 13 18 12 19 11 20 10 21
REMARK SMILES IDX 9 22 8 23 7 24 6 25 5 26 4 27 3 28 2 29 1 30
REMARK H PARENT
REMARK Flexibility Score: inf
ROOT
ATOM      1  C   UNL     1      29.167  59.571  76.615  1.00  0.00     0.000 C 
ENDROOT
BRANCH   1   2
ATOM      2  C   UNL     1      28.964  60.381  77.908  1.00  0.00     0.000 C 
BRANCH   2   3
ATOM      3  C   UNL     1      28.759  59.485  79.140  1.00  0.00     0.000 C 
BRANCH   3   4
ATOM      4  C   UNL     1      27.780  60.089  80.159  1.00  0.00     0.000 C 
BRANCH   4   5
ATOM      5  C   UNL     1      27.606  61.597  79.922  1.00  0.00     0.000 C 
BRANCH   5   6
ATOM      6  C   UNL     1      26.675  62.265  80.949  1.00  0.00     0.000 C 
BRANCH   6   7
ATOM      7  C   UNL     1      25.381  62.868  80.369  1.00  0.00     0.000 C 
BRANCH   7   8
ATOM      8  C   UNL     1      24.099  62.478  81.137  1.00  0.00     0.000 C 
BRANCH   8   9
ATOM      9  C   UNL     1      24.215  61.102  81.815  1.00  0.00     0.000 C 
BRANCH   9  10
ATOM     10  C   UNL     1      24.273  61.190  83.350  1.00  0.00     0.000 C 
BRANCH  10  11
ATOM     11  C   UNL     1      25.450  60.439  84.007  1.00  0.00     0.000 C 
BRANCH  11  12
ATOM     12  C   UNL     1      26.370  61.304  84.889  1.00  0.00     0.006 C 
BRANCH  12  13
ATOM     13  C   UNL     1      27.522  60.508  85.516  1.00  0.00     0.053 C 
BRANCH  13  14
ATOM     14  C   UNL     1      27.531  60.679  87.003  1.00  0.00     0.041 C 
ATOM     15  O   UNL     1      27.017  59.801  87.746  1.00  0.00    -0.550 OA
ATOM     16  O   UNL     1      28.110  61.809  87.570  1.00  0.00    -0.550 OA
ENDBRANCH  13  14
ENDBRANCH  12  13
ENDBRANCH  11  12
ENDBRANCH  10  11
ENDBRANCH   9  10
ENDBRANCH   8   9
ENDBRANCH   7   8
ENDBRANCH   6   7
ENDBRANCH   5   6
ENDBRANCH   4   5
ENDBRANCH   3   4
ENDBRANCH   2   3
ENDBRANCH   1   2
BRANCH   1  17
ATOM     17  C   UNL     1      28.523  58.177  76.686  1.00  0.00     0.000 C 
BRANCH  17  18
ATOM     18  C   UNL     1      27.433  57.970  75.617  1.00  0.00     0.000 C 
BRANCH  18  19
ATOM     19  C   UNL     1      26.198  57.238  76.174  1.00  0.00     0.000 C 
BRANCH  19  20
ATOM     20  C   UNL     1      25.959  57.537  77.664  1.00  0.00     0.000 C 
BRANCH  20  21
ATOM     21  C   UNL     1      24.637  58.281  77.913  1.00  0.00     0.000 C 
BRANCH  21  22
ATOM     22  C   UNL     1      24.842  59.760  78.273  1.00  0.00    -0.000 C 
BRANCH  22  23
ATOM     23  C   UNL     1      24.479  60.664  77.084  1.00  0.00    -0.000 C 
BRANCH  23  24
ATOM     24  C   UNL     1      25.713  61.142  76.303  1.00  0.00    -0.000 C 
BRANCH  24  25
ATOM     25  C   UNL     1      26.215  62.517  76.767  1.00  0.00    -0.000 C 
BRANCH  25  26
ATOM     26  C   UNL     1      25.665  63.631  75.867  1.00  0.00    -0.000 C 
BRANCH  26  27
ATOM     27  C   UNL     1      24.423  64.285  76.490  1.00  0.00    -0.000 C 
BRANCH  27  28
ATOM     28  C   UNL     1      24.597  65.798  76.702  1.00  0.00    -0.000 C 
BRANCH  28  29
ATOM     29  C   UNL     1      25.741  66.384  75.860  1.00  0.00    -0.003 C 
ATOM     30  C   UNL     1      25.786  67.904  75.977  1.00  0.00     0.004 C 
ENDBRANCH  28  29
ENDBRANCH  27  28
ENDBRANCH  26  27
ENDBRANCH  25  26
ENDBRANCH  24  25
ENDBRANCH  23  24
ENDBRANCH  22  23
ENDBRANCH  21  22
ENDBRANCH  20  21
ENDBRANCH  19  20
ENDBRANCH  18  19
ENDBRANCH  17  18
ENDBRANCH   1  17
TORSDOF 26
ENDMDL
MODEL 8
REMARK VINA RESULT:    -3.763      1.434      4.057
REMARK INTER + INTRA:         -12.788
REMARK INTER:                  -8.429
REMARK INTRA:                  -4.359
REMARK UNBOUND:                -3.305
REMARK SMILES CCCCCCCCCCCCCCCCCCCCCCCCCCCC(=O)[O-]
REMARK SMILES IDX 15 1 16 2 17 3 18 4 19 5 20 6 21 7 22 8 23 9 24 10 25 11
REMARK SMILES IDX 26 12 27 13 28 14 29 15 30 16 14 17 13 18 12 19 11 20 10 21
REMARK SMILES IDX 9 22 8 23 7 24 6 25 5 26 4 27 3 28 2 29 1 30
REMARK H PARENT
REMARK Flexibility Score: inf
ROOT
ATOM      1  C   UNL     1      29.886  59.010  79.508  1.00  0.00     0.000 C 
ENDROOT
BRANCH   1   2
ATOM      2  C   UNL     1      28.656  59.879  79.196  1.00  0.00     0.000 C 
BRANCH   2   3
ATOM      3  C   UNL     1      27.330  59.142  79.450  1.00  0.00     0.000 C 
BRANCH   3   4
ATOM      4  C   UNL     1      26.410  59.891  80.426  1.00  0.00     0.000 C 
BRANCH   4   5
ATOM      5  C   UNL     1      27.155  61.055  81.097  1.00  0.00     0.000 C 
BRANCH   5   6
ATOM      6  C   UNL     1      26.227  62.214  81.499  1.00  0.00     0.000 C 
BRANCH   6   7
ATOM      7  C   UNL     1      24.782  62.111  80.974  1.00  0.00     0.000 C 
BRANCH   7   8
ATOM      8  C   UNL     1      24.457  63.078  79.815  1.00  0.00     0.000 C 
BRANCH   8   9
ATOM      9  C   UNL     1      24.441  62.374  78.447  1.00  0.00     0.000 C 
BRANCH   9  10
ATOM     10  C   UNL     1      25.787  62.466  77.707  1.00  0.00     0.000 C 
BRANCH  10  11
ATOM     11  C   UNL     1      25.686  62.549  76.170  1.00  0.00     0.000 C 
BRANCH  11  12
ATOM     12  C   UNL     1      25.287  63.929  75.612  1.00  0.00     0.006 C 
BRANCH  12  13
ATOM     13  C   UNL     1      26.487  64.865  75.414  1.00  0.00     0.053 C 
BRANCH  13  14
ATOM     14  C   UNL     1      26.024  66.245  75.063  1.00  0.00     0.041 C 
ATOM     15  O   UNL     1      25.217  66.420  74.112  1.00  0.00    -0.550 OA
ATOM     16  O   UNL     1      26.481  67.339  75.790  1.00  0.00    -0.550 OA
ENDBRANCH  13  14
ENDBRANCH  12  13
ENDBRANCH  11  12
ENDBRANCH  10  11
ENDBRANCH   9  10
ENDBRANCH   8   9
ENDBRANCH   7   8
ENDBRANCH   6   7
ENDBRANCH   5   6
ENDBRANCH   4   5
ENDBRANCH   3   4
ENDBRANCH   2   3
ENDBRANCH   1   2
BRANCH   1  17
ATOM     17  C   UNL     1      29.651  58.062  80.696  1.00  0.00     0.000 C 
BRANCH  17  18
ATOM     18  C   UNL     1      29.935  58.728  82.055  1.00  0.00     0.000 C 
BRANCH  18  19
ATOM     19  C   UNL     1      29.282  57.973  83.226  1.00  0.00     0.000 C 
BRANCH  19  20
ATOM     20  C   UNL     1      27.750  57.898  83.098  1.00  0.00     0.000 C 
BRANCH  20  21
ATOM     21  C   UNL     1      27.027  58.328  84.384  1.00  0.00     0.000 C 
BRANCH  21  22
ATOM     22  C   UNL     1      25.728  59.099  84.110  1.00  0.00    -0.000 C 
BRANCH  22  23
ATOM     23  C   UNL     1      25.799  60.514  84.706  1.00  0.00    -0.000 C 
BRANCH  23  24
ATOM     24  C   UNL     1      27.233  60.939  85.056  1.00  0.00    -0.000 C 
BRANCH  24  25
ATOM     25  C   UNL     1      27.376  61.406  86.512  1.00  0.00    -0.000 C 
BRANCH  25  26
ATOM     26  C   UNL     1      28.045  60.322  87.368  1.00  0.00    -0.000 C 
BRANCH  26  27
ATOM     27  C   UNL     1      26.999  59.460  88.089  1.00  0.00    -0.000 C 
BRANCH  27  28
ATOM     28  C   UNL     1      27.288  57.954  87.964  1.00  0.00    -0.000 C 
BRANCH  28  29
ATOM     29  C   UNL     1      28.785  57.630  88.078  1.00  0.00    -0.003 C 
ATOM     30  C   UNL     1      29.286  56.900  86.835  1.00  0.00     0.004 C 
ENDBRANCH  28  29
ENDBRANCH  27  28
ENDBRANCH  26  27
ENDBRANCH  25  26
ENDBRANCH  24  25
ENDBRANCH  23  24
ENDBRANCH  22  23
ENDBRANCH  21  22
ENDBRANCH  20  21
ENDBRANCH  19  20
ENDBRANCH  18  19
ENDBRANCH  17  18
ENDBRANCH   1  17
TORSDOF 26
ENDMDL
MODEL 9
REMARK VINA RESULT:    -3.659      3.430      8.056
REMARK INTER + INTRA:         -12.527
REMARK INTER:                  -8.999
REMARK INTRA:                  -3.528
REMARK UNBOUND:                -3.305
REMARK SMILES CCCCCCCCCCCCCCCCCCCCCCCCCCCC(=O)[O-]
REMARK SMILES IDX 15 1 16 2 17 3 18 4 19 5 20 6 21 7 22 8 23 9 24 10 25 11
REMARK SMILES IDX 26 12 27 13 28 14 29 15 30 16 14 17 13 18 12 19 11 20 10 21
REMARK SMILES IDX 9 22 8 23 7 24 6 25 5 26 4 27 3 28 2 29 1 30
REMARK H PARENT
REMARK Flexibility Score: inf
ROOT
ATOM      1  C   UNL     1      24.191  66.118  77.314  1.00  0.00     0.000 C 
ENDROOT
BRANCH   1   2
ATOM      2  C   UNL     1      24.595  66.796  75.993  1.00  0.00     0.000 C 
BRANCH   2   3
ATOM      3  C   UNL     1      26.115  66.992  75.869  1.00  0.00     0.000 C 
BRANCH   3   4
ATOM      4  C   UNL     1      26.808  65.832  75.137  1.00  0.00     0.000 C 
BRANCH   4   5
ATOM      5  C   UNL     1      25.925  65.299  73.998  1.00  0.00     0.000 C 
BRANCH   5   6
ATOM      6  C   UNL     1      25.825  63.764  73.981  1.00  0.00     0.000 C 
BRANCH   6   7
ATOM      7  C   UNL     1      24.408  63.199  73.761  1.00  0.00     0.000 C 
BRANCH   7   8
ATOM      8  C   UNL     1      24.201  61.773  74.316  1.00  0.00     0.000 C 
BRANCH   8   9
ATOM      9  C   UNL     1      24.490  60.685  73.267  1.00  0.00     0.000 C 
BRANCH   9  10
ATOM     10  C   UNL     1      25.457  59.601  73.774  1.00  0.00     0.000 C 
BRANCH  10  11
ATOM     11  C   UNL     1      26.584  60.108  74.697  1.00  0.00     0.000 C 
BRANCH  11  12
ATOM     12  C   UNL     1      27.125  59.073  75.702  1.00  0.00     0.006 C 
BRANCH  12  13
ATOM     13  C   UNL     1      28.645  59.162  75.895  1.00  0.00     0.053 C 
BRANCH  13  14
ATOM     14  C   UNL     1      29.062  58.420  77.127  1.00  0.00     0.041 C 
ATOM     15  O   UNL     1      29.572  59.040  78.098  1.00  0.00    -0.550 OA
ATOM     16  O   UNL     1      28.883  57.044  77.205  1.00  0.00    -0.550 OA
ENDBRANCH  13  14
ENDBRANCH  12  13
ENDBRANCH  11  12
ENDBRANCH  10  11
ENDBRANCH   9  10
ENDBRANCH   8   9
ENDBRANCH   7   8
ENDBRANCH   6   7
ENDBRANCH   5   6
ENDBRANCH   4   5
ENDBRANCH   3   4
ENDBRANCH   2   3
ENDBRANCH   1   2
BRANCH   1  17
ATOM     17  C   UNL     1      23.886  64.622  77.139  1.00  0.00     0.000 C 
BRANCH  17  18
ATOM     18  C   UNL     1      24.231  63.793  78.391  1.00  0.00     0.000 C 
BRANCH  18  19
ATOM     19  C   UNL     1      24.738  62.383  78.038  1.00  0.00     0.000 C 
BRANCH  19  20
ATOM     20  C   UNL     1      26.121  62.406  77.363  1.00  0.00     0.000 C 
BRANCH  20  21
ATOM     21  C   UNL     1      27.210  61.745  78.224  1.00  0.00     0.000 C 
BRANCH  21  22
ATOM     22  C   UNL     1      26.640  61.001  79.441  1.00  0.00    -0.000 C 
BRANCH  22  23
ATOM     23  C   UNL     1      27.000  61.733  80.743  1.00  0.00    -0.000 C 
BRANCH  23  24
ATOM     24  C   UNL     1      25.807  61.861  81.702  1.00  0.00    -0.000 C 
BRANCH  24  25
ATOM     25  C   UNL     1      25.857  60.844  82.853  1.00  0.00    -0.000 C 
BRANCH  25  26
ATOM     26  C   UNL     1      26.564  61.442  84.077  1.00  0.00    -0.000 C 
BRANCH  26  27
ATOM     27  C   UNL     1      27.284  60.355  84.888  1.00  0.00    -0.000 C 
BRANCH  27  28
ATOM     28  C   UNL     1      26.515  59.962  86.160  1.00  0.00    -0.000 C 
BRANCH  28  29
ATOM     29  C   UNL     1      27.372  60.085  87.429  1.00  0.00    -0.003 C 
ATOM     30  C   UNL     1      28.116  61.416  87.463  1.00  0.00     0.004 C 
ENDBRANCH  28  29
ENDBRANCH  27  28
ENDBRANCH  26  27
ENDBRANCH  25  26
ENDBRANCH  24  25
ENDBRANCH  23  24
ENDBRANCH  22  23
ENDBRANCH  21  22
ENDBRANCH  20  21
ENDBRANCH  19  20
ENDBRANCH  18  19
ENDBRANCH  17  18
ENDBRANCH   1  17
TORSDOF 26
ENDMDL
