MODEL 1
REMARK VINA RESULT:    -5.406      0.000      0.000
REMARK INTER + INTRA:          -5.971
REMARK INTER:                  -5.880
REMARK INTRA:                  -0.091
REMARK UNBOUND:                -0.091
REMARK SMILES C=C(C)[C@H]1CC[C@@H](C)[C@@H](O)C1
REMARK SMILES IDX 8 1 7 2 6 3 5 4 4 5 11 6 9 7 10 8 2 10 1 11 3 12
REMARK H PARENT 10 9
REMARK Flexibility Score: inf
ROOT
ATOM      1  C   UNL     1      -1.083  17.883  47.685  1.00  0.00     0.010 C 
ATOM      2  C   UNL     1      -2.494  17.668  47.106  1.00  0.00     0.015 C 
ATOM      3  C   UNL     1      -2.819  18.696  46.000  1.00  0.00     0.006 C 
ATOM      4  C   UNL     1      -3.082  20.100  46.564  1.00  0.00     0.008 C 
ATOM      5  C   UNL     1      -4.194  20.068  47.630  1.00  0.00     0.017 C 
ATOM      6  C   UNL     1      -3.857  19.074  48.757  1.00  0.00     0.040 C 
ATOM      7  C   UNL     1      -3.600  17.665  48.194  1.00  0.00     0.117 C 
ENDROOT
BRANCH   7   8
ATOM      8  O   UNL     1      -3.266  16.799  49.247  1.00  0.00    -0.393 OA
ATOM      9  H   UNL     1      -3.652  17.189  50.074  1.00  0.00     0.210 HD
ENDBRANCH   7   8
BRANCH   5  10
ATOM     10  C   UNL     1      -4.460  21.460  48.188  1.00  0.00    -0.077 C 
ATOM     11  C   UNL     1      -5.461  22.205  47.693  1.00  0.00     0.008 C 
ATOM     12  C   UNL     1      -3.616  22.035  49.300  1.00  0.00     0.039 C 
ENDBRANCH   5  10
TORSDOF 2
ENDMDL
MODEL 2
REMARK VINA RESULT:    -5.381      1.538      2.200
REMARK INTER + INTRA:          -5.944
REMARK INTER:                  -5.842
REMARK INTRA:                  -0.102
REMARK UNBOUND:                -0.091
REMARK SMILES C=C(C)[C@H]1CC[C@@H](C)[C@@H](O)C1
REMARK SMILES IDX 8 1 7 2 6 3 5 4 4 5 11 6 9 7 10 8 2 10 1 11 3 12
REMARK H PARENT 10 9
REMARK Flexibility Score: inf
ROOT
ATOM      1  C   UNL     1      -2.957  17.158  46.074  1.00  0.00     0.010 C 
ATOM      2  C   UNL     1      -2.415  17.382  47.498  1.00  0.00     0.015 C 
ATOM      3  C   UNL     1      -3.556  17.454  48.536  1.00  0.00     0.006 C 
ATOM      4  C   UNL     1      -4.347  18.768  48.449  1.00  0.00     0.008 C 
ATOM      5  C   UNL     1      -3.412  19.985  48.575  1.00  0.00     0.017 C 
ATOM      6  C   UNL     1      -2.295  19.940  47.516  1.00  0.00     0.040 C 
ATOM      7  C   UNL     1      -1.497  18.628  47.607  1.00  0.00     0.117 C 
ENDROOT
BRANCH   7   8
ATOM      8  O   UNL     1      -0.512  18.614  46.606  1.00  0.00    -0.393 OA
ATOM      9  H   UNL     1      -0.463  17.682  46.266  1.00  0.00     0.210 HD
ENDBRANCH   7   8
BRANCH   5  10
ATOM     10  C   UNL     1      -4.194  21.289  48.493  1.00  0.00    -0.077 C 
ATOM     11  C   UNL     1      -5.193  21.422  47.606  1.00  0.00     0.008 C 
ATOM     12  C   UNL     1      -3.873  22.455  49.395  1.00  0.00     0.039 C 
ENDBRANCH   5  10
TORSDOF 2
ENDMDL
MODEL 3
REMARK VINA RESULT:    -4.890      2.383      4.634
REMARK INTER + INTRA:          -5.410
REMARK INTER:                  -5.320
REMARK INTRA:                  -0.089
REMARK UNBOUND:                -0.091
REMARK SMILES C=C(C)[C@H]1CC[C@@H](C)[C@@H](O)C1
REMARK SMILES IDX 8 1 7 2 6 3 5 4 4 5 11 6 9 7 10 8 2 10 1 11 3 12
REMARK H PARENT 10 9
REMARK Flexibility Score: inf
ROOT
ATOM      1  C   UNL     1      -2.487  19.330  49.120  1.00  0.00     0.010 C 
ATOM      2  C   UNL     1      -3.421  18.127  48.889  1.00  0.00     0.015 C 
ATOM      3  C   UNL     1      -2.654  16.789  48.958  1.00  0.00     0.006 C 
ATOM      4  C   UNL     1      -1.771  16.554  47.723  1.00  0.00     0.008 C 
ATOM      5  C   UNL     1      -2.598  16.648  46.427  1.00  0.00     0.017 C 
ATOM      6  C   UNL     1      -3.335  17.998  46.333  1.00  0.00     0.040 C 
ATOM      7  C   UNL     1      -4.225  18.230  47.566  1.00  0.00     0.117 C 
ENDROOT
BRANCH   7   8
ATOM      8  O   UNL     1      -4.851  19.482  47.456  1.00  0.00    -0.393 OA
ATOM      9  H   UNL     1      -5.585  19.495  48.125  1.00  0.00     0.210 HD
ENDBRANCH   7   8
BRANCH   5  10
ATOM     10  C   UNL     1      -1.727  16.411  45.201  1.00  0.00    -0.077 C 
ATOM     11  C   UNL     1      -2.291  16.256  43.993  1.00  0.00     0.008 C 
ATOM     12  C   UNL     1      -0.223  16.345  45.308  1.00  0.00     0.039 C 
ENDBRANCH   5  10
TORSDOF 2
ENDMDL
MODEL 4
REMARK VINA RESULT:    -4.833      2.234      4.652
REMARK INTER + INTRA:          -5.348
REMARK INTER:                  -5.245
REMARK INTRA:                  -0.103
REMARK UNBOUND:                -0.091
REMARK SMILES C=C(C)[C@H]1CC[C@@H](C)[C@@H](O)C1
REMARK SMILES IDX 8 1 7 2 6 3 5 4 4 5 11 6 9 7 10 8 2 10 1 11 3 12
REMARK H PARENT 10 9
REMARK Flexibility Score: inf
ROOT
ATOM      1  C   UNL     1      -2.753  20.767  48.842  1.00  0.00     0.010 C 
ATOM      2  C   UNL     1      -3.984  20.305  48.042  1.00  0.00     0.015 C 
ATOM      3  C   UNL     1      -4.337  18.831  48.340  1.00  0.00     0.006 C 
ATOM      4  C   UNL     1      -3.344  17.849  47.701  1.00  0.00     0.008 C 
ATOM      5  C   UNL     1      -3.227  18.090  46.184  1.00  0.00     0.017 C 
ATOM      6  C   UNL     1      -2.835  19.549  45.881  1.00  0.00     0.040 C 
ATOM      7  C   UNL     1      -3.834  20.533  46.514  1.00  0.00     0.117 C 
ENDROOT
BRANCH   7   8
ATOM      8  O   UNL     1      -3.424  21.848  46.242  1.00  0.00    -0.393 OA
ATOM      9  H   UNL     1      -2.443  21.818  46.091  1.00  0.00     0.210 HD
ENDBRANCH   7   8
BRANCH   5  10
ATOM     10  C   UNL     1      -2.246  17.115  45.547  1.00  0.00    -0.077 C 
ATOM     11  C   UNL     1      -1.045  16.903  46.108  1.00  0.00     0.008 C 
ATOM     12  C   UNL     1      -2.591  16.369  44.281  1.00  0.00     0.039 C 
ENDBRANCH   5  10
TORSDOF 2
ENDMDL
MODEL 5
REMARK VINA RESULT:    -4.739      2.783      5.039
REMARK INTER + INTRA:          -5.246
REMARK INTER:                  -5.155
REMARK INTRA:                  -0.091
REMARK UNBOUND:                -0.091
REMARK SMILES C=C(C)[C@H]1CC[C@@H](C)[C@@H](O)C1
REMARK SMILES IDX 8 1 7 2 6 3 5 4 4 5 11 6 9 7 10 8 2 10 1 11 3 12
REMARK H PARENT 10 9
REMARK Flexibility Score: inf
ROOT
ATOM      1  C   UNL     1      -2.923  24.405  47.786  1.00  0.00     0.010 C 
ATOM      2  C   UNL     1      -4.259  23.931  48.389  1.00  0.00     0.015 C 
ATOM      3  C   UNL     1      -4.037  23.007  49.606  1.00  0.00     0.006 C 
ATOM      4  C   UNL     1      -3.532  21.614  49.201  1.00  0.00     0.008 C 
ATOM      5  C   UNL     1      -4.479  20.959  48.179  1.00  0.00     0.017 C 
ATOM      6  C   UNL     1      -4.673  21.858  46.943  1.00  0.00     0.040 C 
ATOM      7  C   UNL     1      -5.186  23.251  47.347  1.00  0.00     0.117 C 
ENDROOT
BRANCH   7   8
ATOM      8  O   UNL     1      -5.317  24.047  46.198  1.00  0.00    -0.393 OA
ATOM      9  H   UNL     1      -4.649  24.778  46.277  1.00  0.00     0.210 HD
ENDBRANCH   7   8
BRANCH   5  10
ATOM     10  C   UNL     1      -3.984  19.576  47.779  1.00  0.00    -0.077 C 
ATOM     11  C   UNL     1      -4.456  18.484  48.401  1.00  0.00     0.008 C 
ATOM     12  C   UNL     1      -2.960  19.395  46.685  1.00  0.00     0.039 C 
ENDBRANCH   5  10
TORSDOF 2
ENDMDL
MODEL 6
REMARK VINA RESULT:    -4.639      2.636      4.707
REMARK INTER + INTRA:          -5.136
REMARK INTER:                  -5.047
REMARK INTRA:                  -0.089
REMARK UNBOUND:                -0.091
REMARK SMILES C=C(C)[C@H]1CC[C@@H](C)[C@@H](O)C1
REMARK SMILES IDX 8 1 7 2 6 3 5 4 4 5 11 6 9 7 10 8 2 10 1 11 3 12
REMARK H PARENT 10 9
REMARK Flexibility Score: inf
ROOT
ATOM      1  C   UNL     1      -5.107  23.826  49.610  1.00  0.00     0.010 C 
ATOM      2  C   UNL     1      -4.260  23.582  48.347  1.00  0.00     0.015 C 
ATOM      3  C   UNL     1      -5.005  22.698  47.324  1.00  0.00     0.006 C 
ATOM      4  C   UNL     1      -5.079  21.228  47.762  1.00  0.00     0.008 C 
ATOM      5  C   UNL     1      -3.674  20.667  48.054  1.00  0.00     0.017 C 
ATOM      6  C   UNL     1      -2.940  21.522  49.104  1.00  0.00     0.040 C 
ATOM      7  C   UNL     1      -2.859  22.993  48.663  1.00  0.00     0.117 C 
ENDROOT
BRANCH   7   8
ATOM      8  O   UNL     1      -2.214  23.742  49.660  1.00  0.00    -0.393 OA
ATOM      9  H   UNL     1      -1.473  23.179  50.007  1.00  0.00     0.210 HD
ENDBRANCH   7   8
BRANCH   5  10
ATOM     10  C   UNL     1      -3.744  19.208  48.485  1.00  0.00    -0.077 C 
ATOM     11  C   UNL     1      -4.733  18.419  48.037  1.00  0.00     0.008 C 
ATOM     12  C   UNL     1      -2.716  18.615  49.417  1.00  0.00     0.039 C 
ENDBRANCH   5  10
TORSDOF 2
ENDMDL
MODEL 7
REMARK VINA RESULT:    -4.620      4.752      6.920
REMARK INTER + INTRA:          -5.116
REMARK INTER:                  -5.029
REMARK INTRA:                  -0.087
REMARK UNBOUND:                -0.091
REMARK SMILES C=C(C)[C@H]1CC[C@@H](C)[C@@H](O)C1
REMARK SMILES IDX 8 1 7 2 6 3 5 4 4 5 11 6 9 7 10 8 2 10 1 11 3 12
REMARK H PARENT 10 9
REMARK Flexibility Score: inf
ROOT
ATOM      1  C   UNL     1      -2.870  26.284  51.033  1.00  0.00     0.010 C 
ATOM      2  C   UNL     1      -4.194  25.609  51.436  1.00  0.00     0.015 C 
ATOM      3  C   UNL     1      -4.052  24.072  51.503  1.00  0.00     0.006 C 
ATOM      4  C   UNL     1      -3.954  23.431  50.111  1.00  0.00     0.008 C 
ATOM      5  C   UNL     1      -5.152  23.835  49.231  1.00  0.00     0.017 C 
ATOM      6  C   UNL     1      -5.275  25.367  49.127  1.00  0.00     0.040 C 
ATOM      7  C   UNL     1      -5.381  26.010  50.520  1.00  0.00     0.117 C 
ENDROOT
BRANCH   7   8
ATOM      8  O   UNL     1      -5.458  27.404  50.382  1.00  0.00    -0.393 OA
ATOM      9  H   UNL     1      -5.128  27.796  51.233  1.00  0.00     0.210 HD
ENDBRANCH   7   8
BRANCH   5  10
ATOM     10  C   UNL     1      -5.059  23.196  47.851  1.00  0.00    -0.077 C 
ATOM     11  C   UNL     1      -5.320  21.889  47.694  1.00  0.00     0.008 C 
ATOM     12  C   UNL     1      -4.677  24.006  46.636  1.00  0.00     0.039 C 
ENDBRANCH   5  10
TORSDOF 2
ENDMDL
MODEL 8
REMARK VINA RESULT:    -4.611      2.355      3.744
REMARK INTER + INTRA:          -5.107
REMARK INTER:                  -5.014
REMARK INTRA:                  -0.092
REMARK UNBOUND:                -0.091
REMARK SMILES C=C(C)[C@H]1CC[C@@H](C)[C@@H](O)C1
REMARK SMILES IDX 8 1 7 2 6 3 5 4 4 5 11 6 9 7 10 8 2 10 1 11 3 12
REMARK H PARENT 10 9
REMARK Flexibility Score: inf
ROOT
ATOM      1  C   UNL     1      -3.375  21.238  46.334  1.00  0.00     0.010 C 
ATOM      2  C   UNL     1      -4.345  20.841  47.463  1.00  0.00     0.015 C 
ATOM      3  C   UNL     1      -5.518  21.838  47.582  1.00  0.00     0.006 C 
ATOM      4  C   UNL     1      -5.088  23.179  48.195  1.00  0.00     0.008 C 
ATOM      5  C   UNL     1      -4.404  22.970  49.559  1.00  0.00     0.017 C 
ATOM      6  C   UNL     1      -3.208  22.007  49.439  1.00  0.00     0.040 C 
ATOM      7  C   UNL     1      -3.638  20.660  48.832  1.00  0.00     0.117 C 
ENDROOT
BRANCH   7   8
ATOM      8  O   UNL     1      -2.516  19.826  48.711  1.00  0.00    -0.393 OA
ATOM      9  H   UNL     1      -2.651  19.069  49.340  1.00  0.00     0.210 HD
ENDBRANCH   7   8
BRANCH   5  10
ATOM     10  C   UNL     1      -3.980  24.298  50.170  1.00  0.00    -0.077 C 
ATOM     11  C   UNL     1      -4.072  24.490  51.496  1.00  0.00     0.008 C 
ATOM     12  C   UNL     1      -3.452  25.423  49.315  1.00  0.00     0.039 C 
ENDBRANCH   5  10
TORSDOF 2
ENDMDL
MODEL 9
REMARK VINA RESULT:    -4.606      4.433      6.944
REMARK INTER + INTRA:          -5.101
REMARK INTER:                  -5.001
REMARK INTRA:                  -0.101
REMARK UNBOUND:                -0.091
REMARK SMILES C=C(C)[C@H]1CC[C@@H](C)[C@@H](O)C1
REMARK SMILES IDX 8 1 7 2 6 3 5 4 4 5 11 6 9 7 10 8 2 10 1 11 3 12
REMARK H PARENT 10 9
REMARK Flexibility Score: inf
ROOT
ATOM      1  C   UNL     1      -5.113  27.369  48.421  1.00  0.00     0.010 C 
ATOM      2  C   UNL     1      -4.663  26.747  49.756  1.00  0.00     0.015 C 
ATOM      3  C   UNL     1      -3.300  26.034  49.621  1.00  0.00     0.006 C 
ATOM      4  C   UNL     1      -3.404  24.711  48.848  1.00  0.00     0.008 C 
ATOM      5  C   UNL     1      -4.452  23.779  49.485  1.00  0.00     0.017 C 
ATOM      6  C   UNL     1      -5.825  24.471  49.586  1.00  0.00     0.040 C 
ATOM      7  C   UNL     1      -5.723  25.793  50.367  1.00  0.00     0.117 C 
ENDROOT
BRANCH   7   8
ATOM      8  O   UNL     1      -6.985  26.405  50.407  1.00  0.00    -0.393 OA
ATOM      9  H   UNL     1      -7.114  26.857  49.532  1.00  0.00     0.210 HD
ENDBRANCH   7   8
BRANCH   5  10
ATOM     10  C   UNL     1      -4.555  22.465  48.723  1.00  0.00    -0.077 C 
ATOM     11  C   UNL     1      -5.461  22.323  47.742  1.00  0.00     0.008 C 
ATOM     12  C   UNL     1      -3.653  21.299  49.044  1.00  0.00     0.039 C 
ENDBRANCH   5  10
TORSDOF 2
ENDMDL
