MODEL 1
REMARK VINA RESULT:    -5.082      0.000      0.000
REMARK INTER + INTRA:         -10.093
REMARK INTER:                  -9.538
REMARK INTRA:                  -0.554
REMARK UNBOUND:                -0.554
REMARK SMILES CCCCCCCCC=CCCCCCCCC(=O)[O-]
REMARK SMILES IDX 10 1 9 2 11 3 12 4 13 5 14 6 15 7 16 8 17 9 18 10 19 11
REMARK SMILES IDX 20 12 8 13 7 14 6 15 5 16 4 17 3 18 2 19 1 20
REMARK H PARENT
REMARK Flexibility Score: inf
ROOT
ATOM      1  C   UNL     1     147.014 148.072 156.870  1.00  0.00    -0.031 C 
ATOM      2  C   UNL     1     148.182 148.630 157.221  1.00  0.00    -0.031 C 
ENDROOT
BRANCH   1   3
ATOM      3  C   UNL     1     146.942 146.671 156.328  1.00  0.00     0.027 C 
BRANCH   3   4
ATOM      4  C   UNL     1     148.342 146.119 156.036  1.00  0.00     0.004 C 
BRANCH   4   5
ATOM      5  C   UNL     1     148.924 145.416 157.268  1.00  0.00     0.000 C 
BRANCH   5   6
ATOM      6  C   UNL     1     147.881 144.496 157.918  1.00  0.00     0.000 C 
BRANCH   6   7
ATOM      7  C   UNL     1     148.233 143.006 157.775  1.00  0.00     0.000 C 
BRANCH   7   8
ATOM      8  C   UNL     1     146.999 142.094 157.873  1.00  0.00     0.006 C 
BRANCH   8   9
ATOM      9  C   UNL     1     147.409 140.616 157.892  1.00  0.00     0.053 C 
BRANCH   9  10
ATOM     10  C   UNL     1     146.286 139.754 157.405  1.00  0.00     0.041 C 
ATOM     11  O   UNL     1     146.463 138.520 157.230  1.00  0.00    -0.550 OA
ATOM     12  O   UNL     1     145.052 140.321 157.110  1.00  0.00    -0.550 OA
ENDBRANCH   9  10
ENDBRANCH   8   9
ENDBRANCH   7   8
ENDBRANCH   6   7
ENDBRANCH   5   6
ENDBRANCH   4   5
ENDBRANCH   3   4
ENDBRANCH   1   3
BRANCH   2  13
ATOM     13  C   UNL     1     148.253 150.031 157.765  1.00  0.00     0.027 C 
BRANCH  13  14
ATOM     14  C   UNL     1     147.090 150.889 157.250  1.00  0.00     0.004 C 
BRANCH  14  15
ATOM     15  C   UNL     1     146.897 152.136 158.124  1.00  0.00     0.000 C 
BRANCH  15  16
ATOM     16  C   UNL     1     147.999 153.187 157.908  1.00  0.00     0.000 C 
BRANCH  16  17
ATOM     17  C   UNL     1     147.485 154.626 158.084  1.00  0.00    -0.000 C 
BRANCH  17  18
ATOM     18  C   UNL     1     148.133 155.616 157.098  1.00  0.00    -0.000 C 
BRANCH  18  19
ATOM     19  C   UNL     1     147.393 156.956 156.945  1.00  0.00    -0.003 C 
ATOM     20  C   UNL     1     148.117 158.118 157.623  1.00  0.00     0.004 C 
ENDBRANCH  18  19
ENDBRANCH  17  18
ENDBRANCH  16  17
ENDBRANCH  15  16
ENDBRANCH  14  15
ENDBRANCH  13  14
ENDBRANCH   2  13
TORSDOF 15
ENDMDL
MODEL 2
REMARK VINA RESULT:    -4.615      5.906     12.000
REMARK INTER + INTRA:          -9.215
REMARK INTER:                  -8.363
REMARK INTRA:                  -0.852
REMARK UNBOUND:                -0.554
REMARK SMILES CCCCCCCCC=CCCCCCCCC(=O)[O-]
REMARK SMILES IDX 10 1 9 2 11 3 12 4 13 5 14 6 15 7 16 8 17 9 18 10 19 11
REMARK SMILES IDX 20 12 8 13 7 14 6 15 5 16 4 17 3 18 2 19 1 20
REMARK H PARENT
REMARK Flexibility Score: inf
ROOT
ATOM      1  C   UNL     1     149.614 151.598 158.014  1.00  0.00    -0.031 C 
ATOM      2  C   UNL     1     148.492 150.872 158.120  1.00  0.00    -0.031 C 
ENDROOT
BRANCH   1   3
ATOM      3  C   UNL     1     149.587 153.102 158.057  1.00  0.00     0.027 C 
BRANCH   3   4
ATOM      4  C   UNL     1     148.148 153.628 158.071  1.00  0.00     0.004 C 
BRANCH   4   5
ATOM      5  C   UNL     1     148.018 154.902 157.228  1.00  0.00     0.000 C 
BRANCH   5   6
ATOM      6  C   UNL     1     147.688 156.112 158.112  1.00  0.00     0.000 C 
BRANCH   6   7
ATOM      7  C   UNL     1     148.696 157.262 157.945  1.00  0.00     0.000 C 
BRANCH   7   8
ATOM      8  C   UNL     1     150.152 156.802 158.125  1.00  0.00     0.006 C 
BRANCH   8   9
ATOM      9  C   UNL     1     151.120 157.756 157.413  1.00  0.00     0.053 C 
BRANCH   9  10
ATOM     10  C   UNL     1     152.021 156.997 156.490  1.00  0.00     0.041 C 
ATOM     11  O   UNL     1     153.262 157.206 156.500  1.00  0.00    -0.550 OA
ATOM     12  O   UNL     1     151.484 156.082 155.592  1.00  0.00    -0.550 OA
ENDBRANCH   9  10
ENDBRANCH   8   9
ENDBRANCH   7   8
ENDBRANCH   6   7
ENDBRANCH   5   6
ENDBRANCH   4   5
ENDBRANCH   3   4
ENDBRANCH   1   3
BRANCH   2  13
ATOM     13  C   UNL     1     148.520 149.369 158.080  1.00  0.00     0.027 C 
BRANCH  13  14
ATOM     14  C   UNL     1     147.601 148.825 156.978  1.00  0.00     0.004 C 
BRANCH  14  15
ATOM     15  C   UNL     1     148.331 147.784 156.116  1.00  0.00     0.000 C 
BRANCH  15  16
ATOM     16  C   UNL     1     148.829 146.582 156.935  1.00  0.00     0.000 C 
BRANCH  16  17
ATOM     17  C   UNL     1     147.812 145.429 156.971  1.00  0.00    -0.000 C 
BRANCH  17  18
ATOM     18  C   UNL     1     148.471 144.058 157.210  1.00  0.00    -0.000 C 
BRANCH  18  19
ATOM     19  C   UNL     1     147.674 143.105 158.117  1.00  0.00    -0.003 C 
ATOM     20  C   UNL     1     148.190 141.668 158.072  1.00  0.00     0.004 C 
ENDBRANCH  18  19
ENDBRANCH  17  18
ENDBRANCH  16  17
ENDBRANCH  15  16
ENDBRANCH  14  15
ENDBRANCH  13  14
ENDBRANCH   2  13
TORSDOF 15
ENDMDL
MODEL 3
REMARK VINA RESULT:    -4.588      5.439     11.814
REMARK INTER + INTRA:          -9.165
REMARK INTER:                  -8.383
REMARK INTRA:                  -0.782
REMARK UNBOUND:                -0.554
REMARK SMILES CCCCCCCCC=CCCCCCCCC(=O)[O-]
REMARK SMILES IDX 10 1 9 2 11 3 12 4 13 5 14 6 15 7 16 8 17 9 18 10 19 11
REMARK SMILES IDX 20 12 8 13 7 14 6 15 5 16 4 17 3 18 2 19 1 20
REMARK H PARENT
REMARK Flexibility Score: inf
ROOT
ATOM      1  C   UNL     1     148.777 146.818 157.389  1.00  0.00    -0.031 C 
ATOM      2  C   UNL     1     147.574 146.387 157.796  1.00  0.00    -0.031 C 
ENDROOT
BRANCH   1   3
ATOM      3  C   UNL     1     149.053 148.278 157.155  1.00  0.00     0.027 C 
BRANCH   3   4
ATOM      4  C   UNL     1     147.763 149.040 156.829  1.00  0.00     0.004 C 
BRANCH   4   5
ATOM      5  C   UNL     1     147.482 150.122 157.878  1.00  0.00     0.000 C 
BRANCH   5   6
ATOM      6  C   UNL     1     146.947 151.399 157.216  1.00  0.00     0.000 C 
BRANCH   6   7
ATOM      7  C   UNL     1     147.069 152.634 158.125  1.00  0.00     0.000 C 
BRANCH   7   8
ATOM      8  C   UNL     1     148.427 153.340 157.983  1.00  0.00     0.006 C 
BRANCH   8   9
ATOM      9  C   UNL     1     148.345 154.487 156.968  1.00  0.00     0.053 C 
BRANCH   9  10
ATOM     10  C   UNL     1     149.385 155.523 157.261  1.00  0.00     0.041 C 
ATOM     11  O   UNL     1     150.561 155.380 156.838  1.00  0.00    -0.550 OA
ATOM     12  O   UNL     1     149.061 156.634 158.033  1.00  0.00    -0.550 OA
ENDBRANCH   9  10
ENDBRANCH   8   9
ENDBRANCH   7   8
ENDBRANCH   6   7
ENDBRANCH   5   6
ENDBRANCH   4   5
ENDBRANCH   3   4
ENDBRANCH   1   3
BRANCH   2  13
ATOM     13  C   UNL     1     147.299 144.927 158.032  1.00  0.00     0.027 C 
BRANCH  13  14
ATOM     14  C   UNL     1     148.159 144.044 157.118  1.00  0.00     0.004 C 
BRANCH  14  15
ATOM     15  C   UNL     1     148.378 142.658 157.742  1.00  0.00     0.000 C 
BRANCH  15  16
ATOM     16  C   UNL     1     147.060 141.966 158.125  1.00  0.00     0.000 C 
BRANCH  16  17
ATOM     17  C   UNL     1     146.469 141.138 156.970  1.00  0.00    -0.000 C 
BRANCH  17  18
ATOM     18  C   UNL     1     145.086 140.549 157.302  1.00  0.00    -0.000 C 
BRANCH  18  19
ATOM     19  C   UNL     1     145.116 139.223 158.081  1.00  0.00    -0.003 C 
ATOM     20  C   UNL     1     146.287 138.325 157.686  1.00  0.00     0.004 C 
ENDBRANCH  18  19
ENDBRANCH  17  18
ENDBRANCH  16  17
ENDBRANCH  15  16
ENDBRANCH  14  15
ENDBRANCH  13  14
ENDBRANCH   2  13
TORSDOF 15
ENDMDL
MODEL 4
REMARK VINA RESULT:    -4.091      6.085     11.633
REMARK INTER + INTRA:          -8.232
REMARK INTER:                  -7.364
REMARK INTRA:                  -0.868
REMARK UNBOUND:                -0.554
REMARK SMILES CCCCCCCCC=CCCCCCCCC(=O)[O-]
REMARK SMILES IDX 10 1 9 2 11 3 12 4 13 5 14 6 15 7 16 8 17 9 18 10 19 11
REMARK SMILES IDX 20 12 8 13 7 14 6 15 5 16 4 17 3 18 2 19 1 20
REMARK H PARENT
REMARK Flexibility Score: inf
ROOT
ATOM      1  C   UNL     1     149.274 152.570 157.993  1.00  0.00    -0.031 C 
ATOM      2  C   UNL     1     148.094 151.933 158.014  1.00  0.00    -0.031 C 
ENDROOT
BRANCH   1   3
ATOM      3  C   UNL     1     149.359 154.068 157.886  1.00  0.00     0.027 C 
BRANCH   3   4
ATOM      4  C   UNL     1     147.969 154.708 157.977  1.00  0.00     0.004 C 
BRANCH   4   5
ATOM      5  C   UNL     1     147.799 155.808 156.923  1.00  0.00     0.000 C 
BRANCH   5   6
ATOM      6  C   UNL     1     147.507 157.161 157.587  1.00  0.00     0.000 C 
BRANCH   6   7
ATOM      7  C   UNL     1     148.740 158.078 157.632  1.00  0.00     0.000 C 
BRANCH   7   8
ATOM      8  C   UNL     1     150.008 157.342 158.095  1.00  0.00     0.006 C 
BRANCH   8   9
ATOM      9  C   UNL     1     151.270 158.058 157.599  1.00  0.00     0.053 C 
BRANCH   9  10
ATOM     10  C   UNL     1     152.125 157.125 156.801  1.00  0.00     0.041 C 
ATOM     11  O   UNL     1     153.361 157.334 156.688  1.00  0.00    -0.550 OA
ATOM     12  O   UNL     1     151.549 156.038 156.151  1.00  0.00    -0.550 OA
ENDBRANCH   9  10
ENDBRANCH   8   9
ENDBRANCH   7   8
ENDBRANCH   6   7
ENDBRANCH   5   6
ENDBRANCH   4   5
ENDBRANCH   3   4
ENDBRANCH   1   3
BRANCH   2  13
ATOM     13  C   UNL     1     148.009 150.435 158.124  1.00  0.00     0.027 C 
BRANCH  13  14
ATOM     14  C   UNL     1     148.300 149.761 156.777  1.00  0.00     0.004 C 
BRANCH  14  15
ATOM     15  C   UNL     1     149.415 148.713 156.915  1.00  0.00     0.000 C 
BRANCH  15  16
ATOM     16  C   UNL     1     148.946 147.442 157.641  1.00  0.00     0.000 C 
BRANCH  16  17
ATOM     17  C   UNL     1     148.066 146.545 156.753  1.00  0.00    -0.000 C 
BRANCH  17  18
ATOM     18  C   UNL     1     146.795 146.056 157.471  1.00  0.00    -0.000 C 
BRANCH  18  19
ATOM     19  C   UNL     1     145.492 146.737 157.019  1.00  0.00    -0.003 C 
ATOM     20  C   UNL     1     145.713 147.782 155.926  1.00  0.00     0.004 C 
ENDBRANCH  18  19
ENDBRANCH  17  18
ENDBRANCH  16  17
ENDBRANCH  15  16
ENDBRANCH  14  15
ENDBRANCH  13  14
ENDBRANCH   2  13
TORSDOF 15
ENDMDL
MODEL 5
REMARK VINA RESULT:    -3.885      2.343      3.744
REMARK INTER + INTRA:          -7.846
REMARK INTER:                  -6.894
REMARK INTRA:                  -0.952
REMARK UNBOUND:                -0.554
REMARK SMILES CCCCCCCCC=CCCCCCCCC(=O)[O-]
REMARK SMILES IDX 10 1 9 2 11 3 12 4 13 5 14 6 15 7 16 8 17 9 18 10 19 11
REMARK SMILES IDX 20 12 8 13 7 14 6 15 5 16 4 17 3 18 2 19 1 20
REMARK H PARENT
REMARK Flexibility Score: inf
ROOT
ATOM      1  C   UNL     1     149.738 151.005 157.882  1.00  0.00    -0.031 C 
ATOM      2  C   UNL     1     150.585 152.016 158.125  1.00  0.00    -0.031 C 
ENDROOT
BRANCH   1   3
ATOM      3  C   UNL     1     150.171 149.569 157.999  1.00  0.00     0.027 C 
BRANCH   3   4
ATOM      4  C   UNL     1     148.961 148.634 158.098  1.00  0.00     0.004 C 
BRANCH   4   5
ATOM      5  C   UNL     1     148.181 148.599 156.778  1.00  0.00     0.000 C 
BRANCH   5   6
ATOM      6  C   UNL     1     147.530 147.226 156.564  1.00  0.00     0.000 C 
BRANCH   6   7
ATOM      7  C   UNL     1     147.003 146.609 157.870  1.00  0.00     0.000 C 
BRANCH   7   8
ATOM      8  C   UNL     1     146.786 145.091 157.761  1.00  0.00     0.006 C 
BRANCH   8   9
ATOM      9  C   UNL     1     148.065 144.326 158.124  1.00  0.00     0.053 C 
BRANCH   9  10
ATOM     10  C   UNL     1     147.912 142.870 157.814  1.00  0.00     0.041 C 
ATOM     11  O   UNL     1     148.894 142.203 157.397  1.00  0.00    -0.550 OA
ATOM     12  O   UNL     1     146.672 142.256 157.954  1.00  0.00    -0.550 OA
ENDBRANCH   9  10
ENDBRANCH   8   9
ENDBRANCH   7   8
ENDBRANCH   6   7
ENDBRANCH   5   6
ENDBRANCH   4   5
ENDBRANCH   3   4
ENDBRANCH   1   3
BRANCH   2  13
ATOM     13  C   UNL     1     150.151 153.452 158.010  1.00  0.00     0.027 C 
BRANCH  13  14
ATOM     14  C   UNL     1     148.622 153.576 158.051  1.00  0.00     0.004 C 
BRANCH  14  15
ATOM     15  C   UNL     1     148.168 154.944 157.520  1.00  0.00     0.000 C 
BRANCH  15  16
ATOM     16  C   UNL     1     149.313 155.737 156.870  1.00  0.00     0.000 C 
BRANCH  16  17
ATOM     17  C   UNL     1     149.465 157.149 157.461  1.00  0.00    -0.000 C 
BRANCH  17  18
ATOM     18  C   UNL     1     150.921 157.648 157.453  1.00  0.00    -0.000 C 
BRANCH  18  19
ATOM     19  C   UNL     1     151.762 157.175 156.255  1.00  0.00    -0.003 C 
ATOM     20  C   UNL     1     153.257 157.428 156.439  1.00  0.00     0.004 C 
ENDBRANCH  18  19
ENDBRANCH  17  18
ENDBRANCH  16  17
ENDBRANCH  15  16
ENDBRANCH  14  15
ENDBRANCH  13  14
ENDBRANCH   2  13
TORSDOF 15
ENDMDL
MODEL 6
REMARK VINA RESULT:    -3.392      1.675      2.974
REMARK INTER + INTRA:          -6.920
REMARK INTER:                  -6.200
REMARK INTRA:                  -0.720
REMARK UNBOUND:                -0.554
REMARK SMILES CCCCCCCCC=CCCCCCCCC(=O)[O-]
REMARK SMILES IDX 10 1 9 2 11 3 12 4 13 5 14 6 15 7 16 8 17 9 18 10 19 11
REMARK SMILES IDX 20 12 8 13 7 14 6 15 5 16 4 17 3 18 2 19 1 20
REMARK H PARENT
REMARK Flexibility Score: inf
ROOT
ATOM      1  C   UNL     1     147.932 146.016 156.435  1.00  0.00    -0.031 C 
ATOM      2  C   UNL     1     146.647 146.364 156.273  1.00  0.00    -0.031 C 
ENDROOT
BRANCH   1   3
ATOM      3  C   UNL     1     148.337 144.588 156.683  1.00  0.00     0.027 C 
BRANCH   3   4
ATOM      4  C   UNL     1     148.002 144.161 158.116  1.00  0.00     0.004 C 
BRANCH   4   5
ATOM      5  C   UNL     1     147.071 142.943 158.125  1.00  0.00     0.000 C 
BRANCH   5   6
ATOM      6  C   UNL     1     147.796 141.697 157.597  1.00  0.00     0.000 C 
BRANCH   6   7
ATOM      7  C   UNL     1     147.083 140.389 157.981  1.00  0.00     0.000 C 
BRANCH   7   8
ATOM      8  C   UNL     1     146.621 139.586 156.755  1.00  0.00     0.006 C 
BRANCH   8   9
ATOM      9  C   UNL     1     145.397 138.725 157.092  1.00  0.00     0.053 C 
BRANCH   9  10
ATOM     10  C   UNL     1     144.214 139.155 156.283  1.00  0.00     0.041 C 
ATOM     11  O   UNL     1     143.116 138.549 156.392  1.00  0.00    -0.550 OA
ATOM     12  O   UNL     1     144.333 140.207 155.382  1.00  0.00    -0.550 OA
ENDBRANCH   9  10
ENDBRANCH   8   9
ENDBRANCH   7   8
ENDBRANCH   6   7
ENDBRANCH   5   6
ENDBRANCH   4   5
ENDBRANCH   3   4
ENDBRANCH   1   3
BRANCH   2  13
ATOM     13  C   UNL     1     146.243 147.791 156.022  1.00  0.00     0.027 C 
BRANCH  13  14
ATOM     14  C   UNL     1     147.462 148.724 156.031  1.00  0.00     0.004 C 
BRANCH  14  15
ATOM     15  C   UNL     1     147.629 149.397 157.401  1.00  0.00     0.000 C 
BRANCH  15  16
ATOM     16  C   UNL     1     146.920 150.759 157.483  1.00  0.00     0.000 C 
BRANCH  16  17
ATOM     17  C   UNL     1     147.799 151.846 158.125  1.00  0.00    -0.000 C 
BRANCH  17  18
ATOM     18  C   UNL     1     147.705 153.199 157.397  1.00  0.00    -0.000 C 
BRANCH  18  19
ATOM     19  C   UNL     1     148.883 154.155 157.650  1.00  0.00    -0.003 C 
ATOM     20  C   UNL     1     150.244 153.475 157.514  1.00  0.00     0.004 C 
ENDBRANCH  18  19
ENDBRANCH  17  18
ENDBRANCH  16  17
ENDBRANCH  15  16
ENDBRANCH  14  15
ENDBRANCH  13  14
ENDBRANCH   2  13
TORSDOF 15
ENDMDL
