MODEL 1
REMARK VINA RESULT:    -7.377      0.000      0.000
REMARK INTER + INTRA:         -11.034
REMARK INTER:                 -10.827
REMARK INTRA:                  -0.206
REMARK UNBOUND:                -0.206
REMARK SMILES O=c1c(O[C@@H]2O[C@H](CO)[C@@H](O)[C@@H](O)[C@@H]2O)c(-c2ccc(O)c(O)c2)oc2cc(O)cc(O)c12
REMARK SMILES IDX 4 1 3 2 16 3 25 4 2 5 26 6 1 7 33 8 27 9 31 10 28 11 30 12
REMARK SMILES IDX 17 13 18 14 19 15 20 16 24 17 22 18 21 19 23 21 32 23 29 25
REMARK SMILES IDX 5 27 14 28 6 29 12 30 7 31 10 32 15 33 13 35 8 37 9 38 11 40
REMARK H PARENT 21 20 23 22 32 24 29 26 15 34 13 36 9 39 11 41
REMARK Flexibility Score: inf
ROOT
ATOM      1  O   UNL     1     -11.255   7.349   6.215  1.00  0.00    -0.454 OA
ENDROOT
BRANCH   1   2
ATOM      2  C   UNL     1     -11.833   8.439   5.551  1.00  0.00     0.214 A 
ATOM      3  C   UNL     1     -11.083   9.576   5.189  1.00  0.00     0.180 A 
ATOM      4  O   UNL     1     -11.652  10.534   4.468  1.00  0.00    -0.452 OA
ATOM      5  C   UNL     1     -13.190   8.386   5.214  1.00  0.00     0.239 A 
ATOM      6  C   UNL     1     -12.930  10.518   4.107  1.00  0.00     0.146 A 
ATOM      7  O   UNL     1     -13.839   7.350   5.515  1.00  0.00    -0.285 OA
ATOM      8  C   UNL     1     -13.785   9.457   4.504  1.00  0.00     0.111 A 
ATOM      9  C   UNL     1     -13.416  11.569   3.326  1.00  0.00     0.094 A 
ATOM     10  C   UNL     1     -15.162   9.516   4.129  1.00  0.00     0.134 A 
ATOM     11  C   UNL     1     -14.748  11.587   2.916  1.00  0.00     0.123 A 
ATOM     12  C   UNL     1     -15.611  10.564   3.316  1.00  0.00     0.093 A 
BRANCH   3  13
ATOM     13  C   UNL     1      -9.668   9.745   5.580  1.00  0.00     0.025 A 
ATOM     14  C   UNL     1      -8.697   8.795   5.221  1.00  0.00     0.016 A 
ATOM     15  C   UNL     1      -7.362   8.979   5.588  1.00  0.00     0.051 A 
ATOM     16  C   UNL     1      -6.983  10.106   6.329  1.00  0.00     0.157 A 
ATOM     17  C   UNL     1      -9.288  10.862   6.341  1.00  0.00     0.062 A 
ATOM     18  C   UNL     1      -7.947  11.048   6.708  1.00  0.00     0.158 A 
BRANCH  16  19
ATOM     19  O   UNL     1      -5.651  10.294   6.695  1.00  0.00    -0.504 OA
ATOM     20  H   UNL     1      -4.903   9.770   6.258  1.00  0.00     0.293 HD
ENDBRANCH  16  19
BRANCH  18  21
ATOM     21  O   UNL     1      -7.567  12.167   7.448  1.00  0.00    -0.504 OA
ATOM     22  H   UNL     1      -8.082  12.460   8.270  1.00  0.00     0.293 HD
ENDBRANCH  18  21
ENDBRANCH   3  13
BRANCH  10  23
ATOM     23  O   UNL     1     -16.125   8.592   4.544  1.00  0.00    -0.507 OA
ATOM     24  H   UNL     1     -17.020   8.830   4.943  1.00  0.00     0.293 HD
ENDBRANCH  10  23
BRANCH  11  25
ATOM     25  O   UNL     1     -15.209  12.633   2.120  1.00  0.00    -0.508 OA
ATOM     26  H   UNL     1     -14.624  13.431   1.903  1.00  0.00     0.293 HD
ENDBRANCH  11  25
ENDBRANCH   1   2
BRANCH   1  27
ATOM     27  C   UNL     1     -11.743   6.017   6.068  1.00  0.00     0.339 C 
ATOM     28  C   UNL     1     -11.028   5.349   4.876  1.00  0.00     0.214 C 
ATOM     29  O   UNL     1     -11.489   5.298   7.262  1.00  0.00    -0.332 OA
ATOM     30  C   UNL     1     -11.468   3.877   4.738  1.00  0.00     0.180 C 
ATOM     31  C   UNL     1     -12.102   4.020   7.219  1.00  0.00     0.179 C 
ATOM     32  C   UNL     1     -11.444   3.154   6.108  1.00  0.00     0.177 C 
BRANCH  28  33
ATOM     33  O   UNL     1      -9.635   5.395   5.066  1.00  0.00    -0.384 OA
ATOM     34  H   UNL     1      -9.393   4.611   5.625  1.00  0.00     0.211 HD
ENDBRANCH  28  33
BRANCH  30  35
ATOM     35  O   UNL     1     -12.723   3.777   4.107  1.00  0.00    -0.387 OA
ATOM     36  H   UNL     1     -13.427   3.820   4.803  1.00  0.00     0.211 HD
ENDBRANCH  30  35
BRANCH  31  37
ATOM     37  C   UNL     1     -11.943   3.376   8.603  1.00  0.00     0.191 C 
BRANCH  37  38
ATOM     38  O   UNL     1     -12.566   2.118   8.643  1.00  0.00    -0.394 OA
ATOM     39  H   UNL     1     -12.831   1.888   7.713  1.00  0.00     0.210 HD
ENDBRANCH  37  38
ENDBRANCH  31  37
BRANCH  32  40
ATOM     40  O   UNL     1     -12.033   1.879   6.006  1.00  0.00    -0.387 OA
ATOM     41  H   UNL     1     -11.378   1.215   6.343  1.00  0.00     0.211 HD
ENDBRANCH  32  40
ENDBRANCH   1  27
TORSDOF 12
ENDMDL
MODEL 2
REMARK VINA RESULT:    -6.988      1.205      1.711
REMARK INTER + INTRA:         -10.463
REMARK INTER:                  -9.790
REMARK INTRA:                  -0.673
REMARK UNBOUND:                -0.206
REMARK SMILES O=c1c(O[C@@H]2O[C@H](CO)[C@@H](O)[C@@H](O)[C@@H]2O)c(-c2ccc(O)c(O)c2)oc2cc(O)cc(O)c12
REMARK SMILES IDX 4 1 3 2 16 3 25 4 2 5 26 6 1 7 33 8 27 9 31 10 28 11 30 12
REMARK SMILES IDX 17 13 18 14 19 15 20 16 24 17 22 18 21 19 23 21 32 23 29 25
REMARK SMILES IDX 5 27 14 28 6 29 12 30 7 31 10 32 15 33 13 35 8 37 9 38 11 40
REMARK H PARENT 21 20 23 22 32 24 29 26 15 34 13 36 9 39 11 41
REMARK Flexibility Score: inf
ROOT
ATOM      1  O   UNL     1     -11.720   8.025   6.316  1.00  0.00    -0.454 OA
ENDROOT
BRANCH   1   2
ATOM      2  C   UNL     1     -12.194   9.088   5.537  1.00  0.00     0.214 A 
ATOM      3  C   UNL     1     -11.457  10.277   5.369  1.00  0.00     0.180 A 
ATOM      4  O   UNL     1     -11.901  11.211   4.537  1.00  0.00    -0.452 OA
ATOM      5  C   UNL     1     -13.426   8.955   4.887  1.00  0.00     0.239 A 
ATOM      6  C   UNL     1     -13.053  11.121   3.882  1.00  0.00     0.146 A 
ATOM      7  O   UNL     1     -14.057   7.874   5.020  1.00  0.00    -0.285 OA
ATOM      8  C   UNL     1     -13.905  10.000   4.059  1.00  0.00     0.111 A 
ATOM      9  C   UNL     1     -13.408  12.154   3.012  1.00  0.00     0.094 A 
ATOM     10  C   UNL     1     -15.154   9.978   3.368  1.00  0.00     0.134 A 
ATOM     11  C   UNL     1     -14.603  12.095   2.296  1.00  0.00     0.123 A 
ATOM     12  C   UNL     1     -15.466  11.011   2.474  1.00  0.00     0.093 A 
BRANCH   3  13
ATOM     13  C   UNL     1     -10.191  10.529   6.087  1.00  0.00     0.025 A 
ATOM     14  C   UNL     1     -10.123  11.470   7.129  1.00  0.00     0.016 A 
ATOM     15  C   UNL     1      -8.920  11.685   7.806  1.00  0.00     0.051 A 
ATOM     16  C   UNL     1      -7.768  10.974   7.443  1.00  0.00     0.157 A 
ATOM     17  C   UNL     1      -9.030   9.835   5.712  1.00  0.00     0.062 A 
ATOM     18  C   UNL     1      -7.823  10.048   6.393  1.00  0.00     0.158 A 
BRANCH  16  19
ATOM     19  O   UNL     1      -6.567  11.184   8.118  1.00  0.00    -0.504 OA
ATOM     20  H   UNL     1      -5.865  11.821   7.764  1.00  0.00     0.293 HD
ENDBRANCH  16  19
BRANCH  18  21
ATOM     21  O   UNL     1      -6.675   9.344   6.033  1.00  0.00    -0.504 OA
ATOM     22  H   UNL     1      -6.709   8.360   5.791  1.00  0.00     0.293 HD
ENDBRANCH  18  21
ENDBRANCH   3  13
BRANCH  10  23
ATOM     23  O   UNL     1     -16.125   8.987   3.537  1.00  0.00    -0.507 OA
ATOM     24  H   UNL     1     -17.099   9.160   3.734  1.00  0.00     0.293 HD
ENDBRANCH  10  23
BRANCH  11  25
ATOM     25  O   UNL     1     -14.930  13.125   1.417  1.00  0.00    -0.508 OA
ATOM     26  H   UNL     1     -15.578  12.984   0.652  1.00  0.00     0.293 HD
ENDBRANCH  11  25
ENDBRANCH   1   2
BRANCH   1  27
ATOM     27  C   UNL     1     -11.562   6.705   5.795  1.00  0.00     0.339 C 
ATOM     28  C   UNL     1     -10.101   6.258   5.995  1.00  0.00     0.214 C 
ATOM     29  O   UNL     1     -12.444   5.831   6.479  1.00  0.00    -0.332 OA
ATOM     30  C   UNL     1      -9.911   4.802   5.522  1.00  0.00     0.180 C 
ATOM     31  C   UNL     1     -12.437   4.545   5.883  1.00  0.00     0.179 C 
ATOM     32  C   UNL     1     -11.039   3.887   6.059  1.00  0.00     0.177 C 
BRANCH  28  33
ATOM     33  O   UNL     1      -9.754   6.346   7.356  1.00  0.00    -0.384 OA
ATOM     34  H   UNL     1      -9.607   5.418   7.678  1.00  0.00     0.211 HD
ENDBRANCH  28  33
BRANCH  30  35
ATOM     35  O   UNL     1      -9.794   4.733   4.120  1.00  0.00    -0.387 OA
ATOM     36  H   UNL     1     -10.703   4.656   3.734  1.00  0.00     0.211 HD
ENDBRANCH  30  35
BRANCH  31  37
ATOM     37  C   UNL     1     -13.539   3.712   6.551  1.00  0.00     0.191 C 
BRANCH  37  38
ATOM     38  O   UNL     1     -12.993   2.597   7.208  1.00  0.00    -0.394 OA
ATOM     39  H   UNL     1     -12.698   2.898   8.108  1.00  0.00     0.210 HD
ENDBRANCH  37  38
ENDBRANCH  31  37
BRANCH  32  40
ATOM     40  O   UNL     1     -10.970   2.613   5.463  1.00  0.00    -0.387 OA
ATOM     41  H   UNL     1     -10.426   2.694   4.638  1.00  0.00     0.211 HD
ENDBRANCH  32  40
ENDBRANCH   1  27
TORSDOF 12
ENDMDL
MODEL 3
REMARK VINA RESULT:    -6.954      1.623      6.411
REMARK INTER + INTRA:         -10.413
REMARK INTER:                 -10.282
REMARK INTRA:                  -0.130
REMARK UNBOUND:                -0.206
REMARK SMILES O=c1c(O[C@@H]2O[C@H](CO)[C@@H](O)[C@@H](O)[C@@H]2O)c(-c2ccc(O)c(O)c2)oc2cc(O)cc(O)c12
REMARK SMILES IDX 4 1 3 2 16 3 25 4 2 5 26 6 1 7 33 8 27 9 31 10 28 11 30 12
REMARK SMILES IDX 17 13 18 14 19 15 20 16 24 17 22 18 21 19 23 21 32 23 29 25
REMARK SMILES IDX 5 27 14 28 6 29 12 30 7 31 10 32 15 33 13 35 8 37 9 38 11 40
REMARK H PARENT 21 20 23 22 32 24 29 26 15 34 13 36 9 39 11 41
REMARK Flexibility Score: inf
ROOT
ATOM      1  O   UNL     1     -11.422  10.179   5.550  1.00  0.00    -0.454 OA
ENDROOT
BRANCH   1   2
ATOM      2  C   UNL     1     -11.186   8.802   5.655  1.00  0.00     0.214 A 
ATOM      3  C   UNL     1      -9.900   8.283   5.903  1.00  0.00     0.180 A 
ATOM      4  O   UNL     1      -9.747   6.979   6.100  1.00  0.00    -0.452 OA
ATOM      5  C   UNL     1     -12.265   7.918   5.537  1.00  0.00     0.239 A 
ATOM      6  C   UNL     1     -10.743   6.104   6.018  1.00  0.00     0.146 A 
ATOM      7  O   UNL     1     -13.412   8.400   5.349  1.00  0.00    -0.285 OA
ATOM      8  C   UNL     1     -12.057   6.526   5.684  1.00  0.00     0.111 A 
ATOM      9  C   UNL     1     -10.471   4.758   6.271  1.00  0.00     0.094 A 
ATOM     10  C   UNL     1     -13.078   5.536   5.562  1.00  0.00     0.134 A 
ATOM     11  C   UNL     1     -11.488   3.807   6.207  1.00  0.00     0.123 A 
ATOM     12  C   UNL     1     -12.782   4.199   5.856  1.00  0.00     0.093 A 
BRANCH   3  13
ATOM     13  C   UNL     1      -8.699   9.141   5.957  1.00  0.00     0.025 A 
ATOM     14  C   UNL     1      -7.889   9.328   4.823  1.00  0.00     0.016 A 
ATOM     15  C   UNL     1      -6.765  10.154   4.890  1.00  0.00     0.051 A 
ATOM     16  C   UNL     1      -6.428  10.793   6.091  1.00  0.00     0.157 A 
ATOM     17  C   UNL     1      -8.345   9.766   7.164  1.00  0.00     0.062 A 
ATOM     18  C   UNL     1      -7.219  10.597   7.230  1.00  0.00     0.158 A 
BRANCH  16  19
ATOM     19  O   UNL     1      -5.308  11.620   6.160  1.00  0.00    -0.504 OA
ATOM     20  H   UNL     1      -5.111  12.305   5.440  1.00  0.00     0.293 HD
ENDBRANCH  16  19
BRANCH  18  21
ATOM     21  O   UNL     1      -6.880  11.232   8.424  1.00  0.00    -0.504 OA
ATOM     22  H   UNL     1      -7.097  12.209   8.587  1.00  0.00     0.293 HD
ENDBRANCH  18  21
ENDBRANCH   3  13
BRANCH  10  23
ATOM     23  O   UNL     1     -14.382   5.806   5.138  1.00  0.00    -0.507 OA
ATOM     24  H   UNL     1     -15.098   5.111   4.992  1.00  0.00     0.293 HD
ENDBRANCH  10  23
BRANCH  11  25
ATOM     25  O   UNL     1     -11.201   2.473   6.482  1.00  0.00    -0.508 OA
ATOM     26  H   UNL     1     -11.120   2.132   7.432  1.00  0.00     0.293 HD
ENDBRANCH  11  25
ENDBRANCH   1   2
BRANCH   1  27
ATOM     27  C   UNL     1     -12.509  10.714   4.795  1.00  0.00     0.339 C 
ATOM     28  C   UNL     1     -12.631  12.222   5.091  1.00  0.00     0.214 C 
ATOM     29  O   UNL     1     -12.262  10.500   3.415  1.00  0.00    -0.332 OA
ATOM     30  C   UNL     1     -13.742  12.854   4.228  1.00  0.00     0.180 C 
ATOM     31  C   UNL     1     -13.390  10.870   2.640  1.00  0.00     0.179 C 
ATOM     32  C   UNL     1     -13.628  12.403   2.750  1.00  0.00     0.177 C 
BRANCH  28  33
ATOM     33  O   UNL     1     -11.412  12.866   4.812  1.00  0.00    -0.384 OA
ATOM     34  H   UNL     1     -11.556  13.837   4.960  1.00  0.00     0.211 HD
ENDBRANCH  28  33
BRANCH  30  35
ATOM     35  O   UNL     1     -15.017  12.593   4.766  1.00  0.00    -0.387 OA
ATOM     36  H   UNL     1     -14.900  12.168   5.654  1.00  0.00     0.211 HD
ENDBRANCH  30  35
BRANCH  31  37
ATOM     37  C   UNL     1     -13.124  10.444   1.190  1.00  0.00     0.191 C 
BRANCH  37  38
ATOM     38  O   UNL     1     -11.746  10.433   0.919  1.00  0.00    -0.394 OA
ATOM     39  H   UNL     1     -11.356  11.250   1.327  1.00  0.00     0.210 HD
ENDBRANCH  37  38
ENDBRANCH  31  37
BRANCH  32  40
ATOM     40  O   UNL     1     -14.754  12.822   2.016  1.00  0.00    -0.387 OA
ATOM     41  H   UNL     1     -15.099  13.651   2.436  1.00  0.00     0.211 HD
ENDBRANCH  32  40
ENDBRANCH   1  27
TORSDOF 12
ENDMDL
MODEL 4
REMARK VINA RESULT:    -6.379      1.996      7.396
REMARK INTER + INTRA:          -9.569
REMARK INTER:                  -8.289
REMARK INTRA:                  -1.280
REMARK UNBOUND:                -0.206
REMARK SMILES O=c1c(O[C@@H]2O[C@H](CO)[C@@H](O)[C@@H](O)[C@@H]2O)c(-c2ccc(O)c(O)c2)oc2cc(O)cc(O)c12
REMARK SMILES IDX 4 1 3 2 16 3 25 4 2 5 26 6 1 7 33 8 27 9 31 10 28 11 30 12
REMARK SMILES IDX 17 13 18 14 19 15 20 16 24 17 22 18 21 19 23 21 32 23 29 25
REMARK SMILES IDX 5 27 14 28 6 29 12 30 7 31 10 32 15 33 13 35 8 37 9 38 11 40
REMARK H PARENT 21 20 23 22 32 24 29 26 15 34 13 36 9 39 11 41
REMARK Flexibility Score: inf
ROOT
ATOM      1  O   UNL     1     -10.744   9.339   5.282  1.00  0.00    -0.454 OA
ENDROOT
BRANCH   1   2
ATOM      2  C   UNL     1     -11.423   8.165   5.630  1.00  0.00     0.214 A 
ATOM      3  C   UNL     1     -12.830   8.097   5.664  1.00  0.00     0.180 A 
ATOM      4  O   UNL     1     -13.425   6.934   5.897  1.00  0.00    -0.452 OA
ATOM      5  C   UNL     1     -10.681   7.016   5.929  1.00  0.00     0.239 A 
ATOM      6  C   UNL     1     -12.764   5.814   6.164  1.00  0.00     0.146 A 
ATOM      7  O   UNL     1      -9.426   7.083   5.862  1.00  0.00    -0.285 OA
ATOM      8  C   UNL     1     -11.346   5.806   6.241  1.00  0.00     0.111 A 
ATOM      9  C   UNL     1     -13.494   4.640   6.368  1.00  0.00     0.094 A 
ATOM     10  C   UNL     1     -10.690   4.584   6.580  1.00  0.00     0.134 A 
ATOM     11  C   UNL     1     -12.840   3.440   6.641  1.00  0.00     0.123 A 
ATOM     12  C   UNL     1     -11.447   3.417   6.743  1.00  0.00     0.093 A 
BRANCH   3  13
ATOM     13  C   UNL     1     -13.682   9.284   5.444  1.00  0.00     0.025 A 
ATOM     14  C   UNL     1     -14.266   9.536   4.190  1.00  0.00     0.016 A 
ATOM     15  C   UNL     1     -15.080  10.655   4.005  1.00  0.00     0.051 A 
ATOM     16  C   UNL     1     -15.311  11.544   5.064  1.00  0.00     0.157 A 
ATOM     17  C   UNL     1     -13.898  10.189   6.496  1.00  0.00     0.062 A 
ATOM     18  C   UNL     1     -14.717  11.311   6.311  1.00  0.00     0.158 A 
BRANCH  16  19
ATOM     19  O   UNL     1     -16.125  12.661   4.883  1.00  0.00    -0.504 OA
ATOM     20  H   UNL     1     -15.924  13.353   4.171  1.00  0.00     0.293 HD
ENDBRANCH  16  19
BRANCH  18  21
ATOM     21  O   UNL     1     -14.946  12.198   7.362  1.00  0.00    -0.504 OA
ATOM     22  H   UNL     1     -14.636  13.162   7.321  1.00  0.00     0.293 HD
ENDBRANCH  18  21
ENDBRANCH   3  13
BRANCH  10  23
ATOM     23  O   UNL     1      -9.314   4.468   6.790  1.00  0.00    -0.507 OA
ATOM     24  H   UNL     1      -8.721   5.198   7.156  1.00  0.00     0.293 HD
ENDBRANCH  10  23
BRANCH  11  25
ATOM     25  O   UNL     1     -13.584   2.277   6.820  1.00  0.00    -0.508 OA
ATOM     26  H   UNL     1     -13.207   1.477   7.314  1.00  0.00     0.293 HD
ENDBRANCH  11  25
ENDBRANCH   1   2
BRANCH   1  27
ATOM     27  C   UNL     1      -9.957  10.075   6.217  1.00  0.00     0.339 C 
ATOM     28  C   UNL     1      -8.610  10.440   5.561  1.00  0.00     0.214 C 
ATOM     29  O   UNL     1     -10.659  11.249   6.589  1.00  0.00    -0.332 OA
ATOM     30  C   UNL     1      -7.764  11.310   6.512  1.00  0.00     0.180 C 
ATOM     31  C   UNL     1      -9.985  11.925   7.638  1.00  0.00     0.179 C 
ATOM     32  C   UNL     1      -8.611  12.449   7.133  1.00  0.00     0.177 C 
BRANCH  28  33
ATOM     33  O   UNL     1      -8.835  11.151   4.368  1.00  0.00    -0.384 OA
ATOM     34  H   UNL     1      -8.653  10.526   3.619  1.00  0.00     0.211 HD
ENDBRANCH  28  33
BRANCH  30  35
ATOM     35  O   UNL     1      -7.130  10.524   7.494  1.00  0.00    -0.387 OA
ATOM     36  H   UNL     1      -6.622  11.126   8.096  1.00  0.00     0.211 HD
ENDBRANCH  30  35
BRANCH  31  37
ATOM     37  C   UNL     1     -10.886  13.073   8.111  1.00  0.00     0.191 C 
BRANCH  37  38
ATOM     38  O   UNL     1     -12.179  12.607   8.397  1.00  0.00    -0.394 OA
ATOM     39  H   UNL     1     -12.106  11.982   9.165  1.00  0.00     0.210 HD
ENDBRANCH  37  38
ENDBRANCH  31  37
BRANCH  32  40
ATOM     40  O   UNL     1      -7.888  13.110   8.144  1.00  0.00    -0.387 OA
ATOM     41  H   UNL     1      -7.162  13.627   7.709  1.00  0.00     0.211 HD
ENDBRANCH  32  40
ENDBRANCH   1  27
TORSDOF 12
ENDMDL
MODEL 5
REMARK VINA RESULT:    -6.046      2.660      6.203
REMARK INTER + INTRA:          -9.080
REMARK INTER:                  -7.961
REMARK INTRA:                  -1.119
REMARK UNBOUND:                -0.206
REMARK SMILES O=c1c(O[C@@H]2O[C@H](CO)[C@@H](O)[C@@H](O)[C@@H]2O)c(-c2ccc(O)c(O)c2)oc2cc(O)cc(O)c12
REMARK SMILES IDX 4 1 3 2 16 3 25 4 2 5 26 6 1 7 33 8 27 9 31 10 28 11 30 12
REMARK SMILES IDX 17 13 18 14 19 15 20 16 24 17 22 18 21 19 23 21 32 23 29 25
REMARK SMILES IDX 5 27 14 28 6 29 12 30 7 31 10 32 15 33 13 35 8 37 9 38 11 40
REMARK H PARENT 21 20 23 22 32 24 29 26 15 34 13 36 9 39 11 41
REMARK Flexibility Score: inf
ROOT
ATOM      1  O   UNL     1     -11.707  10.060   5.795  1.00  0.00    -0.454 OA
ENDROOT
BRANCH   1   2
ATOM      2  C   UNL     1     -11.443   8.691   5.656  1.00  0.00     0.214 A 
ATOM      3  C   UNL     1     -10.138   8.169   5.751  1.00  0.00     0.180 A 
ATOM      4  O   UNL     1      -9.954   6.855   5.717  1.00  0.00    -0.452 OA
ATOM      5  C   UNL     1     -12.512   7.813   5.442  1.00  0.00     0.239 A 
ATOM      6  C   UNL     1     -10.938   5.982   5.537  1.00  0.00     0.146 A 
ATOM      7  O   UNL     1     -13.675   8.291   5.393  1.00  0.00    -0.285 OA
ATOM      8  C   UNL     1     -12.274   6.421   5.342  1.00  0.00     0.111 A 
ATOM      9  C   UNL     1     -10.632   4.620   5.545  1.00  0.00     0.094 A 
ATOM     10  C   UNL     1     -13.285   5.441   5.103  1.00  0.00     0.134 A 
ATOM     11  C   UNL     1     -11.636   3.669   5.370  1.00  0.00     0.123 A 
ATOM     12  C   UNL     1     -12.952   4.081   5.153  1.00  0.00     0.093 A 
BRANCH   3  13
ATOM     13  C   UNL     1      -8.949   9.036   5.892  1.00  0.00     0.025 A 
ATOM     14  C   UNL     1      -8.085   9.263   4.807  1.00  0.00     0.016 A 
ATOM     15  C   UNL     1      -6.974  10.097   4.955  1.00  0.00     0.051 A 
ATOM     16  C   UNL     1      -6.704  10.701   6.190  1.00  0.00     0.157 A 
ATOM     17  C   UNL     1      -8.663   9.626   7.133  1.00  0.00     0.062 A 
ATOM     18  C   UNL     1      -7.550  10.464   7.281  1.00  0.00     0.158 A 
BRANCH  16  19
ATOM     19  O   UNL     1      -5.598  11.535   6.341  1.00  0.00    -0.504 OA
ATOM     20  H   UNL     1      -4.860  11.566   5.648  1.00  0.00     0.293 HD
ENDBRANCH  16  19
BRANCH  18  21
ATOM     21  O   UNL     1      -7.278  11.065   8.510  1.00  0.00    -0.504 OA
ATOM     22  H   UNL     1      -6.757  11.933   8.573  1.00  0.00     0.293 HD
ENDBRANCH  18  21
ENDBRANCH   3  13
BRANCH  10  23
ATOM     23  O   UNL     1     -14.612   5.747   4.793  1.00  0.00    -0.507 OA
ATOM     24  H   UNL     1     -15.413   5.461   5.336  1.00  0.00     0.293 HD
ENDBRANCH  10  23
BRANCH  11  25
ATOM     25  O   UNL     1     -11.313   2.314   5.402  1.00  0.00    -0.508 OA
ATOM     26  H   UNL     1     -11.219   1.812   6.277  1.00  0.00     0.293 HD
ENDBRANCH  11  25
ENDBRANCH   1   2
BRANCH   1  27
ATOM     27  C   UNL     1     -12.084  10.644   7.041  1.00  0.00     0.339 C 
ATOM     28  C   UNL     1     -11.371  12.003   7.195  1.00  0.00     0.214 C 
ATOM     29  O   UNL     1     -13.490  10.819   7.063  1.00  0.00    -0.332 OA
ATOM     30  C   UNL     1     -11.820  12.705   8.492  1.00  0.00     0.180 C 
ATOM     31  C   UNL     1     -13.923  11.245   8.344  1.00  0.00     0.179 C 
ATOM     32  C   UNL     1     -13.360  12.662   8.649  1.00  0.00     0.177 C 
BRANCH  28  33
ATOM     33  O   UNL     1     -11.675  12.830   6.098  1.00  0.00    -0.384 OA
ATOM     34  H   UNL     1     -12.405  12.386   5.593  1.00  0.00     0.211 HD
ENDBRANCH  28  33
BRANCH  30  35
ATOM     35  O   UNL     1     -11.157  12.174   9.615  1.00  0.00    -0.387 OA
ATOM     36  H   UNL     1     -10.850  11.258   9.392  1.00  0.00     0.211 HD
ENDBRANCH  30  35
BRANCH  31  37
ATOM     37  C   UNL     1     -15.458  11.237   8.347  1.00  0.00     0.191 C 
BRANCH  37  38
ATOM     38  O   UNL     1     -15.953  11.120   9.656  1.00  0.00    -0.394 OA
ATOM     39  H   UNL     1     -16.170  10.162   9.807  1.00  0.00     0.210 HD
ENDBRANCH  37  38
ENDBRANCH  31  37
BRANCH  32  40
ATOM     40  O   UNL     1     -13.742  13.125   9.922  1.00  0.00    -0.387 OA
ATOM     41  H   UNL     1     -14.688  13.419   9.867  1.00  0.00     0.211 HD
ENDBRANCH  32  40
ENDBRANCH   1  27
TORSDOF 12
ENDMDL
MODEL 6
REMARK VINA RESULT:    -5.065      2.178      6.073
REMARK INTER + INTRA:          -7.640
REMARK INTER:                  -6.245
REMARK INTRA:                  -1.395
REMARK UNBOUND:                -0.206
REMARK SMILES O=c1c(O[C@@H]2O[C@H](CO)[C@@H](O)[C@@H](O)[C@@H]2O)c(-c2ccc(O)c(O)c2)oc2cc(O)cc(O)c12
REMARK SMILES IDX 4 1 3 2 16 3 25 4 2 5 26 6 1 7 33 8 27 9 31 10 28 11 30 12
REMARK SMILES IDX 17 13 18 14 19 15 20 16 24 17 22 18 21 19 23 21 32 23 29 25
REMARK SMILES IDX 5 27 14 28 6 29 12 30 7 31 10 32 15 33 13 35 8 37 9 38 11 40
REMARK H PARENT 21 20 23 22 32 24 29 26 15 34 13 36 9 39 11 41
REMARK Flexibility Score: inf
ROOT
ATOM      1  O   UNL     1     -11.585   9.233   4.710  1.00  0.00    -0.454 OA
ENDROOT
BRANCH   1   2
ATOM      2  C   UNL     1     -11.328   7.989   5.301  1.00  0.00     0.214 A 
ATOM      3  C   UNL     1     -10.112   7.710   5.955  1.00  0.00     0.180 A 
ATOM      4  O   UNL     1      -9.958   6.555   6.589  1.00  0.00    -0.452 OA
ATOM      5  C   UNL     1     -12.320   7.003   5.262  1.00  0.00     0.239 A 
ATOM      6  C   UNL     1     -10.878   5.597   6.598  1.00  0.00     0.146 A 
ATOM      7  O   UNL     1     -13.413   7.278   4.703  1.00  0.00    -0.285 OA
ATOM      8  C   UNL     1     -12.099   5.753   5.890  1.00  0.00     0.111 A 
ATOM      9  C   UNL     1     -10.620   4.430   7.322  1.00  0.00     0.094 A 
ATOM     10  C   UNL     1     -13.031   4.671   5.894  1.00  0.00     0.134 A 
ATOM     11  C   UNL     1     -11.562   3.404   7.367  1.00  0.00     0.123 A 
ATOM     12  C   UNL     1     -12.759   3.529   6.658  1.00  0.00     0.093 A 
BRANCH   3  13
ATOM     13  C   UNL     1      -8.985   8.666   5.967  1.00  0.00     0.025 A 
ATOM     14  C   UNL     1      -8.220   8.901   4.811  1.00  0.00     0.016 A 
ATOM     15  C   UNL     1      -7.167   9.818   4.838  1.00  0.00     0.051 A 
ATOM     16  C   UNL     1      -6.856  10.502   6.021  1.00  0.00     0.157 A 
ATOM     17  C   UNL     1      -8.656   9.338   7.156  1.00  0.00     0.062 A 
ATOM     18  C   UNL     1      -7.601  10.260   7.182  1.00  0.00     0.158 A 
BRANCH  16  19
ATOM     19  O   UNL     1      -5.808  11.421   6.050  1.00  0.00    -0.504 OA
ATOM     20  H   UNL     1      -5.227  11.535   6.872  1.00  0.00     0.293 HD
ENDBRANCH  16  19
BRANCH  18  21
ATOM     21  O   UNL     1      -7.289  10.941   8.358  1.00  0.00    -0.504 OA
ATOM     22  H   UNL     1      -6.937  10.455   9.175  1.00  0.00     0.293 HD
ENDBRANCH  18  21
ENDBRANCH   3  13
BRANCH  10  23
ATOM     23  O   UNL     1     -14.216   4.658   5.154  1.00  0.00    -0.507 OA
ATOM     24  H   UNL     1     -14.581   3.858   4.661  1.00  0.00     0.293 HD
ENDBRANCH  10  23
BRANCH  11  25
ATOM     25  O   UNL     1     -11.295   2.257   8.110  1.00  0.00    -0.508 OA
ATOM     26  H   UNL     1     -11.348   1.333   7.699  1.00  0.00     0.293 HD
ENDBRANCH  11  25
ENDBRANCH   1   2
BRANCH   1  27
ATOM     27  C   UNL     1     -12.291  10.272   5.388  1.00  0.00     0.339 C 
ATOM     28  C   UNL     1     -13.397  10.814   4.462  1.00  0.00     0.214 C 
ATOM     29  O   UNL     1     -12.855   9.746   6.577  1.00  0.00    -0.332 OA
ATOM     30  C   UNL     1     -14.238  11.881   5.192  1.00  0.00     0.180 C 
ATOM     31  C   UNL     1     -13.427  10.781   7.361  1.00  0.00     0.179 C 
ATOM     32  C   UNL     1     -14.636  11.407   6.611  1.00  0.00     0.177 C 
BRANCH  28  33
ATOM     33  O   UNL     1     -14.241   9.763   4.058  1.00  0.00    -0.384 OA
ATOM     34  H   UNL     1     -14.080   9.617   3.089  1.00  0.00     0.211 HD
ENDBRANCH  28  33
BRANCH  30  35
ATOM     35  O   UNL     1     -13.577  13.124   5.213  1.00  0.00    -0.387 OA
ATOM     36  H   UNL     1     -14.147  13.773   5.700  1.00  0.00     0.211 HD
ENDBRANCH  30  35
BRANCH  31  37
ATOM     37  C   UNL     1     -13.851  10.171   8.705  1.00  0.00     0.191 C 
BRANCH  37  38
ATOM     38  O   UNL     1     -13.886  11.153   9.708  1.00  0.00    -0.394 OA
ATOM     39  H   UNL     1     -14.699  11.703   9.558  1.00  0.00     0.210 HD
ENDBRANCH  37  38
ENDBRANCH  31  37
BRANCH  32  40
ATOM     40  O   UNL     1     -15.228  12.458   7.338  1.00  0.00    -0.387 OA
ATOM     41  H   UNL     1     -14.671  12.621   8.142  1.00  0.00     0.211 HD
ENDBRANCH  32  40
ENDBRANCH   1  27
TORSDOF 12
ENDMDL
MODEL 7
REMARK VINA RESULT:    -4.941      1.872      6.389
REMARK INTER + INTRA:          -7.458
REMARK INTER:                  -9.051
REMARK INTRA:                   1.593
REMARK UNBOUND:                -0.206
REMARK SMILES O=c1c(O[C@@H]2O[C@H](CO)[C@@H](O)[C@@H](O)[C@@H]2O)c(-c2ccc(O)c(O)c2)oc2cc(O)cc(O)c12
REMARK SMILES IDX 4 1 3 2 16 3 25 4 2 5 26 6 1 7 33 8 27 9 31 10 28 11 30 12
REMARK SMILES IDX 17 13 18 14 19 15 20 16 24 17 22 18 21 19 23 21 32 23 29 25
REMARK SMILES IDX 5 27 14 28 6 29 12 30 7 31 10 32 15 33 13 35 8 37 9 38 11 40
REMARK H PARENT 21 20 23 22 32 24 29 26 15 34 13 36 9 39 11 41
REMARK Flexibility Score: inf
ROOT
ATOM      1  O   UNL     1      -9.178   8.646   5.303  1.00  0.00    -0.454 OA
ENDROOT
BRANCH   1   2
ATOM      2  C   UNL     1     -10.508   9.082   5.238  1.00  0.00     0.214 A 
ATOM      3  C   UNL     1     -11.586   8.243   5.581  1.00  0.00     0.180 A 
ATOM      4  O   UNL     1     -12.818   8.736   5.604  1.00  0.00    -0.452 OA
ATOM      5  C   UNL     1     -10.770  10.400   4.845  1.00  0.00     0.239 A 
ATOM      6  C   UNL     1     -13.114   9.985   5.260  1.00  0.00     0.146 A 
ATOM      7  O   UNL     1      -9.794  11.147   4.575  1.00  0.00    -0.285 OA
ATOM      8  C   UNL     1     -12.103  10.876   4.815  1.00  0.00     0.111 A 
ATOM      9  C   UNL     1     -14.443  10.404   5.348  1.00  0.00     0.094 A 
ATOM     10  C   UNL     1     -12.485  12.191   4.411  1.00  0.00     0.134 A 
ATOM     11  C   UNL     1     -14.797  11.709   5.008  1.00  0.00     0.123 A 
ATOM     12  C   UNL     1     -13.820  12.593   4.545  1.00  0.00     0.093 A 
BRANCH   3  13
ATOM     13  C   UNL     1     -11.400   6.818   5.923  1.00  0.00     0.025 A 
ATOM     14  C   UNL     1     -10.114   6.273   6.085  1.00  0.00     0.016 A 
ATOM     15  C   UNL     1      -9.958   4.927   6.423  1.00  0.00     0.051 A 
ATOM     16  C   UNL     1     -11.081   4.105   6.589  1.00  0.00     0.157 A 
ATOM     17  C   UNL     1     -12.521   5.986   6.069  1.00  0.00     0.062 A 
ATOM     18  C   UNL     1     -12.365   4.636   6.411  1.00  0.00     0.158 A 
BRANCH  16  19
ATOM     19  O   UNL     1     -10.928   2.762   6.929  1.00  0.00    -0.504 OA
ATOM     20  H   UNL     1     -11.613   2.279   7.497  1.00  0.00     0.293 HD
ENDBRANCH  16  19
BRANCH  18  21
ATOM     21  O   UNL     1     -13.480   3.815   6.574  1.00  0.00    -0.504 OA
ATOM     22  H   UNL     1     -14.108   3.923   7.363  1.00  0.00     0.293 HD
ENDBRANCH  18  21
ENDBRANCH   3  13
BRANCH  10  23
ATOM     23  O   UNL     1     -11.606  13.125   3.857  1.00  0.00    -0.507 OA
ATOM     24  H   UNL     1     -11.827  14.093   3.679  1.00  0.00     0.293 HD
ENDBRANCH  10  23
BRANCH  11  25
ATOM     25  O   UNL     1     -16.124  12.114   5.122  1.00  0.00    -0.508 OA
ATOM     26  H   UNL     1     -16.660  12.408   4.314  1.00  0.00     0.293 HD
ENDBRANCH  11  25
ENDBRANCH   1   2
BRANCH   1  27
ATOM     27  C   UNL     1      -8.197   9.296   6.109  1.00  0.00     0.339 C 
ATOM     28  C   UNL     1      -7.054   9.795   5.204  1.00  0.00     0.214 C 
ATOM     29  O   UNL     1      -8.803  10.385   6.785  1.00  0.00    -0.332 OA
ATOM     30  C   UNL     1      -6.013  10.579   6.029  1.00  0.00     0.180 C 
ATOM     31  C   UNL     1      -7.904  10.957   7.721  1.00  0.00     0.179 C 
ATOM     32  C   UNL     1      -6.699  11.597   6.974  1.00  0.00     0.177 C 
BRANCH  28  33
ATOM     33  O   UNL     1      -7.569  10.635   4.200  1.00  0.00    -0.384 OA
ATOM     34  H   UNL     1      -7.690  10.077   3.388  1.00  0.00     0.211 HD
ENDBRANCH  28  33
BRANCH  30  35
ATOM     35  O   UNL     1      -5.151   9.708   6.723  1.00  0.00    -0.387 OA
ATOM     36  H   UNL     1      -5.623   9.380   7.531  1.00  0.00     0.211 HD
ENDBRANCH  30  35
BRANCH  31  37
ATOM     37  C   UNL     1      -8.678  12.000   8.538  1.00  0.00     0.191 C 
BRANCH  37  38
ATOM     38  O   UNL     1      -8.224  12.031   9.866  1.00  0.00    -0.394 OA
ATOM     39  H   UNL     1      -7.371  11.523   9.900  1.00  0.00     0.210 HD
ENDBRANCH  37  38
ENDBRANCH  31  37
BRANCH  32  40
ATOM     40  O   UNL     1      -5.762  12.161   7.860  1.00  0.00    -0.387 OA
ATOM     41  H   UNL     1      -5.592  11.503   8.582  1.00  0.00     0.211 HD
ENDBRANCH  32  40
ENDBRANCH   1  27
TORSDOF 12
ENDMDL
