MODEL 1
REMARK VINA RESULT:    -3.634      0.000      0.000
REMARK INTER + INTRA:          -8.708
REMARK INTER:                  -7.033
REMARK INTRA:                  -1.675
REMARK UNBOUND:                -1.675
REMARK SMILES CCCCCCCCCCCCCCCCCC(=O)[O-]
REMARK SMILES IDX 10 1 11 2 12 3 13 4 14 5 15 6 16 7 17 8 18 9 19 10 20 11
REMARK SMILES IDX 9 12 8 13 7 14 6 15 5 16 4 17 3 18 2 19 1 20
REMARK H PARENT
REMARK Flexibility Score: inf
ROOT
ATOM      1  C   UNL     1      -5.921  -6.355  -5.633  1.00  0.00     0.000 C 
ENDROOT
BRANCH   1   2
ATOM      2  C   UNL     1      -7.270  -6.298  -4.894  1.00  0.00     0.000 C 
BRANCH   2   3
ATOM      3  C   UNL     1      -8.344  -7.197  -5.535  1.00  0.00     0.000 C 
BRANCH   3   4
ATOM      4  C   UNL     1      -9.799  -6.754  -5.298  1.00  0.00     0.000 C 
BRANCH   4   5
ATOM      5  C   UNL     1      -9.989  -5.234  -5.403  1.00  0.00     0.000 C 
BRANCH   5   6
ATOM      6  C   UNL     1     -11.116  -4.756  -4.476  1.00  0.00     0.000 C 
BRANCH   6   7
ATOM      7  C   UNL     1     -10.791  -3.422  -3.778  1.00  0.00     0.006 C 
BRANCH   7   8
ATOM      8  C   UNL     1     -10.485  -3.548  -2.277  1.00  0.00     0.053 C 
BRANCH   8   9
ATOM      9  C   UNL     1      -9.016  -3.682  -2.013  1.00  0.00     0.041 C 
ATOM     10  O   UNL     1      -8.500  -4.820  -1.865  1.00  0.00    -0.550 OA
ATOM     11  O   UNL     1      -8.225  -2.546  -1.897  1.00  0.00    -0.550 OA
ENDBRANCH   8   9
ENDBRANCH   7   8
ENDBRANCH   6   7
ENDBRANCH   5   6
ENDBRANCH   4   5
ENDBRANCH   3   4
ENDBRANCH   2   3
ENDBRANCH   1   2
BRANCH   1  12
ATOM     12  C   UNL     1      -5.910  -5.491  -6.905  1.00  0.00     0.000 C 
BRANCH  12  13
ATOM     13  C   UNL     1      -7.236  -5.562  -7.684  1.00  0.00    -0.000 C 
BRANCH  13  14
ATOM     14  C   UNL     1      -7.052  -5.314  -9.189  1.00  0.00    -0.000 C 
BRANCH  14  15
ATOM     15  C   UNL     1      -7.393  -6.553 -10.037  1.00  0.00    -0.000 C 
BRANCH  15  16
ATOM     16  C   UNL     1      -8.526  -7.392  -9.426  1.00  0.00    -0.000 C 
BRANCH  16  17
ATOM     17  C   UNL     1      -9.917  -6.978  -9.941  1.00  0.00    -0.000 C 
BRANCH  17  18
ATOM     18  C   UNL     1     -10.689  -6.119  -8.928  1.00  0.00    -0.000 C 
BRANCH  18  19
ATOM     19  C   UNL     1     -11.125  -4.767  -9.512  1.00  0.00    -0.003 C 
ATOM     20  C   UNL     1     -10.777  -3.622  -8.565  1.00  0.00     0.004 C 
ENDBRANCH  18  19
ENDBRANCH  17  18
ENDBRANCH  16  17
ENDBRANCH  15  16
ENDBRANCH  14  15
ENDBRANCH  13  14
ENDBRANCH  12  13
ENDBRANCH   1  12
TORSDOF 16
ENDMDL
MODEL 2
REMARK VINA RESULT:    -3.099      3.073      6.358
REMARK INTER + INTRA:          -7.672
REMARK INTER:                  -5.668
REMARK INTRA:                  -2.004
REMARK UNBOUND:                -1.675
REMARK SMILES CCCCCCCCCCCCCCCCCC(=O)[O-]
REMARK SMILES IDX 10 1 11 2 12 3 13 4 14 5 15 6 16 7 17 8 18 9 19 10 20 11
REMARK SMILES IDX 9 12 8 13 7 14 6 15 5 16 4 17 3 18 2 19 1 20
REMARK H PARENT
REMARK Flexibility Score: inf
ROOT
ATOM      1  C   UNL     1      -7.502  -6.646  -5.138  1.00  0.00     0.000 C 
ENDROOT
BRANCH   1   2
ATOM      2  C   UNL     1      -6.337  -6.239  -6.057  1.00  0.00     0.000 C 
BRANCH   2   3
ATOM      3  C   UNL     1      -6.734  -5.165  -7.088  1.00  0.00     0.000 C 
BRANCH   3   4
ATOM      4  C   UNL     1      -6.896  -5.670  -8.533  1.00  0.00     0.000 C 
BRANCH   4   5
ATOM      5  C   UNL     1      -7.765  -4.745  -9.399  1.00  0.00     0.000 C 
BRANCH   5   6
ATOM      6  C   UNL     1      -9.258  -5.002  -9.150  1.00  0.00     0.000 C 
BRANCH   6   7
ATOM      7  C   UNL     1      -9.858  -6.032 -10.125  1.00  0.00     0.006 C 
BRANCH   7   8
ATOM      8  C   UNL     1     -10.627  -7.177  -9.446  1.00  0.00     0.053 C 
BRANCH   8   9
ATOM      9  C   UNL     1      -9.911  -8.486  -9.571  1.00  0.00     0.041 C 
ATOM     10  O   UNL     1     -10.557  -9.544  -9.792  1.00  0.00    -0.550 OA
ATOM     11  O   UNL     1      -8.532  -8.543  -9.410  1.00  0.00    -0.550 OA
ENDBRANCH   8   9
ENDBRANCH   7   8
ENDBRANCH   6   7
ENDBRANCH   5   6
ENDBRANCH   4   5
ENDBRANCH   3   4
ENDBRANCH   2   3
ENDBRANCH   1   2
BRANCH   1  12
ATOM     12  C   UNL     1      -8.821  -6.833  -5.907  1.00  0.00     0.000 C 
BRANCH  12  13
ATOM     13  C   UNL     1     -10.044  -6.925  -4.976  1.00  0.00    -0.000 C 
BRANCH  13  14
ATOM     14  C   UNL     1     -11.125  -5.886  -5.314  1.00  0.00    -0.000 C 
BRANCH  14  15
ATOM     15  C   UNL     1     -10.544  -4.622  -5.971  1.00  0.00    -0.000 C 
BRANCH  15  16
ATOM     16  C   UNL     1     -10.618  -3.392  -5.052  1.00  0.00    -0.000 C 
BRANCH  16  17
ATOM     17  C   UNL     1     -10.600  -3.766  -3.558  1.00  0.00    -0.000 C 
BRANCH  17  18
ATOM     18  C   UNL     1      -9.175  -3.877  -2.995  1.00  0.00    -0.000 C 
BRANCH  18  19
ATOM     19  C   UNL     1      -9.155  -4.043  -1.469  1.00  0.00    -0.003 C 
ATOM     20  C   UNL     1     -10.553  -3.875  -0.880  1.00  0.00     0.004 C 
ENDBRANCH  18  19
ENDBRANCH  17  18
ENDBRANCH  16  17
ENDBRANCH  15  16
ENDBRANCH  14  15
ENDBRANCH  13  14
ENDBRANCH  12  13
ENDBRANCH   1  12
TORSDOF 16
ENDMDL
MODEL 3
REMARK VINA RESULT:    -2.936      2.117      6.437
REMARK INTER + INTRA:          -7.356
REMARK INTER:                  -6.063
REMARK INTRA:                  -1.293
REMARK UNBOUND:                -1.675
REMARK SMILES CCCCCCCCCCCCCCCCCC(=O)[O-]
REMARK SMILES IDX 10 1 11 2 12 3 13 4 14 5 15 6 16 7 17 8 18 9 19 10 20 11
REMARK SMILES IDX 9 12 8 13 7 14 6 15 5 16 4 17 3 18 2 19 1 20
REMARK H PARENT
REMARK Flexibility Score: inf
ROOT
ATOM      1  C   UNL     1     -10.795  -4.476  -7.240  1.00  0.00     0.000 C 
ENDROOT
BRANCH   1   2
ATOM      2  C   UNL     1     -11.111  -3.828  -8.600  1.00  0.00     0.000 C 
BRANCH   2   3
ATOM      3  C   UNL     1     -10.014  -4.076  -9.652  1.00  0.00     0.000 C 
BRANCH   3   4
ATOM      4  C   UNL     1      -9.875  -5.535 -10.125  1.00  0.00     0.000 C 
BRANCH   4   5
ATOM      5  C   UNL     1      -8.472  -6.113  -9.885  1.00  0.00     0.000 C 
BRANCH   5   6
ATOM      6  C   UNL     1      -7.607  -5.137  -9.074  1.00  0.00     0.000 C 
BRANCH   6   7
ATOM      7  C   UNL     1      -7.405  -5.588  -7.615  1.00  0.00     0.006 C 
BRANCH   7   8
ATOM      8  C   UNL     1      -5.956  -5.482  -7.113  1.00  0.00     0.053 C 
BRANCH   8   9
ATOM      9  C   UNL     1      -5.718  -6.331  -5.902  1.00  0.00     0.041 C 
ATOM     10  O   UNL     1      -4.680  -6.170  -5.209  1.00  0.00    -0.550 OA
ATOM     11  O   UNL     1      -6.627  -7.324  -5.560  1.00  0.00    -0.550 OA
ENDBRANCH   8   9
ENDBRANCH   7   8
ENDBRANCH   6   7
ENDBRANCH   5   6
ENDBRANCH   4   5
ENDBRANCH   3   4
ENDBRANCH   2   3
ENDBRANCH   1   2
BRANCH   1  12
ATOM     12  C   UNL     1     -11.091  -5.985  -7.224  1.00  0.00     0.000 C 
BRANCH  12  13
ATOM     13  C   UNL     1     -10.987  -6.596  -5.815  1.00  0.00    -0.000 C 
BRANCH  13  14
ATOM     14  C   UNL     1     -11.074  -5.538  -4.703  1.00  0.00    -0.000 C 
BRANCH  14  15
ATOM     15  C   UNL     1      -9.731  -5.328  -3.982  1.00  0.00    -0.000 C 
BRANCH  15  16
ATOM     16  C   UNL     1      -9.495  -3.861  -3.590  1.00  0.00    -0.000 C 
BRANCH  16  17
ATOM     17  C   UNL     1      -8.843  -3.714  -2.203  1.00  0.00    -0.000 C 
BRANCH  17  18
ATOM     18  C   UNL     1      -9.628  -2.768  -1.280  1.00  0.00    -0.000 C 
BRANCH  18  19
ATOM     19  C   UNL     1     -10.962  -3.370  -0.817  1.00  0.00    -0.003 C 
ATOM     20  C   UNL     1     -10.784  -4.185   0.461  1.00  0.00     0.004 C 
ENDBRANCH  18  19
ENDBRANCH  17  18
ENDBRANCH  16  17
ENDBRANCH  15  16
ENDBRANCH  14  15
ENDBRANCH  13  14
ENDBRANCH  12  13
ENDBRANCH   1  12
TORSDOF 16
ENDMDL
MODEL 4
REMARK VINA RESULT:    -2.889      2.503      6.088
REMARK INTER + INTRA:          -7.267
REMARK INTER:                  -5.538
REMARK INTRA:                  -1.729
REMARK UNBOUND:                -1.675
REMARK SMILES CCCCCCCCCCCCCCCCCC(=O)[O-]
REMARK SMILES IDX 10 1 11 2 12 3 13 4 14 5 15 6 16 7 17 8 18 9 19 10 20 11
REMARK SMILES IDX 9 12 8 13 7 14 6 15 5 16 4 17 3 18 2 19 1 20
REMARK H PARENT
REMARK Flexibility Score: inf
ROOT
ATOM      1  C   UNL     1      -6.686  -5.999  -6.062  1.00  0.00     0.000 C 
ENDROOT
BRANCH   1   2
ATOM      2  C   UNL     1      -7.518  -5.444  -7.232  1.00  0.00     0.000 C 
BRANCH   2   3
ATOM      3  C   UNL     1      -6.817  -5.602  -8.594  1.00  0.00     0.000 C 
BRANCH   3   4
ATOM      4  C   UNL     1      -7.656  -6.286  -9.690  1.00  0.00     0.000 C 
BRANCH   4   5
ATOM      5  C   UNL     1      -8.649  -7.317  -9.131  1.00  0.00     0.000 C 
BRANCH   5   6
ATOM      6  C   UNL     1      -9.794  -7.570 -10.122  1.00  0.00     0.000 C 
BRANCH   6   7
ATOM      7  C   UNL     1     -11.019  -6.673  -9.862  1.00  0.00     0.006 C 
BRANCH   7   8
ATOM      8  C   UNL     1     -10.968  -5.897  -8.536  1.00  0.00     0.053 C 
BRANCH   8   9
ATOM      9  C   UNL     1     -10.821  -4.423  -8.753  1.00  0.00     0.041 C 
ATOM     10  O   UNL     1     -10.920  -3.940  -9.911  1.00  0.00    -0.550 OA
ATOM     11  O   UNL     1     -10.542  -3.587  -7.680  1.00  0.00    -0.550 OA
ENDBRANCH   8   9
ENDBRANCH   7   8
ENDBRANCH   6   7
ENDBRANCH   5   6
ENDBRANCH   4   5
ENDBRANCH   3   4
ENDBRANCH   2   3
ENDBRANCH   1   2
BRANCH   1  12
ATOM     12  C   UNL     1      -7.521  -6.865  -5.105  1.00  0.00     0.000 C 
BRANCH  12  13
ATOM     13  C   UNL     1      -8.842  -7.344  -5.736  1.00  0.00    -0.000 C 
BRANCH  13  14
ATOM     14  C   UNL     1     -10.069  -6.986  -4.884  1.00  0.00    -0.000 C 
BRANCH  14  15
ATOM     15  C   UNL     1     -10.457  -5.501  -5.001  1.00  0.00    -0.000 C 
BRANCH  15  16
ATOM     16  C   UNL     1     -11.125  -4.964  -3.725  1.00  0.00    -0.000 C 
BRANCH  16  17
ATOM     17  C   UNL     1     -11.123  -3.426  -3.656  1.00  0.00    -0.000 C 
BRANCH  17  18
ATOM     18  C   UNL     1     -10.725  -2.897  -2.269  1.00  0.00    -0.000 C 
BRANCH  18  19
ATOM     19  C   UNL     1     -10.307  -4.020  -1.309  1.00  0.00    -0.003 C 
ATOM     20  C   UNL     1     -10.685  -3.682   0.130  1.00  0.00     0.004 C 
ENDBRANCH  18  19
ENDBRANCH  17  18
ENDBRANCH  16  17
ENDBRANCH  15  16
ENDBRANCH  14  15
ENDBRANCH  13  14
ENDBRANCH  12  13
ENDBRANCH   1  12
TORSDOF 16
ENDMDL
MODEL 5
REMARK VINA RESULT:    -2.841      2.109      6.436
REMARK INTER + INTRA:          -7.173
REMARK INTER:                  -5.878
REMARK INTRA:                  -1.296
REMARK UNBOUND:                -1.675
REMARK SMILES CCCCCCCCCCCCCCCCCC(=O)[O-]
REMARK SMILES IDX 10 1 11 2 12 3 13 4 14 5 15 6 16 7 17 8 18 9 19 10 20 11
REMARK SMILES IDX 9 12 8 13 7 14 6 15 5 16 4 17 3 18 2 19 1 20
REMARK H PARENT
REMARK Flexibility Score: inf
ROOT
ATOM      1  C   UNL     1     -10.084  -6.753  -6.318  1.00  0.00     0.000 C 
ENDROOT
BRANCH   1   2
ATOM      2  C   UNL     1     -10.723  -6.943  -7.705  1.00  0.00     0.000 C 
BRANCH   2   3
ATOM      3  C   UNL     1     -10.903  -5.618  -8.469  1.00  0.00     0.000 C 
BRANCH   3   4
ATOM      4  C   UNL     1      -9.614  -4.804  -8.688  1.00  0.00     0.000 C 
BRANCH   4   5
ATOM      5  C   UNL     1      -8.684  -5.423  -9.742  1.00  0.00     0.000 C 
BRANCH   5   6
ATOM      6  C   UNL     1      -7.257  -5.574  -9.194  1.00  0.00     0.000 C 
BRANCH   6   7
ATOM      7  C   UNL     1      -7.220  -5.768  -7.667  1.00  0.00     0.006 C 
BRANCH   7   8
ATOM      8  C   UNL     1      -5.973  -5.186  -6.982  1.00  0.00     0.053 C 
BRANCH   8   9
ATOM      9  C   UNL     1      -5.414  -6.117  -5.950  1.00  0.00     0.041 C 
ATOM     10  O   UNL     1      -6.145  -6.999  -5.429  1.00  0.00    -0.550 OA
ATOM     11  O   UNL     1      -4.093  -5.987  -5.540  1.00  0.00    -0.550 OA
ENDBRANCH   8   9
ENDBRANCH   7   8
ENDBRANCH   6   7
ENDBRANCH   5   6
ENDBRANCH   4   5
ENDBRANCH   3   4
ENDBRANCH   2   3
ENDBRANCH   1   2
BRANCH   1  12
ATOM     12  C   UNL     1     -11.124  -6.753  -5.186  1.00  0.00     0.000 C 
BRANCH  12  13
ATOM     13  C   UNL     1     -11.013  -5.515  -4.277  1.00  0.00    -0.000 C 
BRANCH  13  14
ATOM     14  C   UNL     1     -10.451  -4.288  -5.012  1.00  0.00    -0.000 C 
BRANCH  14  15
ATOM     15  C   UNL     1     -11.025  -2.965  -4.475  1.00  0.00    -0.000 C 
BRANCH  15  16
ATOM     16  C   UNL     1     -10.723  -2.754  -2.984  1.00  0.00    -0.000 C 
BRANCH  16  17
ATOM     17  C   UNL     1      -9.403  -3.415  -2.545  1.00  0.00    -0.000 C 
BRANCH  17  18
ATOM     18  C   UNL     1      -9.368  -3.721  -1.040  1.00  0.00    -0.000 C 
BRANCH  18  19
ATOM     19  C   UNL     1     -10.688  -4.317  -0.529  1.00  0.00    -0.003 C 
ATOM     20  C   UNL     1     -10.973  -3.872   0.902  1.00  0.00     0.004 C 
ENDBRANCH  18  19
ENDBRANCH  17  18
ENDBRANCH  16  17
ENDBRANCH  15  16
ENDBRANCH  14  15
ENDBRANCH  13  14
ENDBRANCH  12  13
ENDBRANCH   1  12
TORSDOF 16
ENDMDL
MODEL 6
REMARK VINA RESULT:    -2.719      2.129      4.724
REMARK INTER + INTRA:          -6.938
REMARK INTER:                  -5.815
REMARK INTRA:                  -1.122
REMARK UNBOUND:                -1.675
REMARK SMILES CCCCCCCCCCCCCCCCCC(=O)[O-]
REMARK SMILES IDX 10 1 11 2 12 3 13 4 14 5 15 6 16 7 17 8 18 9 19 10 20 11
REMARK SMILES IDX 9 12 8 13 7 14 6 15 5 16 4 17 3 18 2 19 1 20
REMARK H PARENT
REMARK Flexibility Score: inf
ROOT
ATOM      1  C   UNL     1      -8.566  -7.462  -7.228  1.00  0.00     0.000 C 
ENDROOT
BRANCH   1   2
ATOM      2  C   UNL     1      -9.869  -6.755  -7.638  1.00  0.00     0.000 C 
BRANCH   2   3
ATOM      3  C   UNL     1      -9.777  -5.221  -7.538  1.00  0.00     0.000 C 
BRANCH   3   4
ATOM      4  C   UNL     1     -11.062  -4.513  -7.071  1.00  0.00     0.000 C 
BRANCH   4   5
ATOM      5  C   UNL     1     -10.923  -3.870  -5.683  1.00  0.00     0.000 C 
BRANCH   5   6
ATOM      6  C   UNL     1     -10.160  -4.795  -4.723  1.00  0.00     0.000 C 
BRANCH   6   7
ATOM      7  C   UNL     1     -10.829  -4.905  -3.340  1.00  0.00     0.006 C 
BRANCH   7   8
ATOM      8  C   UNL     1     -10.594  -3.695  -2.422  1.00  0.00     0.053 C 
BRANCH   8   9
ATOM      9  C   UNL     1      -9.222  -3.703  -1.823  1.00  0.00     0.041 C 
ATOM     10  O   UNL     1      -8.761  -4.755  -1.308  1.00  0.00    -0.550 OA
ATOM     11  O   UNL     1      -8.465  -2.538  -1.803  1.00  0.00    -0.550 OA
ENDBRANCH   8   9
ENDBRANCH   7   8
ENDBRANCH   6   7
ENDBRANCH   5   6
ENDBRANCH   4   5
ENDBRANCH   3   4
ENDBRANCH   2   3
ENDBRANCH   1   2
BRANCH   1  12
ATOM     12  C   UNL     1      -8.334  -7.435  -5.708  1.00  0.00     0.000 C 
BRANCH  12  13
ATOM     13  C   UNL     1      -6.927  -6.939  -5.330  1.00  0.00    -0.000 C 
BRANCH  13  14
ATOM     14  C   UNL     1      -6.607  -5.557  -5.920  1.00  0.00    -0.000 C 
BRANCH  14  15
ATOM     15  C   UNL     1      -5.183  -5.478  -6.500  1.00  0.00    -0.000 C 
BRANCH  15  16
ATOM     16  C   UNL     1      -4.107  -5.875  -5.477  1.00  0.00    -0.000 C 
BRANCH  16  17
ATOM     17  C   UNL     1      -2.689  -5.469  -5.918  1.00  0.00    -0.000 C 
BRANCH  17  18
ATOM     18  C   UNL     1      -2.277  -4.089  -5.381  1.00  0.00    -0.000 C 
BRANCH  18  19
ATOM     19  C   UNL     1      -3.440  -3.087  -5.376  1.00  0.00    -0.003 C 
ATOM     20  C   UNL     1      -2.978  -1.708  -5.838  1.00  0.00     0.004 C 
ENDBRANCH  18  19
ENDBRANCH  17  18
ENDBRANCH  16  17
ENDBRANCH  15  16
ENDBRANCH  14  15
ENDBRANCH  13  14
ENDBRANCH  12  13
ENDBRANCH   1  12
TORSDOF 16
ENDMDL
MODEL 7
REMARK VINA RESULT:    -2.584      2.517      5.689
REMARK INTER + INTRA:          -6.675
REMARK INTER:                  -5.192
REMARK INTRA:                  -1.483
REMARK UNBOUND:                -1.675
REMARK SMILES CCCCCCCCCCCCCCCCCC(=O)[O-]
REMARK SMILES IDX 10 1 11 2 12 3 13 4 14 5 15 6 16 7 17 8 18 9 19 10 20 11
REMARK SMILES IDX 9 12 8 13 7 14 6 15 5 16 4 17 3 18 2 19 1 20
REMARK H PARENT
REMARK Flexibility Score: inf
ROOT
ATOM      1  C   UNL     1      -8.243  -5.692  -7.902  1.00  0.00     0.000 C 
ENDROOT
BRANCH   1   2
ATOM      2  C   UNL     1      -8.825  -7.039  -7.440  1.00  0.00     0.000 C 
BRANCH   2   3
ATOM      3  C   UNL     1      -8.494  -7.364  -5.972  1.00  0.00     0.000 C 
BRANCH   3   4
ATOM      4  C   UNL     1      -8.060  -6.162  -5.114  1.00  0.00     0.000 C 
BRANCH   4   5
ATOM      5  C   UNL     1      -6.620  -6.282  -4.595  1.00  0.00     0.000 C 
BRANCH   5   6
ATOM      6  C   UNL     1      -5.651  -6.620  -5.738  1.00  0.00     0.000 C 
BRANCH   6   7
ATOM      7  C   UNL     1      -4.337  -5.821  -5.663  1.00  0.00     0.006 C 
BRANCH   7   8
ATOM      8  C   UNL     1      -4.493  -4.315  -5.930  1.00  0.00     0.053 C 
BRANCH   8   9
ATOM      9  C   UNL     1      -3.285  -3.540  -5.501  1.00  0.00     0.041 C 
ATOM     10  O   UNL     1      -3.337  -2.286  -5.405  1.00  0.00    -0.550 OA
ATOM     11  O   UNL     1      -2.092  -4.202  -5.241  1.00  0.00    -0.550 OA
ENDBRANCH   8   9
ENDBRANCH   7   8
ENDBRANCH   6   7
ENDBRANCH   5   6
ENDBRANCH   4   5
ENDBRANCH   3   4
ENDBRANCH   2   3
ENDBRANCH   1   2
BRANCH   1  12
ATOM     12  C   UNL     1      -9.014  -5.094  -9.090  1.00  0.00     0.000 C 
BRANCH  12  13
ATOM     13  C   UNL     1     -10.510  -4.894  -8.788  1.00  0.00    -0.000 C 
BRANCH  13  14
ATOM     14  C   UNL     1     -10.758  -3.854  -7.684  1.00  0.00    -0.000 C 
BRANCH  14  15
ATOM     15  C   UNL     1     -11.013  -4.501  -6.311  1.00  0.00    -0.000 C 
BRANCH  15  16
ATOM     16  C   UNL     1     -10.999  -3.476  -5.165  1.00  0.00    -0.000 C 
BRANCH  16  17
ATOM     17  C   UNL     1     -10.509  -4.078  -3.836  1.00  0.00    -0.000 C 
BRANCH  17  18
ATOM     18  C   UNL     1     -10.714  -3.127  -2.646  1.00  0.00    -0.000 C 
BRANCH  18  19
ATOM     19  C   UNL     1     -10.079  -3.656  -1.352  1.00  0.00    -0.003 C 
ATOM     20  C   UNL     1      -8.695  -4.241  -1.619  1.00  0.00     0.004 C 
ENDBRANCH  18  19
ENDBRANCH  17  18
ENDBRANCH  16  17
ENDBRANCH  15  16
ENDBRANCH  14  15
ENDBRANCH  13  14
ENDBRANCH  12  13
ENDBRANCH   1  12
TORSDOF 16
ENDMDL
MODEL 8
REMARK VINA RESULT:    -2.549      2.402      6.033
REMARK INTER + INTRA:          -6.608
REMARK INTER:                  -4.925
REMARK INTRA:                  -1.683
REMARK UNBOUND:                -1.675
REMARK SMILES CCCCCCCCCCCCCCCCCC(=O)[O-]
REMARK SMILES IDX 10 1 11 2 12 3 13 4 14 5 15 6 16 7 17 8 18 9 19 10 20 11
REMARK SMILES IDX 9 12 8 13 7 14 6 15 5 16 4 17 3 18 2 19 1 20
REMARK H PARENT
REMARK Flexibility Score: inf
ROOT
ATOM      1  C   UNL     1      -9.307  -4.407  -9.517  1.00  0.00     0.000 C 
ENDROOT
BRANCH   1   2
ATOM      2  C   UNL     1      -9.496  -5.932  -9.433  1.00  0.00     0.000 C 
BRANCH   2   3
ATOM      3  C   UNL     1      -8.381  -6.631  -8.634  1.00  0.00     0.000 C 
BRANCH   3   4
ATOM      4  C   UNL     1      -6.963  -6.070  -8.853  1.00  0.00     0.000 C 
BRANCH   4   5
ATOM      5  C   UNL     1      -6.477  -5.194  -7.690  1.00  0.00     0.000 C 
BRANCH   5   6
ATOM      6  C   UNL     1      -6.656  -5.916  -6.346  1.00  0.00     0.000 C 
BRANCH   6   7
ATOM      7  C   UNL     1      -5.348  -6.005  -5.536  1.00  0.00     0.006 C 
BRANCH   7   8
ATOM      8  C   UNL     1      -4.087  -5.616  -6.323  1.00  0.00     0.053 C 
BRANCH   8   9
ATOM      9  C   UNL     1      -3.271  -4.586  -5.603  1.00  0.00     0.041 C 
ATOM     10  O   UNL     1      -2.115  -4.866  -5.193  1.00  0.00    -0.550 OA
ATOM     11  O   UNL     1      -3.804  -3.327  -5.357  1.00  0.00    -0.550 OA
ENDBRANCH   8   9
ENDBRANCH   7   8
ENDBRANCH   6   7
ENDBRANCH   5   6
ENDBRANCH   4   5
ENDBRANCH   3   4
ENDBRANCH   2   3
ENDBRANCH   1   2
BRANCH   1  12
ATOM     12  C   UNL     1     -10.499  -3.633  -8.930  1.00  0.00     0.000 C 
BRANCH  12  13
ATOM     13  C   UNL     1     -11.125  -4.340  -7.714  1.00  0.00    -0.000 C 
BRANCH  13  14
ATOM     14  C   UNL     1     -10.405  -4.005  -6.398  1.00  0.00    -0.000 C 
BRANCH  14  15
ATOM     15  C   UNL     1     -10.193  -5.244  -5.510  1.00  0.00    -0.000 C 
BRANCH  15  16
ATOM     16  C   UNL     1     -10.956  -5.152  -4.179  1.00  0.00    -0.000 C 
BRANCH  16  17
ATOM     17  C   UNL     1     -10.709  -3.822  -3.443  1.00  0.00    -0.000 C 
BRANCH  17  18
ATOM     18  C   UNL     1      -9.336  -3.777  -2.753  1.00  0.00    -0.000 C 
BRANCH  18  19
ATOM     19  C   UNL     1      -9.415  -4.126  -1.260  1.00  0.00    -0.003 C 
ATOM     20  C   UNL     1     -10.729  -3.643  -0.652  1.00  0.00     0.004 C 
ENDBRANCH  18  19
ENDBRANCH  17  18
ENDBRANCH  16  17
ENDBRANCH  15  16
ENDBRANCH  14  15
ENDBRANCH  13  14
ENDBRANCH  12  13
ENDBRANCH   1  12
TORSDOF 16
ENDMDL
MODEL 9
REMARK VINA RESULT:    -1.576      1.483      3.463
REMARK INTER + INTRA:          -4.726
REMARK INTER:                  -3.177
REMARK INTRA:                  -1.549
REMARK UNBOUND:                -1.675
REMARK SMILES CCCCCCCCCCCCCCCCCC(=O)[O-]
REMARK SMILES IDX 10 1 11 2 12 3 13 4 14 5 15 6 16 7 17 8 18 9 19 10 20 11
REMARK SMILES IDX 9 12 8 13 7 14 6 15 5 16 4 17 3 18 2 19 1 20
REMARK H PARENT
REMARK Flexibility Score: inf
ROOT
ATOM      1  C   UNL     1      -9.629  -6.817  -5.620  1.00  0.00     0.000 C 
ENDROOT
BRANCH   1   2
ATOM      2  C   UNL     1     -10.964  -6.767  -4.856  1.00  0.00     0.000 C 
BRANCH   2   3
ATOM      3  C   UNL     1     -11.125  -5.488  -4.014  1.00  0.00     0.000 C 
BRANCH   3   4
ATOM      4  C   UNL     1     -10.553  -4.206  -4.647  1.00  0.00     0.000 C 
BRANCH   4   5
ATOM      5  C   UNL     1     -10.628  -2.989  -3.714  1.00  0.00     0.000 C 
BRANCH   5   6
ATOM      6  C   UNL     1     -11.025  -3.411  -2.292  1.00  0.00     0.000 C 
BRANCH   6   7
ATOM      7  C   UNL     1      -9.809  -3.727  -1.401  1.00  0.00     0.006 C 
BRANCH   7   8
ATOM      8  C   UNL     1      -8.462  -3.258  -1.974  1.00  0.00     0.053 C 
BRANCH   8   9
ATOM      9  C   UNL     1      -8.129  -1.859  -1.554  1.00  0.00     0.041 C 
ATOM     10  O   UNL     1      -8.854  -1.259  -0.718  1.00  0.00    -0.550 OA
ATOM     11  O   UNL     1      -7.038  -1.207  -2.113  1.00  0.00    -0.550 OA
ENDBRANCH   8   9
ENDBRANCH   7   8
ENDBRANCH   6   7
ENDBRANCH   5   6
ENDBRANCH   4   5
ENDBRANCH   3   4
ENDBRANCH   2   3
ENDBRANCH   1   2
BRANCH   1  12
ATOM     12  C   UNL     1      -9.823  -7.012  -7.133  1.00  0.00     0.000 C 
BRANCH  12  13
ATOM     13  C   UNL     1     -11.116  -6.359  -7.655  1.00  0.00    -0.000 C 
BRANCH  13  14
ATOM     14  C   UNL     1     -10.879  -4.953  -8.229  1.00  0.00    -0.000 C 
BRANCH  14  15
ATOM     15  C   UNL     1     -10.200  -4.985  -9.609  1.00  0.00    -0.000 C 
BRANCH  15  16
ATOM     16  C   UNL     1      -8.845  -4.260  -9.616  1.00  0.00    -0.000 C 
BRANCH  16  17
ATOM     17  C   UNL     1      -7.674  -5.193  -9.979  1.00  0.00    -0.000 C 
BRANCH  17  18
ATOM     18  C   UNL     1      -7.173  -6.006  -8.775  1.00  0.00    -0.000 C 
BRANCH  18  19
ATOM     19  C   UNL     1      -6.646  -5.115  -7.641  1.00  0.00    -0.003 C 
ATOM     20  C   UNL     1      -6.286  -5.946  -6.412  1.00  0.00     0.004 C 
ENDBRANCH  18  19
ENDBRANCH  17  18
ENDBRANCH  16  17
ENDBRANCH  15  16
ENDBRANCH  14  15
ENDBRANCH  13  14
ENDBRANCH  12  13
ENDBRANCH   1  12
TORSDOF 16
ENDMDL
