MODEL 1
REMARK VINA RESULT:    -3.343      0.000      0.000
REMARK INTER + INTRA:          -5.858
REMARK INTER:                  -5.297
REMARK INTRA:                  -0.561
REMARK UNBOUND:                -0.561
REMARK SMILES CCCCCCCCCCCC(=O)[O-]
REMARK SMILES IDX 7 1 8 2 9 3 10 4 11 5 12 6 13 7 14 8 6 9 5 10 4 11 3 12 2 13
REMARK SMILES IDX 1 14
REMARK H PARENT
REMARK Flexibility Score: inf
ROOT
ATOM      1  C   UNL     1      -8.087  22.079  17.985  1.00  0.00     0.000 C 
ENDROOT
BRANCH   1   2
ATOM      2  C   UNL     1      -8.846  23.239  18.644  1.00  0.00     0.000 C 
BRANCH   2   3
ATOM      3  C   UNL     1      -8.482  23.419  20.127  1.00  0.00     0.000 C 
BRANCH   3   4
ATOM      4  C   UNL     1      -7.680  22.235  20.688  1.00  0.00     0.006 C 
BRANCH   4   5
ATOM      5  C   UNL     1      -8.472  21.503  21.776  1.00  0.00     0.053 C 
BRANCH   5   6
ATOM      6  C   UNL     1      -7.878  21.765  23.123  1.00  0.00     0.041 C 
ATOM      7  O   UNL     1      -7.192  20.879  23.697  1.00  0.00    -0.550 OA
ATOM      8  O   UNL     1      -8.043  23.006  23.725  1.00  0.00    -0.550 OA
ENDBRANCH   5   6
ENDBRANCH   4   5
ENDBRANCH   3   4
ENDBRANCH   2   3
ENDBRANCH   1   2
BRANCH   1   9
ATOM      9  C   UNL     1      -9.054  21.144  17.239  1.00  0.00     0.000 C 
BRANCH   9  10
ATOM     10  C   UNL     1      -8.358  19.895  16.678  1.00  0.00    -0.000 C 
BRANCH  10  11
ATOM     11  C   UNL     1      -8.099  19.992  15.164  1.00  0.00    -0.000 C 
BRANCH  11  12
ATOM     12  C   UNL     1      -7.309  21.254  14.779  1.00  0.00    -0.000 C 
BRANCH  12  13
ATOM     13  C   UNL     1      -5.884  20.937  14.304  1.00  0.00    -0.003 C 
ATOM     14  C   UNL     1      -4.962  20.653  15.487  1.00  0.00     0.004 C 
ENDBRANCH  12  13
ENDBRANCH  11  12
ENDBRANCH  10  11
ENDBRANCH   9  10
ENDBRANCH   1   9
TORSDOF 10
ENDMDL
MODEL 2
REMARK VINA RESULT:    -3.214      1.959      2.777
REMARK INTER + INTRA:          -5.654
REMARK INTER:                  -4.936
REMARK INTRA:                  -0.718
REMARK UNBOUND:                -0.561
REMARK SMILES CCCCCCCCCCCC(=O)[O-]
REMARK SMILES IDX 7 1 8 2 9 3 10 4 11 5 12 6 13 7 14 8 6 9 5 10 4 11 3 12 2 13
REMARK SMILES IDX 1 14
REMARK H PARENT
REMARK Flexibility Score: inf
ROOT
ATOM      1  C   UNL     1      -6.419  20.502  20.054  1.00  0.00     0.000 C 
ENDROOT
BRANCH   1   2
ATOM      2  C   UNL     1      -7.780  19.875  20.392  1.00  0.00     0.000 C 
BRANCH   2   3
ATOM      3  C   UNL     1      -8.182  20.088  21.860  1.00  0.00     0.000 C 
BRANCH   3   4
ATOM      4  C   UNL     1      -7.855  21.501  22.366  1.00  0.00     0.006 C 
BRANCH   4   5
ATOM      5  C   UNL     1      -8.847  22.526  21.809  1.00  0.00     0.053 C 
BRANCH   5   6
ATOM      6  C   UNL     1      -8.185  23.397  20.789  1.00  0.00     0.041 C 
ATOM      7  O   UNL     1      -7.263  24.184  21.130  1.00  0.00    -0.550 OA
ATOM      8  O   UNL     1      -8.553  23.305  19.453  1.00  0.00    -0.550 OA
ENDBRANCH   5   6
ENDBRANCH   4   5
ENDBRANCH   3   4
ENDBRANCH   2   3
ENDBRANCH   1   2
BRANCH   1   9
ATOM      9  C   UNL     1      -6.113  20.372  18.553  1.00  0.00     0.000 C 
BRANCH   9  10
ATOM     10  C   UNL     1      -7.325  19.894  17.738  1.00  0.00    -0.000 C 
BRANCH  10  11
ATOM     11  C   UNL     1      -7.859  20.975  16.782  1.00  0.00    -0.000 C 
BRANCH  11  12
ATOM     12  C   UNL     1      -7.821  20.532  15.310  1.00  0.00    -0.000 C 
BRANCH  12  13
ATOM     13  C   UNL     1      -6.847  21.367  14.466  1.00  0.00    -0.003 C 
ATOM     14  C   UNL     1      -5.400  20.974  14.752  1.00  0.00     0.004 C 
ENDBRANCH  12  13
ENDBRANCH  11  12
ENDBRANCH  10  11
ENDBRANCH   9  10
ENDBRANCH   1   9
TORSDOF 10
ENDMDL
MODEL 3
REMARK VINA RESULT:    -3.089      3.496      6.136
REMARK INTER + INTRA:          -5.457
REMARK INTER:                  -4.459
REMARK INTRA:                  -0.998
REMARK UNBOUND:                -0.561
REMARK SMILES CCCCCCCCCCCC(=O)[O-]
REMARK SMILES IDX 7 1 8 2 9 3 10 4 11 5 12 6 13 7 14 8 6 9 5 10 4 11 3 12 2 13
REMARK SMILES IDX 1 14
REMARK H PARENT
REMARK Flexibility Score: inf
ROOT
ATOM      1  C   UNL     1      -7.500  21.929  16.489  1.00  0.00     0.000 C 
ENDROOT
BRANCH   1   2
ATOM      2  C   UNL     1      -7.151  21.705  15.010  1.00  0.00     0.000 C 
BRANCH   2   3
ATOM      3  C   UNL     1      -6.152  20.556  14.804  1.00  0.00     0.000 C 
BRANCH   3   4
ATOM      4  C   UNL     1      -4.724  20.928  15.231  1.00  0.00     0.006 C 
BRANCH   4   5
ATOM      5  C   UNL     1      -4.217  19.990  16.330  1.00  0.00     0.053 C 
BRANCH   5   6
ATOM      6  C   UNL     1      -2.807  20.326  16.698  1.00  0.00     0.041 C 
ATOM      7  O   UNL     1      -2.305  19.875  17.761  1.00  0.00    -0.550 OA
ATOM      8  O   UNL     1      -2.031  21.098  15.843  1.00  0.00    -0.550 OA
ENDBRANCH   5   6
ENDBRANCH   4   5
ENDBRANCH   3   4
ENDBRANCH   2   3
ENDBRANCH   1   2
BRANCH   1   9
ATOM      9  C   UNL     1      -8.488  20.862  16.987  1.00  0.00     0.000 C 
BRANCH   9  10
ATOM     10  C   UNL     1      -7.850  19.878  17.980  1.00  0.00    -0.000 C 
BRANCH  10  11
ATOM     11  C   UNL     1      -6.787  20.544  18.872  1.00  0.00    -0.000 C 
BRANCH  11  12
ATOM     12  C   UNL     1      -7.347  20.968  20.240  1.00  0.00    -0.000 C 
BRANCH  12  13
ATOM     13  C   UNL     1      -7.546  22.486  20.354  1.00  0.00    -0.003 C 
ATOM     14  C   UNL     1      -8.629  22.821  21.377  1.00  0.00     0.004 C 
ENDBRANCH  12  13
ENDBRANCH  11  12
ENDBRANCH  10  11
ENDBRANCH   9  10
ENDBRANCH   1   9
TORSDOF 10
ENDMDL
MODEL 4
REMARK VINA RESULT:    -3.043      3.101      5.759
REMARK INTER + INTRA:          -5.384
REMARK INTER:                  -4.581
REMARK INTRA:                  -0.803
REMARK UNBOUND:                -0.561
REMARK SMILES CCCCCCCCCCCC(=O)[O-]
REMARK SMILES IDX 7 1 8 2 9 3 10 4 11 5 12 6 13 7 14 8 6 9 5 10 4 11 3 12 2 13
REMARK SMILES IDX 1 14
REMARK H PARENT
REMARK Flexibility Score: inf
ROOT
ATOM      1  C   UNL     1      -8.959  21.275  17.346  1.00  0.00     0.000 C 
ENDROOT
BRANCH   1   2
ATOM      2  C   UNL     1      -8.298  20.768  16.056  1.00  0.00     0.000 C 
BRANCH   2   3
ATOM      3  C   UNL     1      -7.035  21.563  15.685  1.00  0.00     0.000 C 
BRANCH   3   4
ATOM      4  C   UNL     1      -5.782  20.679  15.603  1.00  0.00     0.006 C 
BRANCH   4   5
ATOM      5  C   UNL     1      -5.462  20.052  16.963  1.00  0.00     0.053 C 
BRANCH   5   6
ATOM      6  C   UNL     1      -3.984  19.914  17.144  1.00  0.00     0.041 C 
ATOM      7  O   UNL     1      -3.224  19.875  16.140  1.00  0.00    -0.550 OA
ATOM      8  O   UNL     1      -3.440  19.877  18.421  1.00  0.00    -0.550 OA
ENDBRANCH   5   6
ENDBRANCH   4   5
ENDBRANCH   3   4
ENDBRANCH   2   3
ENDBRANCH   1   2
BRANCH   1   9
ATOM      9  C   UNL     1      -8.465  22.688  17.697  1.00  0.00     0.000 C 
BRANCH   9  10
ATOM     10  C   UNL     1      -9.088  23.231  18.992  1.00  0.00    -0.000 C 
BRANCH  10  11
ATOM     11  C   UNL     1      -8.222  22.942  20.232  1.00  0.00    -0.000 C 
BRANCH  11  12
ATOM     12  C   UNL     1      -7.178  21.843  19.979  1.00  0.00    -0.000 C 
BRANCH  12  13
ATOM     13  C   UNL     1      -7.319  20.659  20.947  1.00  0.00    -0.003 C 
ATOM     14  C   UNL     1      -8.687  19.995  20.805  1.00  0.00     0.004 C 
ENDBRANCH  12  13
ENDBRANCH  11  12
ENDBRANCH  10  11
ENDBRANCH   9  10
ENDBRANCH   1   9
TORSDOF 10
ENDMDL
MODEL 5
REMARK VINA RESULT:    -3.019      4.168      6.453
REMARK INTER + INTRA:          -5.346
REMARK INTER:                  -4.837
REMARK INTRA:                  -0.509
REMARK UNBOUND:                -0.561
REMARK SMILES CCCCCCCCCCCC(=O)[O-]
REMARK SMILES IDX 7 1 8 2 9 3 10 4 11 5 12 6 13 7 14 8 6 9 5 10 4 11 3 12 2 13
REMARK SMILES IDX 1 14
REMARK H PARENT
REMARK Flexibility Score: inf
ROOT
ATOM      1  C   UNL     1      -4.776  19.974  16.654  1.00  0.00     0.000 C 
ENDROOT
BRANCH   1   2
ATOM      2  C   UNL     1      -4.702  20.845  15.391  1.00  0.00     0.000 C 
BRANCH   2   3
ATOM      3  C   UNL     1      -6.075  21.050  14.731  1.00  0.00     0.000 C 
BRANCH   3   4
ATOM      4  C   UNL     1      -7.186  20.233  15.406  1.00  0.00     0.006 C 
BRANCH   4   5
ATOM      5  C   UNL     1      -8.385  21.119  15.756  1.00  0.00     0.053 C 
BRANCH   5   6
ATOM      6  C   UNL     1      -8.284  21.607  17.166  1.00  0.00     0.041 C 
ATOM      7  O   UNL     1      -8.392  22.835  17.421  1.00  0.00    -0.550 OA
ATOM      8  O   UNL     1      -8.119  20.700  18.205  1.00  0.00    -0.550 OA
ENDBRANCH   5   6
ENDBRANCH   4   5
ENDBRANCH   3   4
ENDBRANCH   2   3
ENDBRANCH   1   2
BRANCH   1   9
ATOM      9  C   UNL     1      -3.406  19.891  17.344  1.00  0.00     0.000 C 
BRANCH   9  10
ATOM     10  C   UNL     1      -2.236  19.918  16.347  1.00  0.00    -0.000 C 
BRANCH  10  11
ATOM     11  C   UNL     1      -0.864  19.875  17.044  1.00  0.00    -0.000 C 
BRANCH  11  12
ATOM     12  C   UNL     1       0.226  20.612  16.249  1.00  0.00    -0.000 C 
BRANCH  12  13
ATOM     13  C   UNL     1       1.573  19.875  16.269  1.00  0.00    -0.003 C 
ATOM     14  C   UNL     1       2.709  20.822  16.650  1.00  0.00     0.004 C 
ENDBRANCH  12  13
ENDBRANCH  11  12
ENDBRANCH  10  11
ENDBRANCH   9  10
ENDBRANCH   1   9
TORSDOF 10
ENDMDL
MODEL 6
REMARK VINA RESULT:    -2.993      2.106      3.507
REMARK INTER + INTRA:          -5.304
REMARK INTER:                  -4.496
REMARK INTRA:                  -0.808
REMARK UNBOUND:                -0.561
REMARK SMILES CCCCCCCCCCCC(=O)[O-]
REMARK SMILES IDX 7 1 8 2 9 3 10 4 11 5 12 6 13 7 14 8 6 9 5 10 4 11 3 12 2 13
REMARK SMILES IDX 1 14
REMARK H PARENT
REMARK Flexibility Score: inf
ROOT
ATOM      1  C   UNL     1      -7.366  21.175  15.194  1.00  0.00     0.000 C 
ENDROOT
BRANCH   1   2
ATOM      2  C   UNL     1      -8.181  21.573  16.433  1.00  0.00     0.000 C 
BRANCH   2   3
ATOM      3  C   UNL     1      -8.387  20.402  17.408  1.00  0.00     0.000 C 
BRANCH   3   4
ATOM      4  C   UNL     1      -8.601  20.867  18.856  1.00  0.00     0.006 C 
BRANCH   4   5
ATOM      5  C   UNL     1      -7.372  21.615  19.380  1.00  0.00     0.053 C 
BRANCH   5   6
ATOM      6  C   UNL     1      -7.728  22.436  20.578  1.00  0.00     0.041 C 
ATOM      7  O   UNL     1      -8.103  21.875  21.642  1.00  0.00    -0.550 OA
ATOM      8  O   UNL     1      -7.600  23.818  20.537  1.00  0.00    -0.550 OA
ENDBRANCH   5   6
ENDBRANCH   4   5
ENDBRANCH   3   4
ENDBRANCH   2   3
ENDBRANCH   1   2
BRANCH   1   9
ATOM      9  C   UNL     1      -5.897  21.601  15.344  1.00  0.00     0.000 C 
BRANCH   9  10
ATOM     10  C   UNL     1      -4.948  20.407  15.528  1.00  0.00    -0.000 C 
BRANCH  10  11
ATOM     11  C   UNL     1      -4.873  19.930  16.989  1.00  0.00    -0.000 C 
BRANCH  11  12
ATOM     12  C   UNL     1      -3.453  20.028  17.570  1.00  0.00    -0.000 C 
BRANCH  12  13
ATOM     13  C   UNL     1      -2.376  20.166  16.483  1.00  0.00    -0.003 C 
ATOM     14  C   UNL     1      -0.983  19.928  17.059  1.00  0.00     0.004 C 
ENDBRANCH  12  13
ENDBRANCH  11  12
ENDBRANCH  10  11
ENDBRANCH   9  10
ENDBRANCH   1   9
TORSDOF 10
ENDMDL
MODEL 7
REMARK VINA RESULT:    -2.940      3.613      6.771
REMARK INTER + INTRA:          -5.221
REMARK INTER:                  -4.473
REMARK INTRA:                  -0.747
REMARK UNBOUND:                -0.561
REMARK SMILES CCCCCCCCCCCC(=O)[O-]
REMARK SMILES IDX 7 1 8 2 9 3 10 4 11 5 12 6 13 7 14 8 6 9 5 10 4 11 3 12 2 13
REMARK SMILES IDX 1 14
REMARK H PARENT
REMARK Flexibility Score: inf
ROOT
ATOM      1  C   UNL     1      -8.202  21.082  19.545  1.00  0.00     0.000 C 
ENDROOT
BRANCH   1   2
ATOM      2  C   UNL     1      -8.621  20.394  18.238  1.00  0.00     0.000 C 
BRANCH   2   3
ATOM      3  C   UNL     1      -8.727  21.375  17.059  1.00  0.00     0.000 C 
BRANCH   3   4
ATOM      4  C   UNL     1      -7.733  21.058  15.932  1.00  0.00     0.006 C 
BRANCH   4   5
ATOM      5  C   UNL     1      -6.415  20.523  16.498  1.00  0.00     0.053 C 
BRANCH   5   6
ATOM      6  C   UNL     1      -5.328  20.615  15.474  1.00  0.00     0.041 C 
ATOM      7  O   UNL     1      -4.140  20.336  15.783  1.00  0.00    -0.550 OA
ATOM      8  O   UNL     1      -5.636  20.962  14.164  1.00  0.00    -0.550 OA
ENDBRANCH   5   6
ENDBRANCH   4   5
ENDBRANCH   3   4
ENDBRANCH   2   3
ENDBRANCH   1   2
BRANCH   1   9
ATOM      9  C   UNL     1      -8.163  22.609  19.373  1.00  0.00     0.000 C 
BRANCH   9  10
ATOM     10  C   UNL     1      -8.065  23.356  20.712  1.00  0.00    -0.000 C 
BRANCH  10  11
ATOM     11  C   UNL     1      -8.814  22.635  21.848  1.00  0.00    -0.000 C 
BRANCH  11  12
ATOM     12  C   UNL     1      -8.042  22.666  23.177  1.00  0.00    -0.000 C 
BRANCH  12  13
ATOM     13  C   UNL     1      -8.006  21.298  23.873  1.00  0.00    -0.003 C 
ATOM     14  C   UNL     1      -7.298  20.260  23.004  1.00  0.00     0.004 C 
ENDBRANCH  12  13
ENDBRANCH  11  12
ENDBRANCH  10  11
ENDBRANCH   9  10
ENDBRANCH   1   9
TORSDOF 10
ENDMDL
MODEL 8
REMARK VINA RESULT:    -2.753      4.912      7.246
REMARK INTER + INTRA:          -4.924
REMARK INTER:                  -4.612
REMARK INTRA:                  -0.312
REMARK UNBOUND:                -0.561
REMARK SMILES CCCCCCCCCCCC(=O)[O-]
REMARK SMILES IDX 7 1 8 2 9 3 10 4 11 5 12 6 13 7 14 8 6 9 5 10 4 11 3 12 2 13
REMARK SMILES IDX 1 14
REMARK H PARENT
REMARK Flexibility Score: inf
ROOT
ATOM      1  C   UNL     1      -2.912  20.648  15.910  1.00  0.00     0.000 C 
ENDROOT
BRANCH   1   2
ATOM      2  C   UNL     1      -4.384  20.257  16.104  1.00  0.00     0.000 C 
BRANCH   2   3
ATOM      3  C   UNL     1      -5.256  20.607  14.888  1.00  0.00     0.000 C 
BRANCH   3   4
ATOM      4  C   UNL     1      -6.229  21.761  15.169  1.00  0.00     0.006 C 
BRANCH   4   5
ATOM      5  C   UNL     1      -7.666  21.247  15.304  1.00  0.00     0.053 C 
BRANCH   5   6
ATOM      6  C   UNL     1      -8.114  21.310  16.729  1.00  0.00     0.041 C 
ATOM      7  O   UNL     1      -8.132  20.267  17.435  1.00  0.00    -0.550 OA
ATOM      8  O   UNL     1      -8.466  22.529  17.294  1.00  0.00    -0.550 OA
ENDBRANCH   5   6
ENDBRANCH   4   5
ENDBRANCH   3   4
ENDBRANCH   2   3
ENDBRANCH   1   2
BRANCH   1   9
ATOM      9  C   UNL     1      -2.156  20.623  17.248  1.00  0.00     0.000 C 
BRANCH   9  10
ATOM     10  C   UNL     1      -0.816  19.878  17.160  1.00  0.00    -0.000 C 
BRANCH  10  11
ATOM     11  C   UNL     1       0.242  20.655  16.356  1.00  0.00    -0.000 C 
BRANCH  11  12
ATOM     12  C   UNL     1       1.607  19.949  16.339  1.00  0.00    -0.000 C 
BRANCH  12  13
ATOM     13  C   UNL     1       2.768  20.896  16.679  1.00  0.00    -0.003 C 
ATOM     14  C   UNL     1       4.059  20.446  16.000  1.00  0.00     0.004 C 
ENDBRANCH  12  13
ENDBRANCH  11  12
ENDBRANCH  10  11
ENDBRANCH   9  10
ENDBRANCH   1   9
TORSDOF 10
ENDMDL
MODEL 9
REMARK VINA RESULT:    -2.642      7.516      9.902
REMARK INTER + INTRA:          -4.747
REMARK INTER:                  -4.462
REMARK INTRA:                  -0.286
REMARK UNBOUND:                -0.561
REMARK SMILES CCCCCCCCCCCC(=O)[O-]
REMARK SMILES IDX 7 1 8 2 9 3 10 4 11 5 12 6 13 7 14 8 6 9 5 10 4 11 3 12 2 13
REMARK SMILES IDX 1 14
REMARK H PARENT
REMARK Flexibility Score: inf
ROOT
ATOM      1  C   UNL     1      -1.162  20.523  16.313  1.00  0.00     0.000 C 
ENDROOT
BRANCH   1   2
ATOM      2  C   UNL     1       0.213  20.129  16.871  1.00  0.00     0.000 C 
BRANCH   2   3
ATOM      3  C   UNL     1       1.369  20.860  16.169  1.00  0.00     0.000 C 
BRANCH   3   4
ATOM      4  C   UNL     1       2.721  20.637  16.863  1.00  0.00     0.006 C 
BRANCH   4   5
ATOM      5  C   UNL     1       3.770  20.127  15.871  1.00  0.00     0.053 C 
BRANCH   5   6
ATOM      6  C   UNL     1       5.129  20.632  16.238  1.00  0.00     0.041 C 
ATOM      7  O   UNL     1       5.254  21.721  16.859  1.00  0.00    -0.550 OA
ATOM      8  O   UNL     1       6.256  19.878  15.936  1.00  0.00    -0.550 OA
ENDBRANCH   5   6
ENDBRANCH   4   5
ENDBRANCH   3   4
ENDBRANCH   2   3
ENDBRANCH   1   2
BRANCH   1   9
ATOM      9  C   UNL     1      -2.291  19.875  17.130  1.00  0.00     0.000 C 
BRANCH   9  10
ATOM     10  C   UNL     1      -3.645  19.908  16.404  1.00  0.00    -0.000 C 
BRANCH  10  11
ATOM     11  C   UNL     1      -4.838  19.897  17.376  1.00  0.00    -0.000 C 
BRANCH  11  12
ATOM     12  C   UNL     1      -6.171  20.211  16.677  1.00  0.00    -0.000 C 
BRANCH  12  13
ATOM     13  C   UNL     1      -5.988  20.625  15.210  1.00  0.00    -0.003 C 
ATOM     14  C   UNL     1      -7.188  21.428  14.713  1.00  0.00     0.004 C 
ENDBRANCH  12  13
ENDBRANCH  11  12
ENDBRANCH  10  11
ENDBRANCH   9  10
ENDBRANCH   1   9
TORSDOF 10
ENDMDL
