MODEL 1
REMARK VINA RESULT:    85.341      0.000      0.000
REMARK INTER + INTRA:          90.330
REMARK INTER:                  90.330
REMARK INTRA:                   0.000
REMARK UNBOUND:                 0.000
REMARK SMILES CC1(C)[C@@H](O)CC[C@@]2(C)[C@H]1CC[C@]1(C)[C@H]2C=CC2=C(O)C(=O)C(=O)[C@@]21C
REMARK SMILES IDX 1 1 2 2 10 3 11 4 12 5 13 6 15 7 8 8 7 9 6 10 4 11 9 12
REMARK SMILES IDX 16 13 17 14 18 15 19 16 21 17 22 18 23 19 24 20 25 21 26 22
REMARK SMILES IDX 14 23 3 24 5 25 20 27
REMARK H PARENT 5 26 20 28
REMARK Flexibility Score: inf
ROOT
ATOM      1  C   UNL     1      18.095  10.284  18.064  1.00  0.00     0.014 C 
ATOM      2  C   UNL     1      19.093  10.290  19.253  1.00  0.00    -0.006 C 
ATOM      3  C   UNL     1      18.438  10.773  20.619  1.00  0.00     0.004 C 
ATOM      4  C   UNL     1      17.227   9.921  21.074  1.00  0.00     0.005 C 
ATOM      5  C   UNL     1      16.844  10.220  22.525  1.00  0.00     0.009 C 
ATOM      6  C   UNL     1      16.527  11.720  22.824  1.00  0.00    -0.009 C 
ATOM      7  C   UNL     1      17.700  12.655  22.247  1.00  0.00     0.025 C 
ATOM      8  C   UNL     1      18.140  12.316  20.737  1.00  0.00    -0.022 C 
ATOM      9  C   UNL     1      19.448  13.083  20.337  1.00  0.00     0.010 C 
ATOM     10  C   UNL     1      20.018  12.682  18.969  1.00  0.00     0.033 C 
ATOM     11  C   UNL     1      20.333  11.183  18.923  1.00  0.00     0.120 C 
ATOM     12  C   UNL     1      17.006  12.804  19.768  1.00  0.00     0.012 C 
ATOM     13  C   UNL     1      18.899  12.779  23.209  1.00  0.00    -0.022 C 
ATOM     14  C   UNL     1      18.932  12.305  24.455  1.00  0.00     0.005 C 
ATOM     15  C   UNL     1      17.749  11.679  25.021  1.00  0.00     0.012 C 
ATOM     16  C   UNL     1      17.739  10.753  25.985  1.00  0.00     0.171 C 
ATOM     17  C   UNL     1      16.408  10.214  26.114  1.00  0.00     0.264 C 
ATOM     18  O   UNL     1      16.042   9.319  26.920  1.00  0.00    -0.282 OA
ATOM     19  C   UNL     1      15.578  10.872  25.129  1.00  0.00     0.217 C 
ATOM     20  O   UNL     1      14.347  10.656  24.978  1.00  0.00    -0.289 OA
ATOM     21  C   UNL     1      16.397  11.915  24.397  1.00  0.00     0.069 C 
ATOM     22  C   UNL     1      15.897  13.318  24.814  1.00  0.00     0.026 C 
ATOM     23  C   UNL     1      15.154  12.082  22.182  1.00  0.00     0.013 C 
ATOM     24  C   UNL     1      19.615   8.834  19.414  1.00  0.00     0.014 C 
ENDROOT
BRANCH  11  25
ATOM     25  O   UNL     1      20.849  10.879  17.648  1.00  0.00    -0.393 OA
ATOM     26  H   UNL     1      20.859   9.891  17.555  1.00  0.00     0.210 HD
ENDBRANCH  11  25
BRANCH  16  27
ATOM     27  O   UNL     1      18.841  10.313  26.716  1.00  0.00    -0.504 OA
ATOM     28  H   UNL     1      19.792  10.493  26.419  1.00  0.00     0.293 HD
ENDBRANCH  16  27
TORSDOF 2
ENDMDL
MODEL 2
REMARK VINA RESULT:    88.073      2.945      6.334
REMARK INTER + INTRA:          93.222
REMARK INTER:                  93.222
REMARK INTRA:                   0.000
REMARK UNBOUND:                 0.000
REMARK SMILES CC1(C)[C@@H](O)CC[C@@]2(C)[C@H]1CC[C@]1(C)[C@H]2C=CC2=C(O)C(=O)C(=O)[C@@]21C
REMARK SMILES IDX 1 1 2 2 10 3 11 4 12 5 13 6 15 7 8 8 7 9 6 10 4 11 9 12
REMARK SMILES IDX 16 13 17 14 18 15 19 16 21 17 22 18 23 19 24 20 25 21 26 22
REMARK SMILES IDX 14 23 3 24 5 25 20 27
REMARK H PARENT 5 26 20 28
REMARK Flexibility Score: inf
ROOT
ATOM      1  C   UNL     1      19.738  15.740  21.844  1.00  0.00     0.014 C 
ATOM      2  C   UNL     1      19.957  14.393  22.582  1.00  0.00    -0.006 C 
ATOM      3  C   UNL     1      19.719  13.123  21.654  1.00  0.00     0.004 C 
ATOM      4  C   UNL     1      20.624  13.082  20.399  1.00  0.00     0.005 C 
ATOM      5  C   UNL     1      20.586  11.709  19.724  1.00  0.00     0.009 C 
ATOM      6  C   UNL     1      19.161  11.218  19.315  1.00  0.00    -0.009 C 
ATOM      7  C   UNL     1      18.151  11.370  20.556  1.00  0.00     0.025 C 
ATOM      8  C   UNL     1      18.219  12.796  21.299  1.00  0.00    -0.022 C 
ATOM      9  C   UNL     1      17.407  12.781  22.640  1.00  0.00     0.010 C 
ATOM     10  C   UNL     1      17.562  14.054  23.484  1.00  0.00     0.033 C 
ATOM     11  C   UNL     1      19.032  14.301  23.840  1.00  0.00     0.120 C 
ATOM     12  C   UNL     1      17.552  13.872  20.371  1.00  0.00     0.012 C 
ATOM     13  C   UNL     1      18.215  10.180  21.534  1.00  0.00    -0.022 C 
ATOM     14  C   UNL     1      18.905   9.057  21.328  1.00  0.00     0.005 C 
ATOM     15  C   UNL     1      19.608   8.863  20.071  1.00  0.00     0.012 C 
ATOM     16  C   UNL     1      20.691   8.101  19.892  1.00  0.00     0.171 C 
ATOM     17  C   UNL     1      21.230   8.342  18.575  1.00  0.00     0.264 C 
ATOM     18  O   UNL     1      22.251   7.799  18.078  1.00  0.00    -0.282 OA
ATOM     19  C   UNL     1      20.397   9.341  17.944  1.00  0.00     0.217 C 
ATOM     20  O   UNL     1      20.569   9.774  16.774  1.00  0.00    -0.289 OA
ATOM     21  C   UNL     1      19.249   9.695  18.867  1.00  0.00     0.069 C 
ATOM     22  C   UNL     1      17.938   9.145  18.257  1.00  0.00     0.026 C 
ATOM     23  C   UNL     1      18.674  12.050  18.090  1.00  0.00     0.013 C 
ATOM     24  C   UNL     1      21.423  14.390  23.098  1.00  0.00     0.014 C 
ENDROOT
BRANCH  11  25
ATOM     25  O   UNL     1      19.108  15.479  24.609  1.00  0.00    -0.393 OA
ATOM     26  H   UNL     1      19.734  15.307  25.361  1.00  0.00     0.210 HD
ENDBRANCH  11  25
BRANCH  16  27
ATOM     27  O   UNL     1      21.268   7.252  20.834  1.00  0.00    -0.504 OA
ATOM     28  H   UNL     1      21.320   7.493  21.816  1.00  0.00     0.293 HD
ENDBRANCH  16  27
TORSDOF 2
ENDMDL
MODEL 3
REMARK VINA RESULT:    88.176      1.636      6.535
REMARK INTER + INTRA:          93.331
REMARK INTER:                  93.331
REMARK INTRA:                   0.000
REMARK UNBOUND:                 0.000
REMARK SMILES CC1(C)[C@@H](O)CC[C@@]2(C)[C@H]1CC[C@]1(C)[C@H]2C=CC2=C(O)C(=O)C(=O)[C@@]21C
REMARK SMILES IDX 1 1 2 2 10 3 11 4 12 5 13 6 15 7 8 8 7 9 6 10 4 11 9 12
REMARK SMILES IDX 16 13 17 14 18 15 19 16 21 17 22 18 23 19 24 20 25 21 26 22
REMARK SMILES IDX 14 23 3 24 5 25 20 27
REMARK H PARENT 5 26 20 28
REMARK Flexibility Score: inf
ROOT
ATOM      1  C   UNL     1      16.925  11.180  27.773  1.00  0.00     0.014 C 
ATOM      2  C   UNL     1      16.976  10.085  26.674  1.00  0.00    -0.006 C 
ATOM      3  C   UNL     1      17.042  10.679  25.200  1.00  0.00     0.004 C 
ATOM      4  C   UNL     1      18.257  11.605  24.947  1.00  0.00     0.005 C 
ATOM      5  C   UNL     1      18.448  11.885  23.455  1.00  0.00     0.009 C 
ATOM      6  C   UNL     1      17.206  12.502  22.738  1.00  0.00    -0.009 C 
ATOM      7  C   UNL     1      15.890  11.646  23.084  1.00  0.00     0.025 C 
ATOM      8  C   UNL     1      15.707  11.309  24.646  1.00  0.00    -0.022 C 
ATOM      9  C   UNL     1      14.560  10.264  24.875  1.00  0.00     0.010 C 
ATOM     10  C   UNL     1      14.438   9.771  26.325  1.00  0.00     0.033 C 
ATOM     11  C   UNL     1      15.746   9.127  26.797  1.00  0.00     0.120 C 
ATOM     12  C   UNL     1      15.286  12.624  25.392  1.00  0.00     0.012 C 
ATOM     13  C   UNL     1      15.722  10.408  22.179  1.00  0.00    -0.022 C 
ATOM     14  C   UNL     1      16.477  10.131  21.116  1.00  0.00     0.005 C 
ATOM     15  C   UNL     1      17.503  11.069  20.694  1.00  0.00     0.012 C 
ATOM     16  C   UNL     1      18.618  10.760  20.025  1.00  0.00     0.171 C 
ATOM     17  C   UNL     1      19.488  11.910  19.992  1.00  0.00     0.264 C 
ATOM     18  O   UNL     1      20.623  11.969  19.450  1.00  0.00    -0.282 OA
ATOM     19  C   UNL     1      18.829  12.971  20.719  1.00  0.00     0.217 C 
ATOM     20  O   UNL     1      19.300  14.129  20.870  1.00  0.00    -0.289 OA
ATOM     21  C   UNL     1      17.461  12.499  21.168  1.00  0.00     0.069 C 
ATOM     22  C   UNL     1      16.385  13.259  20.358  1.00  0.00     0.026 C 
ATOM     23  C   UNL     1      17.046  13.984  23.194  1.00  0.00     0.013 C 
ATOM     24  C   UNL     1      18.245   9.229  26.945  1.00  0.00     0.014 C 
ENDROOT
BRANCH  11  25
ATOM     25  O   UNL     1      15.571   8.699  28.128  1.00  0.00    -0.393 OA
ATOM     26  H   UNL     1      15.681   7.712  28.143  1.00  0.00     0.210 HD
ENDBRANCH  11  25
BRANCH  16  27
ATOM     27  O   UNL     1      18.941   9.513  19.493  1.00  0.00    -0.504 OA
ATOM     28  H   UNL     1      18.266   8.952  18.988  1.00  0.00     0.293 HD
ENDBRANCH  16  27
TORSDOF 2
ENDMDL
