MODEL 1
REMARK VINA RESULT:    -2.852      0.000      0.000
REMARK INTER + INTRA:          -3.653
REMARK INTER:                  -3.518
REMARK INTRA:                  -0.135
REMARK UNBOUND:                -0.135
REMARK SMILES CCCCCC=O
REMARK SMILES IDX 4 1 3 2 2 3 1 4 5 5 6 6 7 7
REMARK H PARENT
REMARK Flexibility Score: inf
ROOT
ATOM      1  C   UNL     1     -13.772  83.236 -11.096  1.00  0.00     0.008 C 
ENDROOT
BRANCH   1   2
ATOM      2  C   UNL     1     -12.983  82.122 -10.391  1.00  0.00     0.000 C 
BRANCH   2   3
ATOM      3  C   UNL     1     -12.394  81.102 -11.377  1.00  0.00    -0.003 C 
ATOM      4  C   UNL     1     -13.049  81.225 -12.750  1.00  0.00     0.004 C 
ENDBRANCH   2   3
ENDBRANCH   1   2
BRANCH   1   5
ATOM      5  C   UNL     1     -13.603  84.602 -10.415  1.00  0.00     0.072 C 
BRANCH   5   6
ATOM      6  C   UNL     1     -12.535  84.544  -9.364  1.00  0.00     0.224 C 
ATOM      7  O   UNL     1     -11.584  85.308  -9.406  1.00  0.00    -0.303 OA
ENDBRANCH   5   6
ENDBRANCH   1   5
TORSDOF 4
ENDMDL
MODEL 2
REMARK VINA RESULT:    -2.620      2.156      3.963
REMARK INTER + INTRA:          -3.367
REMARK INTER:                  -3.269
REMARK INTRA:                  -0.098
REMARK UNBOUND:                -0.135
REMARK SMILES CCCCCC=O
REMARK SMILES IDX 4 1 3 2 2 3 1 4 5 5 6 6 7 7
REMARK H PARENT
REMARK Flexibility Score: inf
ROOT
ATOM      1  C   UNL     1     -13.384  82.590  -9.628  1.00  0.00     0.008 C 
ENDROOT
BRANCH   1   2
ATOM      2  C   UNL     1     -13.741  83.586 -10.742  1.00  0.00     0.000 C 
BRANCH   2   3
ATOM      3  C   UNL     1     -13.347  85.029 -10.391  1.00  0.00    -0.003 C 
ATOM      4  C   UNL     1     -14.461  85.730  -9.619  1.00  0.00     0.004 C 
ENDBRANCH   2   3
ENDBRANCH   1   2
BRANCH   1   5
ATOM      5  C   UNL     1     -12.761  81.296 -10.169  1.00  0.00     0.072 C 
BRANCH   5   6
ATOM      6  C   UNL     1     -12.738  81.303 -11.669  1.00  0.00     0.224 C 
ATOM      7  O   UNL     1     -11.745  80.930 -12.274  1.00  0.00    -0.303 OA
ENDBRANCH   5   6
ENDBRANCH   1   5
TORSDOF 4
ENDMDL
MODEL 3
REMARK VINA RESULT:    -2.614      2.585      2.888
REMARK INTER + INTRA:          -3.360
REMARK INTER:                  -3.224
REMARK INTRA:                  -0.136
REMARK UNBOUND:                -0.135
REMARK SMILES CCCCCC=O
REMARK SMILES IDX 4 1 3 2 2 3 1 4 5 5 6 6 7 7
REMARK H PARENT
REMARK Flexibility Score: inf
ROOT
ATOM      1  C   UNL     1     -13.096  82.533 -10.397  1.00  0.00     0.008 C 
ENDROOT
BRANCH   1   2
ATOM      2  C   UNL     1     -12.388  81.205 -10.704  1.00  0.00     0.000 C 
BRANCH   2   3
ATOM      3  C   UNL     1     -12.223  80.959 -12.211  1.00  0.00    -0.003 C 
ATOM      4  C   UNL     1     -13.442  81.455 -12.984  1.00  0.00     0.004 C 
ENDBRANCH   2   3
ENDBRANCH   1   2
BRANCH   1   5
ATOM      5  C   UNL     1     -13.920  82.479  -9.102  1.00  0.00     0.072 C 
BRANCH   5   6
ATOM      6  C   UNL     1     -13.746  81.157  -8.415  1.00  0.00     0.224 C 
ATOM      7  O   UNL     1     -14.714  80.549  -7.987  1.00  0.00    -0.303 OA
ENDBRANCH   5   6
ENDBRANCH   1   5
TORSDOF 4
ENDMDL
MODEL 4
REMARK VINA RESULT:    -2.608      8.207      8.788
REMARK INTER + INTRA:          -3.352
REMARK INTER:                  -3.109
REMARK INTRA:                  -0.242
REMARK UNBOUND:                -0.135
REMARK SMILES CCCCCC=O
REMARK SMILES IDX 4 1 3 2 2 3 1 4 5 5 6 6 7 7
REMARK H PARENT
REMARK Flexibility Score: inf
ROOT
ATOM      1  C   UNL     1      -5.606  83.827  -9.258  1.00  0.00     0.008 C 
ENDROOT
BRANCH   1   2
ATOM      2  C   UNL     1      -4.980  82.687 -10.076  1.00  0.00     0.000 C 
BRANCH   2   3
ATOM      3  C   UNL     1      -3.685  82.151  -9.446  1.00  0.00    -0.003 C 
ATOM      4  C   UNL     1      -3.830  82.003  -7.934  1.00  0.00     0.004 C 
ENDBRANCH   2   3
ENDBRANCH   1   2
BRANCH   1   5
ATOM      5  C   UNL     1      -5.105  85.211  -9.693  1.00  0.00     0.072 C 
BRANCH   5   6
ATOM      6  C   UNL     1      -4.276  85.842  -8.614  1.00  0.00     0.224 C 
ATOM      7  O   UNL     1      -3.119  85.495  -8.440  1.00  0.00    -0.303 OA
ENDBRANCH   5   6
ENDBRANCH   1   5
TORSDOF 4
ENDMDL
MODEL 5
REMARK VINA RESULT:    -2.556      2.001      2.493
REMARK INTER + INTRA:          -3.288
REMARK INTER:                  -3.172
REMARK INTRA:                  -0.117
REMARK UNBOUND:                -0.135
REMARK SMILES CCCCCC=O
REMARK SMILES IDX 4 1 3 2 2 3 1 4 5 5 6 6 7 7
REMARK H PARENT
REMARK Flexibility Score: inf
ROOT
ATOM      1  C   UNL     1     -11.813  81.774  -9.147  1.00  0.00     0.008 C 
ENDROOT
BRANCH   1   2
ATOM      2  C   UNL     1     -12.812  81.436 -10.265  1.00  0.00     0.000 C 
BRANCH   2   3
ATOM      3  C   UNL     1     -12.118  81.073 -11.586  1.00  0.00    -0.003 C 
ATOM      4  C   UNL     1     -13.072  81.227 -12.768  1.00  0.00     0.004 C 
ENDBRANCH   2   3
ENDBRANCH   1   2
BRANCH   1   5
ATOM      5  C   UNL     1     -10.365  81.848  -9.651  1.00  0.00     0.072 C 
BRANCH   5   6
ATOM      6  C   UNL     1      -9.644  83.008  -9.031  1.00  0.00     0.224 C 
ATOM      7  O   UNL     1     -10.160  84.114  -9.002  1.00  0.00    -0.303 OA
ENDBRANCH   5   6
ENDBRANCH   1   5
TORSDOF 4
ENDMDL
MODEL 6
REMARK VINA RESULT:    -2.512      7.619      8.429
REMARK INTER + INTRA:          -3.234
REMARK INTER:                  -3.019
REMARK INTRA:                  -0.215
REMARK UNBOUND:                -0.135
REMARK SMILES CCCCCC=O
REMARK SMILES IDX 4 1 3 2 2 3 1 4 5 5 6 6 7 7
REMARK H PARENT
REMARK Flexibility Score: inf
ROOT
ATOM      1  C   UNL     1      -5.143  82.902 -10.072  1.00  0.00     0.008 C 
ENDROOT
BRANCH   1   2
ATOM      2  C   UNL     1      -6.347  83.301  -9.205  1.00  0.00     0.000 C 
BRANCH   2   3
ATOM      3  C   UNL     1      -7.055  84.562  -9.724  1.00  0.00    -0.003 C 
ATOM      4  C   UNL     1      -6.044  85.616 -10.169  1.00  0.00     0.004 C 
ENDBRANCH   2   3
ENDBRANCH   1   2
BRANCH   1   5
ATOM      5  C   UNL     1      -3.950  82.415  -9.238  1.00  0.00     0.072 C 
BRANCH   5   6
ATOM      6  C   UNL     1      -3.537  83.456  -8.241  1.00  0.00     0.224 C 
ATOM      7  O   UNL     1      -3.064  84.518  -8.613  1.00  0.00    -0.303 OA
ENDBRANCH   5   6
ENDBRANCH   1   5
TORSDOF 4
ENDMDL
MODEL 7
REMARK VINA RESULT:    -2.502      8.873      9.499
REMARK INTER + INTRA:          -3.221
REMARK INTER:                  -3.062
REMARK INTRA:                  -0.159
REMARK UNBOUND:                -0.135
REMARK SMILES CCCCCC=O
REMARK SMILES IDX 4 1 3 2 2 3 1 4 5 5 6 6 7 7
REMARK H PARENT
REMARK Flexibility Score: inf
ROOT
ATOM      1  C   UNL     1      -3.787  82.174  -9.778  1.00  0.00     0.008 C 
ENDROOT
BRANCH   1   2
ATOM      2  C   UNL     1      -2.882  81.687  -8.636  1.00  0.00     0.000 C 
BRANCH   2   3
ATOM      3  C   UNL     1      -3.601  81.675  -7.278  1.00  0.00    -0.003 C 
ATOM      4  C   UNL     1      -3.144  80.494  -6.426  1.00  0.00     0.004 C 
ENDBRANCH   2   3
ENDBRANCH   1   2
BRANCH   1   5
ATOM      5  C   UNL     1      -5.065  82.855  -9.270  1.00  0.00     0.072 C 
BRANCH   5   6
ATOM      6  C   UNL     1      -5.015  84.333  -9.516  1.00  0.00     0.224 C 
ATOM      7  O   UNL     1      -4.057  84.991  -9.144  1.00  0.00    -0.303 OA
ENDBRANCH   5   6
ENDBRANCH   1   5
TORSDOF 4
ENDMDL
MODEL 8
REMARK VINA RESULT:    -2.488      9.934     10.371
REMARK INTER + INTRA:          -3.205
REMARK INTER:                  -3.128
REMARK INTRA:                  -0.076
REMARK UNBOUND:                -0.135
REMARK SMILES CCCCCC=O
REMARK SMILES IDX 4 1 3 2 2 3 1 4 5 5 6 6 7 7
REMARK H PARENT
REMARK Flexibility Score: inf
ROOT
ATOM      1  C   UNL     1     -20.320  77.826  -9.326  1.00  0.00     0.008 C 
ENDROOT
BRANCH   1   2
ATOM      2  C   UNL     1     -19.406  76.878 -10.117  1.00  0.00     0.000 C 
BRANCH   2   3
ATOM      3  C   UNL     1     -19.717  76.877 -11.621  1.00  0.00    -0.003 C 
ATOM      4  C   UNL     1     -21.221  76.961 -11.871  1.00  0.00     0.004 C 
ENDBRANCH   2   3
ENDBRANCH   1   2
BRANCH   1   5
ATOM      5  C   UNL     1     -21.072  77.113  -8.194  1.00  0.00     0.072 C 
BRANCH   5   6
ATOM      6  C   UNL     1     -22.083  78.027  -7.567  1.00  0.00     0.224 C 
ATOM      7  O   UNL     1     -23.102  77.576  -7.070  1.00  0.00    -0.303 OA
ENDBRANCH   5   6
ENDBRANCH   1   5
TORSDOF 4
ENDMDL
MODEL 9
REMARK VINA RESULT:    -2.470      9.425      9.874
REMARK INTER + INTRA:          -3.182
REMARK INTER:                  -3.005
REMARK INTRA:                  -0.178
REMARK UNBOUND:                -0.135
REMARK SMILES CCCCCC=O
REMARK SMILES IDX 4 1 3 2 2 3 1 4 5 5 6 6 7 7
REMARK H PARENT
REMARK Flexibility Score: inf
ROOT
ATOM      1  C   UNL     1     -21.617  78.962 -10.532  1.00  0.00     0.008 C 
ENDROOT
BRANCH   1   2
ATOM      2  C   UNL     1     -22.312  77.992 -11.500  1.00  0.00     0.000 C 
BRANCH   2   3
ATOM      3  C   UNL     1     -21.376  76.875 -11.988  1.00  0.00    -0.003 C 
ATOM      4  C   UNL     1     -19.912  77.265 -11.801  1.00  0.00     0.004 C 
ENDBRANCH   2   3
ENDBRANCH   1   2
BRANCH   1   5
ATOM      5  C   UNL     1     -22.071  78.773  -9.078  1.00  0.00     0.072 C 
BRANCH   5   6
ATOM      6  C   UNL     1     -20.941  78.272  -8.228  1.00  0.00     0.224 C 
ATOM      7  O   UNL     1     -19.785  78.398  -8.599  1.00  0.00    -0.303 OA
ENDBRANCH   5   6
ENDBRANCH   1   5
TORSDOF 4
ENDMDL
