MODEL 1
REMARK VINA RESULT:    -3.309      0.000      0.000
REMARK INTER + INTRA:          -3.582
REMARK INTER:                  -3.889
REMARK INTRA:                   0.307
REMARK UNBOUND:                 0.307
REMARK SMILES C=C(C)[C@@H]1CC[C@@]2(CO)CC[C@@]3(C)[C@@H](CC[C@@H]4[C@]5(C)CC[C@@H](O)C(C)(C)[C@@H]5CC[C@@]43C)[C@@H]12
REMARK SMILES IDX 4 1 5 2 6 3 7 4 32 5 14 6 15 7 16 8 17 9 18 10 20 11 21 12
REMARK SMILES IDX 22 13 24 14 27 15 28 16 29 17 30 18 12 19 11 20 10 21 13 22
REMARK SMILES IDX 31 23 25 24 26 25 19 26 2 27 3 28 1 29 8 30 9 31 23 33
REMARK H PARENT 9 32 23 34
REMARK Flexibility Score: inf
ROOT
ATOM      1  C   UNL     1     -17.806  11.135 -29.261  1.00  0.00     0.018 C 
ATOM      2  C   UNL     1     -18.644  10.097 -28.494  1.00  0.00     0.009 C 
ATOM      3  C   UNL     1     -17.975   9.875 -27.133  1.00  0.00     0.010 C 
ATOM      4  C   UNL     1     -16.713  10.769 -27.059  1.00  0.00    -0.003 C 
ATOM      5  C   UNL     1     -16.896  11.798 -28.206  1.00  0.00     0.008 C 
ATOM      6  C   UNL     1     -15.563  12.474 -28.679  1.00  0.00    -0.000 C 
ATOM      7  C   UNL     1     -15.767  13.477 -29.817  1.00  0.00     0.005 C 
ATOM      8  C   UNL     1     -14.607  14.468 -29.848  1.00  0.00     0.005 C 
ATOM      9  C   UNL     1     -13.217  13.806 -30.076  1.00  0.00     0.002 C 
ATOM     10  C   UNL     1     -12.699  13.889 -31.604  1.00  0.00    -0.026 C 
ATOM     11  C   UNL     1     -13.817  13.489 -32.622  1.00  0.00     0.010 C 
ATOM     12  C   UNL     1     -13.364  13.418 -34.086  1.00  0.00     0.033 C 
ATOM     13  C   UNL     1     -12.171  12.470 -34.263  1.00  0.00     0.120 C 
ATOM     14  C   UNL     1     -10.951  12.847 -33.364  1.00  0.00    -0.006 C 
ATOM     15  C   UNL     1     -11.413  12.988 -31.838  1.00  0.00     0.003 C 
ATOM     16  C   UNL     1     -11.615  11.608 -31.167  1.00  0.00     0.005 C 
ATOM     17  C   UNL     1     -11.745  11.716 -29.650  1.00  0.00     0.008 C 
ATOM     18  C   UNL     1     -12.979  12.517 -29.135  1.00  0.00    -0.024 C 
ATOM     19  C   UNL     1     -14.299  11.566 -28.898  1.00  0.00    -0.024 C 
ATOM     20  C   UNL     1     -14.176  10.675 -27.610  1.00  0.00     0.008 C 
ATOM     21  C   UNL     1     -15.452   9.879 -27.263  1.00  0.00     0.010 C 
ATOM     22  C   UNL     1     -14.489  10.567 -30.079  1.00  0.00     0.012 C 
ATOM     23  C   UNL     1     -12.501  13.073 -27.739  1.00  0.00     0.012 C 
ATOM     24  C   UNL     1     -10.260  14.150 -33.862  1.00  0.00     0.014 C 
ATOM     25  C   UNL     1      -9.875  11.734 -33.536  1.00  0.00     0.014 C 
ATOM     26  C   UNL     1     -12.331  15.402 -31.863  1.00  0.00     0.012 C 
ENDROOT
BRANCH   1  27
ATOM     27  C   UNL     1     -18.692  12.121 -30.027  1.00  0.00    -0.077 C 
ATOM     28  C   UNL     1     -18.170  12.892 -31.217  1.00  0.00     0.039 C 
ATOM     29  C   UNL     1     -19.961  12.330 -29.633  1.00  0.00     0.008 C 
ENDBRANCH   1  27
BRANCH   4  30
ATOM     30  C   UNL     1     -16.628  11.472 -25.671  1.00  0.00     0.163 C 
BRANCH  30  31
ATOM     31  O   UNL     1     -16.542  12.868 -25.807  1.00  0.00    -0.396 OA
ATOM     32  H   UNL     1     -17.315  13.141 -26.367  1.00  0.00     0.210 HD
ENDBRANCH  30  31
ENDBRANCH   4  30
BRANCH  13  33
ATOM     33  O   UNL     1     -11.810  12.370 -35.621  1.00  0.00    -0.393 OA
ATOM     34  H   UNL     1     -11.461  11.457 -35.787  1.00  0.00     0.210 HD
ENDBRANCH  13  33
TORSDOF 4
ENDMDL
