MODEL 1
REMARK VINA RESULT:    -2.922      0.000      0.000
REMARK INTER + INTRA:          -3.269
REMARK INTER:                  -3.264
REMARK INTRA:                  -0.005
REMARK UNBOUND:                -0.005
REMARK SMILES CCCC(=O)[O-]
REMARK SMILES IDX 3 1 4 2 5 3 6 4 2 5 1 6
REMARK H PARENT
REMARK Flexibility Score: inf
ROOT
ATOM      1  C   UNL     1       6.918 -15.018  22.374  1.00  0.00     0.052 C 
ENDROOT
BRANCH   1   2
ATOM      2  C   UNL     1       6.787 -15.142  23.861  1.00  0.00     0.041 C 
ATOM      3  O   UNL     1       5.883 -15.862  24.358  1.00  0.00    -0.550 OA
ATOM      4  O   UNL     1       7.685 -14.489  24.696  1.00  0.00    -0.550 OA
ENDBRANCH   1   2
BRANCH   1   5
ATOM      5  C   UNL     1       5.956 -13.968  21.803  1.00  0.00     0.003 C 
ATOM      6  C   UNL     1       5.940 -13.964  20.274  1.00  0.00     0.004 C 
ENDBRANCH   1   5
TORSDOF 2
ENDMDL
MODEL 2
REMARK VINA RESULT:    -2.809      1.560      2.159
REMARK INTER + INTRA:          -3.143
REMARK INTER:                  -3.120
REMARK INTRA:                  -0.023
REMARK UNBOUND:                -0.005
REMARK SMILES CCCC(=O)[O-]
REMARK SMILES IDX 3 1 4 2 5 3 6 4 2 5 1 6
REMARK H PARENT
REMARK Flexibility Score: inf
ROOT
ATOM      1  C   UNL     1       7.947 -15.266  23.157  1.00  0.00     0.052 C 
ENDROOT
BRANCH   1   2
ATOM      2  C   UNL     1       8.772 -14.596  24.213  1.00  0.00     0.041 C 
ATOM      3  O   UNL     1       8.271 -14.336  25.338  1.00  0.00    -0.550 OA
ATOM      4  O   UNL     1      10.105 -14.290  23.966  1.00  0.00    -0.550 OA
ENDBRANCH   1   2
BRANCH   1   5
ATOM      5  C   UNL     1       6.466 -14.880  23.262  1.00  0.00     0.003 C 
ATOM      6  C   UNL     1       5.992 -14.059  22.064  1.00  0.00     0.004 C 
ENDBRANCH   1   5
TORSDOF 2
ENDMDL
MODEL 3
REMARK VINA RESULT:    -2.807      2.512      3.142
REMARK INTER + INTRA:          -3.141
REMARK INTER:                  -3.084
REMARK INTRA:                  -0.057
REMARK UNBOUND:                -0.005
REMARK SMILES CCCC(=O)[O-]
REMARK SMILES IDX 3 1 4 2 5 3 6 4 2 5 1 6
REMARK H PARENT
REMARK Flexibility Score: inf
ROOT
ATOM      1  C   UNL     1       7.118 -14.753  23.972  1.00  0.00     0.052 C 
ENDROOT
BRANCH   1   2
ATOM      2  C   UNL     1       8.341 -14.680  24.833  1.00  0.00     0.041 C 
ATOM      3  O   UNL     1       9.445 -14.333  24.338  1.00  0.00    -0.550 OA
ATOM      4  O   UNL     1       8.255 -14.962  26.191  1.00  0.00    -0.550 OA
ENDBRANCH   1   2
BRANCH   1   5
ATOM      5  C   UNL     1       6.228 -15.944  24.347  1.00  0.00     0.003 C 
ATOM      6  C   UNL     1       6.810 -17.277  23.878  1.00  0.00     0.004 C 
ENDBRANCH   1   5
TORSDOF 2
ENDMDL
MODEL 4
REMARK VINA RESULT:    -2.719      1.587      2.192
REMARK INTER + INTRA:          -3.042
REMARK INTER:                  -3.035
REMARK INTRA:                  -0.007
REMARK UNBOUND:                -0.005
REMARK SMILES CCCC(=O)[O-]
REMARK SMILES IDX 3 1 4 2 5 3 6 4 2 5 1 6
REMARK H PARENT
REMARK Flexibility Score: inf
ROOT
ATOM      1  C   UNL     1       5.880 -15.417  24.000  1.00  0.00     0.052 C 
ENDROOT
BRANCH   1   2
ATOM      2  C   UNL     1       6.415 -16.672  24.618  1.00  0.00     0.041 C 
ATOM      3  O   UNL     1       6.645 -16.721  25.854  1.00  0.00    -0.550 OA
ATOM      4  O   UNL     1       6.629 -17.799  23.833  1.00  0.00    -0.550 OA
ENDBRANCH   1   2
BRANCH   1   5
ATOM      5  C   UNL     1       6.710 -14.981  22.786  1.00  0.00     0.003 C 
ATOM      6  C   UNL     1       6.035 -13.865  21.989  1.00  0.00     0.004 C 
ENDBRANCH   1   5
TORSDOF 2
ENDMDL
MODEL 5
REMARK VINA RESULT:    -2.701      3.325      3.769
REMARK INTER + INTRA:          -3.022
REMARK INTER:                  -2.987
REMARK INTRA:                  -0.036
REMARK UNBOUND:                -0.005
REMARK SMILES CCCC(=O)[O-]
REMARK SMILES IDX 3 1 4 2 5 3 6 4 2 5 1 6
REMARK H PARENT
REMARK Flexibility Score: inf
ROOT
ATOM      1  C   UNL     1       8.122 -15.563  26.221  1.00  0.00     0.052 C 
ENDROOT
BRANCH   1   2
ATOM      2  C   UNL     1       7.091 -16.586  25.854  1.00  0.00     0.041 C 
ATOM      3  O   UNL     1       6.259 -16.347  24.941  1.00  0.00    -0.550 OA
ATOM      4  O   UNL     1       7.071 -17.817  26.499  1.00  0.00    -0.550 OA
ENDBRANCH   1   2
BRANCH   1   5
ATOM      5  C   UNL     1       8.311 -14.522  25.110  1.00  0.00     0.003 C 
ATOM      6  C   UNL     1       9.597 -14.749  24.314  1.00  0.00     0.004 C 
ENDBRANCH   1   5
TORSDOF 2
ENDMDL
MODEL 6
REMARK VINA RESULT:    -2.685      2.297      3.096
REMARK INTER + INTRA:          -3.004
REMARK INTER:                  -2.965
REMARK INTRA:                  -0.039
REMARK UNBOUND:                -0.005
REMARK SMILES CCCC(=O)[O-]
REMARK SMILES IDX 3 1 4 2 5 3 6 4 2 5 1 6
REMARK H PARENT
REMARK Flexibility Score: inf
ROOT
ATOM      1  C   UNL     1       7.173 -14.566  23.867  1.00  0.00     0.052 C 
ENDROOT
BRANCH   1   2
ATOM      2  C   UNL     1       6.594 -15.948  23.850  1.00  0.00     0.041 C 
ATOM      3  O   UNL     1       5.550 -16.204  24.503  1.00  0.00    -0.550 OA
ATOM      4  O   UNL     1       7.190 -16.943  23.084  1.00  0.00    -0.550 OA
ENDBRANCH   1   2
BRANCH   1   5
ATOM      5  C   UNL     1       8.322 -14.442  24.875  1.00  0.00     0.003 C 
ATOM      6  C   UNL     1       9.694 -14.563  24.212  1.00  0.00     0.004 C 
ENDBRANCH   1   5
TORSDOF 2
ENDMDL
MODEL 7
REMARK VINA RESULT:    -2.640      2.311      3.733
REMARK INTER + INTRA:          -2.954
REMARK INTER:                  -2.931
REMARK INTRA:                  -0.023
REMARK UNBOUND:                -0.005
REMARK SMILES CCCC(=O)[O-]
REMARK SMILES IDX 3 1 4 2 5 3 6 4 2 5 1 6
REMARK H PARENT
REMARK Flexibility Score: inf
ROOT
ATOM      1  C   UNL     1       8.309 -14.364  24.846  1.00  0.00     0.052 C 
ENDROOT
BRANCH   1   2
ATOM      2  C   UNL     1       7.186 -14.612  23.885  1.00  0.00     0.041 C 
ATOM      3  O   UNL     1       6.887 -13.745  23.024  1.00  0.00    -0.550 OA
ATOM      4  O   UNL     1       6.493 -15.815  23.920  1.00  0.00    -0.550 OA
ENDBRANCH   1   2
BRANCH   1   5
ATOM      5  C   UNL     1       9.678 -14.597  24.194  1.00  0.00     0.003 C 
ATOM      6  C   UNL     1      10.406 -15.804  24.785  1.00  0.00     0.004 C 
ENDBRANCH   1   5
TORSDOF 2
ENDMDL
MODEL 8
REMARK VINA RESULT:    -2.637      3.219      3.923
REMARK INTER + INTRA:          -2.950
REMARK INTER:                  -2.912
REMARK INTRA:                  -0.038
REMARK UNBOUND:                -0.005
REMARK SMILES CCCC(=O)[O-]
REMARK SMILES IDX 3 1 4 2 5 3 6 4 2 5 1 6
REMARK H PARENT
REMARK Flexibility Score: inf
ROOT
ATOM      1  C   UNL     1       5.530 -14.012  21.000  1.00  0.00     0.052 C 
ENDROOT
BRANCH   1   2
ATOM      2  C   UNL     1       6.361 -14.383  19.810  1.00  0.00     0.041 C 
ATOM      3  O   UNL     1       6.916 -15.511  19.752  1.00  0.00    -0.550 OA
ATOM      4  O   UNL     1       6.495 -13.494  18.750  1.00  0.00    -0.550 OA
ENDBRANCH   1   2
BRANCH   1   5
ATOM      5  C   UNL     1       6.399 -13.668  22.216  1.00  0.00     0.003 C 
ATOM      6  C   UNL     1       6.458 -14.810  23.231  1.00  0.00     0.004 C 
ENDBRANCH   1   5
TORSDOF 2
ENDMDL
MODEL 9
REMARK VINA RESULT:    -2.588      2.313      3.602
REMARK INTER + INTRA:          -2.896
REMARK INTER:                  -2.867
REMARK INTRA:                  -0.029
REMARK UNBOUND:                -0.005
REMARK SMILES CCCC(=O)[O-]
REMARK SMILES IDX 3 1 4 2 5 3 6 4 2 5 1 6
REMARK H PARENT
REMARK Flexibility Score: inf
ROOT
ATOM      1  C   UNL     1       6.215 -15.833  24.306  1.00  0.00     0.052 C 
ENDROOT
BRANCH   1   2
ATOM      2  C   UNL     1       7.098 -14.665  23.988  1.00  0.00     0.041 C 
ATOM      3  O   UNL     1       6.897 -13.984  22.949  1.00  0.00    -0.550 OA
ATOM      4  O   UNL     1       8.121 -14.308  24.859  1.00  0.00    -0.550 OA
ENDBRANCH   1   2
BRANCH   1   5
ATOM      5  C   UNL     1       7.030 -17.101  24.591  1.00  0.00     0.003 C 
ATOM      6  C   UNL     1       7.099 -17.425  26.084  1.00  0.00     0.004 C 
ENDBRANCH   1   5
TORSDOF 2
ENDMDL
