MODEL 1
REMARK VINA RESULT:    -6.799      0.000      0.000
REMARK INTER + INTRA:         -10.446
REMARK INTER:                  -9.581
REMARK INTRA:                  -0.865
REMARK UNBOUND:                -0.865
REMARK SMILES COc1ccc(-c2cc(=O)c3c(OC)c(OC)c(OC)c(OC)c3o2)cc1OC
REMARK SMILES IDX 7 1 8 2 9 3 10 4 11 5 24 6 25 7 21 8 18 9 15 10 12 11 6 12
REMARK SMILES IDX 3 13 27 14 4 15 26 16 5 17 2 18 1 19 28 20 29 21 22 22 23 23
REMARK SMILES IDX 13 24 14 25 19 26 20 27 16 28 17 29
REMARK H PARENT
REMARK Flexibility Score: inf
ROOT
ATOM      1  C   UNL     1      16.810  23.130  30.542  1.00  0.00     0.138 A 
ATOM      2  C   UNL     1      16.589  22.616  29.259  1.00  0.00     0.100 A 
ATOM      3  C   UNL     1      15.959  21.384  29.118  1.00  0.00     0.197 A 
ATOM      4  O   UNL     1      15.772  20.929  27.957  1.00  0.00    -0.289 OA
ATOM      5  C   UNL     1      15.551  20.671  30.266  1.00  0.00     0.115 A 
ATOM      6  C   UNL     1      15.812  21.248  31.535  1.00  0.00     0.188 A 
ATOM      7  O   UNL     1      16.425  22.428  31.603  1.00  0.00    -0.452 OA
ATOM      8  C   UNL     1      15.409  20.583  32.722  1.00  0.00     0.209 A 
ATOM      9  C   UNL     1      14.776  19.317  32.624  1.00  0.00     0.211 A 
ATOM     10  C   UNL     1      14.552  18.741  31.369  1.00  0.00     0.208 A 
ATOM     11  C   UNL     1      14.883  19.430  30.189  1.00  0.00     0.179 A 
ENDROOT
BRANCH   1  12
ATOM     12  C   UNL     1      17.473  24.441  30.744  1.00  0.00     0.021 A 
ATOM     13  C   UNL     1      18.768  26.925  31.091  1.00  0.00     0.160 A 
ATOM     14  C   UNL     1      18.305  26.216  32.209  1.00  0.00     0.161 A 
ATOM     15  C   UNL     1      18.587  26.386  29.804  1.00  0.00     0.051 A 
ATOM     16  C   UNL     1      17.661  24.975  32.031  1.00  0.00     0.062 A 
ATOM     17  C   UNL     1      17.949  25.156  29.636  1.00  0.00     0.016 A 
BRANCH  13  18
ATOM     18  O   UNL     1      19.403  28.159  31.298  1.00  0.00    -0.493 OA
ATOM     19  C   UNL     1      20.813  28.357  31.267  1.00  0.00     0.278 C 
ENDBRANCH  13  18
BRANCH  14  20
ATOM     20  O   UNL     1      18.506  26.776  33.481  1.00  0.00    -0.493 OA
ATOM     21  C   UNL     1      19.511  26.359  34.399  1.00  0.00     0.278 C 
ENDBRANCH  14  20
ENDBRANCH   1  12
BRANCH   8  22
ATOM     22  O   UNL     1      15.610  21.132  34.004  1.00  0.00    -0.490 OA
ATOM     23  C   UNL     1      16.794  21.077  34.790  1.00  0.00     0.278 C 
ENDBRANCH   8  22
BRANCH  11  24
ATOM     24  O   UNL     1      14.537  18.899  28.942  1.00  0.00    -0.492 OA
ATOM     25  C   UNL     1      13.194  18.886  28.469  1.00  0.00     0.278 C 
ENDBRANCH  11  24
BRANCH   9  26
ATOM     26  O   UNL     1      14.356  18.563  33.738  1.00  0.00    -0.490 OA
ATOM     27  C   UNL     1      15.159  17.723  34.560  1.00  0.00     0.279 C 
ENDBRANCH   9  26
BRANCH  10  28
ATOM     28  O   UNL     1      13.992  17.457  31.327  1.00  0.00    -0.490 OA
ATOM     29  C   UNL     1      14.772  16.288  31.097  1.00  0.00     0.278 C 
ENDBRANCH  10  28
TORSDOF 7
ENDMDL
MODEL 2
REMARK VINA RESULT:    -6.630      1.446      2.517
REMARK INTER + INTRA:         -10.208
REMARK INTER:                  -9.455
REMARK INTRA:                  -0.754
REMARK UNBOUND:                -0.865
REMARK SMILES COc1ccc(-c2cc(=O)c3c(OC)c(OC)c(OC)c(OC)c3o2)cc1OC
REMARK SMILES IDX 7 1 8 2 9 3 10 4 11 5 24 6 25 7 21 8 18 9 15 10 12 11 6 12
REMARK SMILES IDX 3 13 27 14 4 15 26 16 5 17 2 18 1 19 28 20 29 21 22 22 23 23
REMARK SMILES IDX 13 24 14 25 19 26 20 27 16 28 17 29
REMARK H PARENT
REMARK Flexibility Score: inf
ROOT
ATOM      1  C   UNL     1      17.813  24.508  30.921  1.00  0.00     0.138 A 
ATOM      2  C   UNL     1      17.729  24.327  29.536  1.00  0.00     0.100 A 
ATOM      3  C   UNL     1      16.951  23.292  29.029  1.00  0.00     0.197 A 
ATOM      4  O   UNL     1      16.889  23.136  27.780  1.00  0.00    -0.289 OA
ATOM      5  C   UNL     1      16.254  22.441  29.916  1.00  0.00     0.115 A 
ATOM      6  C   UNL     1      16.388  22.679  31.307  1.00  0.00     0.188 A 
ATOM      7  O   UNL     1      17.155  23.682  31.729  1.00  0.00    -0.452 OA
ATOM      8  C   UNL     1      15.699  21.865  32.244  1.00  0.00     0.209 A 
ATOM      9  C   UNL     1      14.904  20.789  31.770  1.00  0.00     0.211 A 
ATOM     10  C   UNL     1      14.804  20.543  30.397  1.00  0.00     0.208 A 
ATOM     11  C   UNL     1      15.426  21.391  29.464  1.00  0.00     0.179 A 
ENDROOT
BRANCH   1  12
ATOM     12  C   UNL     1      18.626  25.599  31.509  1.00  0.00     0.021 A 
ATOM     13  C   UNL     1      20.130  27.696  32.653  1.00  0.00     0.160 A 
ATOM     14  C   UNL     1      20.404  27.273  31.345  1.00  0.00     0.161 A 
ATOM     15  C   UNL     1      19.101  27.074  33.382  1.00  0.00     0.051 A 
ATOM     16  C   UNL     1      19.649  26.227  30.776  1.00  0.00     0.062 A 
ATOM     17  C   UNL     1      18.356  26.040  32.813  1.00  0.00     0.016 A 
BRANCH  13  18
ATOM     18  O   UNL     1      20.900  28.738  33.194  1.00  0.00    -0.493 OA
ATOM     19  C   UNL     1      20.592  30.121  33.063  1.00  0.00     0.278 C 
ENDBRANCH  13  18
BRANCH  14  20
ATOM     20  O   UNL     1      21.433  27.917  30.639  1.00  0.00    -0.493 OA
ATOM     21  C   UNL     1      21.287  28.500  29.348  1.00  0.00     0.278 C 
ENDBRANCH  14  20
ENDBRANCH   1  12
BRANCH   8  22
ATOM     22  O   UNL     1      15.767  22.083  33.633  1.00  0.00    -0.490 OA
ATOM     23  C   UNL     1      16.748  21.589  34.537  1.00  0.00     0.278 C 
ENDBRANCH   8  22
BRANCH  11  24
ATOM     24  O   UNL     1      15.213  21.210  28.093  1.00  0.00    -0.492 OA
ATOM     25  C   UNL     1      13.960  21.489  27.477  1.00  0.00     0.278 C 
ENDBRANCH  11  24
BRANCH   9  26
ATOM     26  O   UNL     1      14.196  19.908  32.612  1.00  0.00    -0.490 OA
ATOM     27  C   UNL     1      14.716  18.784  33.314  1.00  0.00     0.279 C 
ENDBRANCH   9  26
BRANCH  10  28
ATOM     28  O   UNL     1      14.069  19.424  29.982  1.00  0.00    -0.490 OA
ATOM     29  C   UNL     1      14.684  18.189  29.631  1.00  0.00     0.278 C 
ENDBRANCH  10  28
TORSDOF 7
ENDMDL
MODEL 3
REMARK VINA RESULT:    -6.571     13.563     14.303
REMARK INTER + INTRA:         -10.124
REMARK INTER:                  -9.484
REMARK INTRA:                  -0.640
REMARK UNBOUND:                -0.865
REMARK SMILES COc1ccc(-c2cc(=O)c3c(OC)c(OC)c(OC)c(OC)c3o2)cc1OC
REMARK SMILES IDX 7 1 8 2 9 3 10 4 11 5 24 6 25 7 21 8 18 9 15 10 12 11 6 12
REMARK SMILES IDX 3 13 27 14 4 15 26 16 5 17 2 18 1 19 28 20 29 21 22 22 23 23
REMARK SMILES IDX 13 24 14 25 19 26 20 27 16 28 17 29
REMARK H PARENT
REMARK Flexibility Score: inf
ROOT
ATOM      1  C   UNL     1       8.110  20.930  20.611  1.00  0.00     0.138 A 
ATOM      2  C   UNL     1       9.043  20.328  19.758  1.00  0.00     0.100 A 
ATOM      3  C   UNL     1       9.041  18.944  19.616  1.00  0.00     0.197 A 
ATOM      4  O   UNL     1       9.891  18.413  18.851  1.00  0.00    -0.289 OA
ATOM      5  C   UNL     1       8.101  18.167  20.329  1.00  0.00     0.115 A 
ATOM      6  C   UNL     1       7.189  18.843  21.179  1.00  0.00     0.188 A 
ATOM      7  O   UNL     1       7.246  20.170  21.277  1.00  0.00    -0.452 OA
ATOM      8  C   UNL     1       6.212  18.115  21.906  1.00  0.00     0.209 A 
ATOM      9  C   UNL     1       6.185  16.700  21.801  1.00  0.00     0.211 A 
ATOM     10  C   UNL     1       7.110  16.040  20.985  1.00  0.00     0.208 A 
ATOM     11  C   UNL     1       8.030  16.763  20.206  1.00  0.00     0.179 A 
ENDROOT
BRANCH   1  12
ATOM     12  C   UNL     1       8.068  22.401  20.792  1.00  0.00     0.021 A 
ATOM     13  C   UNL     1       7.940  25.196  21.161  1.00  0.00     0.160 A 
ATOM     14  C   UNL     1       8.507  24.671  19.991  1.00  0.00     0.161 A 
ATOM     15  C   UNL     1       7.434  24.322  22.139  1.00  0.00     0.051 A 
ATOM     16  C   UNL     1       8.567  23.274  19.810  1.00  0.00     0.062 A 
ATOM     17  C   UNL     1       7.495  22.940  21.953  1.00  0.00     0.016 A 
BRANCH  13  18
ATOM     18  O   UNL     1       7.897  26.591  21.315  1.00  0.00    -0.493 OA
ATOM     19  C   UNL     1       6.708  27.372  21.263  1.00  0.00     0.278 C 
ENDBRANCH  13  18
BRANCH  14  20
ATOM     20  O   UNL     1       8.999  25.568  19.029  1.00  0.00    -0.493 OA
ATOM     21  C   UNL     1       8.681  25.522  17.642  1.00  0.00     0.278 C 
ENDBRANCH  14  20
ENDBRANCH   1  12
BRANCH   8  22
ATOM     22  O   UNL     1       5.259  18.741  22.733  1.00  0.00    -0.490 OA
ATOM     23  C   UNL     1       3.844  18.718  22.589  1.00  0.00     0.278 C 
ENDBRANCH   8  22
BRANCH  11  24
ATOM     24  O   UNL     1       8.863  16.098  19.299  1.00  0.00    -0.492 OA
ATOM     25  C   UNL     1       8.372  15.556  18.077  1.00  0.00     0.278 C 
ENDBRANCH  11  24
BRANCH   9  26
ATOM     26  O   UNL     1       5.273  15.880  22.495  1.00  0.00    -0.490 OA
ATOM     27  C   UNL     1       5.335  15.491  23.863  1.00  0.00     0.279 C 
ENDBRANCH   9  26
BRANCH  10  28
ATOM     28  O   UNL     1       7.092  14.639  20.971  1.00  0.00    -0.490 OA
ATOM     29  C   UNL     1       7.999  13.853  21.738  1.00  0.00     0.278 C 
ENDBRANCH  10  28
TORSDOF 7
ENDMDL
MODEL 4
REMARK VINA RESULT:    -6.504      1.518      3.285
REMARK INTER + INTRA:         -10.031
REMARK INTER:                  -9.288
REMARK INTRA:                  -0.743
REMARK UNBOUND:                -0.865
REMARK SMILES COc1ccc(-c2cc(=O)c3c(OC)c(OC)c(OC)c(OC)c3o2)cc1OC
REMARK SMILES IDX 7 1 8 2 9 3 10 4 11 5 24 6 25 7 21 8 18 9 15 10 12 11 6 12
REMARK SMILES IDX 3 13 27 14 4 15 26 16 5 17 2 18 1 19 28 20 29 21 22 22 23 23
REMARK SMILES IDX 13 24 14 25 19 26 20 27 16 28 17 29
REMARK H PARENT
REMARK Flexibility Score: inf
ROOT
ATOM      1  C   UNL     1      17.095  22.703  31.279  1.00  0.00     0.138 A 
ATOM      2  C   UNL     1      17.682  21.887  32.253  1.00  0.00     0.100 A 
ATOM      3  C   UNL     1      17.225  20.583  32.414  1.00  0.00     0.197 A 
ATOM      4  O   UNL     1      17.757  19.860  33.299  1.00  0.00    -0.289 OA
ATOM      5  C   UNL     1      16.182  20.100  31.594  1.00  0.00     0.115 A 
ATOM      6  C   UNL     1      15.630  20.983  30.632  1.00  0.00     0.188 A 
ATOM      7  O   UNL     1      16.105  22.223  30.532  1.00  0.00    -0.452 OA
ATOM      8  C   UNL     1      14.590  20.546  29.770  1.00  0.00     0.209 A 
ATOM      9  C   UNL     1      14.085  19.228  29.909  1.00  0.00     0.211 A 
ATOM     10  C   UNL     1      14.615  18.374  30.884  1.00  0.00     0.208 A 
ATOM     11  C   UNL     1      15.694  18.779  31.689  1.00  0.00     0.179 A 
ENDROOT
BRANCH   1  12
ATOM     12  C   UNL     1      17.549  24.098  31.066  1.00  0.00     0.021 A 
ATOM     13  C   UNL     1      18.440  26.739  30.618  1.00  0.00     0.160 A 
ATOM     14  C   UNL     1      18.342  26.248  31.928  1.00  0.00     0.161 A 
ATOM     15  C   UNL     1      18.098  25.906  29.537  1.00  0.00     0.051 A 
ATOM     16  C   UNL     1      17.899  24.927  32.147  1.00  0.00     0.062 A 
ATOM     17  C   UNL     1      17.661  24.600  29.761  1.00  0.00     0.016 A 
BRANCH  13  18
ATOM     18  O   UNL     1      18.881  28.058  30.430  1.00  0.00    -0.493 OA
ATOM     19  C   UNL     1      18.411  28.929  29.407  1.00  0.00     0.278 C 
ENDBRANCH  13  18
BRANCH  14  20
ATOM     20  O   UNL     1      18.696  27.100  32.986  1.00  0.00    -0.493 OA
ATOM     21  C   UNL     1      19.264  26.667  34.218  1.00  0.00     0.278 C 
ENDBRANCH  14  20
ENDBRANCH   1  12
BRANCH   8  22
ATOM     22  O   UNL     1      14.035  21.371  28.772  1.00  0.00    -0.490 OA
ATOM     23  C   UNL     1      14.502  21.548  27.441  1.00  0.00     0.278 C 
ENDBRANCH   8  22
BRANCH  11  24
ATOM     24  O   UNL     1      16.296  17.873  32.569  1.00  0.00    -0.492 OA
ATOM     25  C   UNL     1      17.091  16.784  32.109  1.00  0.00     0.278 C 
ENDBRANCH  11  24
BRANCH   9  26
ATOM     26  O   UNL     1      13.042  18.700  29.122  1.00  0.00    -0.490 OA
ATOM     27  C   UNL     1      13.152  18.109  27.833  1.00  0.00     0.279 C 
ENDBRANCH   9  26
BRANCH  10  28
ATOM     28  O   UNL     1      14.033  17.108  31.033  1.00  0.00    -0.490 OA
ATOM     29  C   UNL     1      13.124  16.801  32.085  1.00  0.00     0.278 C 
ENDBRANCH  10  28
TORSDOF 7
ENDMDL
MODEL 5
REMARK VINA RESULT:    -6.502      1.933      2.980
REMARK INTER + INTRA:         -10.028
REMARK INTER:                  -9.272
REMARK INTRA:                  -0.756
REMARK UNBOUND:                -0.865
REMARK SMILES COc1ccc(-c2cc(=O)c3c(OC)c(OC)c(OC)c(OC)c3o2)cc1OC
REMARK SMILES IDX 7 1 8 2 9 3 10 4 11 5 24 6 25 7 21 8 18 9 15 10 12 11 6 12
REMARK SMILES IDX 3 13 27 14 4 15 26 16 5 17 2 18 1 19 28 20 29 21 22 22 23 23
REMARK SMILES IDX 13 24 14 25 19 26 20 27 16 28 17 29
REMARK H PARENT
REMARK Flexibility Score: inf
ROOT
ATOM      1  C   UNL     1      18.300  24.863  30.301  1.00  0.00     0.138 A 
ATOM      2  C   UNL     1      17.769  24.370  29.103  1.00  0.00     0.100 A 
ATOM      3  C   UNL     1      17.133  23.133  29.098  1.00  0.00     0.197 A 
ATOM      4  O   UNL     1      16.665  22.697  28.011  1.00  0.00    -0.289 OA
ATOM      5  C   UNL     1      17.028  22.394  30.297  1.00  0.00     0.115 A 
ATOM      6  C   UNL     1      17.593  22.952  31.472  1.00  0.00     0.188 A 
ATOM      7  O   UNL     1      18.196  24.137  31.410  1.00  0.00    -0.452 OA
ATOM      8  C   UNL     1      17.503  22.261  32.709  1.00  0.00     0.209 A 
ATOM      9  C   UNL     1      16.874  20.989  32.745  1.00  0.00     0.211 A 
ATOM     10  C   UNL     1      16.348  20.433  31.574  1.00  0.00     0.208 A 
ATOM     11  C   UNL     1      16.370  21.148  30.363  1.00  0.00     0.179 A 
ENDROOT
BRANCH   1  12
ATOM     12  C   UNL     1      18.983  26.177  30.359  1.00  0.00     0.021 A 
ATOM     13  C   UNL     1      20.304  28.666  30.517  1.00  0.00     0.160 A 
ATOM     14  C   UNL     1      19.021  28.591  29.957  1.00  0.00     0.161 A 
ATOM     15  C   UNL     1      20.920  27.498  31.000  1.00  0.00     0.051 A 
ATOM     16  C   UNL     1      18.364  27.346  29.883  1.00  0.00     0.062 A 
ATOM     17  C   UNL     1      20.263  26.269  30.924  1.00  0.00     0.016 A 
BRANCH  13  18
ATOM     18  O   UNL     1      20.935  29.919  30.575  1.00  0.00    -0.493 OA
ATOM     19  C   UNL     1      21.002  30.735  31.740  1.00  0.00     0.278 C 
ENDBRANCH  13  18
BRANCH  14  20
ATOM     20  O   UNL     1      18.428  29.775  29.488  1.00  0.00    -0.493 OA
ATOM     21  C   UNL     1      18.370  30.164  28.119  1.00  0.00     0.278 C 
ENDBRANCH  14  20
ENDBRANCH   1  12
BRANCH   8  22
ATOM     22  O   UNL     1      18.013  22.788  33.911  1.00  0.00    -0.490 OA
ATOM     23  C   UNL     1      19.312  22.594  34.455  1.00  0.00     0.278 C 
ENDBRANCH   8  22
BRANCH  11  24
ATOM     24  O   UNL     1      15.728  20.635  29.230  1.00  0.00    -0.492 OA
ATOM     25  C   UNL     1      14.310  20.635  29.098  1.00  0.00     0.278 C 
ENDBRANCH  11  24
BRANCH   9  26
ATOM     26  O   UNL     1      16.750  20.210  33.913  1.00  0.00    -0.490 OA
ATOM     27  C   UNL     1      15.775  20.350  34.941  1.00  0.00     0.279 C 
ENDBRANCH   9  26
BRANCH  10  28
ATOM     28  O   UNL     1      15.804  19.144  31.646  1.00  0.00    -0.490 OA
ATOM     29  C   UNL     1      16.562  17.974  31.356  1.00  0.00     0.278 C 
ENDBRANCH  10  28
TORSDOF 7
ENDMDL
MODEL 6
REMARK VINA RESULT:    -6.479      1.934      7.717
REMARK INTER + INTRA:          -9.995
REMARK INTER:                  -9.453
REMARK INTRA:                  -0.542
REMARK UNBOUND:                -0.865
REMARK SMILES COc1ccc(-c2cc(=O)c3c(OC)c(OC)c(OC)c(OC)c3o2)cc1OC
REMARK SMILES IDX 7 1 8 2 9 3 10 4 11 5 24 6 25 7 21 8 18 9 15 10 12 11 6 12
REMARK SMILES IDX 3 13 27 14 4 15 26 16 5 17 2 18 1 19 28 20 29 21 22 22 23 23
REMARK SMILES IDX 13 24 14 25 19 26 20 27 16 28 17 29
REMARK H PARENT
REMARK Flexibility Score: inf
ROOT
ATOM      1  C   UNL     1      16.080  21.354  29.393  1.00  0.00     0.138 A 
ATOM      2  C   UNL     1      16.498  22.338  28.488  1.00  0.00     0.100 A 
ATOM      3  C   UNL     1      17.294  23.385  28.940  1.00  0.00     0.197 A 
ATOM      4  O   UNL     1      17.657  24.268  28.118  1.00  0.00    -0.289 OA
ATOM      5  C   UNL     1      17.671  23.442  30.300  1.00  0.00     0.115 A 
ATOM      6  C   UNL     1      17.208  22.415  31.161  1.00  0.00     0.188 A 
ATOM      7  O   UNL     1      16.443  21.443  30.669  1.00  0.00    -0.452 OA
ATOM      8  C   UNL     1      17.570  22.413  32.534  1.00  0.00     0.209 A 
ATOM      9  C   UNL     1      18.369  23.470  33.040  1.00  0.00     0.211 A 
ATOM     10  C   UNL     1      18.795  24.496  32.189  1.00  0.00     0.208 A 
ATOM     11  C   UNL     1      18.500  24.462  30.814  1.00  0.00     0.179 A 
ENDROOT
BRANCH   1  12
ATOM     12  C   UNL     1      15.236  20.216  28.959  1.00  0.00     0.021 A 
ATOM     13  C   UNL     1      13.595  18.083  28.109  1.00  0.00     0.160 A 
ATOM     14  C   UNL     1      14.153  18.064  29.395  1.00  0.00     0.161 A 
ATOM     15  C   UNL     1      13.854  19.170  27.255  1.00  0.00     0.051 A 
ATOM     16  C   UNL     1      14.970  19.134  29.816  1.00  0.00     0.062 A 
ATOM     17  C   UNL     1      14.663  20.225  27.679  1.00  0.00     0.016 A 
BRANCH  13  18
ATOM     18  O   UNL     1      12.788  17.004  27.715  1.00  0.00    -0.493 OA
ATOM     19  C   UNL     1      12.719  16.489  26.390  1.00  0.00     0.278 C 
ENDBRANCH  13  18
BRANCH  14  20
ATOM     20  O   UNL     1      13.872  16.969  30.227  1.00  0.00    -0.493 OA
ATOM     21  C   UNL     1      13.198  17.055  31.478  1.00  0.00     0.278 C 
ENDBRANCH  14  20
ENDBRANCH   1  12
BRANCH   8  22
ATOM     22  O   UNL     1      17.169  21.396  33.422  1.00  0.00    -0.490 OA
ATOM     23  C   UNL     1      15.987  21.358  34.213  1.00  0.00     0.278 C 
ENDBRANCH   8  22
BRANCH  11  24
ATOM     24  O   UNL     1      19.038  25.425  29.953  1.00  0.00    -0.492 OA
ATOM     25  C   UNL     1      18.516  26.748  29.873  1.00  0.00     0.278 C 
ENDBRANCH  11  24
BRANCH   9  26
ATOM     26  O   UNL     1      18.767  23.576  34.387  1.00  0.00    -0.490 OA
ATOM     27  C   UNL     1      19.874  22.934  35.011  1.00  0.00     0.279 C 
ENDBRANCH   9  26
BRANCH  10  28
ATOM     28  O   UNL     1      19.518  25.557  32.749  1.00  0.00    -0.490 OA
ATOM     29  C   UNL     1      18.888  26.663  33.387  1.00  0.00     0.278 C 
ENDBRANCH  10  28
TORSDOF 7
ENDMDL
MODEL 7
REMARK VINA RESULT:    -6.457     11.861     16.125
REMARK INTER + INTRA:          -9.965
REMARK INTER:                  -9.183
REMARK INTRA:                  -0.782
REMARK UNBOUND:                -0.865
REMARK SMILES COc1ccc(-c2cc(=O)c3c(OC)c(OC)c(OC)c(OC)c3o2)cc1OC
REMARK SMILES IDX 7 1 8 2 9 3 10 4 11 5 24 6 25 7 21 8 18 9 15 10 12 11 6 12
REMARK SMILES IDX 3 13 27 14 4 15 26 16 5 17 2 18 1 19 28 20 29 21 22 22 23 23
REMARK SMILES IDX 13 24 14 25 19 26 20 27 16 28 17 29
REMARK H PARENT
REMARK Flexibility Score: inf
ROOT
ATOM      1  C   UNL     1       7.285  20.684  20.345  1.00  0.00     0.138 A 
ATOM      2  C   UNL     1       6.746  20.401  19.085  1.00  0.00     0.100 A 
ATOM      3  C   UNL     1       6.659  21.416  18.137  1.00  0.00     0.197 A 
ATOM      4  O   UNL     1       6.165  21.150  17.009  1.00  0.00    -0.289 OA
ATOM      5  C   UNL     1       7.116  22.714  18.457  1.00  0.00     0.115 A 
ATOM      6  C   UNL     1       7.646  22.931  19.754  1.00  0.00     0.188 A 
ATOM      7  O   UNL     1       7.695  21.919  20.619  1.00  0.00    -0.452 OA
ATOM      8  C   UNL     1       8.135  24.211  20.125  1.00  0.00     0.209 A 
ATOM      9  C   UNL     1       8.052  25.278  19.193  1.00  0.00     0.211 A 
ATOM     10  C   UNL     1       7.499  25.061  17.927  1.00  0.00     0.208 A 
ATOM     11  C   UNL     1       7.082  23.778  17.531  1.00  0.00     0.179 A 
ENDROOT
BRANCH   1  12
ATOM     12  C   UNL     1       7.403  19.636  21.387  1.00  0.00     0.021 A 
ATOM     13  C   UNL     1       7.644  17.606  23.333  1.00  0.00     0.160 A 
ATOM     14  C   UNL     1       6.592  18.530  23.414  1.00  0.00     0.161 A 
ATOM     15  C   UNL     1       8.567  17.697  22.276  1.00  0.00     0.051 A 
ATOM     16  C   UNL     1       6.474  19.541  22.438  1.00  0.00     0.062 A 
ATOM     17  C   UNL     1       8.444  18.699  21.314  1.00  0.00     0.016 A 
BRANCH  13  18
ATOM     18  O   UNL     1       7.737  16.613  24.320  1.00  0.00    -0.493 OA
ATOM     19  C   UNL     1       8.765  16.545  25.303  1.00  0.00     0.278 C 
ENDBRANCH  13  18
BRANCH  14  20
ATOM     20  O   UNL     1       5.682  18.412  24.477  1.00  0.00    -0.493 OA
ATOM     21  C   UNL     1       4.350  17.922  24.351  1.00  0.00     0.278 C 
ENDBRANCH  14  20
ENDBRANCH   1  12
BRANCH   8  22
ATOM     22  O   UNL     1       8.706  24.468  21.386  1.00  0.00    -0.490 OA
ATOM     23  C   UNL     1       8.022  24.774  22.596  1.00  0.00     0.278 C 
ENDBRANCH   8  22
BRANCH  11  24
ATOM     24  O   UNL     1       6.649  23.550  16.220  1.00  0.00    -0.492 OA
ATOM     25  C   UNL     1       7.546  23.561  15.113  1.00  0.00     0.278 C 
ENDBRANCH  11  24
BRANCH   9  26
ATOM     26  O   UNL     1       8.488  26.590  19.465  1.00  0.00    -0.490 OA
ATOM     27  C   UNL     1       7.801  27.586  20.215  1.00  0.00     0.279 C 
ENDBRANCH   9  26
BRANCH  10  28
ATOM     28  O   UNL     1       7.370  26.162  17.069  1.00  0.00    -0.490 OA
ATOM     29  C   UNL     1       6.145  26.870  16.907  1.00  0.00     0.278 C 
ENDBRANCH  10  28
TORSDOF 7
ENDMDL
MODEL 8
REMARK VINA RESULT:    -6.405      3.250      9.152
REMARK INTER + INTRA:          -9.891
REMARK INTER:                  -9.090
REMARK INTRA:                  -0.801
REMARK UNBOUND:                -0.865
REMARK SMILES COc1ccc(-c2cc(=O)c3c(OC)c(OC)c(OC)c(OC)c3o2)cc1OC
REMARK SMILES IDX 7 1 8 2 9 3 10 4 11 5 24 6 25 7 21 8 18 9 15 10 12 11 6 12
REMARK SMILES IDX 3 13 27 14 4 15 26 16 5 17 2 18 1 19 28 20 29 21 22 22 23 23
REMARK SMILES IDX 13 24 14 25 19 26 20 27 16 28 17 29
REMARK H PARENT
REMARK Flexibility Score: inf
ROOT
ATOM      1  C   UNL     1      13.734  18.041  28.024  1.00  0.00     0.138 A 
ATOM      2  C   UNL     1      13.810  19.397  27.686  1.00  0.00     0.100 A 
ATOM      3  C   UNL     1      14.471  20.276  28.538  1.00  0.00     0.197 A 
ATOM      4  O   UNL     1      14.527  21.496  28.226  1.00  0.00    -0.289 OA
ATOM      5  C   UNL     1      15.058  19.790  29.728  1.00  0.00     0.115 A 
ATOM      6  C   UNL     1      14.937  18.405  30.010  1.00  0.00     0.188 A 
ATOM      7  O   UNL     1      14.285  17.617  29.158  1.00  0.00    -0.452 OA
ATOM      8  C   UNL     1      15.521  17.859  31.183  1.00  0.00     0.209 A 
ATOM      9  C   UNL     1      16.193  18.722  32.087  1.00  0.00     0.211 A 
ATOM     10  C   UNL     1      16.278  20.092  31.815  1.00  0.00     0.208 A 
ATOM     11  C   UNL     1      15.766  20.624  30.619  1.00  0.00     0.179 A 
ENDROOT
BRANCH   1  12
ATOM     12  C   UNL     1      13.044  17.065  27.148  1.00  0.00     0.021 A 
ATOM     13  C   UNL     1      11.736  15.240  25.437  1.00  0.00     0.160 A 
ATOM     14  C   UNL     1      11.295  15.397  26.759  1.00  0.00     0.161 A 
ATOM     15  C   UNL     1      12.825  15.999  24.974  1.00  0.00     0.051 A 
ATOM     16  C   UNL     1      11.950  16.312  27.609  1.00  0.00     0.062 A 
ATOM     17  C   UNL     1      13.468  16.903  25.821  1.00  0.00     0.016 A 
BRANCH  13  18
ATOM     18  O   UNL     1      11.067  14.320  24.615  1.00  0.00    -0.493 OA
ATOM     19  C   UNL     1      11.550  13.018  24.301  1.00  0.00     0.278 C 
ENDBRANCH  13  18
BRANCH  14  20
ATOM     20  O   UNL     1      10.201  14.630  27.192  1.00  0.00    -0.493 OA
ATOM     21  C   UNL     1       8.943  15.166  27.588  1.00  0.00     0.278 C 
ENDBRANCH  14  20
ENDBRANCH   1  12
BRANCH   8  22
ATOM     22  O   UNL     1      15.464  16.486  31.490  1.00  0.00    -0.490 OA
ATOM     23  C   UNL     1      16.373  15.472  31.080  1.00  0.00     0.278 C 
ENDBRANCH   8  22
BRANCH  11  24
ATOM     24  O   UNL     1      15.971  21.971  30.301  1.00  0.00    -0.492 OA
ATOM     25  C   UNL     1      17.242  22.471  29.898  1.00  0.00     0.278 C 
ENDBRANCH  11  24
BRANCH   9  26
ATOM     26  O   UNL     1      16.788  18.289  33.289  1.00  0.00    -0.490 OA
ATOM     27  C   UNL     1      16.128  17.960  34.506  1.00  0.00     0.279 C 
ENDBRANCH   9  26
BRANCH  10  28
ATOM     28  O   UNL     1      16.886  20.915  32.773  1.00  0.00    -0.490 OA
ATOM     29  C   UNL     1      16.140  21.636  33.749  1.00  0.00     0.278 C 
ENDBRANCH  10  28
TORSDOF 7
ENDMDL
MODEL 9
REMARK VINA RESULT:    -6.290      2.819      9.251
REMARK INTER + INTRA:          -9.729
REMARK INTER:                  -8.957
REMARK INTRA:                  -0.772
REMARK UNBOUND:                -0.865
REMARK SMILES COc1ccc(-c2cc(=O)c3c(OC)c(OC)c(OC)c(OC)c3o2)cc1OC
REMARK SMILES IDX 7 1 8 2 9 3 10 4 11 5 24 6 25 7 21 8 18 9 15 10 12 11 6 12
REMARK SMILES IDX 3 13 27 14 4 15 26 16 5 17 2 18 1 19 28 20 29 21 22 22 23 23
REMARK SMILES IDX 13 24 14 25 19 26 20 27 16 28 17 29
REMARK H PARENT
REMARK Flexibility Score: inf
ROOT
ATOM      1  C   UNL     1      15.992  17.523  32.384  1.00  0.00     0.138 A 
ATOM      2  C   UNL     1      16.831  18.380  33.106  1.00  0.00     0.100 A 
ATOM      3  C   UNL     1      17.161  19.621  32.570  1.00  0.00     0.197 A 
ATOM      4  O   UNL     1      17.923  20.380  33.227  1.00  0.00    -0.289 OA
ATOM      5  C   UNL     1      16.646  19.999  31.310  1.00  0.00     0.115 A 
ATOM      6  C   UNL     1      15.807  19.079  30.632  1.00  0.00     0.188 A 
ATOM      7  O   UNL     1      15.534  17.904  31.195  1.00  0.00    -0.452 OA
ATOM      8  C   UNL     1      15.249  19.413  29.371  1.00  0.00     0.209 A 
ATOM      9  C   UNL     1      15.571  20.663  28.781  1.00  0.00     0.211 A 
ATOM     10  C   UNL     1      16.426  21.551  29.444  1.00  0.00     0.208 A 
ATOM     11  C   UNL     1      16.921  21.254  30.726  1.00  0.00     0.179 A 
ENDROOT
BRANCH   1  12
ATOM     12  C   UNL     1      15.607  16.193  32.914  1.00  0.00     0.021 A 
ATOM     13  C   UNL     1      14.894  13.675  33.970  1.00  0.00     0.160 A 
ATOM     14  C   UNL     1      15.398  13.767  32.665  1.00  0.00     0.161 A 
ATOM     15  C   UNL     1      14.754  14.841  34.744  1.00  0.00     0.051 A 
ATOM     16  C   UNL     1      15.755  15.027  32.142  1.00  0.00     0.062 A 
ATOM     17  C   UNL     1      15.111  16.084  34.221  1.00  0.00     0.016 A 
BRANCH  13  18
ATOM     18  O   UNL     1      14.544  12.408  34.463  1.00  0.00    -0.493 OA
ATOM     19  C   UNL     1      13.230  11.861  34.422  1.00  0.00     0.278 C 
ENDBRANCH  13  18
BRANCH  14  20
ATOM     20  O   UNL     1      15.532  12.586  31.918  1.00  0.00    -0.493 OA
ATOM     21  C   UNL     1      14.799  12.290  30.733  1.00  0.00     0.278 C 
ENDBRANCH  14  20
ENDBRANCH   1  12
BRANCH   8  22
ATOM     22  O   UNL     1      14.379  18.552  28.674  1.00  0.00    -0.490 OA
ATOM     23  C   UNL     1      12.987  18.363  28.901  1.00  0.00     0.278 C 
ENDBRANCH   8  22
BRANCH  11  24
ATOM     24  O   UNL     1      17.670  22.204  31.430  1.00  0.00    -0.492 OA
ATOM     25  C   UNL     1      17.084  23.387  31.964  1.00  0.00     0.278 C 
ENDBRANCH  11  24
BRANCH   9  26
ATOM     26  O   UNL     1      15.090  21.085  27.526  1.00  0.00    -0.490 OA
ATOM     27  C   UNL     1      13.796  21.597  27.229  1.00  0.00     0.279 C 
ENDBRANCH   9  26
BRANCH  10  28
ATOM     28  O   UNL     1      16.774  22.739  28.789  1.00  0.00    -0.490 OA
ATOM     29  C   UNL     1      18.055  22.945  28.202  1.00  0.00     0.278 C 
ENDBRANCH  10  28
TORSDOF 7
ENDMDL
