MODEL 1
REMARK VINA RESULT:    -3.864      0.000      0.000
REMARK INTER + INTRA:          -4.998
REMARK INTER:                  -4.542
REMARK INTRA:                  -0.456
REMARK UNBOUND:                -0.456
REMARK SMILES C=CC(C)=CCC=C(C)C
REMARK SMILES IDX 5 1 3 2 4 3 6 4 7 5 9 6 8 7 10 8 2 9 1 10
REMARK H PARENT
REMARK Flexibility Score: inf
ROOT
ATOM      1  C   UNL     1     133.668 138.857 131.772  1.00  0.00    -0.020 C 
ATOM      2  C   UNL     1     134.937 139.244 131.531  1.00  0.00    -0.055 C 
ATOM      3  C   UNL     1     136.115 138.351 131.854  1.00  0.00     0.044 C 
ENDROOT
BRANCH   1   4
ATOM      4  C   UNL     1     133.300 137.531 132.389  1.00  0.00     0.055 C 
BRANCH   4   5
ATOM      5  C   UNL     1     132.925 136.522 131.332  1.00  0.00    -0.024 C 
ATOM      6  C   UNL     1     133.045 134.403 130.093  1.00  0.00     0.039 C 
ATOM      7  C   UNL     1     133.529 135.322 131.184  1.00  0.00    -0.080 C 
ATOM      8  C   UNL     1     134.672 134.889 132.073  1.00  0.00     0.039 C 
ENDBRANCH   4   5
ENDBRANCH   1   4
BRANCH   2   9
ATOM      9  C   UNL     1     135.149 140.555 130.865  1.00  0.00    -0.005 C 
ATOM     10  C   UNL     1     136.067 141.440 131.254  1.00  0.00     0.009 C 
ENDBRANCH   2   9
TORSDOF 3
ENDMDL
MODEL 2
REMARK VINA RESULT:    -3.837      2.862      5.171
REMARK INTER + INTRA:          -4.965
REMARK INTER:                  -4.544
REMARK INTRA:                  -0.421
REMARK UNBOUND:                -0.456
REMARK SMILES C=CC(C)=CCC=C(C)C
REMARK SMILES IDX 5 1 3 2 4 3 6 4 7 5 9 6 8 7 10 8 2 9 1 10
REMARK H PARENT
REMARK Flexibility Score: inf
ROOT
ATOM      1  C   UNL     1     138.834 140.014 131.827  1.00  0.00    -0.020 C 
ATOM      2  C   UNL     1     139.185 138.779 131.418  1.00  0.00    -0.055 C 
ATOM      3  C   UNL     1     138.223 137.614 131.491  1.00  0.00     0.044 C 
ENDROOT
BRANCH   1   4
ATOM      4  C   UNL     1     137.482 140.354 132.402  1.00  0.00     0.055 C 
BRANCH   4   5
ATOM      5  C   UNL     1     136.507 140.734 131.317  1.00  0.00    -0.024 C 
ATOM      6  C   UNL     1     134.414 140.642 130.030  1.00  0.00     0.039 C 
ATOM      7  C   UNL     1     135.296 140.155 131.151  1.00  0.00    -0.080 C 
ATOM      8  C   UNL     1     134.817 139.038 132.047  1.00  0.00     0.039 C 
ENDBRANCH   4   5
ENDBRANCH   1   4
BRANCH   2   9
ATOM      9  C   UNL     1     140.533 138.602 130.818  1.00  0.00    -0.005 C 
ATOM     10  C   UNL     1     141.436 137.733 131.274  1.00  0.00     0.009 C 
ENDBRANCH   2   9
TORSDOF 3
ENDMDL
MODEL 3
REMARK VINA RESULT:    -3.835      3.262      5.169
REMARK INTER + INTRA:          -4.963
REMARK INTER:                  -4.511
REMARK INTRA:                  -0.451
REMARK UNBOUND:                -0.456
REMARK SMILES C=CC(C)=CCC=C(C)C
REMARK SMILES IDX 5 1 3 2 4 3 6 4 7 5 9 6 8 7 10 8 2 9 1 10
REMARK H PARENT
REMARK Flexibility Score: inf
ROOT
ATOM      1  C   UNL     1     134.900 134.018 131.856  1.00  0.00    -0.020 C 
ATOM      2  C   UNL     1     134.413 135.080 132.528  1.00  0.00    -0.055 C 
ATOM      3  C   UNL     1     134.944 135.471 133.889  1.00  0.00     0.044 C 
ENDROOT
BRANCH   1   4
ATOM      4  C   UNL     1     135.988 133.119 132.385  1.00  0.00     0.055 C 
BRANCH   4   5
ATOM      5  C   UNL     1     137.058 132.887 131.348  1.00  0.00    -0.024 C 
ATOM      6  C   UNL     1     139.223 133.207 130.228  1.00  0.00     0.039 C 
ATOM      7  C   UNL     1     138.237 133.548 131.315  1.00  0.00    -0.080 C 
ATOM      8  C   UNL     1     138.580 134.616 132.327  1.00  0.00     0.039 C 
ENDBRANCH   4   5
ENDBRANCH   1   4
BRANCH   2   9
ATOM      9  C   UNL     1     133.379 135.913 131.858  1.00  0.00    -0.005 C 
ATOM     10  C   UNL     1     132.683 135.510 130.795  1.00  0.00     0.009 C 
ENDBRANCH   2   9
TORSDOF 3
ENDMDL
MODEL 4
REMARK VINA RESULT:    -3.781      4.755      7.314
REMARK INTER + INTRA:          -4.899
REMARK INTER:                  -4.441
REMARK INTRA:                  -0.458
REMARK UNBOUND:                -0.456
REMARK SMILES C=CC(C)=CCC=C(C)C
REMARK SMILES IDX 5 1 3 2 4 3 6 4 7 5 9 6 8 7 10 8 2 9 1 10
REMARK H PARENT
REMARK Flexibility Score: inf
ROOT
ATOM      1  C   UNL     1     139.687 134.931 131.872  1.00  0.00    -0.020 C 
ATOM      2  C   UNL     1     138.613 134.509 132.569  1.00  0.00    -0.055 C 
ATOM      3  C   UNL     1     138.271 135.082 133.926  1.00  0.00     0.044 C 
ENDROOT
BRANCH   1   4
ATOM      4  C   UNL     1     140.646 135.984 132.366  1.00  0.00     0.055 C 
BRANCH   4   5
ATOM      5  C   UNL     1     140.876 137.047 131.323  1.00  0.00    -0.024 C 
ATOM      6  C   UNL     1     140.579 139.219 130.209  1.00  0.00     0.039 C 
ATOM      7  C   UNL     1     140.243 138.241 131.306  1.00  0.00    -0.080 C 
ATOM      8  C   UNL     1     139.210 138.611 132.344  1.00  0.00     0.039 C 
ENDBRANCH   4   5
ENDBRANCH   1   4
BRANCH   2   9
ATOM      9  C   UNL     1     137.721 133.505 131.932  1.00  0.00    -0.005 C 
ATOM     10  C   UNL     1     138.118 132.665 130.976  1.00  0.00     0.009 C 
ENDBRANCH   2   9
TORSDOF 3
ENDMDL
MODEL 5
REMARK VINA RESULT:    -3.757      2.538      4.767
REMARK INTER + INTRA:          -4.872
REMARK INTER:                  -4.590
REMARK INTRA:                  -0.281
REMARK UNBOUND:                -0.456
REMARK SMILES C=CC(C)=CCC=C(C)C
REMARK SMILES IDX 5 1 3 2 4 3 6 4 7 5 9 6 8 7 10 8 2 9 1 10
REMARK H PARENT
REMARK Flexibility Score: inf
ROOT
ATOM      1  C   UNL     1     134.470 135.031 132.128  1.00  0.00    -0.020 C 
ATOM      2  C   UNL     1     133.480 135.314 131.257  1.00  0.00    -0.055 C 
ATOM      3  C   UNL     1     133.255 134.483 130.013  1.00  0.00     0.044 C 
ENDROOT
BRANCH   1   4
ATOM      4  C   UNL     1     135.443 133.894 131.949  1.00  0.00     0.055 C 
BRANCH   4   5
ATOM      5  C   UNL     1     136.843 134.404 131.715  1.00  0.00    -0.024 C 
ATOM      6  C   UNL     1     139.228 134.265 131.136  1.00  0.00     0.039 C 
ATOM      7  C   UNL     1     137.882 133.621 131.350  1.00  0.00    -0.080 C 
ATOM      8  C   UNL     1     137.730 132.130 131.162  1.00  0.00     0.039 C 
ENDBRANCH   4   5
ENDBRANCH   1   4
BRANCH   2   9
ATOM      9  C   UNL     1     132.558 136.431 131.590  1.00  0.00    -0.005 C 
ATOM     10  C   UNL     1     132.925 137.510 132.282  1.00  0.00     0.009 C 
ENDBRANCH   2   9
TORSDOF 3
ENDMDL
MODEL 6
REMARK VINA RESULT:    -3.733      1.008      1.592
REMARK INTER + INTRA:          -4.844
REMARK INTER:                  -4.395
REMARK INTRA:                  -0.448
REMARK UNBOUND:                -0.456
REMARK SMILES C=CC(C)=CCC=C(C)C
REMARK SMILES IDX 5 1 3 2 4 3 6 4 7 5 9 6 8 7 10 8 2 9 1 10
REMARK H PARENT
REMARK Flexibility Score: inf
ROOT
ATOM      1  C   UNL     1     134.126 138.877 131.952  1.00  0.00    -0.020 C 
ATOM      2  C   UNL     1     134.672 139.309 130.798  1.00  0.00    -0.055 C 
ATOM      3  C   UNL     1     134.432 138.592 129.487  1.00  0.00     0.044 C 
ENDROOT
BRANCH   1   4
ATOM      4  C   UNL     1     133.252 137.654 132.059  1.00  0.00     0.055 C 
BRANCH   4   5
ATOM      5  C   UNL     1     134.072 136.417 132.326  1.00  0.00    -0.024 C 
ATOM      6  C   UNL     1     134.858 134.113 131.983  1.00  0.00     0.039 C 
ATOM      7  C   UNL     1     133.966 135.271 131.617  1.00  0.00    -0.080 C 
ATOM      8  C   UNL     1     132.980 135.123 130.482  1.00  0.00     0.039 C 
ENDBRANCH   4   5
ENDBRANCH   1   4
BRANCH   2   9
ATOM      9  C   UNL     1     135.467 140.564 130.830  1.00  0.00    -0.005 C 
ATOM     10  C   UNL     1     136.254 140.913 131.848  1.00  0.00     0.009 C 
ENDBRANCH   2   9
TORSDOF 3
ENDMDL
MODEL 7
REMARK VINA RESULT:    -3.729      4.582      7.304
REMARK INTER + INTRA:          -4.839
REMARK INTER:                  -4.403
REMARK INTRA:                  -0.435
REMARK UNBOUND:                -0.456
REMARK SMILES C=CC(C)=CCC=C(C)C
REMARK SMILES IDX 5 1 3 2 4 3 6 4 7 5 9 6 8 7 10 8 2 9 1 10
REMARK H PARENT
REMARK Flexibility Score: inf
ROOT
ATOM      1  C   UNL     1     139.673 134.747 131.899  1.00  0.00    -0.020 C 
ATOM      2  C   UNL     1     139.130 134.326 130.739  1.00  0.00    -0.055 C 
ATOM      3  C   UNL     1     139.345 135.076 129.443  1.00  0.00     0.044 C 
ENDROOT
BRANCH   1   4
ATOM      4  C   UNL     1     140.517 135.989 132.027  1.00  0.00     0.055 C 
BRANCH   4   5
ATOM      5  C   UNL     1     139.666 137.202 132.304  1.00  0.00    -0.024 C 
ATOM      6  C   UNL     1     138.844 139.500 132.001  1.00  0.00     0.039 C 
ATOM      7  C   UNL     1     139.768 138.369 131.628  1.00  0.00    -0.080 C 
ATOM      8  C   UNL     1     140.783 138.566 130.527  1.00  0.00     0.039 C 
ENDBRANCH   4   5
ENDBRANCH   1   4
BRANCH   2   9
ATOM      9  C   UNL     1     138.367 133.050 130.750  1.00  0.00    -0.005 C 
ATOM     10  C   UNL     1     137.478 132.730 131.691  1.00  0.00     0.009 C 
ENDBRANCH   2   9
TORSDOF 3
ENDMDL
MODEL 8
REMARK VINA RESULT:    -3.689      3.214      5.085
REMARK INTER + INTRA:          -4.792
REMARK INTER:                  -4.495
REMARK INTRA:                  -0.297
REMARK UNBOUND:                -0.456
REMARK SMILES C=CC(C)=CCC=C(C)C
REMARK SMILES IDX 5 1 3 2 4 3 6 4 7 5 9 6 8 7 10 8 2 9 1 10
REMARK H PARENT
REMARK Flexibility Score: inf
ROOT
ATOM      1  C   UNL     1     137.116 134.330 132.312  1.00  0.00    -0.020 C 
ATOM      2  C   UNL     1     138.043 133.670 131.590  1.00  0.00    -0.055 C 
ATOM      3  C   UNL     1     137.798 132.269 131.074  1.00  0.00     0.044 C 
ENDROOT
BRANCH   1   4
ATOM      4  C   UNL     1     135.776 133.751 132.686  1.00  0.00     0.055 C 
BRANCH   4   5
ATOM      5  C   UNL     1     134.737 134.053 131.635  1.00  0.00    -0.024 C 
ATOM      6  C   UNL     1     132.895 135.286 130.571  1.00  0.00     0.039 C 
ATOM      7  C   UNL     1     133.875 135.093 131.699  1.00  0.00    -0.080 C 
ATOM      8  C   UNL     1     133.866 136.049 132.869  1.00  0.00     0.039 C 
ENDBRANCH   4   5
ENDBRANCH   1   4
BRANCH   2   9
ATOM      9  C   UNL     1     139.299 134.386 131.246  1.00  0.00    -0.005 C 
ATOM     10  C   UNL     1     139.961 135.165 132.102  1.00  0.00     0.009 C 
ENDBRANCH   2   9
TORSDOF 3
ENDMDL
MODEL 9
REMARK VINA RESULT:    -3.647      4.437      5.539
REMARK INTER + INTRA:          -4.743
REMARK INTER:                  -4.263
REMARK INTRA:                  -0.480
REMARK UNBOUND:                -0.456
REMARK SMILES C=CC(C)=CCC=C(C)C
REMARK SMILES IDX 5 1 3 2 4 3 6 4 7 5 9 6 8 7 10 8 2 9 1 10
REMARK H PARENT
REMARK Flexibility Score: inf
ROOT
ATOM      1  C   UNL     1     140.186 136.968 131.948  1.00  0.00    -0.020 C 
ATOM      2  C   UNL     1     140.025 137.683 130.817  1.00  0.00    -0.055 C 
ATOM      3  C   UNL     1     140.013 137.025 129.454  1.00  0.00     0.044 C 
ENDROOT
BRANCH   1   4
ATOM      4  C   UNL     1     140.383 135.474 131.973  1.00  0.00     0.055 C 
BRANCH   4   5
ATOM      5  C   UNL     1     139.075 134.753 132.180  1.00  0.00    -0.024 C 
ATOM      6  C   UNL     1     137.281 133.146 131.686  1.00  0.00     0.039 C 
ATOM      7  C   UNL     1     138.599 133.795 131.352  1.00  0.00    -0.080 C 
ATOM      8  C   UNL     1     139.347 133.372 130.110  1.00  0.00     0.039 C 
ENDBRANCH   4   5
ENDBRANCH   1   4
BRANCH   2   9
ATOM      9  C   UNL     1     139.782 139.144 130.945  1.00  0.00    -0.005 C 
ATOM     10  C   UNL     1     138.877 139.671 131.770  1.00  0.00     0.009 C 
ENDBRANCH   2   9
TORSDOF 3
ENDMDL
