MODEL 1
REMARK VINA RESULT:    -6.890      0.000      0.000
REMARK INTER + INTRA:          -8.721
REMARK INTER:                  -8.703
REMARK INTRA:                  -0.018
REMARK UNBOUND:                -0.018
REMARK SMILES CC(C)=CCCC(C)=CCO
REMARK SMILES IDX 7 1 9 2 8 3 6 4 5 5 4 6 1 7 2 8 3 9 10 10 11 11
REMARK H PARENT 11 12
REMARK Flexibility Score: inf
ROOT
ATOM      1  C   UNL     1      23.393  37.708  13.191  1.00  0.00    -0.075 C 
ATOM      2  C   UNL     1      22.594  38.684  13.681  1.00  0.00    -0.000 C 
ATOM      3  C   UNL     1      24.214  37.913  11.940  1.00  0.00     0.039 C 
ENDROOT
BRANCH   1   4
ATOM      4  C   UNL     1      23.482  36.390  13.929  1.00  0.00     0.034 C 
BRANCH   4   5
ATOM      5  C   UNL     1      23.417  35.212  12.952  1.00  0.00     0.032 C 
BRANCH   5   6
ATOM      6  C   UNL     1      24.760  34.533  12.842  1.00  0.00    -0.028 C 
ATOM      7  C   UNL     1      24.710  33.695  15.201  1.00  0.00     0.039 C 
ATOM      8  C   UNL     1      25.365  33.869  13.851  1.00  0.00    -0.080 C 
ATOM      9  C   UNL     1      26.727  33.272  13.603  1.00  0.00     0.039 C 
ENDBRANCH   5   6
ENDBRANCH   4   5
ENDBRANCH   1   4
BRANCH   2  10
ATOM     10  C   UNL     1      22.430  40.034  13.040  1.00  0.00     0.183 C 
BRANCH  10  11
ATOM     11  O   UNL     1      23.309  40.949  13.631  1.00  0.00    -0.392 OA
ATOM     12  H   UNL     1      23.993  40.408  14.106  1.00  0.00     0.210 HD
ENDBRANCH  10  11
ENDBRANCH   2  10
TORSDOF 5
ENDMDL
MODEL 2
REMARK VINA RESULT:    -6.671      1.512      2.934
REMARK INTER + INTRA:          -8.444
REMARK INTER:                  -8.210
REMARK INTRA:                  -0.234
REMARK UNBOUND:                -0.018
REMARK SMILES CC(C)=CCCC(C)=CCO
REMARK SMILES IDX 7 1 9 2 8 3 6 4 5 5 4 6 1 7 2 8 3 9 10 10 11 11
REMARK H PARENT 11 12
REMARK Flexibility Score: inf
ROOT
ATOM      1  C   UNL     1      22.528  40.469  13.135  1.00  0.00    -0.075 C 
ATOM      2  C   UNL     1      23.016  41.404  13.982  1.00  0.00    -0.000 C 
ATOM      3  C   UNL     1      22.216  40.794  11.693  1.00  0.00     0.039 C 
ENDROOT
BRANCH   1   4
ATOM      4  C   UNL     1      22.312  39.059  13.641  1.00  0.00     0.034 C 
BRANCH   4   5
ATOM      5  C   UNL     1      23.321  38.093  13.010  1.00  0.00     0.032 C 
BRANCH   5   6
ATOM      6  C   UNL     1      23.702  37.006  13.984  1.00  0.00    -0.028 C 
ATOM      7  C   UNL     1      24.345  35.392  12.181  1.00  0.00     0.039 C 
ATOM      8  C   UNL     1      24.141  35.779  13.627  1.00  0.00    -0.080 C 
ATOM      9  C   UNL     1      24.449  34.781  14.714  1.00  0.00     0.039 C 
ENDBRANCH   5   6
ENDBRANCH   4   5
ENDBRANCH   1   4
BRANCH   2  10
ATOM     10  C   UNL     1      23.280  42.832  13.593  1.00  0.00     0.183 C 
BRANCH  10  11
ATOM     11  O   UNL     1      24.599  42.967  13.147  1.00  0.00    -0.392 OA
ATOM     12  H   UNL     1      24.793  42.155  12.610  1.00  0.00     0.210 HD
ENDBRANCH  10  11
ENDBRANCH   2  10
TORSDOF 5
ENDMDL
MODEL 3
REMARK VINA RESULT:    -6.195      2.842      5.897
REMARK INTER + INTRA:          -7.843
REMARK INTER:                  -7.646
REMARK INTRA:                  -0.197
REMARK UNBOUND:                -0.018
REMARK SMILES CC(C)=CCCC(C)=CCO
REMARK SMILES IDX 7 1 9 2 8 3 6 4 5 5 4 6 1 7 2 8 3 9 10 10 11 11
REMARK H PARENT 11 12
REMARK Flexibility Score: inf
ROOT
ATOM      1  C   UNL     1      24.550  35.311  12.994  1.00  0.00    -0.075 C 
ATOM      2  C   UNL     1      24.939  34.281  12.208  1.00  0.00    -0.000 C 
ATOM      3  C   UNL     1      24.521  35.189  14.500  1.00  0.00     0.039 C 
ENDROOT
BRANCH   1   4
ATOM      4  C   UNL     1      24.157  36.622  12.349  1.00  0.00     0.034 C 
BRANCH   4   5
ATOM      5  C   UNL     1      23.145  37.376  13.218  1.00  0.00     0.032 C 
BRANCH   5   6
ATOM      6  C   UNL     1      23.482  38.844  13.280  1.00  0.00    -0.028 C 
ATOM      7  C   UNL     1      21.082  39.559  13.336  1.00  0.00     0.039 C 
ATOM      8  C   UNL     1      22.567  39.838  13.309  1.00  0.00    -0.080 C 
ATOM      9  C   UNL     1      23.055  41.264  13.332  1.00  0.00     0.039 C 
ENDBRANCH   5   6
ENDBRANCH   4   5
ENDBRANCH   1   4
BRANCH   2  10
ATOM     10  C   UNL     1      25.359  32.937  12.733  1.00  0.00     0.183 C 
BRANCH  10  11
ATOM     11  O   UNL     1      26.678  32.999  13.197  1.00  0.00    -0.392 OA
ATOM     12  H   UNL     1      27.024  32.069  13.167  1.00  0.00     0.210 HD
ENDBRANCH  10  11
ENDBRANCH   2  10
TORSDOF 5
ENDMDL
MODEL 4
REMARK VINA RESULT:    -6.188      1.879      2.243
REMARK INTER + INTRA:          -7.834
REMARK INTER:                  -7.841
REMARK INTRA:                   0.007
REMARK UNBOUND:                -0.018
REMARK SMILES CC(C)=CCCC(C)=CCO
REMARK SMILES IDX 7 1 9 2 8 3 6 4 5 5 4 6 1 7 2 8 3 9 10 10 11 11
REMARK H PARENT 11 12
REMARK Flexibility Score: inf
ROOT
ATOM      1  C   UNL     1      24.667  37.025  12.786  1.00  0.00    -0.075 C 
ATOM      2  C   UNL     1      25.609  37.321  13.710  1.00  0.00    -0.000 C 
ATOM      3  C   UNL     1      24.899  37.271  11.314  1.00  0.00     0.039 C 
ENDROOT
BRANCH   1   4
ATOM      4  C   UNL     1      23.360  36.411  13.238  1.00  0.00     0.034 C 
BRANCH   4   5
ATOM      5  C   UNL     1      23.258  34.950  12.785  1.00  0.00     0.032 C 
BRANCH   5   6
ATOM      6  C   UNL     1      24.621  34.309  12.736  1.00  0.00    -0.028 C 
ATOM      7  C   UNL     1      24.653  33.808  15.190  1.00  0.00     0.039 C 
ATOM      8  C   UNL     1      25.272  33.813  13.811  1.00  0.00    -0.080 C 
ATOM      9  C   UNL     1      26.650  33.234  13.614  1.00  0.00     0.039 C 
ENDBRANCH   5   6
ENDBRANCH   4   5
ENDBRANCH   1   4
BRANCH   2  10
ATOM     10  C   UNL     1      26.946  37.924  13.382  1.00  0.00     0.183 C 
BRANCH  10  11
ATOM     11  O   UNL     1      26.822  39.313  13.255  1.00  0.00    -0.392 OA
ATOM     12  H   UNL     1      27.724  39.648  13.010  1.00  0.00     0.210 HD
ENDBRANCH  10  11
ENDBRANCH   2  10
TORSDOF 5
ENDMDL
MODEL 5
REMARK VINA RESULT:    -6.020      2.824      6.017
REMARK INTER + INTRA:          -7.622
REMARK INTER:                  -7.352
REMARK INTRA:                  -0.270
REMARK UNBOUND:                -0.018
REMARK SMILES CC(C)=CCCC(C)=CCO
REMARK SMILES IDX 7 1 9 2 8 3 6 4 5 5 4 6 1 7 2 8 3 9 10 10 11 11
REMARK H PARENT 11 12
REMARK Flexibility Score: inf
ROOT
ATOM      1  C   UNL     1      23.971  36.488  12.835  1.00  0.00    -0.075 C 
ATOM      2  C   UNL     1      23.815  35.149  12.949  1.00  0.00    -0.000 C 
ATOM      3  C   UNL     1      24.883  37.091  11.792  1.00  0.00     0.039 C 
ENDROOT
BRANCH   1   4
ATOM      4  C   UNL     1      23.195  37.401  13.759  1.00  0.00     0.034 C 
BRANCH   4   5
ATOM      5  C   UNL     1      22.597  38.580  12.985  1.00  0.00     0.032 C 
BRANCH   5   6
ATOM      6  C   UNL     1      22.824  39.875  13.723  1.00  0.00    -0.028 C 
ATOM      7  C   UNL     1      22.264  41.293  11.737  1.00  0.00     0.039 C 
ATOM      8  C   UNL     1      22.702  41.102  13.170  1.00  0.00    -0.080 C 
ATOM      9  C   UNL     1      22.998  42.308  14.024  1.00  0.00     0.039 C 
ENDBRANCH   5   6
ENDBRANCH   4   5
ENDBRANCH   1   4
BRANCH   2  10
ATOM     10  C   UNL     1      24.525  34.145  12.084  1.00  0.00     0.183 C 
BRANCH  10  11
ATOM     11  O   UNL     1      25.301  33.296  12.880  1.00  0.00    -0.392 OA
ATOM     12  H   UNL     1      25.202  33.625  13.812  1.00  0.00     0.210 HD
ENDBRANCH  10  11
ENDBRANCH   2  10
TORSDOF 5
ENDMDL
MODEL 6
REMARK VINA RESULT:    -5.408     11.307     14.176
REMARK INTER + INTRA:          -6.849
REMARK INTER:                  -6.461
REMARK INTRA:                  -0.388
REMARK UNBOUND:                -0.018
REMARK SMILES CC(C)=CCCC(C)=CCO
REMARK SMILES IDX 7 1 9 2 8 3 6 4 5 5 4 6 1 7 2 8 3 9 10 10 11 11
REMARK H PARENT 11 12
REMARK Flexibility Score: inf
ROOT
ATOM      1  C   UNL     1      12.898  42.733  15.601  1.00  0.00    -0.075 C 
ATOM      2  C   UNL     1      13.978  43.018  16.364  1.00  0.00    -0.000 C 
ATOM      3  C   UNL     1      12.781  41.427  14.852  1.00  0.00     0.039 C 
ENDROOT
BRANCH   1   4
ATOM      4  C   UNL     1      11.771  43.740  15.516  1.00  0.00     0.034 C 
BRANCH   4   5
ATOM      5  C   UNL     1      12.235  45.019  14.809  1.00  0.00     0.032 C 
BRANCH   5   6
ATOM      6  C   UNL     1      12.658  44.723  13.392  1.00  0.00    -0.028 C 
ATOM      7  C   UNL     1      10.617  45.775  12.392  1.00  0.00     0.039 C 
ATOM      8  C   UNL     1      11.931  45.034  12.297  1.00  0.00    -0.080 C 
ATOM      9  C   UNL     1      12.465  44.641  10.943  1.00  0.00     0.039 C 
ENDBRANCH   5   6
ENDBRANCH   4   5
ENDBRANCH   1   4
BRANCH   2  10
ATOM     10  C   UNL     1      15.153  42.095  16.532  1.00  0.00     0.183 C 
BRANCH  10  11
ATOM     11  O   UNL     1      15.556  42.078  17.872  1.00  0.00    -0.392 OA
ATOM     12  H   UNL     1      14.731  42.209  18.409  1.00  0.00     0.210 HD
ENDBRANCH  10  11
ENDBRANCH   2  10
TORSDOF 5
ENDMDL
MODEL 7
REMARK VINA RESULT:    -5.336     13.801     14.708
REMARK INTER + INTRA:          -6.758
REMARK INTER:                  -6.258
REMARK INTRA:                  -0.500
REMARK UNBOUND:                -0.018
REMARK SMILES CC(C)=CCCC(C)=CCO
REMARK SMILES IDX 7 1 9 2 8 3 6 4 5 5 4 6 1 7 2 8 3 9 10 10 11 11
REMARK H PARENT 11 12
REMARK Flexibility Score: inf
ROOT
ATOM      1  C   UNL     1      10.878  44.376  12.610  1.00  0.00    -0.075 C 
ATOM      2  C   UNL     1      11.810  43.895  11.756  1.00  0.00    -0.000 C 
ATOM      3  C   UNL     1      10.452  45.825  12.580  1.00  0.00     0.039 C 
ENDROOT
BRANCH   1   4
ATOM      4  C   UNL     1      10.232  43.433  13.602  1.00  0.00     0.034 C 
BRANCH   4   5
ATOM      5  C   UNL     1      11.244  42.400  14.110  1.00  0.00     0.032 C 
BRANCH   5   6
ATOM      6  C   UNL     1      11.309  42.412  15.617  1.00  0.00    -0.028 C 
ATOM      7  C   UNL     1      13.173  44.083  15.684  1.00  0.00     0.039 C 
ATOM      8  C   UNL     1      12.186  43.144  16.338  1.00  0.00    -0.080 C 
ATOM      9  C   UNL     1      12.158  43.024  17.841  1.00  0.00     0.039 C 
ENDBRANCH   5   6
ENDBRANCH   4   5
ENDBRANCH   1   4
BRANCH   2  10
ATOM     10  C   UNL     1      12.513  44.731  10.723  1.00  0.00     0.183 C 
BRANCH  10  11
ATOM     11  O   UNL     1      12.520  44.062   9.494  1.00  0.00    -0.392 OA
ATOM     12  H   UNL     1      13.090  43.260   9.620  1.00  0.00     0.210 HD
ENDBRANCH  10  11
ENDBRANCH   2  10
TORSDOF 5
ENDMDL
MODEL 8
REMARK VINA RESULT:    -5.311     12.768     15.113
REMARK INTER + INTRA:          -6.726
REMARK INTER:                  -6.075
REMARK INTRA:                  -0.651
REMARK UNBOUND:                -0.018
REMARK SMILES CC(C)=CCCC(C)=CCO
REMARK SMILES IDX 7 1 9 2 8 3 6 4 5 5 4 6 1 7 2 8 3 9 10 10 11 11
REMARK H PARENT 11 12
REMARK Flexibility Score: inf
ROOT
ATOM      1  C   UNL     1      11.623  44.387  15.764  1.00  0.00    -0.075 C 
ATOM      2  C   UNL     1      12.960  44.201  15.849  1.00  0.00    -0.000 C 
ATOM      3  C   UNL     1      10.650  43.263  16.034  1.00  0.00     0.039 C 
ENDROOT
BRANCH   1   4
ATOM      4  C   UNL     1      11.092  45.759  15.411  1.00  0.00     0.034 C 
BRANCH   4   5
ATOM      5  C   UNL     1      10.332  45.725  14.081  1.00  0.00     0.032 C 
BRANCH   5   6
ATOM      6  C   UNL     1      11.292  45.674  12.918  1.00  0.00    -0.028 C 
ATOM      7  C   UNL     1      10.603  43.364  12.241  1.00  0.00     0.039 C 
ATOM      8  C   UNL     1      11.443  44.612  12.097  1.00  0.00    -0.080 C 
ATOM      9  C   UNL     1      12.470  44.693  10.998  1.00  0.00     0.039 C 
ENDBRANCH   5   6
ENDBRANCH   4   5
ENDBRANCH   1   4
BRANCH   2  10
ATOM     10  C   UNL     1      13.604  42.888  16.199  1.00  0.00     0.183 C 
BRANCH  10  11
ATOM     11  O   UNL     1      14.934  43.097  16.579  1.00  0.00    -0.392 OA
ATOM     12  H   UNL     1      15.111  44.065  16.442  1.00  0.00     0.210 HD
ENDBRANCH  10  11
ENDBRANCH   2  10
TORSDOF 5
ENDMDL
MODEL 9
REMARK VINA RESULT:    -4.164      7.840      9.655
REMARK INTER + INTRA:          -5.278
REMARK INTER:                  -4.860
REMARK INTRA:                  -0.418
REMARK UNBOUND:                -0.018
REMARK SMILES CC(C)=CCCC(C)=CCO
REMARK SMILES IDX 7 1 9 2 8 3 6 4 5 5 4 6 1 7 2 8 3 9 10 10 11 11
REMARK H PARENT 11 12
REMARK Flexibility Score: inf
ROOT
ATOM      1  C   UNL     1      29.219  43.628  13.572  1.00  0.00    -0.075 C 
ATOM      2  C   UNL     1      27.964  43.342  13.988  1.00  0.00    -0.000 C 
ATOM      3  C   UNL     1      29.751  43.118  12.253  1.00  0.00     0.039 C 
ENDROOT
BRANCH   1   4
ATOM      4  C   UNL     1      30.101  44.499  14.440  1.00  0.00     0.034 C 
BRANCH   4   5
ATOM      5  C   UNL     1      30.125  43.983  15.883  1.00  0.00     0.032 C 
BRANCH   5   6
ATOM      6  C   UNL     1      29.434  44.953  16.809  1.00  0.00    -0.028 C 
ATOM      7  C   UNL     1      27.879  43.219  17.727  1.00  0.00     0.039 C 
ATOM      8  C   UNL     1      28.407  44.631  17.626  1.00  0.00    -0.080 C 
ATOM      9  C   UNL     1      27.791  45.717  18.469  1.00  0.00     0.039 C 
ENDBRANCH   5   6
ENDBRANCH   4   5
ENDBRANCH   1   4
BRANCH   2  10
ATOM     10  C   UNL     1      26.995  42.496  13.209  1.00  0.00     0.183 C 
BRANCH  10  11
ATOM     11  O   UNL     1      25.859  42.240  13.985  1.00  0.00    -0.392 OA
ATOM     12  H   UNL     1      25.995  41.341  14.383  1.00  0.00     0.210 HD
ENDBRANCH  10  11
ENDBRANCH   2  10
TORSDOF 5
ENDMDL
