MODEL 1
REMARK VINA RESULT:    -8.934      0.000      0.000
REMARK INTER + INTRA:         -10.646
REMARK INTER:                 -10.500
REMARK INTRA:                  -0.146
REMARK UNBOUND:                -0.146
REMARK SMILES CC1(C)CC[C@]2(C(=O)[O-])CC[C@]3(C)C(=CC[C@H]4[C@]5(C)CC[C@@H](O)[C@@](C)(CO)[C@@H]5CC[C@]43C)[C@@H]2C1
REMARK SMILES IDX 6 1 5 2 10 3 33 4 4 5 11 6 14 7 34 8 2 9 12 10 15 11 1 12
REMARK SMILES IDX 3 13 13 14 31 15 16 16 17 17 30 18 32 19 18 20 29 21 28 22
REMARK SMILES IDX 20 23 19 24 24 25 21 26 22 27 25 28 7 29 8 30 9 31 26 32
REMARK SMILES IDX 27 33 23 35
REMARK H PARENT 27 34 23 36
REMARK Flexibility Score: inf
ROOT
ATOM      1  C   UNL     1      17.275  50.494  30.207  1.00  0.00     0.017 C 
ATOM      2  C   UNL     1      16.845  51.266  31.494  1.00  0.00     0.014 C 
ATOM      3  C   UNL     1      16.111  50.400  29.204  1.00  0.00     0.014 C 
ATOM      4  C   UNL     1      17.747  49.054  30.579  1.00  0.00     0.028 C 
ATOM      5  C   UNL     1      17.968  51.349  32.532  1.00  0.00     0.007 C 
ATOM      6  C   UNL     1      14.886  49.697  29.789  1.00  0.00     0.013 C 
ATOM      7  C   UNL     1      16.619  48.017  30.764  1.00  0.00    -0.064 C 
ATOM      8  C   UNL     1      18.816  49.098  31.723  1.00  0.00     0.015 C 
ATOM      9  C   UNL     1      18.456  49.948  32.976  1.00  0.00    -0.035 C 
ATOM     10  C   UNL     1      15.135  48.254  30.386  1.00  0.00    -0.006 C 
ATOM     11  C   UNL     1      16.986  46.754  31.071  1.00  0.00    -0.027 C 
ATOM     12  C   UNL     1      19.743  50.143  33.812  1.00  0.00     0.011 C 
ATOM     13  C   UNL     1      17.396  49.232  33.871  1.00  0.00     0.011 C 
ATOM     14  C   UNL     1      14.327  48.234  31.725  1.00  0.00     0.017 C 
ATOM     15  C   UNL     1      14.645  47.083  29.361  1.00  0.00    -0.020 C 
ATOM     16  C   UNL     1      16.018  45.615  31.058  1.00  0.00     0.032 C 
ATOM     17  C   UNL     1      15.202  45.615  29.736  1.00  0.00     0.006 C 
ATOM     18  C   UNL     1      13.092  47.100  29.281  1.00  0.00     0.008 C 
ATOM     19  C   UNL     1      15.193  47.411  27.931  1.00  0.00     0.012 C 
ATOM     20  C   UNL     1      14.268  44.301  29.474  1.00  0.00    -0.025 C 
ATOM     21  C   UNL     1      12.495  45.907  28.571  1.00  0.00     0.005 C 
ATOM     22  C   UNL     1      12.711  44.616  29.396  1.00  0.00     0.006 C 
ATOM     23  C   UNL     1      14.713  43.648  28.122  1.00  0.00     0.010 C 
ATOM     24  C   UNL     1      14.534  43.248  30.595  1.00  0.00     0.012 C 
ATOM     25  C   UNL     1      11.780  43.412  28.875  1.00  0.00     0.020 C 
ATOM     26  C   UNL     1      13.875  42.443  27.686  1.00  0.00     0.033 C 
ATOM     27  C   UNL     1      12.388  42.803  27.567  1.00  0.00     0.123 C 
ATOM     28  C   UNL     1      10.354  43.922  28.490  1.00  0.00     0.017 C 
ENDROOT
BRANCH   1  29
ATOM     29  C   UNL     1      18.389  51.263  29.495  1.00  0.00     0.048 C 
ATOM     30  O   UNL     1      19.207  50.666  28.747  1.00  0.00    -0.550 OA
ATOM     31  O   UNL     1      18.451  52.650  29.573  1.00  0.00    -0.550 OA
ENDBRANCH   1  29
BRANCH  25  32
ATOM     32  C   UNL     1      11.523  42.354  30.027  1.00  0.00     0.165 C 
BRANCH  32  33
ATOM     33  O   UNL     1      10.606  42.803  30.987  1.00  0.00    -0.396 OA
ATOM     34  H   UNL     1      10.239  43.660  30.641  1.00  0.00     0.210 HD
ENDBRANCH  32  33
ENDBRANCH  25  32
BRANCH  27  35
ATOM     35  O   UNL     1      11.656  41.672  27.164  1.00  0.00    -0.392 OA
ATOM     36  H   UNL     1      10.702  41.950  27.096  1.00  0.00     0.210 HD
ENDBRANCH  27  35
TORSDOF 4
ENDMDL
MODEL 2
REMARK VINA RESULT:    -8.196      1.892      3.327
REMARK INTER + INTRA:          -9.780
REMARK INTER:                  -9.445
REMARK INTRA:                  -0.335
REMARK UNBOUND:                -0.146
REMARK SMILES CC1(C)CC[C@]2(C(=O)[O-])CC[C@]3(C)C(=CC[C@H]4[C@]5(C)CC[C@@H](O)[C@@](C)(CO)[C@@H]5CC[C@]43C)[C@@H]2C1
REMARK SMILES IDX 6 1 5 2 10 3 33 4 4 5 11 6 14 7 34 8 2 9 12 10 15 11 1 12
REMARK SMILES IDX 3 13 13 14 31 15 16 16 17 17 30 18 32 19 18 20 29 21 28 22
REMARK SMILES IDX 20 23 19 24 24 25 21 26 22 27 25 28 7 29 8 30 9 31 26 32
REMARK SMILES IDX 27 33 23 35
REMARK H PARENT 27 34 23 36
REMARK Flexibility Score: inf
ROOT
ATOM      1  C   UNL     1      18.849  49.447  32.306  1.00  0.00     0.017 C 
ATOM      2  C   UNL     1      19.148  50.595  31.290  1.00  0.00     0.014 C 
ATOM      3  C   UNL     1      19.066  48.066  31.661  1.00  0.00     0.014 C 
ATOM      4  C   UNL     1      17.376  49.549  32.810  1.00  0.00     0.028 C 
ATOM      5  C   UNL     1      18.907  51.985  31.887  1.00  0.00     0.007 C 
ATOM      6  C   UNL     1      18.187  47.849  30.429  1.00  0.00     0.013 C 
ATOM      7  C   UNL     1      16.314  48.932  31.876  1.00  0.00    -0.064 C 
ATOM      8  C   UNL     1      17.063  50.997  33.322  1.00  0.00     0.015 C 
ATOM      9  C   UNL     1      17.448  52.166  32.371  1.00  0.00    -0.035 C 
ATOM     10  C   UNL     1      16.633  48.048  30.644  1.00  0.00    -0.006 C 
ATOM     11  C   UNL     1      15.028  48.985  32.283  1.00  0.00    -0.027 C 
ATOM     12  C   UNL     1      17.383  53.485  33.178  1.00  0.00     0.011 C 
ATOM     13  C   UNL     1      16.458  52.280  31.170  1.00  0.00     0.011 C 
ATOM     14  C   UNL     1      16.160  48.851  29.387  1.00  0.00     0.017 C 
ATOM     15  C   UNL     1      15.854  46.622  30.784  1.00  0.00    -0.020 C 
ATOM     16  C   UNL     1      13.937  48.235  31.589  1.00  0.00     0.032 C 
ATOM     17  C   UNL     1      14.354  46.755  31.369  1.00  0.00     0.006 C 
ATOM     18  C   UNL     1      15.866  45.903  29.406  1.00  0.00     0.008 C 
ATOM     19  C   UNL     1      16.643  45.720  31.793  1.00  0.00     0.012 C 
ATOM     20  C   UNL     1      13.181  45.755  30.830  1.00  0.00    -0.025 C 
ATOM     21  C   UNL     1      14.960  44.695  29.329  1.00  0.00     0.005 C 
ATOM     22  C   UNL     1      13.475  45.121  29.401  1.00  0.00     0.006 C 
ATOM     23  C   UNL     1      13.016  44.593  31.865  1.00  0.00     0.010 C 
ATOM     24  C   UNL     1      11.825  46.526  30.793  1.00  0.00     0.012 C 
ATOM     25  C   UNL     1      12.491  43.932  28.948  1.00  0.00     0.020 C 
ATOM     26  C   UNL     1      12.006  43.515  31.465  1.00  0.00     0.033 C 
ATOM     27  C   UNL     1      12.356  42.889  30.109  1.00  0.00     0.123 C 
ATOM     28  C   UNL     1      13.070  43.147  27.728  1.00  0.00     0.017 C 
ENDROOT
BRANCH   1  29
ATOM     29  C   UNL     1      19.830  49.529  33.476  1.00  0.00     0.048 C 
ATOM     30  O   UNL     1      19.452  49.283  34.652  1.00  0.00    -0.550 OA
ATOM     31  O   UNL     1      21.181  49.767  33.250  1.00  0.00    -0.550 OA
ENDBRANCH   1  29
BRANCH  25  32
ATOM     32  C   UNL     1      11.108  44.506  28.427  1.00  0.00     0.165 C 
BRANCH  32  33
ATOM     33  O   UNL     1      10.372  43.570  27.687  1.00  0.00    -0.396 OA
ATOM     34  H   UNL     1      10.208  42.802  28.296  1.00  0.00     0.210 HD
ENDBRANCH  32  33
ENDBRANCH  25  32
BRANCH  27  35
ATOM     35  O   UNL     1      11.405  41.906  29.779  1.00  0.00    -0.392 OA
ATOM     36  H   UNL     1      10.507  42.329  29.859  1.00  0.00     0.210 HD
ENDBRANCH  27  35
TORSDOF 4
ENDMDL
MODEL 3
REMARK VINA RESULT:    -8.037      1.788      8.519
REMARK INTER + INTRA:          -9.592
REMARK INTER:                  -9.889
REMARK INTRA:                   0.296
REMARK UNBOUND:                -0.146
REMARK SMILES CC1(C)CC[C@]2(C(=O)[O-])CC[C@]3(C)C(=CC[C@H]4[C@]5(C)CC[C@@H](O)[C@@](C)(CO)[C@@H]5CC[C@]43C)[C@@H]2C1
REMARK SMILES IDX 6 1 5 2 10 3 33 4 4 5 11 6 14 7 34 8 2 9 12 10 15 11 1 12
REMARK SMILES IDX 3 13 13 14 31 15 16 16 17 17 30 18 32 19 18 20 29 21 28 22
REMARK SMILES IDX 20 23 19 24 24 25 21 26 22 27 25 28 7 29 8 30 9 31 26 32
REMARK SMILES IDX 27 33 23 35
REMARK H PARENT 27 34 23 36
REMARK Flexibility Score: inf
ROOT
ATOM      1  C   UNL     1      13.897  42.628  30.619  1.00  0.00     0.017 C 
ATOM      2  C   UNL     1      12.336  42.624  30.615  1.00  0.00     0.014 C 
ATOM      3  C   UNL     1      14.447  43.243  31.919  1.00  0.00     0.014 C 
ATOM      4  C   UNL     1      14.433  43.444  29.402  1.00  0.00     0.028 C 
ATOM      5  C   UNL     1      11.753  42.052  29.320  1.00  0.00     0.007 C 
ATOM      6  C   UNL     1      13.970  44.678  32.137  1.00  0.00     0.013 C 
ATOM      7  C   UNL     1      14.479  44.974  29.601  1.00  0.00    -0.064 C 
ATOM      8  C   UNL     1      13.766  42.959  28.070  1.00  0.00     0.015 C 
ATOM      9  C   UNL     1      12.214  42.845  28.073  1.00  0.00    -0.035 C 
ATOM     10  C   UNL     1      14.261  45.691  30.958  1.00  0.00    -0.006 C 
ATOM     11  C   UNL     1      14.952  45.716  28.578  1.00  0.00    -0.027 C 
ATOM     12  C   UNL     1      11.788  42.042  26.822  1.00  0.00     0.011 C 
ATOM     13  C   UNL     1      11.536  44.249  28.006  1.00  0.00     0.011 C 
ATOM     14  C   UNL     1      12.942  46.521  30.814  1.00  0.00     0.017 C 
ATOM     15  C   UNL     1      15.546  46.642  31.280  1.00  0.00    -0.020 C 
ATOM     16  C   UNL     1      15.256  47.173  28.720  1.00  0.00     0.032 C 
ATOM     17  C   UNL     1      16.118  47.423  29.988  1.00  0.00     0.006 C 
ATOM     18  C   UNL     1      15.171  47.627  32.422  1.00  0.00     0.008 C 
ATOM     19  C   UNL     1      16.715  45.739  31.802  1.00  0.00     0.012 C 
ATOM     20  C   UNL     1      16.723  48.931  30.153  1.00  0.00    -0.025 C 
ATOM     21  C   UNL     1      16.180  48.732  32.644  1.00  0.00     0.005 C 
ATOM     22  C   UNL     1      16.198  49.704  31.441  1.00  0.00     0.006 C 
ATOM     23  C   UNL     1      18.282  48.825  30.237  1.00  0.00     0.010 C 
ATOM     24  C   UNL     1      16.393  49.761  28.873  1.00  0.00     0.012 C 
ATOM     25  C   UNL     1      16.962  51.075  31.793  1.00  0.00     0.020 C 
ATOM     26  C   UNL     1      19.004  50.153  30.479  1.00  0.00     0.033 C 
ATOM     27  C   UNL     1      18.510  50.839  31.759  1.00  0.00     0.123 C 
ATOM     28  C   UNL     1      16.630  51.555  33.242  1.00  0.00     0.017 C 
ENDROOT
BRANCH   1  29
ATOM     29  C   UNL     1      14.414  41.189  30.577  1.00  0.00     0.048 C 
ATOM     30  O   UNL     1      14.650  40.621  29.479  1.00  0.00    -0.550 OA
ATOM     31  O   UNL     1      14.737  40.520  31.752  1.00  0.00    -0.550 OA
ENDBRANCH   1  29
BRANCH  25  32
ATOM     32  C   UNL     1      16.465  52.258  30.862  1.00  0.00     0.165 C 
BRANCH  32  33
ATOM     33  O   UNL     1      15.417  52.996  31.430  1.00  0.00    -0.396 OA
ATOM     34  H   UNL     1      14.715  53.065  30.732  1.00  0.00     0.210 HD
ENDBRANCH  32  33
ENDBRANCH  25  32
BRANCH  27  35
ATOM     35  O   UNL     1      19.196  52.052  31.945  1.00  0.00    -0.392 OA
ATOM     36  H   UNL     1      19.048  52.331  32.889  1.00  0.00     0.210 HD
ENDBRANCH  27  35
TORSDOF 4
ENDMDL
MODEL 4
REMARK VINA RESULT:    -7.990      1.762      2.701
REMARK INTER + INTRA:          -9.538
REMARK INTER:                  -9.528
REMARK INTRA:                  -0.010
REMARK UNBOUND:                -0.146
REMARK SMILES CC1(C)CC[C@]2(C(=O)[O-])CC[C@]3(C)C(=CC[C@H]4[C@]5(C)CC[C@@H](O)[C@@](C)(CO)[C@@H]5CC[C@]43C)[C@@H]2C1
REMARK SMILES IDX 6 1 5 2 10 3 33 4 4 5 11 6 14 7 34 8 2 9 12 10 15 11 1 12
REMARK SMILES IDX 3 13 13 14 31 15 16 16 17 17 30 18 32 19 18 20 29 21 28 22
REMARK SMILES IDX 20 23 19 24 24 25 21 26 22 27 25 28 7 29 8 30 9 31 26 32
REMARK SMILES IDX 27 33 23 35
REMARK H PARENT 27 34 23 36
REMARK Flexibility Score: inf
ROOT
ATOM      1  C   UNL     1      17.379  50.438  30.995  1.00  0.00     0.017 C 
ATOM      2  C   UNL     1      16.513  51.612  30.441  1.00  0.00     0.014 C 
ATOM      3  C   UNL     1      17.743  49.443  29.878  1.00  0.00     0.014 C 
ATOM      4  C   UNL     1      16.603  49.683  32.118  1.00  0.00     0.028 C 
ATOM      5  C   UNL     1      16.101  52.604  31.533  1.00  0.00     0.007 C 
ATOM      6  C   UNL     1      16.510  48.843  29.202  1.00  0.00     0.013 C 
ATOM      7  C   UNL     1      15.585  48.633  31.626  1.00  0.00    -0.064 C 
ATOM      8  C   UNL     1      16.067  50.687  33.195  1.00  0.00     0.015 C 
ATOM      9  C   UNL     1      15.288  51.924  32.662  1.00  0.00    -0.035 C 
ATOM     10  C   UNL     1      15.468  48.139  30.162  1.00  0.00    -0.006 C 
ATOM     11  C   UNL     1      14.903  47.946  32.567  1.00  0.00    -0.027 C 
ATOM     12  C   UNL     1      15.151  52.943  33.818  1.00  0.00     0.011 C 
ATOM     13  C   UNL     1      13.855  51.537  32.180  1.00  0.00     0.011 C 
ATOM     14  C   UNL     1      14.070  48.614  29.644  1.00  0.00     0.017 C 
ATOM     15  C   UNL     1      15.612  46.516  30.125  1.00  0.00    -0.020 C 
ATOM     16  C   UNL     1      14.059  46.757  32.235  1.00  0.00     0.032 C 
ATOM     17  C   UNL     1      14.851  45.767  31.337  1.00  0.00     0.006 C 
ATOM     18  C   UNL     1      15.127  45.997  28.742  1.00  0.00     0.008 C 
ATOM     19  C   UNL     1      17.128  46.146  30.261  1.00  0.00     0.012 C 
ATOM     20  C   UNL     1      14.146  44.316  31.080  1.00  0.00    -0.025 C 
ATOM     21  C   UNL     1      14.965  44.496  28.664  1.00  0.00     0.005 C 
ATOM     22  C   UNL     1      13.792  44.028  29.557  1.00  0.00     0.006 C 
ATOM     23  C   UNL     1      15.124  43.203  31.584  1.00  0.00     0.010 C 
ATOM     24  C   UNL     1      12.853  44.211  31.949  1.00  0.00     0.012 C 
ATOM     25  C   UNL     1      13.349  42.518  29.217  1.00  0.00     0.020 C 
ATOM     26  C   UNL     1      14.646  41.770  31.338  1.00  0.00     0.033 C 
ATOM     27  C   UNL     1      14.369  41.515  29.851  1.00  0.00     0.123 C 
ATOM     28  C   UNL     1      13.379  42.251  27.678  1.00  0.00     0.017 C 
ENDROOT
BRANCH   1  29
ATOM     29  C   UNL     1      18.706  50.985  31.525  1.00  0.00     0.048 C 
ATOM     30  O   UNL     1      19.507  50.239  32.148  1.00  0.00    -0.550 OA
ATOM     31  O   UNL     1      19.101  52.285  31.235  1.00  0.00    -0.550 OA
ENDBRANCH   1  29
BRANCH  25  32
ATOM     32  C   UNL     1      11.841  42.262  29.632  1.00  0.00     0.165 C 
BRANCH  32  33
ATOM     33  O   UNL     1      10.924  42.843  28.746  1.00  0.00    -0.396 OA
ATOM     34  H   UNL     1      10.784  42.182  28.018  1.00  0.00     0.210 HD
ENDBRANCH  32  33
ENDBRANCH  25  32
BRANCH  27  35
ATOM     35  O   UNL     1      13.934  40.189  29.668  1.00  0.00    -0.392 OA
ATOM     36  H   UNL     1      13.156  40.051  30.274  1.00  0.00     0.210 HD
ENDBRANCH  27  35
TORSDOF 4
ENDMDL
MODEL 5
REMARK VINA RESULT:    -7.956      1.501      2.103
REMARK INTER + INTRA:          -9.497
REMARK INTER:                  -9.443
REMARK INTRA:                  -0.055
REMARK UNBOUND:                -0.146
REMARK SMILES CC1(C)CC[C@]2(C(=O)[O-])CC[C@]3(C)C(=CC[C@H]4[C@]5(C)CC[C@@H](O)[C@@](C)(CO)[C@@H]5CC[C@]43C)[C@@H]2C1
REMARK SMILES IDX 6 1 5 2 10 3 33 4 4 5 11 6 14 7 34 8 2 9 12 10 15 11 1 12
REMARK SMILES IDX 3 13 13 14 31 15 16 16 17 17 30 18 32 19 18 20 29 21 28 22
REMARK SMILES IDX 20 23 19 24 24 25 21 26 22 27 25 28 7 29 8 30 9 31 26 32
REMARK SMILES IDX 27 33 23 35
REMARK H PARENT 27 34 23 36
REMARK Flexibility Score: inf
ROOT
ATOM      1  C   UNL     1      17.902  52.206  31.411  1.00  0.00     0.017 C 
ATOM      2  C   UNL     1      17.662  52.732  32.862  1.00  0.00     0.014 C 
ATOM      3  C   UNL     1      16.585  52.159  30.615  1.00  0.00     0.014 C 
ATOM      4  C   UNL     1      18.522  50.776  31.457  1.00  0.00     0.028 C 
ATOM      5  C   UNL     1      18.946  52.759  33.697  1.00  0.00     0.007 C 
ATOM      6  C   UNL     1      15.532  51.268  31.274  1.00  0.00     0.013 C 
ATOM      7  C   UNL     1      17.514  49.624  31.655  1.00  0.00    -0.064 C 
ATOM      8  C   UNL     1      19.775  50.743  32.398  1.00  0.00     0.015 C 
ATOM      9  C   UNL     1      19.592  51.357  33.816  1.00  0.00    -0.035 C 
ATOM     10  C   UNL     1      15.974  49.779  31.574  1.00  0.00    -0.006 C 
ATOM     11  C   UNL     1      18.009  48.368  31.684  1.00  0.00    -0.027 C 
ATOM     12  C   UNL     1      20.994  51.540  34.445  1.00  0.00     0.011 C 
ATOM     13  C   UNL     1      18.759  50.421  34.745  1.00  0.00     0.011 C 
ATOM     14  C   UNL     1      15.423  49.484  33.008  1.00  0.00     0.017 C 
ATOM     15  C   UNL     1      15.383  48.738  30.467  1.00  0.00    -0.020 C 
ATOM     16  C   UNL     1      17.129  47.161  31.645  1.00  0.00     0.032 C 
ATOM     17  C   UNL     1      16.090  47.286  30.496  1.00  0.00     0.006 C 
ATOM     18  C   UNL     1      13.843  48.625  30.652  1.00  0.00     0.008 C 
ATOM     19  C   UNL     1      15.643  49.326  29.039  1.00  0.00     0.012 C 
ATOM     20  C   UNL     1      15.209  45.948  30.181  1.00  0.00    -0.025 C 
ATOM     21  C   UNL     1      13.204  47.504  29.865  1.00  0.00     0.005 C 
ATOM     22  C   UNL     1      13.646  46.128  30.418  1.00  0.00     0.006 C 
ATOM     23  C   UNL     1      15.444  45.550  28.686  1.00  0.00     0.010 C 
ATOM     24  C   UNL     1      15.738  44.766  31.053  1.00  0.00     0.012 C 
ATOM     25  C   UNL     1      12.714  44.937  29.869  1.00  0.00     0.020 C 
ATOM     26  C   UNL     1      14.619  44.354  28.203  1.00  0.00     0.033 C 
ATOM     27  C   UNL     1      13.115  44.591  28.396  1.00  0.00     0.123 C 
ATOM     28  C   UNL     1      11.213  45.367  29.818  1.00  0.00     0.017 C 
ENDROOT
BRANCH   1  29
ATOM     29  C   UNL     1      18.819  53.172  30.660  1.00  0.00     0.048 C 
ATOM     30  O   UNL     1      19.070  53.002  29.438  1.00  0.00    -0.550 OA
ATOM     31  O   UNL     1      19.302  54.317  31.283  1.00  0.00    -0.550 OA
ENDBRANCH   1  29
BRANCH  25  32
ATOM     32  C   UNL     1      12.736  43.697  30.857  1.00  0.00     0.165 C 
BRANCH  32  33
ATOM     33  O   UNL     1      11.691  42.794  30.622  1.00  0.00    -0.396 OA
ATOM     34  H   UNL     1      12.095  42.016  30.154  1.00  0.00     0.210 HD
ENDBRANCH  32  33
ENDBRANCH  25  32
BRANCH  27  35
ATOM     35  O   UNL     1      12.395  43.472  27.940  1.00  0.00    -0.392 OA
ATOM     36  H   UNL     1      12.992  42.974  27.317  1.00  0.00     0.210 HD
ENDBRANCH  27  35
TORSDOF 4
ENDMDL
MODEL 6
REMARK VINA RESULT:    -7.942      2.904      9.276
REMARK INTER + INTRA:          -9.481
REMARK INTER:                  -9.403
REMARK INTRA:                  -0.078
REMARK UNBOUND:                -0.146
REMARK SMILES CC1(C)CC[C@]2(C(=O)[O-])CC[C@]3(C)C(=CC[C@H]4[C@]5(C)CC[C@@H](O)[C@@](C)(CO)[C@@H]5CC[C@]43C)[C@@H]2C1
REMARK SMILES IDX 6 1 5 2 10 3 33 4 4 5 11 6 14 7 34 8 2 9 12 10 15 11 1 12
REMARK SMILES IDX 3 13 13 14 31 15 16 16 17 17 30 18 32 19 18 20 29 21 28 22
REMARK SMILES IDX 20 23 19 24 24 25 21 26 22 27 25 28 7 29 8 30 9 31 26 32
REMARK SMILES IDX 27 33 23 35
REMARK H PARENT 27 34 23 36
REMARK Flexibility Score: inf
ROOT
ATOM      1  C   UNL     1      14.889  48.202  29.239  1.00  0.00     0.017 C 
ATOM      2  C   UNL     1      15.746  47.087  28.561  1.00  0.00     0.014 C 
ATOM      3  C   UNL     1      15.316  49.599  28.753  1.00  0.00     0.014 C 
ATOM      4  C   UNL     1      15.047  48.129  30.789  1.00  0.00     0.028 C 
ATOM      5  C   UNL     1      15.374  45.683  29.047  1.00  0.00     0.007 C 
ATOM      6  C   UNL     1      16.788  49.896  29.037  1.00  0.00     0.013 C 
ATOM      7  C   UNL     1      16.305  48.819  31.358  1.00  0.00    -0.064 C 
ATOM      8  C   UNL     1      14.785  46.674  31.307  1.00  0.00     0.015 C 
ATOM      9  C   UNL     1      15.549  45.531  30.577  1.00  0.00    -0.035 C 
ATOM     10  C   UNL     1      17.248  49.740  30.543  1.00  0.00    -0.006 C 
ATOM     11  C   UNL     1      16.471  48.793  32.698  1.00  0.00    -0.027 C 
ATOM     12  C   UNL     1      14.909  44.184  30.991  1.00  0.00     0.011 C 
ATOM     13  C   UNL     1      17.056  45.499  30.980  1.00  0.00     0.011 C 
ATOM     14  C   UNL     1      18.626  49.005  30.462  1.00  0.00     0.017 C 
ATOM     15  C   UNL     1      17.371  51.185  31.290  1.00  0.00    -0.020 C 
ATOM     16  C   UNL     1      17.516  49.607  33.390  1.00  0.00     0.032 C 
ATOM     17  C   UNL     1      17.468  51.080  32.899  1.00  0.00     0.006 C 
ATOM     18  C   UNL     1      18.582  51.958  30.696  1.00  0.00     0.008 C 
ATOM     19  C   UNL     1      16.082  52.018  30.979  1.00  0.00     0.012 C 
ATOM     20  C   UNL     1      18.394  52.140  33.727  1.00  0.00    -0.025 C 
ATOM     21  C   UNL     1      18.966  53.198  31.470  1.00  0.00     0.005 C 
ATOM     22  C   UNL     1      19.538  52.820  32.857  1.00  0.00     0.006 C 
ATOM     23  C   UNL     1      17.462  53.264  34.291  1.00  0.00     0.010 C 
ATOM     24  C   UNL     1      19.029  51.417  34.956  1.00  0.00     0.012 C 
ATOM     25  C   UNL     1      20.297  54.059  33.547  1.00  0.00     0.020 C 
ATOM     26  C   UNL     1      18.190  54.390  35.029  1.00  0.00     0.033 C 
ATOM     27  C   UNL     1      19.246  55.058  34.138  1.00  0.00     0.123 C 
ATOM     28  C   UNL     1      21.126  54.872  32.502  1.00  0.00     0.017 C 
ENDROOT
BRANCH   1  29
ATOM     29  C   UNL     1      13.423  48.040  28.834  1.00  0.00     0.048 C 
ATOM     30  O   UNL     1      13.112  47.724  27.655  1.00  0.00    -0.550 OA
ATOM     31  O   UNL     1      12.413  48.130  29.785  1.00  0.00    -0.550 OA
ENDBRANCH   1  29
BRANCH  25  32
ATOM     32  C   UNL     1      21.374  53.553  34.596  1.00  0.00     0.165 C 
BRANCH  32  33
ATOM     33  O   UNL     1      22.507  52.995  33.988  1.00  0.00    -0.396 OA
ATOM     34  H   UNL     1      22.176  52.274  33.391  1.00  0.00     0.210 HD
ENDBRANCH  32  33
ENDBRANCH  25  32
BRANCH  27  35
ATOM     35  O   UNL     1      19.890  56.085  34.851  1.00  0.00    -0.392 OA
ATOM     36  H   UNL     1      20.028  55.754  35.780  1.00  0.00     0.210 HD
ENDBRANCH  27  35
TORSDOF 4
ENDMDL
MODEL 7
REMARK VINA RESULT:    -7.876      4.315      5.562
REMARK INTER + INTRA:          -9.403
REMARK INTER:                  -9.494
REMARK INTRA:                   0.091
REMARK UNBOUND:                -0.146
REMARK SMILES CC1(C)CC[C@]2(C(=O)[O-])CC[C@]3(C)C(=CC[C@H]4[C@]5(C)CC[C@@H](O)[C@@](C)(CO)[C@@H]5CC[C@]43C)[C@@H]2C1
REMARK SMILES IDX 6 1 5 2 10 3 33 4 4 5 11 6 14 7 34 8 2 9 12 10 15 11 1 12
REMARK SMILES IDX 3 13 13 14 31 15 16 16 17 17 30 18 32 19 18 20 29 21 28 22
REMARK SMILES IDX 20 23 19 24 24 25 21 26 22 27 25 28 7 29 8 30 9 31 26 32
REMARK SMILES IDX 27 33 23 35
REMARK H PARENT 27 34 23 36
REMARK Flexibility Score: inf
ROOT
ATOM      1  C   UNL     1       9.657  49.446  31.720  1.00  0.00     0.017 C 
ATOM      2  C   UNL     1       9.271  49.473  33.232  1.00  0.00     0.014 C 
ATOM      3  C   UNL     1       8.966  48.277  30.994  1.00  0.00     0.014 C 
ATOM      4  C   UNL     1      11.202  49.301  31.564  1.00  0.00     0.028 C 
ATOM      5  C   UNL     1       9.969  50.602  33.996  1.00  0.00     0.007 C 
ATOM      6  C   UNL     1       9.321  46.919  31.597  1.00  0.00     0.013 C 
ATOM      7  C   UNL     1      11.746  47.861  31.678  1.00  0.00    -0.064 C 
ATOM      8  C   UNL     1      11.951  50.373  32.428  1.00  0.00     0.015 C 
ATOM      9  C   UNL     1      11.511  50.493  33.916  1.00  0.00    -0.035 C 
ATOM     10  C   UNL     1      10.864  46.587  31.697  1.00  0.00    -0.006 C 
ATOM     11  C   UNL     1      13.077  47.690  31.533  1.00  0.00    -0.027 C 
ATOM     12  C   UNL     1      12.104  51.803  34.489  1.00  0.00     0.011 C 
ATOM     13  C   UNL     1      12.045  49.302  34.771  1.00  0.00     0.011 C 
ATOM     14  C   UNL     1      11.040  45.946  33.113  1.00  0.00     0.017 C 
ATOM     15  C   UNL     1      11.344  45.579  30.508  1.00  0.00    -0.020 C 
ATOM     16  C   UNL     1      13.700  46.338  31.399  1.00  0.00     0.032 C 
ATOM     17  C   UNL     1      12.947  45.500  30.329  1.00  0.00     0.006 C 
ATOM     18  C   UNL     1      10.729  44.174  30.758  1.00  0.00     0.008 C 
ATOM     19  C   UNL     1      10.774  46.106  29.147  1.00  0.00     0.012 C 
ATOM     20  C   UNL     1      13.648  44.087  29.906  1.00  0.00    -0.025 C 
ATOM     21  C   UNL     1      11.296  43.082  29.879  1.00  0.00     0.005 C 
ATOM     22  C   UNL     1      12.774  42.802  30.243  1.00  0.00     0.006 C 
ATOM     23  C   UNL     1      13.914  44.118  28.363  1.00  0.00     0.010 C 
ATOM     24  C   UNL     1      15.039  43.973  30.604  1.00  0.00     0.012 C 
ATOM     25  C   UNL     1      13.292  41.418  29.607  1.00  0.00     0.020 C 
ATOM     26  C   UNL     1      14.497  42.825  27.787  1.00  0.00     0.033 C 
ATOM     27  C   UNL     1      13.596  41.619  28.085  1.00  0.00     0.123 C 
ATOM     28  C   UNL     1      12.194  40.310  29.686  1.00  0.00     0.017 C 
ENDROOT
BRANCH   1  29
ATOM     29  C   UNL     1       9.160  50.722  31.040  1.00  0.00     0.048 C 
ATOM     30  O   UNL     1       9.353  50.914  29.810  1.00  0.00    -0.550 OA
ATOM     31  O   UNL     1       8.391  51.643  31.742  1.00  0.00    -0.550 OA
ENDBRANCH   1  29
BRANCH  25  32
ATOM     32  C   UNL     1      14.506  40.830  30.441  1.00  0.00     0.165 C 
BRANCH  32  33
ATOM     33  O   UNL     1      14.104  39.897  31.407  1.00  0.00    -0.396 OA
ATOM     34  H   UNL     1      13.265  40.252  31.803  1.00  0.00     0.210 HD
ENDBRANCH  32  33
ENDBRANCH  25  32
BRANCH  27  35
ATOM     35  O   UNL     1      14.166  40.454  27.539  1.00  0.00    -0.392 OA
ATOM     36  H   UNL     1      14.892  40.166  28.156  1.00  0.00     0.210 HD
ENDBRANCH  27  35
TORSDOF 4
ENDMDL
MODEL 8
REMARK VINA RESULT:    -7.871      1.872      3.696
REMARK INTER + INTRA:          -9.398
REMARK INTER:                  -9.050
REMARK INTRA:                  -0.348
REMARK UNBOUND:                -0.146
REMARK SMILES CC1(C)CC[C@]2(C(=O)[O-])CC[C@]3(C)C(=CC[C@H]4[C@]5(C)CC[C@@H](O)[C@@](C)(CO)[C@@H]5CC[C@]43C)[C@@H]2C1
REMARK SMILES IDX 6 1 5 2 10 3 33 4 4 5 11 6 14 7 34 8 2 9 12 10 15 11 1 12
REMARK SMILES IDX 3 13 13 14 31 15 16 16 17 17 30 18 32 19 18 20 29 21 28 22
REMARK SMILES IDX 20 23 19 24 24 25 21 26 22 27 25 28 7 29 8 30 9 31 26 32
REMARK SMILES IDX 27 33 23 35
REMARK H PARENT 27 34 23 36
REMARK Flexibility Score: inf
ROOT
ATOM      1  C   UNL     1      17.440  50.607  32.896  1.00  0.00     0.017 C 
ATOM      2  C   UNL     1      18.883  50.740  32.314  1.00  0.00     0.014 C 
ATOM      3  C   UNL     1      17.262  49.268  33.634  1.00  0.00     0.014 C 
ATOM      4  C   UNL     1      16.389  50.700  31.747  1.00  0.00     0.028 C 
ATOM      5  C   UNL     1      19.087  52.045  31.540  1.00  0.00     0.007 C 
ATOM      6  C   UNL     1      17.521  48.061  32.733  1.00  0.00     0.013 C 
ATOM      7  C   UNL     1      16.142  49.390  30.969  1.00  0.00    -0.064 C 
ATOM      8  C   UNL     1      16.642  51.969  30.863  1.00  0.00     0.015 C 
ATOM      9  C   UNL     1      18.098  52.182  30.357  1.00  0.00    -0.035 C 
ATOM     10  C   UNL     1      16.674  47.999  31.398  1.00  0.00    -0.006 C 
ATOM     11  C   UNL     1      15.228  49.424  29.976  1.00  0.00    -0.027 C 
ATOM     12  C   UNL     1      18.214  53.626  29.814  1.00  0.00     0.011 C 
ATOM     13  C   UNL     1      18.453  51.196  29.200  1.00  0.00     0.011 C 
ATOM     14  C   UNL     1      17.697  47.557  30.300  1.00  0.00     0.017 C 
ATOM     15  C   UNL     1      15.426  46.957  31.522  1.00  0.00    -0.020 C 
ATOM     16  C   UNL     1      14.736  48.186  29.299  1.00  0.00     0.032 C 
ATOM     17  C   UNL     1      14.322  47.122  30.354  1.00  0.00     0.006 C 
ATOM     18  C   UNL     1      15.983  45.507  31.579  1.00  0.00     0.008 C 
ATOM     19  C   UNL     1      14.682  47.229  32.873  1.00  0.00     0.012 C 
ATOM     20  C   UNL     1      13.551  45.804  29.774  1.00  0.00    -0.025 C 
ATOM     21  C   UNL     1      14.929  44.432  31.435  1.00  0.00     0.005 C 
ATOM     22  C   UNL     1      14.334  44.439  30.007  1.00  0.00     0.006 C 
ATOM     23  C   UNL     1      12.157  45.706  30.479  1.00  0.00     0.010 C 
ATOM     24  C   UNL     1      13.277  45.998  28.250  1.00  0.00     0.012 C 
ATOM     25  C   UNL     1      13.502  43.096  29.701  1.00  0.00     0.020 C 
ATOM     26  C   UNL     1      11.335  44.469  30.105  1.00  0.00     0.033 C 
ATOM     27  C   UNL     1      12.102  43.173  30.398  1.00  0.00     0.123 C 
ATOM     28  C   UNL     1      14.213  41.839  30.297  1.00  0.00     0.017 C 
ENDROOT
BRANCH   1  29
ATOM     29  C   UNL     1      17.204  51.702  33.938  1.00  0.00     0.048 C 
ATOM     30  O   UNL     1      16.057  52.193  34.106  1.00  0.00    -0.550 OA
ATOM     31  O   UNL     1      18.227  52.095  34.793  1.00  0.00    -0.550 OA
ENDBRANCH   1  29
BRANCH  25  32
ATOM     32  C   UNL     1      13.438  42.811  28.143  1.00  0.00     0.165 C 
BRANCH  32  33
ATOM     33  O   UNL     1      13.173  41.467  27.844  1.00  0.00    -0.396 OA
ATOM     34  H   UNL     1      12.868  41.447  26.899  1.00  0.00     0.210 HD
ENDBRANCH  32  33
ENDBRANCH  25  32
BRANCH  27  35
ATOM     35  O   UNL     1      11.314  42.063  30.043  1.00  0.00    -0.392 OA
ATOM     36  H   UNL     1      10.666  41.916  30.784  1.00  0.00     0.210 HD
ENDBRANCH  27  35
TORSDOF 4
ENDMDL
MODEL 9
REMARK VINA RESULT:    -7.826      1.810      8.560
REMARK INTER + INTRA:          -9.344
REMARK INTER:                  -9.249
REMARK INTRA:                  -0.095
REMARK UNBOUND:                -0.146
REMARK SMILES CC1(C)CC[C@]2(C(=O)[O-])CC[C@]3(C)C(=CC[C@H]4[C@]5(C)CC[C@@H](O)[C@@](C)(CO)[C@@H]5CC[C@]43C)[C@@H]2C1
REMARK SMILES IDX 6 1 5 2 10 3 33 4 4 5 11 6 14 7 34 8 2 9 12 10 15 11 1 12
REMARK SMILES IDX 3 13 13 14 31 15 16 16 17 17 30 18 32 19 18 20 29 21 28 22
REMARK SMILES IDX 20 23 19 24 24 25 21 26 22 27 25 28 7 29 8 30 9 31 26 32
REMARK SMILES IDX 27 33 23 35
REMARK H PARENT 27 34 23 36
REMARK Flexibility Score: inf
ROOT
ATOM      1  C   UNL     1      13.053  44.574  29.546  1.00  0.00     0.017 C 
ATOM      2  C   UNL     1      12.652  43.737  30.801  1.00  0.00     0.014 C 
ATOM      3  C   UNL     1      14.584  44.673  29.413  1.00  0.00     0.014 C 
ATOM      4  C   UNL     1      12.456  46.011  29.648  1.00  0.00     0.028 C 
ATOM      5  C   UNL     1      11.134  43.647  30.986  1.00  0.00     0.007 C 
ATOM      6  C   UNL     1      15.239  45.312  30.637  1.00  0.00     0.013 C 
ATOM      7  C   UNL     1      13.266  47.005  30.508  1.00  0.00    -0.064 C 
ATOM      8  C   UNL     1      10.920  45.954  29.953  1.00  0.00     0.015 C 
ATOM      9  C   UNL     1      10.482  45.043  31.135  1.00  0.00    -0.035 C 
ATOM     10  C   UNL     1      14.692  46.737  31.051  1.00  0.00    -0.006 C 
ATOM     11  C   UNL     1      12.791  48.264  30.608  1.00  0.00    -0.027 C 
ATOM     12  C   UNL     1       8.948  44.854  31.055  1.00  0.00     0.011 C 
ATOM     13  C   UNL     1      10.822  45.688  32.515  1.00  0.00     0.011 C 
ATOM     14  C   UNL     1      14.569  46.677  32.609  1.00  0.00     0.017 C 
ATOM     15  C   UNL     1      15.689  47.932  30.565  1.00  0.00    -0.020 C 
ATOM     16  C   UNL     1      13.587  49.372  31.219  1.00  0.00     0.032 C 
ATOM     17  C   UNL     1      15.020  49.401  30.621  1.00  0.00     0.006 C 
ATOM     18  C   UNL     1      16.997  47.870  31.402  1.00  0.00     0.008 C 
ATOM     19  C   UNL     1      16.076  47.681  29.068  1.00  0.00     0.012 C 
ATOM     20  C   UNL     1      15.934  50.695  31.019  1.00  0.00    -0.025 C 
ATOM     21  C   UNL     1      17.899  49.072  31.234  1.00  0.00     0.005 C 
ATOM     22  C   UNL     1      17.245  50.334  31.845  1.00  0.00     0.006 C 
ATOM     23  C   UNL     1      16.361  51.416  29.697  1.00  0.00     0.010 C 
ATOM     24  C   UNL     1      15.066  51.708  31.829  1.00  0.00     0.012 C 
ATOM     25  C   UNL     1      18.307  51.529  32.026  1.00  0.00     0.020 C 
ATOM     26  C   UNL     1      17.298  52.611  29.891  1.00  0.00     0.033 C 
ATOM     27  C   UNL     1      18.575  52.210  30.642  1.00  0.00     0.123 C 
ATOM     28  C   UNL     1      19.689  50.991  32.517  1.00  0.00     0.017 C 
ENDROOT
BRANCH   1  29
ATOM     29  C   UNL     1      12.561  43.870  28.280  1.00  0.00     0.048 C 
ATOM     30  O   UNL     1      11.625  44.359  27.594  1.00  0.00    -0.550 OA
ATOM     31  O   UNL     1      13.211  42.737  27.804  1.00  0.00    -0.550 OA
ENDBRANCH   1  29
BRANCH  25  32
ATOM     32  C   UNL     1      17.846  52.531  33.165  1.00  0.00     0.165 C 
BRANCH  32  33
ATOM     33  O   UNL     1      18.877  53.377  33.597  1.00  0.00    -0.396 OA
ATOM     34  H   UNL     1      19.395  52.863  34.271  1.00  0.00     0.210 HD
ENDBRANCH  32  33
ENDBRANCH  25  32
BRANCH  27  35
ATOM     35  O   UNL     1      19.407  53.333  30.799  1.00  0.00    -0.392 OA
ATOM     36  H   UNL     1      19.913  53.443  29.948  1.00  0.00     0.210 HD
ENDBRANCH  27  35
TORSDOF 4
ENDMDL
