MODEL 1
REMARK VINA RESULT:    -4.881      0.000      0.000
REMARK INTER + INTRA:          -7.076
REMARK INTER:                  -6.593
REMARK INTRA:                  -0.483
REMARK UNBOUND:                -0.483
REMARK SMILES CC(=O)CCC=C(C)CCC=C(C)C
REMARK SMILES IDX 7 1 6 2 8 3 9 4 10 5 11 6 13 7 12 8 14 9 5 10 4 11 2 12 3 13
REMARK SMILES IDX 1 14
REMARK H PARENT
REMARK Flexibility Score: inf
ROOT
ATOM      1  C   UNL     1      15.132 -48.016  -4.023  1.00  0.00    -0.077 C 
ATOM      2  C   UNL     1      14.554 -48.410  -5.182  1.00  0.00    -0.028 C 
ATOM      3  C   UNL     1      14.486 -46.994  -3.118  1.00  0.00     0.039 C 
ENDROOT
BRANCH   1   4
ATOM      4  C   UNL     1      16.467 -48.608  -3.630  1.00  0.00     0.034 C 
BRANCH   4   5
ATOM      5  C   UNL     1      17.025 -47.919  -2.380  1.00  0.00     0.032 C 
BRANCH   5   6
ATOM      6  C   UNL     1      18.515 -48.128  -2.258  1.00  0.00    -0.028 C 
ATOM      7  C   UNL     1      18.261 -49.315  -0.075  1.00  0.00     0.039 C 
ATOM      8  C   UNL     1      19.088 -48.762  -1.213  1.00  0.00    -0.080 C 
ATOM      9  C   UNL     1      20.586 -48.915  -1.190  1.00  0.00     0.039 C 
ENDBRANCH   5   6
ENDBRANCH   4   5
ENDBRANCH   1   4
BRANCH   2  10
ATOM     10  C   UNL     1      13.211 -47.930  -5.674  1.00  0.00     0.035 C 
BRANCH  10  11
ATOM     11  C   UNL     1      13.379 -46.922  -6.818  1.00  0.00     0.079 C 
BRANCH  11  12
ATOM     12  C   UNL     1      12.399 -45.776  -6.747  1.00  0.00     0.130 C 
ATOM     13  O   UNL     1      12.637 -44.709  -7.294  1.00  0.00    -0.300 OA
ATOM     14  C   UNL     1      11.105 -45.941  -6.009  1.00  0.00     0.087 C 
ENDBRANCH  11  12
ENDBRANCH  10  11
ENDBRANCH   2  10
TORSDOF 6
ENDMDL
MODEL 2
REMARK VINA RESULT:    -4.691      3.458      7.409
REMARK INTER + INTRA:          -6.819
REMARK INTER:                  -6.242
REMARK INTRA:                  -0.577
REMARK UNBOUND:                -0.483
REMARK SMILES CC(=O)CCC=C(C)CCC=C(C)C
REMARK SMILES IDX 7 1 6 2 8 3 9 4 10 5 11 6 13 7 12 8 14 9 5 10 4 11 2 12 3 13
REMARK SMILES IDX 1 14
REMARK H PARENT
REMARK Flexibility Score: inf
ROOT
ATOM      1  C   UNL     1      17.621 -48.956  -0.697  1.00  0.00    -0.077 C 
ATOM      2  C   UNL     1      18.756 -48.560  -1.320  1.00  0.00    -0.028 C 
ATOM      3  C   UNL     1      17.652 -49.701   0.617  1.00  0.00     0.039 C 
ENDROOT
BRANCH   1   4
ATOM      4  C   UNL     1      16.286 -48.654  -1.341  1.00  0.00     0.034 C 
BRANCH   4   5
ATOM      5  C   UNL     1      16.469 -47.832  -2.621  1.00  0.00     0.032 C 
BRANCH   5   6
ATOM      6  C   UNL     1      15.143 -47.356  -3.162  1.00  0.00    -0.028 C 
ATOM      7  C   UNL     1      15.437 -48.654  -5.276  1.00  0.00     0.039 C 
ATOM      8  C   UNL     1      14.663 -47.724  -4.369  1.00  0.00    -0.080 C 
ATOM      9  C   UNL     1      13.327 -47.191  -4.813  1.00  0.00     0.039 C 
ENDBRANCH   5   6
ENDBRANCH   4   5
ENDBRANCH   1   4
BRANCH   2  10
ATOM     10  C   UNL     1      20.147 -48.761  -0.773  1.00  0.00     0.035 C 
BRANCH  10  11
ATOM     11  C   UNL     1      20.912 -49.801  -1.602  1.00  0.00     0.079 C 
BRANCH  11  12
ATOM     12  C   UNL     1      21.672 -49.195  -2.757  1.00  0.00     0.130 C 
ATOM     13  O   UNL     1      22.782 -48.710  -2.595  1.00  0.00    -0.300 OA
ATOM     14  C   UNL     1      21.072 -49.196  -4.131  1.00  0.00     0.087 C 
ENDBRANCH  11  12
ENDBRANCH  10  11
ENDBRANCH   2  10
TORSDOF 6
ENDMDL
MODEL 3
REMARK VINA RESULT:    -4.639      1.085      1.852
REMARK INTER + INTRA:          -6.749
REMARK INTER:                  -6.338
REMARK INTRA:                  -0.410
REMARK UNBOUND:                -0.483
REMARK SMILES CC(=O)CCC=C(C)CCC=C(C)C
REMARK SMILES IDX 7 1 6 2 8 3 9 4 10 5 11 6 13 7 12 8 14 9 5 10 4 11 2 12 3 13
REMARK SMILES IDX 1 14
REMARK H PARENT
REMARK Flexibility Score: inf
ROOT
ATOM      1  C   UNL     1      14.642 -47.774  -4.351  1.00  0.00    -0.077 C 
ATOM      2  C   UNL     1      13.661 -47.016  -4.893  1.00  0.00    -0.028 C 
ATOM      3  C   UNL     1      15.335 -48.862  -5.137  1.00  0.00     0.039 C 
ENDROOT
BRANCH   1   4
ATOM      4  C   UNL     1      15.048 -47.532  -2.914  1.00  0.00     0.034 C 
BRANCH   4   5
ATOM      5  C   UNL     1      16.549 -47.774  -2.721  1.00  0.00     0.032 C 
BRANCH   5   6
ATOM      6  C   UNL     1      16.820 -48.557  -1.459  1.00  0.00    -0.028 C 
ATOM      7  C   UNL     1      19.291 -48.426  -1.800  1.00  0.00     0.039 C 
ATOM      8  C   UNL     1      18.064 -48.860  -1.031  1.00  0.00    -0.080 C 
ATOM      9  C   UNL     1      18.222 -49.647   0.243  1.00  0.00     0.039 C 
ENDBRANCH   5   6
ENDBRANCH   4   5
ENDBRANCH   1   4
BRANCH   2  10
ATOM     10  C   UNL     1      13.186 -47.125  -6.321  1.00  0.00     0.035 C 
BRANCH  10  11
ATOM     11  C   UNL     1      12.380 -45.882  -6.722  1.00  0.00     0.079 C 
BRANCH  11  12
ATOM     12  C   UNL     1      11.001 -45.848  -6.111  1.00  0.00     0.130 C 
ATOM     13  O   UNL     1      10.492 -44.792  -5.762  1.00  0.00    -0.300 OA
ATOM     14  C   UNL     1      10.226 -47.119  -5.936  1.00  0.00     0.087 C 
ENDBRANCH  11  12
ENDBRANCH  10  11
ENDBRANCH   2  10
TORSDOF 6
ENDMDL
MODEL 4
REMARK VINA RESULT:    -4.611      1.994      2.556
REMARK INTER + INTRA:          -6.711
REMARK INTER:                  -6.261
REMARK INTRA:                  -0.449
REMARK UNBOUND:                -0.483
REMARK SMILES CC(=O)CCC=C(C)CCC=C(C)C
REMARK SMILES IDX 7 1 6 2 8 3 9 4 10 5 11 6 13 7 12 8 14 9 5 10 4 11 2 12 3 13
REMARK SMILES IDX 1 14
REMARK H PARENT
REMARK Flexibility Score: inf
ROOT
ATOM      1  C   UNL     1      15.539 -47.983  -3.084  1.00  0.00    -0.077 C 
ATOM      2  C   UNL     1      15.738 -48.558  -4.293  1.00  0.00    -0.028 C 
ATOM      3  C   UNL     1      14.347 -47.097  -2.809  1.00  0.00     0.039 C 
ENDROOT
BRANCH   1   4
ATOM      4  C   UNL     1      16.546 -48.226  -1.981  1.00  0.00     0.034 C 
BRANCH   4   5
ATOM      5  C   UNL     1      17.964 -47.878  -2.448  1.00  0.00     0.032 C 
BRANCH   5   6
ATOM      6  C   UNL     1      19.005 -48.556  -1.591  1.00  0.00    -0.028 C 
ATOM      7  C   UNL     1      20.435 -49.064  -3.575  1.00  0.00     0.039 C 
ATOM      8  C   UNL     1      20.134 -49.100  -2.094  1.00  0.00    -0.080 C 
ATOM      9  C   UNL     1      21.107 -49.754  -1.150  1.00  0.00     0.039 C 
ENDBRANCH   5   6
ENDBRANCH   4   5
ENDBRANCH   1   4
BRANCH   2  10
ATOM     10  C   UNL     1      14.797 -48.431  -5.465  1.00  0.00     0.035 C 
BRANCH  10  11
ATOM     11  C   UNL     1      15.578 -48.382  -6.786  1.00  0.00     0.079 C 
BRANCH  11  12
ATOM     12  C   UNL     1      14.696 -48.134  -7.986  1.00  0.00     0.130 C 
ATOM     13  O   UNL     1      13.932 -47.180  -8.019  1.00  0.00    -0.300 OA
ATOM     14  C   UNL     1      14.760 -49.055  -9.166  1.00  0.00     0.087 C 
ENDBRANCH  11  12
ENDBRANCH  10  11
ENDBRANCH   2  10
TORSDOF 6
ENDMDL
MODEL 5
REMARK VINA RESULT:    -4.560      2.090      2.554
REMARK INTER + INTRA:          -6.642
REMARK INTER:                  -6.157
REMARK INTRA:                  -0.484
REMARK UNBOUND:                -0.483
REMARK SMILES CC(=O)CCC=C(C)CCC=C(C)C
REMARK SMILES IDX 7 1 6 2 8 3 9 4 10 5 11 6 13 7 12 8 14 9 5 10 4 11 2 12 3 13
REMARK SMILES IDX 1 14
REMARK H PARENT
REMARK Flexibility Score: inf
ROOT
ATOM      1  C   UNL     1      14.920 -48.233  -4.407  1.00  0.00    -0.077 C 
ATOM      2  C   UNL     1      14.679 -48.706  -5.652  1.00  0.00    -0.028 C 
ATOM      3  C   UNL     1      14.130 -47.084  -3.825  1.00  0.00     0.039 C 
ENDROOT
BRANCH   1   4
ATOM      4  C   UNL     1      16.018 -48.865  -3.581  1.00  0.00     0.034 C 
BRANCH   4   5
ATOM      5  C   UNL     1      16.545 -47.883  -2.528  1.00  0.00     0.032 C 
BRANCH   5   6
ATOM      6  C   UNL     1      18.033 -48.037  -2.331  1.00  0.00    -0.028 C 
ATOM      7  C   UNL     1      17.710 -49.280  -0.189  1.00  0.00     0.039 C 
ATOM      8  C   UNL     1      18.574 -48.672  -1.269  1.00  0.00    -0.080 C 
ATOM      9  C   UNL     1      20.074 -48.769  -1.169  1.00  0.00     0.039 C 
ENDBRANCH   5   6
ENDBRANCH   4   5
ENDBRANCH   1   4
BRANCH   2  10
ATOM     10  C   UNL     1      13.592 -48.196  -6.566  1.00  0.00     0.035 C 
BRANCH  10  11
ATOM     11  C   UNL     1      14.188 -47.673  -7.880  1.00  0.00     0.079 C 
BRANCH  11  12
ATOM     12  C   UNL     1      14.954 -48.726  -8.643  1.00  0.00     0.130 C 
ATOM     13  O   UNL     1      16.175 -48.691  -8.711  1.00  0.00    -0.300 OA
ATOM     14  C   UNL     1      14.221 -49.844  -9.321  1.00  0.00     0.087 C 
ENDBRANCH  11  12
ENDBRANCH  10  11
ENDBRANCH   2  10
TORSDOF 6
ENDMDL
MODEL 6
REMARK VINA RESULT:    -4.553      3.267      7.071
REMARK INTER + INTRA:          -6.633
REMARK INTER:                  -6.082
REMARK INTRA:                  -0.551
REMARK UNBOUND:                -0.483
REMARK SMILES CC(=O)CCC=C(C)CCC=C(C)C
REMARK SMILES IDX 7 1 6 2 8 3 9 4 10 5 11 6 13 7 12 8 14 9 5 10 4 11 2 12 3 13
REMARK SMILES IDX 1 14
REMARK H PARENT
REMARK Flexibility Score: inf
ROOT
ATOM      1  C   UNL     1      15.665 -47.863  -2.267  1.00  0.00    -0.077 C 
ATOM      2  C   UNL     1      16.989 -48.000  -2.515  1.00  0.00    -0.028 C 
ATOM      3  C   UNL     1      14.974 -48.644  -1.175  1.00  0.00     0.039 C 
ENDROOT
BRANCH   1   4
ATOM      4  C   UNL     1      14.855 -46.909  -3.117  1.00  0.00     0.034 C 
BRANCH   4   5
ATOM      5  C   UNL     1      13.780 -47.661  -3.910  1.00  0.00     0.032 C 
BRANCH   5   6
ATOM      6  C   UNL     1      14.268 -48.017  -5.293  1.00  0.00    -0.028 C 
ATOM      7  C   UNL     1      12.685 -46.407  -6.362  1.00  0.00     0.039 C 
ATOM      8  C   UNL     1      13.776 -47.451  -6.416  1.00  0.00    -0.080 C 
ATOM      9  C   UNL     1      14.335 -47.880  -7.748  1.00  0.00     0.039 C 
ENDBRANCH   5   6
ENDBRANCH   4   5
ENDBRANCH   1   4
BRANCH   2  10
ATOM     10  C   UNL     1      17.921 -48.884  -1.723  1.00  0.00     0.035 C 
BRANCH  10  11
ATOM     11  C   UNL     1      19.348 -48.321  -1.738  1.00  0.00     0.079 C 
BRANCH  11  12
ATOM     12  C   UNL     1      20.279 -49.093  -2.642  1.00  0.00     0.130 C 
ATOM     13  O   UNL     1      21.121 -49.850  -2.179  1.00  0.00    -0.300 OA
ATOM     14  C   UNL     1      20.171 -48.948  -4.130  1.00  0.00     0.087 C 
ENDBRANCH  11  12
ENDBRANCH  10  11
ENDBRANCH   2  10
TORSDOF 6
ENDMDL
MODEL 7
REMARK VINA RESULT:    -4.525      1.728      2.543
REMARK INTER + INTRA:          -6.595
REMARK INTER:                  -6.073
REMARK INTRA:                  -0.521
REMARK UNBOUND:                -0.483
REMARK SMILES CC(=O)CCC=C(C)CCC=C(C)C
REMARK SMILES IDX 7 1 6 2 8 3 9 4 10 5 11 6 13 7 12 8 14 9 5 10 4 11 2 12 3 13
REMARK SMILES IDX 1 14
REMARK H PARENT
REMARK Flexibility Score: inf
ROOT
ATOM      1  C   UNL     1      15.983 -48.330  -1.803  1.00  0.00    -0.077 C 
ATOM      2  C   UNL     1      15.732 -47.535  -2.869  1.00  0.00    -0.028 C 
ATOM      3  C   UNL     1      14.931 -48.615  -0.757  1.00  0.00     0.039 C 
ENDROOT
BRANCH   1   4
ATOM      4  C   UNL     1      17.359 -48.939  -1.649  1.00  0.00     0.034 C 
BRANCH   4   5
ATOM      5  C   UNL     1      18.437 -48.006  -2.213  1.00  0.00     0.032 C 
BRANCH   5   6
ATOM      6  C   UNL     1      19.521 -48.785  -2.918  1.00  0.00    -0.028 C 
ATOM      7  C   UNL     1      20.944 -48.835  -0.867  1.00  0.00     0.039 C 
ATOM      8  C   UNL     1      20.666 -49.167  -2.315  1.00  0.00    -0.080 C 
ATOM      9  C   UNL     1      21.683 -49.941  -3.112  1.00  0.00     0.039 C 
ENDBRANCH   5   6
ENDBRANCH   4   5
ENDBRANCH   1   4
BRANCH   2  10
ATOM     10  C   UNL     1      14.398 -46.896  -3.164  1.00  0.00     0.035 C 
BRANCH  10  11
ATOM     11  C   UNL     1      13.584 -47.762  -4.135  1.00  0.00     0.079 C 
BRANCH  11  12
ATOM     12  C   UNL     1      13.827 -47.416  -5.584  1.00  0.00     0.130 C 
ATOM     13  O   UNL     1      14.780 -47.885  -6.191  1.00  0.00    -0.300 OA
ATOM     14  C   UNL     1      12.887 -46.498  -6.304  1.00  0.00     0.087 C 
ENDBRANCH  11  12
ENDBRANCH  10  11
ENDBRANCH   2  10
TORSDOF 6
ENDMDL
MODEL 8
REMARK VINA RESULT:    -4.379     18.161     19.889
REMARK INTER + INTRA:          -6.398
REMARK INTER:                  -5.759
REMARK INTRA:                  -0.640
REMARK UNBOUND:                -0.483
REMARK SMILES CC(=O)CCC=C(C)CCC=C(C)C
REMARK SMILES IDX 7 1 6 2 8 3 9 4 10 5 11 6 13 7 12 8 14 9 5 10 4 11 2 12 3 13
REMARK SMILES IDX 1 14
REMARK H PARENT
REMARK Flexibility Score: inf
ROOT
ATOM      1  C   UNL     1      22.793 -30.701 -10.672  1.00  0.00    -0.077 C 
ATOM      2  C   UNL     1      23.701 -29.959 -11.349  1.00  0.00    -0.028 C 
ATOM      3  C   UNL     1      23.080 -32.124 -10.254  1.00  0.00     0.039 C 
ENDROOT
BRANCH   1   4
ATOM      4  C   UNL     1      21.450 -30.091 -10.336  1.00  0.00     0.034 C 
BRANCH   4   5
ATOM      5  C   UNL     1      20.422 -31.179 -10.007  1.00  0.00     0.032 C 
BRANCH   5   6
ATOM      6  C   UNL     1      19.148 -30.581  -9.460  1.00  0.00    -0.028 C 
ATOM      7  C   UNL     1      17.889 -32.708  -9.824  1.00  0.00     0.039 C 
ATOM      8  C   UNL     1      17.989 -31.269  -9.373  1.00  0.00    -0.080 C 
ATOM      9  C   UNL     1      16.775 -30.576  -8.812  1.00  0.00     0.039 C 
ENDBRANCH   5   6
ENDBRANCH   4   5
ENDBRANCH   1   4
BRANCH   2  10
ATOM     10  C   UNL     1      25.087 -30.428 -11.714  1.00  0.00     0.035 C 
BRANCH  10  11
ATOM     11  C   UNL     1      25.194 -30.688 -13.223  1.00  0.00     0.079 C 
BRANCH  11  12
ATOM     12  C   UNL     1      24.483 -31.946 -13.658  1.00  0.00     0.130 C 
ATOM     13  O   UNL     1      23.480 -31.894 -14.356  1.00  0.00    -0.300 OA
ATOM     14  C   UNL     1      25.013 -33.287 -13.248  1.00  0.00     0.087 C 
ENDBRANCH  11  12
ENDBRANCH  10  11
ENDBRANCH   2  10
TORSDOF 6
ENDMDL
MODEL 9
REMARK VINA RESULT:    -4.317     19.196     20.410
REMARK INTER + INTRA:          -6.314
REMARK INTER:                  -5.367
REMARK INTRA:                  -0.948
REMARK UNBOUND:                -0.483
REMARK SMILES CC(=O)CCC=C(C)CCC=C(C)C
REMARK SMILES IDX 7 1 6 2 8 3 9 4 10 5 11 6 13 7 12 8 14 9 5 10 4 11 2 12 3 13
REMARK SMILES IDX 1 14
REMARK H PARENT
REMARK Flexibility Score: inf
ROOT
ATOM      1  C   UNL     1      25.132 -35.012 -15.446  1.00  0.00    -0.077 C 
ATOM      2  C   UNL     1      26.255 -34.266 -15.577  1.00  0.00    -0.028 C 
ATOM      3  C   UNL     1      25.101 -36.476 -15.817  1.00  0.00     0.039 C 
ENDROOT
BRANCH   1   4
ATOM      4  C   UNL     1      23.871 -34.357 -14.927  1.00  0.00     0.034 C 
BRANCH   4   5
ATOM      5  C   UNL     1      24.180 -32.987 -14.311  1.00  0.00     0.032 C 
BRANCH   5   6
ATOM      6  C   UNL     1      23.618 -32.875 -12.915  1.00  0.00    -0.028 C 
ATOM      7  C   UNL     1      25.818 -32.136 -11.991  1.00  0.00     0.039 C 
ATOM      8  C   UNL     1      24.355 -32.489 -11.851  1.00  0.00    -0.080 C 
ATOM      9  C   UNL     1      23.694 -32.411 -10.500  1.00  0.00     0.039 C 
ENDBRANCH   5   6
ENDBRANCH   4   5
ENDBRANCH   1   4
BRANCH   2  10
ATOM     10  C   UNL     1      27.586 -34.799 -16.044  1.00  0.00     0.035 C 
BRANCH  10  11
ATOM     11  C   UNL     1      28.661 -34.597 -14.967  1.00  0.00     0.079 C 
BRANCH  11  12
ATOM     12  C   UNL     1      28.412 -35.414 -13.722  1.00  0.00     0.130 C 
ATOM     13  O   UNL     1      28.210 -34.874 -12.644  1.00  0.00    -0.300 OA
ATOM     14  C   UNL     1      28.396 -36.911 -13.799  1.00  0.00     0.087 C 
ENDBRANCH  11  12
ENDBRANCH  10  11
ENDBRANCH   2  10
TORSDOF 6
ENDMDL
