MODEL 1
REMARK VINA RESULT:    -7.280      0.000      0.000
REMARK INTER + INTRA:          -8.845
REMARK INTER:                  -8.557
REMARK INTRA:                  -0.289
REMARK UNBOUND:                -0.289
REMARK SMILES O=c1c(O)c(-c2ccc(O)cc2)oc2cc(O)cc(O)c12
REMARK SMILES IDX 5 1 3 2 2 3 1 4 21 5 19 6 18 7 16 8 15 9 14 10 13 11 6 12
REMARK SMILES IDX 7 13 8 14 9 15 12 16 11 17 10 18 4 20 20 22 17 24
REMARK H PARENT 10 19 4 21 20 23 17 25
REMARK Flexibility Score: inf
ROOT
ATOM      1  C   UNL     1       4.652   0.195 -23.015  1.00  0.00     0.180 A 
ATOM      2  C   UNL     1       5.153  -0.466 -24.150  1.00  0.00     0.208 A 
ATOM      3  C   UNL     1       5.025  -1.862 -24.238  1.00  0.00     0.238 A 
ATOM      4  O   UNL     1       5.426  -2.441 -25.280  1.00  0.00    -0.285 OA
ATOM      5  C   UNL     1       4.412  -2.581 -23.184  1.00  0.00     0.111 A 
ATOM      6  C   UNL     1       4.264  -4.000 -23.149  1.00  0.00     0.134 A 
ATOM      7  C   UNL     1       3.525  -4.593 -22.118  1.00  0.00     0.093 A 
ATOM      8  C   UNL     1       2.984  -3.823 -21.085  1.00  0.00     0.123 A 
ATOM      9  C   UNL     1       3.173  -2.443 -21.079  1.00  0.00     0.094 A 
ATOM     10  C   UNL     1       3.875  -1.819 -22.113  1.00  0.00     0.146 A 
ATOM     11  O   UNL     1       4.024  -0.500 -22.074  1.00  0.00    -0.452 OA
ENDROOT
BRANCH   1  12
ATOM     12  C   UNL     1       4.773   1.659 -22.838  1.00  0.00     0.021 A 
ATOM     13  C   UNL     1       3.796   2.541 -23.337  1.00  0.00     0.016 A 
ATOM     14  C   UNL     1       3.944   3.922 -23.179  1.00  0.00     0.047 A 
ATOM     15  C   UNL     1       5.074   4.440 -22.533  1.00  0.00     0.115 A 
ATOM     16  C   UNL     1       5.913   2.189 -22.210  1.00  0.00     0.016 A 
ATOM     17  C   UNL     1       6.057   3.570 -22.053  1.00  0.00     0.047 A 
BRANCH  15  18
ATOM     18  O   UNL     1       5.231   5.815 -22.369  1.00  0.00    -0.508 OA
ATOM     19  H   UNL     1       4.760   6.478 -22.975  1.00  0.00     0.293 HD
ENDBRANCH  15  18
ENDBRANCH   1  12
BRANCH   2  20
ATOM     20  O   UNL     1       5.735   0.265 -25.189  1.00  0.00    -0.502 OA
ATOM     21  H   UNL     1       5.196   0.636 -25.961  1.00  0.00     0.293 HD
ENDBRANCH   2  20
BRANCH   6  22
ATOM     22  O   UNL     1       4.842  -4.868 -24.080  1.00  0.00    -0.507 OA
ATOM     23  H   UNL     1       4.397  -5.178 -24.931  1.00  0.00     0.293 HD
ENDBRANCH   6  22
BRANCH   8  24
ATOM     24  O   UNL     1       2.263  -4.422 -20.055  1.00  0.00    -0.508 OA
ATOM     25  H   UNL     1       2.656  -5.174 -19.501  1.00  0.00     0.293 HD
ENDBRANCH   8  24
TORSDOF 5
ENDMDL
MODEL 2
REMARK VINA RESULT:    -7.204      0.859      1.369
REMARK INTER + INTRA:          -8.756
REMARK INTER:                  -8.468
REMARK INTRA:                  -0.288
REMARK UNBOUND:                -0.289
REMARK SMILES O=c1c(O)c(-c2ccc(O)cc2)oc2cc(O)cc(O)c12
REMARK SMILES IDX 5 1 3 2 2 3 1 4 21 5 19 6 18 7 16 8 15 9 14 10 13 11 6 12
REMARK SMILES IDX 7 13 8 14 9 15 12 16 11 17 10 18 4 20 20 22 17 24
REMARK H PARENT 10 19 4 21 20 23 17 25
REMARK Flexibility Score: inf
ROOT
ATOM      1  C   UNL     1       4.755   0.952 -23.032  1.00  0.00     0.180 A 
ATOM      2  C   UNL     1       5.095   0.461 -24.306  1.00  0.00     0.208 A 
ATOM      3  C   UNL     1       4.964  -0.913 -24.563  1.00  0.00     0.238 A 
ATOM      4  O   UNL     1       5.218  -1.338 -25.720  1.00  0.00    -0.285 OA
ATOM      5  C   UNL     1       4.511  -1.782 -23.541  1.00  0.00     0.111 A 
ATOM      6  C   UNL     1       4.379  -3.197 -23.678  1.00  0.00     0.134 A 
ATOM      7  C   UNL     1       3.797  -3.940 -22.644  1.00  0.00     0.093 A 
ATOM      8  C   UNL     1       3.403  -3.328 -21.450  1.00  0.00     0.123 A 
ATOM      9  C   UNL     1       3.582  -1.957 -21.284  1.00  0.00     0.094 A 
ATOM     10  C   UNL     1       4.126  -1.183 -22.312  1.00  0.00     0.146 A 
ATOM     11  O   UNL     1       4.271   0.122 -22.116  1.00  0.00    -0.452 OA
ENDROOT
BRANCH   1  12
ATOM     12  C   UNL     1       4.890   2.382 -22.678  1.00  0.00     0.021 A 
ATOM     13  C   UNL     1       6.123   2.922 -22.266  1.00  0.00     0.016 A 
ATOM     14  C   UNL     1       6.220   4.272 -21.913  1.00  0.00     0.047 A 
ATOM     15  C   UNL     1       5.087   5.095 -21.954  1.00  0.00     0.115 A 
ATOM     16  C   UNL     1       3.755   3.210 -22.695  1.00  0.00     0.016 A 
ATOM     17  C   UNL     1       3.856   4.558 -22.343  1.00  0.00     0.047 A 
BRANCH  15  18
ATOM     18  O   UNL     1       5.173   6.440 -21.605  1.00  0.00    -0.508 OA
ATOM     19  H   UNL     1       6.033   6.965 -21.725  1.00  0.00     0.293 HD
ENDBRANCH  15  18
ENDBRANCH   1  12
BRANCH   2  20
ATOM     20  O   UNL     1       5.519   1.338 -25.307  1.00  0.00    -0.502 OA
ATOM     21  H   UNL     1       5.021   2.192 -25.529  1.00  0.00     0.293 HD
ENDBRANCH   2  20
BRANCH   6  22
ATOM     22  O   UNL     1       4.825  -3.918 -24.790  1.00  0.00    -0.507 OA
ATOM     23  H   UNL     1       5.569  -3.624 -25.404  1.00  0.00     0.293 HD
ENDBRANCH   6  22
BRANCH   8  24
ATOM     24  O   UNL     1       2.839  -4.077 -20.421  1.00  0.00    -0.508 OA
ATOM     25  H   UNL     1       2.600  -3.658 -19.530  1.00  0.00     0.293 HD
ENDBRANCH   8  24
TORSDOF 5
ENDMDL
MODEL 3
REMARK VINA RESULT:    -7.000      4.834     10.593
REMARK INTER + INTRA:          -8.517
REMARK INTER:                  -8.768
REMARK INTRA:                   0.251
REMARK UNBOUND:                -0.289
REMARK SMILES O=c1c(O)c(-c2ccc(O)cc2)oc2cc(O)cc(O)c12
REMARK SMILES IDX 5 1 3 2 2 3 1 4 21 5 19 6 18 7 16 8 15 9 14 10 13 11 6 12
REMARK SMILES IDX 7 13 8 14 9 15 12 16 11 17 10 18 4 20 20 22 17 24
REMARK H PARENT 10 19 4 21 20 23 17 25
REMARK Flexibility Score: inf
ROOT
ATOM      1  C   UNL     1       4.774   7.006 -22.613  1.00  0.00     0.180 A 
ATOM      2  C   UNL     1       3.631   7.585 -23.193  1.00  0.00     0.208 A 
ATOM      3  C   UNL     1       3.679   8.930 -23.596  1.00  0.00     0.238 A 
ATOM      4  O   UNL     1       2.672   9.427 -24.164  1.00  0.00    -0.285 OA
ATOM      5  C   UNL     1       4.862   9.683 -23.400  1.00  0.00     0.111 A 
ATOM      6  C   UNL     1       5.010  11.063 -23.733  1.00  0.00     0.134 A 
ATOM      7  C   UNL     1       6.265  11.671 -23.616  1.00  0.00     0.093 A 
ATOM      8  C   UNL     1       7.363  10.967 -23.115  1.00  0.00     0.123 A 
ATOM      9  C   UNL     1       7.215   9.636 -22.732  1.00  0.00     0.094 A 
ATOM     10  C   UNL     1       5.984   8.992 -22.871  1.00  0.00     0.146 A 
ATOM     11  O   UNL     1       5.888   7.719 -22.502  1.00  0.00    -0.452 OA
ENDROOT
BRANCH   1  12
ATOM     12  C   UNL     1       4.792   5.604 -22.140  1.00  0.00     0.021 A 
ATOM     13  C   UNL     1       5.925   4.786 -22.315  1.00  0.00     0.016 A 
ATOM     14  C   UNL     1       5.909   3.457 -21.882  1.00  0.00     0.047 A 
ATOM     15  C   UNL     1       4.761   2.924 -21.281  1.00  0.00     0.115 A 
ATOM     16  C   UNL     1       3.638   5.055 -21.556  1.00  0.00     0.016 A 
ATOM     17  C   UNL     1       3.627   3.726 -21.123  1.00  0.00     0.047 A 
BRANCH  15  18
ATOM     18  O   UNL     1       4.736   1.602 -20.845  1.00  0.00    -0.508 OA
ATOM     19  H   UNL     1       4.790   1.367 -19.860  1.00  0.00     0.293 HD
ENDBRANCH  15  18
ENDBRANCH   1  12
BRANCH   2  20
ATOM     20  O   UNL     1       2.481   6.819 -23.398  1.00  0.00    -0.502 OA
ATOM     21  H   UNL     1       1.748   6.743 -22.704  1.00  0.00     0.293 HD
ENDBRANCH   2  20
BRANCH   6  22
ATOM     22  O   UNL     1       3.957  11.881 -24.153  1.00  0.00    -0.507 OA
ATOM     23  H   UNL     1       4.068  12.799 -24.554  1.00  0.00     0.293 HD
ENDBRANCH   6  22
BRANCH   8  24
ATOM     24  O   UNL     1       8.605  11.584 -22.987  1.00  0.00    -0.508 OA
ATOM     25  H   UNL     1       9.071  11.658 -22.091  1.00  0.00     0.293 HD
ENDBRANCH   8  24
TORSDOF 5
ENDMDL
MODEL 4
REMARK VINA RESULT:    -6.835      1.465      3.111
REMARK INTER + INTRA:          -8.322
REMARK INTER:                  -8.037
REMARK INTRA:                  -0.285
REMARK UNBOUND:                -0.289
REMARK SMILES O=c1c(O)c(-c2ccc(O)cc2)oc2cc(O)cc(O)c12
REMARK SMILES IDX 5 1 3 2 2 3 1 4 21 5 19 6 18 7 16 8 15 9 14 10 13 11 6 12
REMARK SMILES IDX 7 13 8 14 9 15 12 16 11 17 10 18 4 20 20 22 17 24
REMARK H PARENT 10 19 4 21 20 23 17 25
REMARK Flexibility Score: inf
ROOT
ATOM      1  C   UNL     1       4.737   0.749 -22.579  1.00  0.00     0.180 A 
ATOM      2  C   UNL     1       4.374  -0.124 -21.538  1.00  0.00     0.208 A 
ATOM      3  C   UNL     1       4.174  -1.484 -21.827  1.00  0.00     0.238 A 
ATOM      4  O   UNL     1       3.902  -2.269 -20.883  1.00  0.00    -0.285 OA
ATOM      5  C   UNL     1       4.324  -1.951 -23.155  1.00  0.00     0.111 A 
ATOM      6  C   UNL     1       4.106  -3.299 -23.570  1.00  0.00     0.134 A 
ATOM      7  C   UNL     1       4.411  -3.676 -24.884  1.00  0.00     0.093 A 
ATOM      8  C   UNL     1       4.862  -2.737 -25.816  1.00  0.00     0.123 A 
ATOM      9  C   UNL     1       5.021  -1.406 -25.437  1.00  0.00     0.094 A 
ATOM     10  C   UNL     1       4.760  -1.008 -24.123  1.00  0.00     0.146 A 
ATOM     11  O   UNL     1       4.933   0.269 -23.801  1.00  0.00    -0.452 OA
ENDROOT
BRANCH   1  12
ATOM     12  C   UNL     1       4.940   2.198 -22.357  1.00  0.00     0.021 A 
ATOM     13  C   UNL     1       3.854   3.092 -22.315  1.00  0.00     0.016 A 
ATOM     14  C   UNL     1       4.074   4.461 -22.128  1.00  0.00     0.047 A 
ATOM     15  C   UNL     1       5.378   4.954 -21.994  1.00  0.00     0.115 A 
ATOM     16  C   UNL     1       6.246   2.704 -22.243  1.00  0.00     0.016 A 
ATOM     17  C   UNL     1       6.461   4.072 -22.055  1.00  0.00     0.047 A 
BRANCH  15  18
ATOM     18  O   UNL     1       5.608   6.315 -21.807  1.00  0.00    -0.508 OA
ATOM     19  H   UNL     1       6.449   6.653 -21.353  1.00  0.00     0.293 HD
ENDBRANCH  15  18
ENDBRANCH   1  12
BRANCH   2  20
ATOM     20  O   UNL     1       4.253   0.353 -20.230  1.00  0.00    -0.502 OA
ATOM     21  H   UNL     1       4.205  -0.264 -19.428  1.00  0.00     0.293 HD
ENDBRANCH   2  20
BRANCH   6  22
ATOM     22  O   UNL     1       3.572  -4.293 -22.745  1.00  0.00    -0.507 OA
ATOM     23  H   UNL     1       2.663  -4.713 -22.867  1.00  0.00     0.293 HD
ENDBRANCH   6  22
BRANCH   8  24
ATOM     24  O   UNL     1       5.148  -3.117 -27.125  1.00  0.00    -0.508 OA
ATOM     25  H   UNL     1       5.945  -3.702 -27.346  1.00  0.00     0.293 HD
ENDBRANCH   8  24
TORSDOF 5
ENDMDL
MODEL 5
REMARK VINA RESULT:    -6.774      4.063      9.830
REMARK INTER + INTRA:          -8.250
REMARK INTER:                  -7.961
REMARK INTRA:                  -0.289
REMARK UNBOUND:                -0.289
REMARK SMILES O=c1c(O)c(-c2ccc(O)cc2)oc2cc(O)cc(O)c12
REMARK SMILES IDX 5 1 3 2 2 3 1 4 21 5 19 6 18 7 16 8 15 9 14 10 13 11 6 12
REMARK SMILES IDX 7 13 8 14 9 15 12 16 11 17 10 18 4 20 20 22 17 24
REMARK H PARENT 10 19 4 21 20 23 17 25
REMARK Flexibility Score: inf
ROOT
ATOM      1  C   UNL     1       4.268   6.015 -23.143  1.00  0.00     0.180 A 
ATOM      2  C   UNL     1       3.084   6.369 -23.815  1.00  0.00     0.208 A 
ATOM      3  C   UNL     1       2.889   7.708 -24.191  1.00  0.00     0.238 A 
ATOM      4  O   UNL     1       1.854   8.008 -24.840  1.00  0.00    -0.285 OA
ATOM      5  C   UNL     1       3.871   8.678 -23.877  1.00  0.00     0.111 A 
ATOM      6  C   UNL     1       3.760  10.070 -24.174  1.00  0.00     0.134 A 
ATOM      7  C   UNL     1       4.849  10.917 -23.935  1.00  0.00     0.093 A 
ATOM      8  C   UNL     1       6.022  10.434 -23.348  1.00  0.00     0.123 A 
ATOM      9  C   UNL     1       6.118   9.089 -23.000  1.00  0.00     0.094 A 
ATOM     10  C   UNL     1       5.062   8.212 -23.260  1.00  0.00     0.146 A 
ATOM     11  O   UNL     1       5.198   6.935 -22.921  1.00  0.00    -0.452 OA
ENDROOT
BRANCH   1  12
ATOM     12  C   UNL     1       4.533   4.630 -22.692  1.00  0.00     0.021 A 
ATOM     13  C   UNL     1       5.188   3.702 -23.523  1.00  0.00     0.016 A 
ATOM     14  C   UNL     1       5.406   2.392 -23.083  1.00  0.00     0.047 A 
ATOM     15  C   UNL     1       4.963   1.991 -21.816  1.00  0.00     0.115 A 
ATOM     16  C   UNL     1       4.074   4.213 -21.431  1.00  0.00     0.016 A 
ATOM     17  C   UNL     1       4.295   2.903 -20.995  1.00  0.00     0.047 A 
BRANCH  15  18
ATOM     18  O   UNL     1       5.176   0.689 -21.369  1.00  0.00    -0.508 OA
ATOM     19  H   UNL     1       5.254  -0.088 -22.016  1.00  0.00     0.293 HD
ENDBRANCH  15  18
ENDBRANCH   1  12
BRANCH   2  20
ATOM     20  O   UNL     1       2.138   5.392 -24.134  1.00  0.00    -0.502 OA
ATOM     21  H   UNL     1       1.448   5.065 -23.469  1.00  0.00     0.293 HD
ENDBRANCH   2  20
BRANCH   6  22
ATOM     22  O   UNL     1       2.602  10.670 -24.676  1.00  0.00    -0.507 OA
ATOM     23  H   UNL     1       2.589  11.437 -25.331  1.00  0.00     0.293 HD
ENDBRANCH   6  22
BRANCH   8  24
ATOM     24  O   UNL     1       7.095  11.286 -23.099  1.00  0.00    -0.508 OA
ATOM     25  H   UNL     1       7.949  11.236 -23.642  1.00  0.00     0.293 HD
ENDBRANCH   8  24
TORSDOF 5
ENDMDL
MODEL 6
REMARK VINA RESULT:    -6.674      1.808      6.647
REMARK INTER + INTRA:          -8.133
REMARK INTER:                  -7.861
REMARK INTRA:                  -0.272
REMARK UNBOUND:                -0.289
REMARK SMILES O=c1c(O)c(-c2ccc(O)cc2)oc2cc(O)cc(O)c12
REMARK SMILES IDX 5 1 3 2 2 3 1 4 21 5 19 6 18 7 16 8 15 9 14 10 13 11 6 12
REMARK SMILES IDX 7 13 8 14 9 15 12 16 11 17 10 18 4 20 20 22 17 24
REMARK H PARENT 10 19 4 21 20 23 17 25
REMARK Flexibility Score: inf
ROOT
ATOM      1  C   UNL     1       3.862  -0.684 -23.571  1.00  0.00     0.180 A 
ATOM      2  C   UNL     1       3.343  -0.248 -24.803  1.00  0.00     0.208 A 
ATOM      3  C   UNL     1       3.441   1.112 -25.140  1.00  0.00     0.238 A 
ATOM      4  O   UNL     1       3.024   1.487 -26.266  1.00  0.00    -0.285 OA
ATOM      5  C   UNL     1       4.041   2.021 -24.235  1.00  0.00     0.111 A 
ATOM      6  C   UNL     1       4.158   3.427 -24.455  1.00  0.00     0.134 A 
ATOM      7  C   UNL     1       4.887   4.209 -23.552  1.00  0.00     0.093 A 
ATOM      8  C   UNL     1       5.447   3.648 -22.401  1.00  0.00     0.123 A 
ATOM      9  C   UNL     1       5.288   2.288 -22.147  1.00  0.00     0.094 A 
ATOM     10  C   UNL     1       4.597   1.474 -23.049  1.00  0.00     0.146 A 
ATOM     11  O   UNL     1       4.477   0.180 -22.773  1.00  0.00    -0.452 OA
ENDROOT
BRANCH   1  12
ATOM     12  C   UNL     1       3.774  -2.096 -23.135  1.00  0.00     0.021 A 
ATOM     13  C   UNL     1       2.585  -2.624 -22.597  1.00  0.00     0.016 A 
ATOM     14  C   UNL     1       2.534  -3.954 -22.170  1.00  0.00     0.047 A 
ATOM     15  C   UNL     1       3.670  -4.769 -22.262  1.00  0.00     0.115 A 
ATOM     16  C   UNL     1       4.914  -2.914 -23.204  1.00  0.00     0.016 A 
ATOM     17  C   UNL     1       4.859  -4.243 -22.776  1.00  0.00     0.047 A 
BRANCH  15  18
ATOM     18  O   UNL     1       3.630  -6.096 -21.840  1.00  0.00    -0.508 OA
ATOM     19  H   UNL     1       2.753  -6.599 -21.758  1.00  0.00     0.293 HD
ENDBRANCH  15  18
ENDBRANCH   1  12
BRANCH   2  20
ATOM     20  O   UNL     1       2.775  -1.164 -25.691  1.00  0.00    -0.502 OA
ATOM     21  H   UNL     1       1.805  -1.113 -25.979  1.00  0.00     0.293 HD
ENDBRANCH   2  20
BRANCH   6  22
ATOM     22  O   UNL     1       3.558   4.101 -25.523  1.00  0.00    -0.507 OA
ATOM     23  H   UNL     1       4.019   4.328 -26.391  1.00  0.00     0.293 HD
ENDBRANCH   6  22
BRANCH   8  24
ATOM     24  O   UNL     1       6.157   4.436 -21.499  1.00  0.00    -0.508 OA
ATOM     25  H   UNL     1       6.517   4.057 -20.632  1.00  0.00     0.293 HD
ENDBRANCH   8  24
TORSDOF 5
ENDMDL
MODEL 7
REMARK VINA RESULT:    -6.561      1.829      7.087
REMARK INTER + INTRA:          -8.000
REMARK INTER:                  -7.700
REMARK INTRA:                  -0.300
REMARK UNBOUND:                -0.289
REMARK SMILES O=c1c(O)c(-c2ccc(O)cc2)oc2cc(O)cc(O)c12
REMARK SMILES IDX 5 1 3 2 2 3 1 4 21 5 19 6 18 7 16 8 15 9 14 10 13 11 6 12
REMARK SMILES IDX 7 13 8 14 9 15 12 16 11 17 10 18 4 20 20 22 17 24
REMARK H PARENT 10 19 4 21 20 23 17 25
REMARK Flexibility Score: inf
ROOT
ATOM      1  C   UNL     1       4.262  -0.512 -22.803  1.00  0.00     0.180 A 
ATOM      2  C   UNL     1       4.376   0.268 -21.639  1.00  0.00     0.208 A 
ATOM      3  C   UNL     1       4.619   1.646 -21.763  1.00  0.00     0.238 A 
ATOM      4  O   UNL     1       4.666   2.347 -20.719  1.00  0.00    -0.285 OA
ATOM      5  C   UNL     1       4.760   2.224 -23.047  1.00  0.00     0.111 A 
ATOM      6  C   UNL     1       5.047   3.601 -23.290  1.00  0.00     0.134 A 
ATOM      7  C   UNL     1       5.036   4.088 -24.602  1.00  0.00     0.093 A 
ATOM      8  C   UNL     1       4.812   3.234 -25.686  1.00  0.00     0.123 A 
ATOM      9  C   UNL     1       4.590   1.877 -25.463  1.00  0.00     0.094 A 
ATOM     10  C   UNL     1       4.559   1.368 -24.163  1.00  0.00     0.146 A 
ATOM     11  O   UNL     1       4.334   0.070 -23.994  1.00  0.00    -0.452 OA
ENDROOT
BRANCH   1  12
ATOM     12  C   UNL     1       4.032  -1.973 -22.753  1.00  0.00     0.021 A 
ATOM     13  C   UNL     1       5.105  -2.882 -22.689  1.00  0.00     0.016 A 
ATOM     14  C   UNL     1       4.863  -4.259 -22.667  1.00  0.00     0.047 A 
ATOM     15  C   UNL     1       3.550  -4.745 -22.722  1.00  0.00     0.115 A 
ATOM     16  C   UNL     1       2.720  -2.470 -22.829  1.00  0.00     0.016 A 
ATOM     17  C   UNL     1       2.482  -3.847 -22.806  1.00  0.00     0.047 A 
BRANCH  15  18
ATOM     18  O   UNL     1       3.298  -6.115 -22.700  1.00  0.00    -0.508 OA
ATOM     19  H   UNL     1       3.422  -6.690 -23.526  1.00  0.00     0.293 HD
ENDBRANCH  15  18
ENDBRANCH   1  12
BRANCH   2  20
ATOM     20  O   UNL     1       4.211  -0.318 -20.381  1.00  0.00    -0.502 OA
ATOM     21  H   UNL     1       3.820  -1.244 -20.260  1.00  0.00     0.293 HD
ENDBRANCH   2  20
BRANCH   6  22
ATOM     22  O   UNL     1       5.375   4.518 -22.287  1.00  0.00    -0.507 OA
ATOM     23  H   UNL     1       6.227   4.499 -21.748  1.00  0.00     0.293 HD
ENDBRANCH   6  22
BRANCH   8  24
ATOM     24  O   UNL     1       4.818   3.724 -26.990  1.00  0.00    -0.508 OA
ATOM     25  H   UNL     1       5.318   3.250 -27.732  1.00  0.00     0.293 HD
ENDBRANCH   8  24
TORSDOF 5
ENDMDL
MODEL 8
REMARK VINA RESULT:    -6.446      4.854      7.762
REMARK INTER + INTRA:          -7.865
REMARK INTER:                  -7.585
REMARK INTRA:                  -0.280
REMARK UNBOUND:                -0.289
REMARK SMILES O=c1c(O)c(-c2ccc(O)cc2)oc2cc(O)cc(O)c12
REMARK SMILES IDX 5 1 3 2 2 3 1 4 21 5 19 6 18 7 16 8 15 9 14 10 13 11 6 12
REMARK SMILES IDX 7 13 8 14 9 15 12 16 11 17 10 18 4 20 20 22 17 24
REMARK H PARENT 10 19 4 21 20 23 17 25
REMARK Flexibility Score: inf
ROOT
ATOM      1  C   UNL     1       4.550   7.783 -24.170  1.00  0.00     0.180 A 
ATOM      2  C   UNL     1       3.992   7.269 -25.353  1.00  0.00     0.208 A 
ATOM      3  C   UNL     1       3.655   5.907 -25.413  1.00  0.00     0.238 A 
ATOM      4  O   UNL     1       3.106   5.465 -26.455  1.00  0.00    -0.285 OA
ATOM      5  C   UNL     1       3.896   5.072 -24.295  1.00  0.00     0.111 A 
ATOM      6  C   UNL     1       3.632   3.670 -24.258  1.00  0.00     0.134 A 
ATOM      7  C   UNL     1       3.786   2.969 -23.056  1.00  0.00     0.093 A 
ATOM      8  C   UNL     1       4.259   3.607 -21.906  1.00  0.00     0.123 A 
ATOM      9  C   UNL     1       4.577   4.963 -21.947  1.00  0.00     0.094 A 
ATOM     10  C   UNL     1       4.398   5.696 -23.123  1.00  0.00     0.146 A 
ATOM     11  O   UNL     1       4.703   6.989 -23.117  1.00  0.00    -0.452 OA
ENDROOT
BRANCH   1  12
ATOM     12  C   UNL     1       4.954   9.201 -24.039  1.00  0.00     0.021 A 
ATOM     13  C   UNL     1       4.084  10.163 -23.494  1.00  0.00     0.016 A 
ATOM     14  C   UNL     1       4.479  11.502 -23.404  1.00  0.00     0.047 A 
ATOM     15  C   UNL     1       5.740  11.897 -23.868  1.00  0.00     0.115 A 
ATOM     16  C   UNL     1       6.209   9.610 -24.521  1.00  0.00     0.016 A 
ATOM     17  C   UNL     1       6.601  10.949 -24.428  1.00  0.00     0.047 A 
BRANCH  15  18
ATOM     18  O   UNL     1       6.144  13.227 -23.782  1.00  0.00    -0.508 OA
ATOM     19  H   UNL     1       6.501  13.726 -24.590  1.00  0.00     0.293 HD
ENDBRANCH  15  18
ENDBRANCH   1  12
BRANCH   2  20
ATOM     20  O   UNL     1       3.742   8.114 -26.437  1.00  0.00    -0.502 OA
ATOM     21  H   UNL     1       4.320   8.921 -26.643  1.00  0.00     0.293 HD
ENDBRANCH   2  20
BRANCH   6  22
ATOM     22  O   UNL     1       3.245   2.920 -25.372  1.00  0.00    -0.507 OA
ATOM     23  H   UNL     1       2.291   2.693 -25.609  1.00  0.00     0.293 HD
ENDBRANCH   6  22
BRANCH   8  24
ATOM     24  O   UNL     1       4.425   2.899 -20.718  1.00  0.00    -0.508 OA
ATOM     25  H   UNL     1       4.704   3.360 -19.860  1.00  0.00     0.293 HD
ENDBRANCH   8  24
TORSDOF 5
ENDMDL
MODEL 9
REMARK VINA RESULT:    -6.428      4.133      9.697
REMARK INTER + INTRA:          -7.844
REMARK INTER:                  -7.548
REMARK INTRA:                  -0.296
REMARK UNBOUND:                -0.289
REMARK SMILES O=c1c(O)c(-c2ccc(O)cc2)oc2cc(O)cc(O)c12
REMARK SMILES IDX 5 1 3 2 2 3 1 4 21 5 19 6 18 7 16 8 15 9 14 10 13 11 6 12
REMARK SMILES IDX 7 13 8 14 9 15 12 16 11 17 10 18 4 20 20 22 17 24
REMARK H PARENT 10 19 4 21 20 23 17 25
REMARK Flexibility Score: inf
ROOT
ATOM      1  C   UNL     1       4.476   6.159 -22.972  1.00  0.00     0.180 A 
ATOM      2  C   UNL     1       5.411   7.156 -22.641  1.00  0.00     0.208 A 
ATOM      3  C   UNL     1       5.208   8.464 -23.112  1.00  0.00     0.238 A 
ATOM      4  O   UNL     1       6.018   9.362 -22.768  1.00  0.00    -0.285 OA
ATOM      5  C   UNL     1       4.082   8.755 -23.919  1.00  0.00     0.111 A 
ATOM      6  C   UNL     1       3.798  10.035 -24.483  1.00  0.00     0.134 A 
ATOM      7  C   UNL     1       2.588  10.240 -25.157  1.00  0.00     0.093 A 
ATOM      8  C   UNL     1       1.680   9.194 -25.343  1.00  0.00     0.123 A 
ATOM      9  C   UNL     1       1.975   7.926 -24.848  1.00  0.00     0.094 A 
ATOM     10  C   UNL     1       3.158   7.699 -24.140  1.00  0.00     0.146 A 
ATOM     11  O   UNL     1       3.397   6.478 -23.676  1.00  0.00    -0.452 OA
ENDROOT
BRANCH   1  12
ATOM     12  C   UNL     1       4.635   4.754 -22.536  1.00  0.00     0.021 A 
ATOM     13  C   UNL     1       5.399   3.837 -23.281  1.00  0.00     0.016 A 
ATOM     14  C   UNL     1       5.515   2.508 -22.861  1.00  0.00     0.047 A 
ATOM     15  C   UNL     1       4.860   2.076 -21.700  1.00  0.00     0.115 A 
ATOM     16  C   UNL     1       3.965   4.307 -21.384  1.00  0.00     0.016 A 
ATOM     17  C   UNL     1       4.084   2.978 -20.967  1.00  0.00     0.047 A 
BRANCH  15  18
ATOM     18  O   UNL     1       4.970   0.755 -21.272  1.00  0.00    -0.508 OA
ATOM     19  H   UNL     1       5.607   0.105 -21.719  1.00  0.00     0.293 HD
ENDBRANCH  15  18
ENDBRANCH   1  12
BRANCH   2  20
ATOM     20  O   UNL     1       6.504   6.852 -21.826  1.00  0.00    -0.502 OA
ATOM     21  H   UNL     1       7.095   6.046 -21.986  1.00  0.00     0.293 HD
ENDBRANCH   2  20
BRANCH   6  22
ATOM     22  O   UNL     1       4.676  11.121 -24.434  1.00  0.00    -0.507 OA
ATOM     23  H   UNL     1       5.280  11.337 -23.656  1.00  0.00     0.293 HD
ENDBRANCH   6  22
BRANCH   8  24
ATOM     24  O   UNL     1       0.486   9.402 -26.028  1.00  0.00    -0.508 OA
ATOM     25  H   UNL     1       0.187  10.331 -26.302  1.00  0.00     0.293 HD
ENDBRANCH   8  24
TORSDOF 5
ENDMDL
