MODEL 1
REMARK VINA RESULT:    -3.229      0.000      0.000
REMARK INTER + INTRA:          -4.123
REMARK INTER:                  -3.984
REMARK INTRA:                  -0.139
REMARK UNBOUND:                -0.139
REMARK SMILES CCCCCC(=O)[O-]
REMARK SMILES IDX 4 1 5 2 6 3 7 4 8 5 3 6 2 7 1 8
REMARK H PARENT
REMARK Flexibility Score: inf
ROOT
ATOM      1  C   UNL     1      36.949  34.477  27.204  1.00  0.00     0.006 C 
ENDROOT
BRANCH   1   2
ATOM      2  C   UNL     1      36.710  34.684  28.710  1.00  0.00     0.053 C 
BRANCH   2   3
ATOM      3  C   UNL     1      35.929  35.934  28.979  1.00  0.00     0.041 C 
ATOM      4  O   UNL     1      36.292  36.727  29.887  1.00  0.00    -0.550 OA
ATOM      5  O   UNL     1      34.786  36.211  28.240  1.00  0.00    -0.550 OA
ENDBRANCH   2   3
ENDBRANCH   1   2
BRANCH   1   6
ATOM      6  C   UNL     1      36.265  33.210  26.646  1.00  0.00     0.000 C 
BRANCH   6   7
ATOM      7  C   UNL     1      34.991  33.504  25.836  1.00  0.00    -0.003 C 
ATOM      8  C   UNL     1      34.097  32.278  25.663  1.00  0.00     0.004 C 
ENDBRANCH   6   7
ENDBRANCH   1   6
TORSDOF 4
ENDMDL
MODEL 2
REMARK VINA RESULT:    -3.223      5.921      7.965
REMARK INTER + INTRA:          -4.115
REMARK INTER:                  -3.971
REMARK INTRA:                  -0.145
REMARK UNBOUND:                -0.139
REMARK SMILES CCCCCC(=O)[O-]
REMARK SMILES IDX 4 1 5 2 6 3 7 4 8 5 3 6 2 7 1 8
REMARK H PARENT
REMARK Flexibility Score: inf
ROOT
ATOM      1  C   UNL     1      33.567  31.750  21.837  1.00  0.00     0.006 C 
ENDROOT
BRANCH   1   2
ATOM      2  C   UNL     1      32.393  30.774  21.646  1.00  0.00     0.053 C 
BRANCH   2   3
ATOM      3  C   UNL     1      32.851  29.348  21.667  1.00  0.00     0.041 C 
ATOM      4  O   UNL     1      33.497  28.902  22.652  1.00  0.00    -0.550 OA
ATOM      5  O   UNL     1      32.582  28.517  20.587  1.00  0.00    -0.550 OA
ENDBRANCH   2   3
ENDBRANCH   1   2
BRANCH   1   6
ATOM      6  C   UNL     1      33.469  32.574  23.140  1.00  0.00     0.000 C 
BRANCH   6   7
ATOM      7  C   UNL     1      34.292  31.989  24.301  1.00  0.00    -0.003 C 
ATOM      8  C   UNL     1      33.906  32.571  25.659  1.00  0.00     0.004 C 
ENDBRANCH   6   7
ENDBRANCH   1   6
TORSDOF 4
ENDMDL
MODEL 3
REMARK VINA RESULT:    -3.149      4.027      5.748
REMARK INTER + INTRA:          -4.024
REMARK INTER:                  -3.921
REMARK INTRA:                  -0.103
REMARK UNBOUND:                -0.139
REMARK SMILES CCCCCC(=O)[O-]
REMARK SMILES IDX 4 1 5 2 6 3 7 4 8 5 3 6 2 7 1 8
REMARK H PARENT
REMARK Flexibility Score: inf
ROOT
ATOM      1  C   UNL     1      33.354  32.326  23.023  1.00  0.00     0.006 C 
ENDROOT
BRANCH   1   2
ATOM      2  C   UNL     1      34.341  31.596  23.950  1.00  0.00     0.053 C 
BRANCH   2   3
ATOM      3  C   UNL     1      34.454  32.274  25.280  1.00  0.00     0.041 C 
ATOM      4  O   UNL     1      33.463  32.872  25.776  1.00  0.00    -0.550 OA
ATOM      5  O   UNL     1      35.664  32.264  25.963  1.00  0.00    -0.550 OA
ENDBRANCH   2   3
ENDBRANCH   1   2
BRANCH   1   6
ATOM      6  C   UNL     1      32.845  31.447  21.859  1.00  0.00     0.000 C 
BRANCH   6   7
ATOM      7  C   UNL     1      33.212  29.961  22.004  1.00  0.00    -0.003 C 
ATOM      8  C   UNL     1      32.194  29.028  21.352  1.00  0.00     0.004 C 
ENDBRANCH   6   7
ENDBRANCH   1   6
TORSDOF 4
ENDMDL
MODEL 4
REMARK VINA RESULT:    -3.100      1.420      1.852
REMARK INTER + INTRA:          -3.964
REMARK INTER:                  -3.911
REMARK INTRA:                  -0.053
REMARK UNBOUND:                -0.139
REMARK SMILES CCCCCC(=O)[O-]
REMARK SMILES IDX 4 1 5 2 6 3 7 4 8 5 3 6 2 7 1 8
REMARK H PARENT
REMARK Flexibility Score: inf
ROOT
ATOM      1  C   UNL     1      35.457  34.302  26.315  1.00  0.00     0.006 C 
ENDROOT
BRANCH   1   2
ATOM      2  C   UNL     1      35.119  35.621  27.030  1.00  0.00     0.053 C 
BRANCH   2   3
ATOM      3  C   UNL     1      35.756  35.695  28.384  1.00  0.00     0.041 C 
ATOM      4  O   UNL     1      35.529  36.676  29.140  1.00  0.00    -0.550 OA
ATOM      5  O   UNL     1      36.619  34.690  28.802  1.00  0.00    -0.550 OA
ENDBRANCH   2   3
ENDBRANCH   1   2
BRANCH   1   6
ATOM      6  C   UNL     1      34.235  33.643  25.638  1.00  0.00     0.000 C 
BRANCH   6   7
ATOM      7  C   UNL     1      34.292  32.106  25.627  1.00  0.00    -0.003 C 
ATOM      8  C   UNL     1      34.490  31.526  24.229  1.00  0.00     0.004 C 
ENDBRANCH   6   7
ENDBRANCH   1   6
TORSDOF 4
ENDMDL
MODEL 5
REMARK VINA RESULT:    -3.075      6.542      8.136
REMARK INTER + INTRA:          -3.933
REMARK INTER:                  -3.848
REMARK INTRA:                  -0.085
REMARK UNBOUND:                -0.139
REMARK SMILES CCCCCC(=O)[O-]
REMARK SMILES IDX 4 1 5 2 6 3 7 4 8 5 3 6 2 7 1 8
REMARK H PARENT
REMARK Flexibility Score: inf
ROOT
ATOM      1  C   UNL     1      34.007  30.405  22.778  1.00  0.00     0.006 C 
ENDROOT
BRANCH   1   2
ATOM      2  C   UNL     1      32.814  30.877  21.930  1.00  0.00     0.053 C 
BRANCH   2   3
ATOM      3  C   UNL     1      32.418  29.851  20.914  1.00  0.00     0.041 C 
ATOM      4  O   UNL     1      31.749  28.841  21.258  1.00  0.00    -0.550 OA
ATOM      5  O   UNL     1      32.807  29.999  19.589  1.00  0.00    -0.550 OA
ENDBRANCH   2   3
ENDBRANCH   1   2
BRANCH   1   6
ATOM      6  C   UNL     1      34.847  31.568  23.352  1.00  0.00     0.000 C 
BRANCH   6   7
ATOM      7  C   UNL     1      34.025  32.572  24.177  1.00  0.00    -0.003 C 
ATOM      8  C   UNL     1      34.098  32.313  25.680  1.00  0.00     0.004 C 
ENDBRANCH   6   7
ENDBRANCH   1   6
TORSDOF 4
ENDMDL
MODEL 6
REMARK VINA RESULT:    -3.074      7.930      9.551
REMARK INTER + INTRA:          -3.931
REMARK INTER:                  -3.826
REMARK INTRA:                  -0.105
REMARK UNBOUND:                -0.139
REMARK SMILES CCCCCC(=O)[O-]
REMARK SMILES IDX 4 1 5 2 6 3 7 4 8 5 3 6 2 7 1 8
REMARK H PARENT
REMARK Flexibility Score: inf
ROOT
ATOM      1  C   UNL     1      32.676  29.917  21.562  1.00  0.00     0.006 C 
ENDROOT
BRANCH   1   2
ATOM      2  C   UNL     1      32.620  28.625  20.730  1.00  0.00     0.053 C 
BRANCH   2   3
ATOM      3  C   UNL     1      33.274  28.800  19.393  1.00  0.00     0.041 C 
ATOM      4  O   UNL     1      34.131  27.970  18.991  1.00  0.00    -0.550 OA
ATOM      5  O   UNL     1      32.952  29.894  18.600  1.00  0.00    -0.550 OA
ENDBRANCH   2   3
ENDBRANCH   1   2
BRANCH   1   6
ATOM      6  C   UNL     1      33.900  29.986  22.501  1.00  0.00     0.000 C 
BRANCH   6   7
ATOM      7  C   UNL     1      34.118  31.374  23.127  1.00  0.00    -0.003 C 
ATOM      8  C   UNL     1      33.076  32.399  22.686  1.00  0.00     0.004 C 
ENDBRANCH   6   7
ENDBRANCH   1   6
TORSDOF 4
ENDMDL
MODEL 7
REMARK VINA RESULT:    -3.051      2.661      3.707
REMARK INTER + INTRA:          -3.903
REMARK INTER:                  -3.673
REMARK INTRA:                  -0.229
REMARK UNBOUND:                -0.139
REMARK SMILES CCCCCC(=O)[O-]
REMARK SMILES IDX 4 1 5 2 6 3 7 4 8 5 3 6 2 7 1 8
REMARK H PARENT
REMARK Flexibility Score: inf
ROOT
ATOM      1  C   UNL     1      36.306  36.779  29.708  1.00  0.00     0.006 C 
ENDROOT
BRANCH   1   2
ATOM      2  C   UNL     1      37.152  37.967  29.221  1.00  0.00     0.053 C 
BRANCH   2   3
ATOM      3  C   UNL     1      38.618  37.710  29.393  1.00  0.00     0.041 C 
ATOM      4  O   UNL     1      39.052  36.530  29.460  1.00  0.00    -0.550 OA
ATOM      5  O   UNL     1      39.502  38.776  29.502  1.00  0.00    -0.550 OA
ENDBRANCH   2   3
ENDBRANCH   1   2
BRANCH   1   6
ATOM      6  C   UNL     1      35.332  36.243  28.635  1.00  0.00     0.000 C 
BRANCH   6   7
ATOM      7  C   UNL     1      36.027  35.460  27.509  1.00  0.00    -0.003 C 
ATOM      8  C   UNL     1      36.739  34.203  28.006  1.00  0.00     0.004 C 
ENDBRANCH   6   7
ENDBRANCH   1   6
TORSDOF 4
ENDMDL
MODEL 8
REMARK VINA RESULT:    -3.002      8.275     10.206
REMARK INTER + INTRA:          -3.843
REMARK INTER:                  -3.778
REMARK INTRA:                  -0.064
REMARK UNBOUND:                -0.139
REMARK SMILES CCCCCC(=O)[O-]
REMARK SMILES IDX 4 1 5 2 6 3 7 4 8 5 3 6 2 7 1 8
REMARK H PARENT
REMARK Flexibility Score: inf
ROOT
ATOM      1  C   UNL     1      33.708  29.022  19.477  1.00  0.00     0.006 C 
ENDROOT
BRANCH   1   2
ATOM      2  C   UNL     1      32.544  28.989  20.481  1.00  0.00     0.053 C 
BRANCH   2   3
ATOM      3  C   UNL     1      32.866  29.757  21.726  1.00  0.00     0.041 C 
ATOM      4  O   UNL     1      33.596  29.247  22.617  1.00  0.00    -0.550 OA
ATOM      5  O   UNL     1      32.341  31.030  21.913  1.00  0.00    -0.550 OA
ENDBRANCH   2   3
ENDBRANCH   1   2
BRANCH   1   6
ATOM      6  C   UNL     1      33.260  28.792  18.016  1.00  0.00     0.000 C 
BRANCH   6   7
ATOM      7  C   UNL     1      33.773  27.472  17.416  1.00  0.00    -0.003 C 
ATOM      8  C   UNL     1      32.722  26.750  16.575  1.00  0.00     0.004 C 
ENDBRANCH   6   7
ENDBRANCH   1   6
TORSDOF 4
ENDMDL
MODEL 9
REMARK VINA RESULT:    -2.972      9.080     10.996
REMARK INTER + INTRA:          -3.805
REMARK INTER:                  -3.712
REMARK INTRA:                  -0.093
REMARK UNBOUND:                -0.139
REMARK SMILES CCCCCC(=O)[O-]
REMARK SMILES IDX 4 1 5 2 6 3 7 4 8 5 3 6 2 7 1 8
REMARK H PARENT
REMARK Flexibility Score: inf
ROOT
ATOM      1  C   UNL     1      32.998  28.636  20.302  1.00  0.00     0.006 C 
ENDROOT
BRANCH   1   2
ATOM      2  C   UNL     1      33.208  29.070  18.842  1.00  0.00     0.053 C 
BRANCH   2   3
ATOM      3  C   UNL     1      33.673  27.930  17.988  1.00  0.00     0.041 C 
ATOM      4  O   UNL     1      34.825  27.447  18.143  1.00  0.00    -0.550 OA
ATOM      5  O   UNL     1      32.838  27.414  17.004  1.00  0.00    -0.550 OA
ENDBRANCH   2   3
ENDBRANCH   1   2
BRANCH   1   6
ATOM      6  C   UNL     1      32.027  29.555  21.077  1.00  0.00     0.000 C 
BRANCH   6   7
ATOM      7  C   UNL     1      32.722  30.739  21.771  1.00  0.00    -0.003 C 
ATOM      8  C   UNL     1      33.967  30.327  22.552  1.00  0.00     0.004 C 
ENDBRANCH   6   7
ENDBRANCH   1   6
TORSDOF 4
ENDMDL
