MODEL 1
REMARK VINA RESULT:    92.286      0.000      0.000
REMARK INTER + INTRA:         152.748
REMARK INTER:                 151.632
REMARK INTRA:                   1.116
REMARK UNBOUND:                 1.116
REMARK SMILES C[C@H]1O[C@H](OC[C@H]2O[C@H](Oc3c(-c4ccc(O)c(O)c4)oc4cc(O)cc(O)c4c3=O)[C@@H](O)[C@@H](O)[C@H]2O)[C@H](O)[C@H](O)[C@H]1O
REMARK SMILES IDX 7 1 36 2 34 3 32 4 9 5 8 6 6 7 5 8 4 9 1 10 2 11 42 12 3 13
REMARK SMILES IDX 40 14 38 15 43 16 41 18 39 20 37 22 35 24 10 26 11 27 12 28
REMARK SMILES IDX 30 29 21 30 29 31 31 32 22 33 27 34 23 35 26 36 24 37 13 38
REMARK SMILES IDX 20 39 14 40 18 41 15 42 16 43 19 44 17 46 28 48 25 50 33 52
REMARK H PARENT 43 17 41 19 39 21 37 23 35 25 19 45 17 47 28 49 25 51 33 53
REMARK Flexibility Score: inf
ROOT
ATOM      1  C   UNL     1      21.065  44.840   9.377  1.00  0.00     0.180 C 
ATOM      2  C   UNL     1      21.647  44.587  10.807  1.00  0.00     0.177 C 
ATOM      3  C   UNL     1      20.586  45.125  11.795  1.00  0.00     0.180 C 
ATOM      4  C   UNL     1      19.173  44.443  11.605  1.00  0.00     0.214 C 
ATOM      5  C   UNL     1      19.110  43.706  10.243  1.00  0.00     0.339 C 
ATOM      6  O   UNL     1      19.711  44.448   9.190  1.00  0.00    -0.332 OA
ENDROOT
BRANCH   1   7
ATOM      7  C   UNL     1      21.930  44.321   8.215  1.00  0.00     0.198 C 
BRANCH   7   8
ATOM      8  O   UNL     1      21.361  43.063   7.813  1.00  0.00    -0.347 OA
BRANCH   8   9
ATOM      9  C   UNL     1      21.559  42.727   6.455  1.00  0.00     0.281 C 
ATOM     10  C   UNL     1      21.788  42.850   3.514  1.00  0.00     0.041 C 
ATOM     11  C   UNL     1      22.717  43.476   4.557  1.00  0.00     0.150 C 
ATOM     12  C   UNL     1      23.969  42.684   4.908  1.00  0.00     0.174 C 
ATOM     13  O   UNL     1      22.089  43.830   5.743  1.00  0.00    -0.344 OA
ATOM     14  C   UNL     1      23.601  41.305   5.515  1.00  0.00     0.179 C 
ATOM     15  C   UNL     1      22.240  41.315   6.277  1.00  0.00     0.202 C 
BRANCH  12  16
ATOM     16  O   UNL     1      24.831  42.533   3.798  1.00  0.00    -0.388 OA
ATOM     17  H   UNL     1      24.338  42.907   3.019  1.00  0.00     0.211 HD
ENDBRANCH  12  16
BRANCH  14  18
ATOM     18  O   UNL     1      24.659  40.806   6.327  1.00  0.00    -0.387 OA
ATOM     19  H   UNL     1      24.897  41.527   6.970  1.00  0.00     0.211 HD
ENDBRANCH  14  18
BRANCH  15  20
ATOM     20  O   UNL     1      22.330  40.612   7.489  1.00  0.00    -0.385 OA
ATOM     21  H   UNL     1      21.588  39.978   7.483  1.00  0.00     0.211 HD
ENDBRANCH  15  20
ENDBRANCH   8   9
ENDBRANCH   7   8
ENDBRANCH   1   7
BRANCH   2  22
ATOM     22  O   UNL     1      21.949  43.233  11.057  1.00  0.00    -0.387 OA
ATOM     23  H   UNL     1      22.263  42.827  10.193  1.00  0.00     0.211 HD
ENDBRANCH   2  22
BRANCH   3  24
ATOM     24  O   UNL     1      21.029  45.044  13.125  1.00  0.00    -0.387 OA
ATOM     25  H   UNL     1      21.971  45.363  13.148  1.00  0.00     0.211 HD
ENDBRANCH   3  24
BRANCH   5  26
ATOM     26  O   UNL     1      17.782  43.292   9.894  1.00  0.00    -0.454 OA
BRANCH  26  27
ATOM     27  C   UNL     1      17.061  42.111  10.196  1.00  0.00     0.214 A 
ATOM     28  C   UNL     1      17.590  40.797  10.449  1.00  0.00     0.180 A 
ATOM     29  C   UNL     1      15.647  42.233  10.176  1.00  0.00     0.239 A 
ATOM     30  O   UNL     1      16.768  39.793  10.692  1.00  0.00    -0.452 OA
ATOM     31  C   UNL     1      14.812  41.117  10.468  1.00  0.00     0.111 A 
ATOM     32  O   UNL     1      15.136  43.346   9.866  1.00  0.00    -0.285 OA
ATOM     33  C   UNL     1      15.448  39.896  10.700  1.00  0.00     0.146 A 
ATOM     34  C   UNL     1      13.398  41.161  10.480  1.00  0.00     0.134 A 
ATOM     35  C   UNL     1      14.719  38.711  10.871  1.00  0.00     0.094 A 
ATOM     36  C   UNL     1      12.672  39.977  10.523  1.00  0.00     0.093 A 
ATOM     37  C   UNL     1      13.324  38.752  10.716  1.00  0.00     0.123 A 
BRANCH  28  38
ATOM     38  C   UNL     1      18.985  40.324  10.458  1.00  0.00     0.025 A 
ATOM     39  C   UNL     1      19.864  40.923  11.384  1.00  0.00     0.062 A 
ATOM     40  C   UNL     1      19.516  39.662   9.338  1.00  0.00     0.016 A 
ATOM     41  C   UNL     1      21.234  40.725  11.294  1.00  0.00     0.158 A 
ATOM     42  C   UNL     1      20.893  39.441   9.250  1.00  0.00     0.051 A 
ATOM     43  C   UNL     1      21.734  39.936  10.232  1.00  0.00     0.157 A 
BRANCH  41  44
ATOM     44  O   UNL     1      22.079  41.349  12.193  1.00  0.00    -0.504 OA
ATOM     45  H   UNL     1      22.931  41.785  11.806  1.00  0.00     0.293 HD
ENDBRANCH  41  44
BRANCH  43  46
ATOM     46  O   UNL     1      23.103  39.645  10.168  1.00  0.00    -0.504 OA
ATOM     47  H   UNL     1      23.417  38.659  10.252  1.00  0.00     0.293 HD
ENDBRANCH  43  46
ENDBRANCH  28  38
BRANCH  34  48
ATOM     48  O   UNL     1      12.717  42.381  10.454  1.00  0.00    -0.507 OA
ATOM     49  H   UNL     1      11.790  42.453  10.864  1.00  0.00     0.293 HD
ENDBRANCH  34  48
BRANCH  37  50
ATOM     50  O   UNL     1      12.652  37.537  10.617  1.00  0.00    -0.508 OA
ATOM     51  H   UNL     1      13.088  36.647  10.844  1.00  0.00     0.293 HD
ENDBRANCH  37  50
ENDBRANCH  26  27
ENDBRANCH   5  26
BRANCH   4  52
ATOM     52  O   UNL     1      18.963  43.498  12.613  1.00  0.00    -0.384 OA
ATOM     53  H   UNL     1      19.484  43.794  13.413  1.00  0.00     0.211 HD
ENDBRANCH   4  52
TORSDOF 16
ENDMDL
MODEL 2
REMARK VINA RESULT:    92.942      1.015      1.638
REMARK INTER + INTRA:         153.826
REMARK INTER:                 155.257
REMARK INTRA:                  -1.431
REMARK UNBOUND:                 1.116
REMARK SMILES C[C@H]1O[C@H](OC[C@H]2O[C@H](Oc3c(-c4ccc(O)c(O)c4)oc4cc(O)cc(O)c4c3=O)[C@@H](O)[C@@H](O)[C@H]2O)[C@H](O)[C@H](O)[C@H]1O
REMARK SMILES IDX 7 1 36 2 34 3 32 4 9 5 8 6 6 7 5 8 4 9 1 10 2 11 42 12 3 13
REMARK SMILES IDX 40 14 38 15 43 16 41 18 39 20 37 22 35 24 10 26 11 27 12 28
REMARK SMILES IDX 30 29 21 30 29 31 31 32 22 33 27 34 23 35 26 36 24 37 13 38
REMARK SMILES IDX 20 39 14 40 18 41 15 42 16 43 19 44 17 46 28 48 25 50 33 52
REMARK H PARENT 43 17 41 19 39 21 37 23 35 25 19 45 17 47 28 49 25 51 33 53
REMARK Flexibility Score: inf
ROOT
ATOM      1  C   UNL     1      21.310  45.125   9.407  1.00  0.00     0.180 C 
ATOM      2  C   UNL     1      21.756  44.833  10.877  1.00  0.00     0.177 C 
ATOM      3  C   UNL     1      20.518  45.124  11.759  1.00  0.00     0.180 C 
ATOM      4  C   UNL     1      19.257  44.268  11.344  1.00  0.00     0.214 C 
ATOM      5  C   UNL     1      19.464  43.652   9.937  1.00  0.00     0.339 C 
ATOM      6  O   UNL     1      20.062  44.562   9.023  1.00  0.00    -0.332 OA
ENDROOT
BRANCH   1   7
ATOM      7  C   UNL     1      22.372  44.839   8.330  1.00  0.00     0.198 C 
BRANCH   7   8
ATOM      8  O   UNL     1      21.656  44.458   7.143  1.00  0.00    -0.347 OA
BRANCH   8   9
ATOM      9  C   UNL     1      22.413  43.727   6.199  1.00  0.00     0.281 C 
ATOM     10  C   UNL     1      24.488  42.067   4.912  1.00  0.00     0.041 C 
ATOM     11  C   UNL     1      23.434  41.632   5.933  1.00  0.00     0.150 C 
ATOM     12  C   UNL     1      22.170  40.997   5.370  1.00  0.00     0.174 C 
ATOM     13  O   UNL     1      23.053  42.627   6.822  1.00  0.00    -0.344 OA
ATOM     14  C   UNL     1      21.413  41.991   4.450  1.00  0.00     0.179 C 
ATOM     15  C   UNL     1      21.626  43.482   4.854  1.00  0.00     0.202 C 
BRANCH  12  16
ATOM     16  O   UNL     1      22.441  39.788   4.690  1.00  0.00    -0.388 OA
ATOM     17  H   UNL     1      21.983  39.862   3.810  1.00  0.00     0.211 HD
ENDBRANCH  12  16
BRANCH  14  18
ATOM     18  O   UNL     1      20.031  41.657   4.369  1.00  0.00    -0.387 OA
ATOM     19  H   UNL     1      19.778  41.695   3.408  1.00  0.00     0.211 HD
ENDBRANCH  14  18
BRANCH  15  20
ATOM     20  O   UNL     1      20.421  44.201   4.806  1.00  0.00    -0.385 OA
ATOM     21  H   UNL     1      19.727  43.542   4.618  1.00  0.00     0.211 HD
ENDBRANCH  15  20
ENDBRANCH   8   9
ENDBRANCH   7   8
ENDBRANCH   1   7
BRANCH   2  22
ATOM     22  O   UNL     1      22.230  43.518  11.068  1.00  0.00    -0.387 OA
ATOM     23  H   UNL     1      23.220  43.525  10.898  1.00  0.00     0.211 HD
ENDBRANCH   2  22
BRANCH   3  24
ATOM     24  O   UNL     1      20.813  44.991  13.125  1.00  0.00    -0.387 OA
ATOM     25  H   UNL     1      19.996  45.238  13.634  1.00  0.00     0.211 HD
ENDBRANCH   3  24
BRANCH   5  26
ATOM     26  O   UNL     1      18.263  43.085   9.394  1.00  0.00    -0.454 OA
BRANCH  26  27
ATOM     27  C   UNL     1      17.449  42.016   9.840  1.00  0.00     0.214 A 
ATOM     28  C   UNL     1      17.862  40.685  10.198  1.00  0.00     0.180 A 
ATOM     29  C   UNL     1      16.054  42.277   9.869  1.00  0.00     0.239 A 
ATOM     30  O   UNL     1      16.961  39.796  10.573  1.00  0.00    -0.452 OA
ATOM     31  C   UNL     1      15.132  41.283  10.304  1.00  0.00     0.111 A 
ATOM     32  O   UNL     1      15.637  43.403   9.474  1.00  0.00    -0.285 OA
ATOM     33  C   UNL     1      15.659  40.031  10.627  1.00  0.00     0.146 A 
ATOM     34  C   UNL     1      13.731  41.470  10.372  1.00  0.00     0.134 A 
ATOM     35  C   UNL     1      14.829  38.947  10.944  1.00  0.00     0.094 A 
ATOM     36  C   UNL     1      12.898  40.375  10.562  1.00  0.00     0.093 A 
ATOM     37  C   UNL     1      13.438  39.114  10.846  1.00  0.00     0.123 A 
BRANCH  28  38
ATOM     38  C   UNL     1      19.204  40.077  10.194  1.00  0.00     0.025 A 
ATOM     39  C   UNL     1      20.205  40.718  10.951  1.00  0.00     0.062 A 
ATOM     40  C   UNL     1      19.580  39.197   9.164  1.00  0.00     0.016 A 
ATOM     41  C   UNL     1      21.539  40.366  10.807  1.00  0.00     0.158 A 
ATOM     42  C   UNL     1      20.918  38.823   9.025  1.00  0.00     0.051 A 
ATOM     43  C   UNL     1      21.877  39.375   9.857  1.00  0.00     0.157 A 
BRANCH  41  44
ATOM     44  O   UNL     1      22.508  41.031  11.537  1.00  0.00    -0.504 OA
ATOM     45  H   UNL     1      23.234  41.531  11.000  1.00  0.00     0.293 HD
ENDBRANCH  41  44
BRANCH  43  46
ATOM     46  O   UNL     1      23.204  38.936   9.754  1.00  0.00    -0.504 OA
ATOM     47  H   UNL     1      23.937  39.394  10.329  1.00  0.00     0.293 HD
ENDBRANCH  43  46
ENDBRANCH  28  38
BRANCH  34  48
ATOM     48  O   UNL     1      13.170  42.746  10.256  1.00  0.00    -0.507 OA
ATOM     49  H   UNL     1      13.127  43.199   9.348  1.00  0.00     0.293 HD
ENDBRANCH  34  48
BRANCH  37  50
ATOM     50  O   UNL     1      12.648  37.969  10.895  1.00  0.00    -0.508 OA
ATOM     51  H   UNL     1      11.975  37.733  10.170  1.00  0.00     0.293 HD
ENDBRANCH  37  50
ENDBRANCH  26  27
ENDBRANCH   5  26
BRANCH   4  52
ATOM     52  O   UNL     1      19.079  43.217  12.249  1.00  0.00    -0.384 OA
ATOM     53  H   UNL     1      18.349  43.484  12.877  1.00  0.00     0.211 HD
ENDBRANCH   4  52
TORSDOF 16
ENDMDL
