MODEL 1
REMARK VINA RESULT:    -3.602      0.000      0.000
REMARK INTER + INTRA:         -15.059
REMARK INTER:                  -9.497
REMARK INTRA:                  -5.562
REMARK UNBOUND:                -5.562
REMARK SMILES CCCCCCCCCCCCCCCCCCCCCCCCCCCCCC(=O)[O-]
REMARK SMILES IDX 16 1 17 2 18 3 19 4 20 5 21 6 22 7 23 8 24 9 25 10 26 11
REMARK SMILES IDX 27 12 28 13 29 14 30 15 31 16 32 17 15 18 14 19 13 20 12 21
REMARK SMILES IDX 11 22 10 23 9 24 8 25 7 26 6 27 5 28 4 29 3 30 2 31 1 32
REMARK H PARENT
REMARK Flexibility Score: inf
ROOT
ATOM      1  C   UNL     1      -6.114  -1.474  35.688  1.00  0.00     0.000 C 
ENDROOT
BRANCH   1   2
ATOM      2  C   UNL     1      -6.816  -1.259  37.045  1.00  0.00     0.000 C 
BRANCH   2   3
ATOM      3  C   UNL     1      -5.890  -0.861  38.207  1.00  0.00     0.000 C 
BRANCH   3   4
ATOM      4  C   UNL     1      -5.861   0.656  38.455  1.00  0.00     0.000 C 
BRANCH   4   5
ATOM      5  C   UNL     1      -4.416   1.169  38.539  1.00  0.00     0.000 C 
BRANCH   5   6
ATOM      6  C   UNL     1      -3.455   0.405  37.611  1.00  0.00     0.000 C 
BRANCH   6   7
ATOM      7  C   UNL     1      -3.144   1.112  36.279  1.00  0.00     0.000 C 
BRANCH   7   8
ATOM      8  C   UNL     1      -2.816   0.130  35.144  1.00  0.00     0.000 C 
BRANCH   8   9
ATOM      9  C   UNL     1      -3.289   0.680  33.789  1.00  0.00     0.000 C 
BRANCH   9  10
ATOM     10  C   UNL     1      -3.602  -0.432  32.777  1.00  0.00     0.000 C 
BRANCH  10  11
ATOM     11  C   UNL     1      -3.233  -1.832  33.304  1.00  0.00     0.000 C 
BRANCH  11  12
ATOM     12  C   UNL     1      -3.537  -2.944  32.288  1.00  0.00     0.000 C 
BRANCH  12  13
ATOM     13  C   UNL     1      -3.482  -4.348  32.915  1.00  0.00     0.006 C 
BRANCH  13  14
ATOM     14  C   UNL     1      -2.068  -4.943  32.881  1.00  0.00     0.053 C 
BRANCH  14  15
ATOM     15  C   UNL     1      -1.796  -5.650  31.589  1.00  0.00     0.041 C 
ATOM     16  O   UNL     1      -1.471  -4.996  30.564  1.00  0.00    -0.550 OA
ATOM     17  O   UNL     1      -1.868  -7.036  31.528  1.00  0.00    -0.550 OA
ENDBRANCH  14  15
ENDBRANCH  13  14
ENDBRANCH  12  13
ENDBRANCH  11  12
ENDBRANCH  10  11
ENDBRANCH   9  10
ENDBRANCH   8   9
ENDBRANCH   7   8
ENDBRANCH   6   7
ENDBRANCH   5   6
ENDBRANCH   4   5
ENDBRANCH   3   4
ENDBRANCH   2   3
ENDBRANCH   1   2
BRANCH   1  18
ATOM     18  C   UNL     1      -6.758  -0.753  34.490  1.00  0.00     0.000 C 
BRANCH  18  19
ATOM     19  C   UNL     1      -7.196   0.683  34.823  1.00  0.00     0.000 C 
BRANCH  19  20
ATOM     20  C   UNL     1      -6.892   1.673  33.687  1.00  0.00     0.000 C 
BRANCH  20  21
ATOM     21  C   UNL     1      -6.303   3.000  34.190  1.00  0.00     0.000 C 
BRANCH  21  22
ATOM     22  C   UNL     1      -6.045   2.949  35.702  1.00  0.00     0.000 C 
BRANCH  22  23
ATOM     23  C   UNL     1      -5.920   4.344  36.337  1.00  0.00     0.000 C 
BRANCH  23  24
ATOM     24  C   UNL     1      -6.214   4.363  37.851  1.00  0.00    -0.000 C 
BRANCH  24  25
ATOM     25  C   UNL     1      -7.466   5.193  38.188  1.00  0.00    -0.000 C 
BRANCH  25  26
ATOM     26  C   UNL     1      -8.744   4.622  37.555  1.00  0.00    -0.000 C 
BRANCH  26  27
ATOM     27  C   UNL     1      -8.998   3.161  37.950  1.00  0.00    -0.000 C 
BRANCH  27  28
ATOM     28  C   UNL     1      -9.883   2.457  36.911  1.00  0.00    -0.000 C 
BRANCH  28  29
ATOM     29  C   UNL     1     -11.189   3.219  36.622  1.00  0.00    -0.000 C 
BRANCH  29  30
ATOM     30  C   UNL     1     -11.444   3.540  35.135  1.00  0.00    -0.000 C 
BRANCH  30  31
ATOM     31  C   UNL     1     -10.224   3.361  34.214  1.00  0.00    -0.003 C 
ATOM     32  C   UNL     1      -9.665   4.688  33.703  1.00  0.00     0.004 C 
ENDBRANCH  30  31
ENDBRANCH  29  30
ENDBRANCH  28  29
ENDBRANCH  27  28
ENDBRANCH  26  27
ENDBRANCH  25  26
ENDBRANCH  24  25
ENDBRANCH  23  24
ENDBRANCH  22  23
ENDBRANCH  21  22
ENDBRANCH  20  21
ENDBRANCH  19  20
ENDBRANCH  18  19
ENDBRANCH   1  18
TORSDOF 28
ENDMDL
MODEL 2
REMARK VINA RESULT:    -3.559      2.981      4.707
REMARK INTER + INTRA:         -14.947
REMARK INTER:                  -8.394
REMARK INTRA:                  -6.553
REMARK UNBOUND:                -5.562
REMARK SMILES CCCCCCCCCCCCCCCCCCCCCCCCCCCCCC(=O)[O-]
REMARK SMILES IDX 16 1 17 2 18 3 19 4 20 5 21 6 22 7 23 8 24 9 25 10 26 11
REMARK SMILES IDX 27 12 28 13 29 14 30 15 31 16 32 17 15 18 14 19 13 20 12 21
REMARK SMILES IDX 11 22 10 23 9 24 8 25 7 26 6 27 5 28 4 29 3 30 2 31 1 32
REMARK H PARENT
REMARK Flexibility Score: inf
ROOT
ATOM      1  C   UNL     1      -7.507   0.564  38.461  1.00  0.00     0.000 C 
ENDROOT
BRANCH   1   2
ATOM      2  C   UNL     1      -6.123   0.193  39.033  1.00  0.00     0.000 C 
BRANCH   2   3
ATOM      3  C   UNL     1      -5.161  -0.478  38.037  1.00  0.00     0.000 C 
BRANCH   3   4
ATOM      4  C   UNL     1      -3.970   0.418  37.660  1.00  0.00     0.000 C 
BRANCH   4   5
ATOM      5  C   UNL     1      -3.886   1.638  38.589  1.00  0.00     0.000 C 
BRANCH   5   6
ATOM      6  C   UNL     1      -4.051   2.972  37.839  1.00  0.00     0.000 C 
BRANCH   6   7
ATOM      7  C   UNL     1      -4.281   2.836  36.323  1.00  0.00     0.000 C 
BRANCH   7   8
ATOM      8  C   UNL     1      -5.092   4.001  35.735  1.00  0.00     0.000 C 
BRANCH   8   9
ATOM      9  C   UNL     1      -6.367   3.490  35.046  1.00  0.00     0.000 C 
BRANCH   9  10
ATOM     10  C   UNL     1      -6.936   2.230  35.716  1.00  0.00     0.000 C 
BRANCH  10  11
ATOM     11  C   UNL     1      -7.131   1.070  34.722  1.00  0.00     0.000 C 
BRANCH  11  12
ATOM     12  C   UNL     1      -5.842   0.267  34.492  1.00  0.00     0.000 C 
BRANCH  12  13
ATOM     13  C   UNL     1      -6.107  -1.238  34.313  1.00  0.00     0.006 C 
BRANCH  13  14
ATOM     14  C   UNL     1      -7.532  -1.629  34.728  1.00  0.00     0.053 C 
BRANCH  14  15
ATOM     15  C   UNL     1      -7.531  -2.736  35.737  1.00  0.00     0.041 C 
ATOM     16  O   UNL     1      -7.746  -2.487  36.952  1.00  0.00    -0.550 OA
ATOM     17  O   UNL     1      -7.327  -4.047  35.327  1.00  0.00    -0.550 OA
ENDBRANCH  14  15
ENDBRANCH  13  14
ENDBRANCH  12  13
ENDBRANCH  11  12
ENDBRANCH  10  11
ENDBRANCH   9  10
ENDBRANCH   8   9
ENDBRANCH   7   8
ENDBRANCH   6   7
ENDBRANCH   5   6
ENDBRANCH   4   5
ENDBRANCH   3   4
ENDBRANCH   2   3
ENDBRANCH   1   2
BRANCH   1  18
ATOM     18  C   UNL     1      -8.237   1.709  39.189  1.00  0.00     0.000 C 
BRANCH  18  19
ATOM     19  C   UNL     1      -7.283   2.607  39.995  1.00  0.00     0.000 C 
BRANCH  19  20
ATOM     20  C   UNL     1      -7.634   4.099  39.877  1.00  0.00     0.000 C 
BRANCH  20  21
ATOM     21  C   UNL     1      -7.047   4.754  38.618  1.00  0.00     0.000 C 
BRANCH  21  22
ATOM     22  C   UNL     1      -8.104   5.600  37.895  1.00  0.00     0.000 C 
BRANCH  22  23
ATOM     23  C   UNL     1      -9.179   4.750  37.196  1.00  0.00     0.000 C 
BRANCH  23  24
ATOM     24  C   UNL     1     -10.002   5.530  36.151  1.00  0.00    -0.000 C 
BRANCH  24  25
ATOM     25  C   UNL     1      -9.923   4.888  34.755  1.00  0.00    -0.000 C 
BRANCH  25  26
ATOM     26  C   UNL     1     -11.283   4.854  34.039  1.00  0.00    -0.000 C 
BRANCH  26  27
ATOM     27  C   UNL     1     -11.788   3.424  33.798  1.00  0.00    -0.000 C 
BRANCH  27  28
ATOM     28  C   UNL     1     -10.707   2.393  34.153  1.00  0.00    -0.000 C 
BRANCH  28  29
ATOM     29  C   UNL     1     -11.184   1.356  35.186  1.00  0.00    -0.000 C 
BRANCH  29  30
ATOM     30  C   UNL     1     -10.787   1.657  36.645  1.00  0.00    -0.000 C 
BRANCH  30  31
ATOM     31  C   UNL     1     -11.967   1.872  37.609  1.00  0.00    -0.003 C 
ATOM     32  C   UNL     1     -12.610   3.250  37.463  1.00  0.00     0.004 C 
ENDBRANCH  30  31
ENDBRANCH  29  30
ENDBRANCH  28  29
ENDBRANCH  27  28
ENDBRANCH  26  27
ENDBRANCH  25  26
ENDBRANCH  24  25
ENDBRANCH  23  24
ENDBRANCH  22  23
ENDBRANCH  21  22
ENDBRANCH  20  21
ENDBRANCH  19  20
ENDBRANCH  18  19
ENDBRANCH   1  18
TORSDOF 28
ENDMDL
MODEL 3
REMARK VINA RESULT:    -3.538      1.771      5.646
REMARK INTER + INTRA:         -14.891
REMARK INTER:                  -9.253
REMARK INTRA:                  -5.638
REMARK UNBOUND:                -5.562
REMARK SMILES CCCCCCCCCCCCCCCCCCCCCCCCCCCCCC(=O)[O-]
REMARK SMILES IDX 16 1 17 2 18 3 19 4 20 5 21 6 22 7 23 8 24 9 25 10 26 11
REMARK SMILES IDX 27 12 28 13 29 14 30 15 31 16 32 17 15 18 14 19 13 20 12 21
REMARK SMILES IDX 11 22 10 23 9 24 8 25 7 26 6 27 5 28 4 29 3 30 2 31 1 32
REMARK H PARENT
REMARK Flexibility Score: inf
ROOT
ATOM      1  C   UNL     1     -10.152   4.310  35.302  1.00  0.00     0.000 C 
ENDROOT
BRANCH   1   2
ATOM      2  C   UNL     1      -9.862   5.348  36.406  1.00  0.00     0.000 C 
BRANCH   2   3
ATOM      3  C   UNL     1      -8.504   5.191  37.113  1.00  0.00     0.000 C 
BRANCH   3   4
ATOM      4  C   UNL     1      -8.558   4.216  38.300  1.00  0.00     0.000 C 
BRANCH   4   5
ATOM      5  C   UNL     1      -7.885   2.882  37.943  1.00  0.00     0.000 C 
BRANCH   5   6
ATOM      6  C   UNL     1      -6.901   3.005  36.766  1.00  0.00     0.000 C 
BRANCH   6   7
ATOM      7  C   UNL     1      -7.124   1.990  35.630  1.00  0.00     0.000 C 
BRANCH   7   8
ATOM      8  C   UNL     1      -8.203   0.949  35.964  1.00  0.00     0.000 C 
BRANCH   8   9
ATOM      9  C   UNL     1      -7.896  -0.396  35.287  1.00  0.00     0.000 C 
BRANCH   9  10
ATOM     10  C   UNL     1      -6.519  -0.415  34.606  1.00  0.00     0.000 C 
BRANCH  10  11
ATOM     11  C   UNL     1      -5.734  -1.707  34.897  1.00  0.00     0.000 C 
BRANCH  11  12
ATOM     12  C   UNL     1      -4.521  -1.882  33.970  1.00  0.00     0.000 C 
BRANCH  12  13
ATOM     13  C   UNL     1      -4.621  -3.144  33.097  1.00  0.00     0.006 C 
BRANCH  13  14
ATOM     14  C   UNL     1      -3.308  -3.445  32.360  1.00  0.00     0.053 C 
BRANCH  14  15
ATOM     15  C   UNL     1      -2.882  -4.868  32.546  1.00  0.00     0.041 C 
ATOM     16  O   UNL     1      -2.123  -5.184  33.500  1.00  0.00    -0.550 OA
ATOM     17  O   UNL     1      -3.352  -5.851  31.685  1.00  0.00    -0.550 OA
ENDBRANCH  14  15
ENDBRANCH  13  14
ENDBRANCH  12  13
ENDBRANCH  11  12
ENDBRANCH  10  11
ENDBRANCH   9  10
ENDBRANCH   8   9
ENDBRANCH   7   8
ENDBRANCH   6   7
ENDBRANCH   5   6
ENDBRANCH   4   5
ENDBRANCH   3   4
ENDBRANCH   2   3
ENDBRANCH   1   2
BRANCH   1  18
ATOM     18  C   UNL     1     -10.986   3.093  35.744  1.00  0.00     0.000 C 
BRANCH  18  19
ATOM     19  C   UNL     1     -12.238   3.487  36.545  1.00  0.00     0.000 C 
BRANCH  19  20
ATOM     20  C   UNL     1     -12.193   2.985  37.997  1.00  0.00     0.000 C 
BRANCH  20  21
ATOM     21  C   UNL     1     -11.356   1.709  38.165  1.00  0.00     0.000 C 
BRANCH  21  22
ATOM     22  C   UNL     1     -10.846   1.571  39.606  1.00  0.00     0.000 C 
BRANCH  22  23
ATOM     23  C   UNL     1     -10.256   0.182  39.904  1.00  0.00     0.000 C 
BRANCH  23  24
ATOM     24  C   UNL     1     -10.205  -0.746  38.673  1.00  0.00    -0.000 C 
BRANCH  24  25
ATOM     25  C   UNL     1      -8.934  -1.613  38.653  1.00  0.00    -0.000 C 
BRANCH  25  26
ATOM     26  C   UNL     1      -8.064  -1.420  39.904  1.00  0.00    -0.000 C 
BRANCH  26  27
ATOM     27  C   UNL     1      -6.562  -1.510  39.599  1.00  0.00    -0.000 C 
BRANCH  27  28
ATOM     28  C   UNL     1      -6.132  -0.403  38.625  1.00  0.00    -0.000 C 
BRANCH  28  29
ATOM     29  C   UNL     1      -4.691  -0.582  38.114  1.00  0.00    -0.000 C 
BRANCH  29  30
ATOM     30  C   UNL     1      -3.812   0.684  38.178  1.00  0.00    -0.000 C 
BRANCH  30  31
ATOM     31  C   UNL     1      -3.638   1.423  36.839  1.00  0.00    -0.003 C 
ATOM     32  C   UNL     1      -2.745   0.668  35.855  1.00  0.00     0.004 C 
ENDBRANCH  30  31
ENDBRANCH  29  30
ENDBRANCH  28  29
ENDBRANCH  27  28
ENDBRANCH  26  27
ENDBRANCH  25  26
ENDBRANCH  24  25
ENDBRANCH  23  24
ENDBRANCH  22  23
ENDBRANCH  21  22
ENDBRANCH  20  21
ENDBRANCH  19  20
ENDBRANCH  18  19
ENDBRANCH   1  18
TORSDOF 28
ENDMDL
MODEL 4
REMARK VINA RESULT:    -3.525      4.705      8.509
REMARK INTER + INTRA:         -14.857
REMARK INTER:                  -8.808
REMARK INTRA:                  -6.050
REMARK UNBOUND:                -5.562
REMARK SMILES CCCCCCCCCCCCCCCCCCCCCCCCCCCCCC(=O)[O-]
REMARK SMILES IDX 16 1 17 2 18 3 19 4 20 5 21 6 22 7 23 8 24 9 25 10 26 11
REMARK SMILES IDX 27 12 28 13 29 14 30 15 31 16 32 17 15 18 14 19 13 20 12 21
REMARK SMILES IDX 11 22 10 23 9 24 8 25 7 26 6 27 5 28 4 29 3 30 2 31 1 32
REMARK H PARENT
REMARK Flexibility Score: inf
ROOT
ATOM      1  C   UNL     1      -7.517   4.844  37.799  1.00  0.00     0.000 C 
ENDROOT
BRANCH   1   2
ATOM      2  C   UNL     1      -8.879   5.110  37.123  1.00  0.00     0.000 C 
BRANCH   2   3
ATOM      3  C   UNL     1      -9.815   3.892  37.035  1.00  0.00     0.000 C 
BRANCH   3   4
ATOM      4  C   UNL     1      -9.065   2.580  36.757  1.00  0.00     0.000 C 
BRANCH   4   5
ATOM      5  C   UNL     1      -9.257   1.585  37.911  1.00  0.00     0.000 C 
BRANCH   5   6
ATOM      6  C   UNL     1     -10.035   2.186  39.095  1.00  0.00     0.000 C 
BRANCH   6   7
ATOM      7  C   UNL     1     -10.976   1.202  39.815  1.00  0.00     0.000 C 
BRANCH   7   8
ATOM      8  C   UNL     1     -12.440   1.347  39.374  1.00  0.00     0.000 C 
BRANCH   8   9
ATOM      9  C   UNL     1     -12.649   2.645  38.580  1.00  0.00     0.000 C 
BRANCH   9  10
ATOM     10  C   UNL     1     -13.325   2.405  37.222  1.00  0.00     0.000 C 
BRANCH  10  11
ATOM     11  C   UNL     1     -12.633   1.298  36.405  1.00  0.00     0.000 C 
BRANCH  11  12
ATOM     12  C   UNL     1     -12.609   1.603  34.899  1.00  0.00     0.000 C 
BRANCH  12  13
ATOM     13  C   UNL     1     -12.489   3.108  34.603  1.00  0.00     0.006 C 
BRANCH  13  14
ATOM     14  C   UNL     1     -11.337   3.418  33.637  1.00  0.00     0.053 C 
BRANCH  14  15
ATOM     15  C   UNL     1     -11.203   4.889  33.389  1.00  0.00     0.041 C 
ATOM     16  O   UNL     1     -10.332   5.559  34.003  1.00  0.00    -0.550 OA
ATOM     17  O   UNL     1     -12.018   5.511  32.452  1.00  0.00    -0.550 OA
ENDBRANCH  14  15
ENDBRANCH  13  14
ENDBRANCH  12  13
ENDBRANCH  11  12
ENDBRANCH  10  11
ENDBRANCH   9  10
ENDBRANCH   8   9
ENDBRANCH   7   8
ENDBRANCH   6   7
ENDBRANCH   5   6
ENDBRANCH   4   5
ENDBRANCH   3   4
ENDBRANCH   2   3
ENDBRANCH   1   2
BRANCH   1  18
ATOM     18  C   UNL     1      -7.510   4.950  39.335  1.00  0.00     0.000 C 
BRANCH  18  19
ATOM     19  C   UNL     1      -6.349   4.176  39.982  1.00  0.00     0.000 C 
BRANCH  19  20
ATOM     20  C   UNL     1      -6.050   2.849  39.266  1.00  0.00     0.000 C 
BRANCH  20  21
ATOM     21  C   UNL     1      -4.546   2.582  39.102  1.00  0.00     0.000 C 
BRANCH  21  22
ATOM     22  C   UNL     1      -3.771   3.894  38.921  1.00  0.00     0.000 C 
BRANCH  22  23
ATOM     23  C   UNL     1      -3.246   4.088  37.488  1.00  0.00     0.000 C 
BRANCH  23  24
ATOM     24  C   UNL     1      -4.112   5.039  36.636  1.00  0.00    -0.000 C 
BRANCH  24  25
ATOM     25  C   UNL     1      -4.758   4.319  35.440  1.00  0.00    -0.000 C 
BRANCH  25  26
ATOM     26  C   UNL     1      -4.485   2.807  35.439  1.00  0.00    -0.000 C 
BRANCH  26  27
ATOM     27  C   UNL     1      -5.761   1.975  35.629  1.00  0.00    -0.000 C 
BRANCH  27  28
ATOM     28  C   UNL     1      -5.448   0.472  35.590  1.00  0.00    -0.000 C 
BRANCH  28  29
ATOM     29  C   UNL     1      -6.276  -0.339  36.604  1.00  0.00    -0.000 C 
BRANCH  29  30
ATOM     30  C   UNL     1      -5.567  -0.633  37.941  1.00  0.00    -0.000 C 
BRANCH  30  31
ATOM     31  C   UNL     1      -6.496  -1.068  39.088  1.00  0.00    -0.003 C 
ATOM     32  C   UNL     1      -7.776  -1.740  38.594  1.00  0.00     0.004 C 
ENDBRANCH  30  31
ENDBRANCH  29  30
ENDBRANCH  28  29
ENDBRANCH  27  28
ENDBRANCH  26  27
ENDBRANCH  25  26
ENDBRANCH  24  25
ENDBRANCH  23  24
ENDBRANCH  22  23
ENDBRANCH  21  22
ENDBRANCH  20  21
ENDBRANCH  19  20
ENDBRANCH  18  19
ENDBRANCH   1  18
TORSDOF 28
ENDMDL
MODEL 5
REMARK VINA RESULT:    -3.473      3.952      7.619
REMARK INTER + INTRA:         -14.719
REMARK INTER:                  -8.526
REMARK INTRA:                  -6.192
REMARK UNBOUND:                -5.562
REMARK SMILES CCCCCCCCCCCCCCCCCCCCCCCCCCCCCC(=O)[O-]
REMARK SMILES IDX 16 1 17 2 18 3 19 4 20 5 21 6 22 7 23 8 24 9 25 10 26 11
REMARK SMILES IDX 27 12 28 13 29 14 30 15 31 16 32 17 15 18 14 19 13 20 12 21
REMARK SMILES IDX 11 22 10 23 9 24 8 25 7 26 6 27 5 28 4 29 3 30 2 31 1 32
REMARK H PARENT
REMARK Flexibility Score: inf
ROOT
ATOM      1  C   UNL     1      -5.182  -0.269  37.630  1.00  0.00     0.000 C 
ENDROOT
BRANCH   1   2
ATOM      2  C   UNL     1      -6.417  -0.202  38.552  1.00  0.00     0.000 C 
BRANCH   2   3
ATOM      3  C   UNL     1      -7.228   1.103  38.467  1.00  0.00     0.000 C 
BRANCH   3   4
ATOM      4  C   UNL     1      -7.595   1.669  39.848  1.00  0.00     0.000 C 
BRANCH   4   5
ATOM      5  C   UNL     1      -7.620   3.205  39.821  1.00  0.00     0.000 C 
BRANCH   5   6
ATOM      6  C   UNL     1      -7.484   3.780  38.399  1.00  0.00     0.000 C 
BRANCH   6   7
ATOM      7  C   UNL     1      -7.986   5.226  38.237  1.00  0.00     0.000 C 
BRANCH   7   8
ATOM      8  C   UNL     1      -8.994   5.382  37.088  1.00  0.00     0.000 C 
BRANCH   8   9
ATOM      9  C   UNL     1      -9.259   4.033  36.403  1.00  0.00     0.000 C 
BRANCH   9  10
ATOM     10  C   UNL     1     -10.680   3.930  35.829  1.00  0.00     0.000 C 
BRANCH  10  11
ATOM     11  C   UNL     1     -11.508   2.816  36.496  1.00  0.00     0.000 C 
BRANCH  11  12
ATOM     12  C   UNL     1     -11.903   3.159  37.940  1.00  0.00     0.000 C 
BRANCH  12  13
ATOM     13  C   UNL     1     -11.368   2.135  38.957  1.00  0.00     0.006 C 
BRANCH  13  14
ATOM     14  C   UNL     1     -10.919   0.831  38.285  1.00  0.00     0.053 C 
BRANCH  14  15
ATOM     15  C   UNL     1     -11.095  -0.349  39.191  1.00  0.00     0.041 C 
ATOM     16  O   UNL     1     -12.242  -0.823  39.399  1.00  0.00    -0.550 OA
ATOM     17  O   UNL     1      -9.986  -0.945  39.777  1.00  0.00    -0.550 OA
ENDBRANCH  14  15
ENDBRANCH  13  14
ENDBRANCH  12  13
ENDBRANCH  11  12
ENDBRANCH  10  11
ENDBRANCH   9  10
ENDBRANCH   8   9
ENDBRANCH   7   8
ENDBRANCH   6   7
ENDBRANCH   5   6
ENDBRANCH   4   5
ENDBRANCH   3   4
ENDBRANCH   2   3
ENDBRANCH   1   2
BRANCH   1  18
ATOM     18  C   UNL     1      -3.856   0.188  38.267  1.00  0.00     0.000 C 
BRANCH  18  19
ATOM     19  C   UNL     1      -3.495   1.641  37.916  1.00  0.00     0.000 C 
BRANCH  19  20
ATOM     20  C   UNL     1      -3.934   2.638  39.000  1.00  0.00     0.000 C 
BRANCH  20  21
ATOM     21  C   UNL     1      -3.858   4.101  38.536  1.00  0.00     0.000 C 
BRANCH  21  22
ATOM     22  C   UNL     1      -2.448   4.449  38.042  1.00  0.00     0.000 C 
BRANCH  22  23
ATOM     23  C   UNL     1      -2.435   5.017  36.613  1.00  0.00     0.000 C 
BRANCH  23  24
ATOM     24  C   UNL     1      -1.930   4.015  35.554  1.00  0.00    -0.000 C 
BRANCH  24  25
ATOM     25  C   UNL     1      -3.085   3.386  34.755  1.00  0.00    -0.000 C 
BRANCH  25  26
ATOM     26  C   UNL     1      -4.214   4.384  34.456  1.00  0.00    -0.000 C 
BRANCH  26  27
ATOM     27  C   UNL     1      -5.539   3.997  35.127  1.00  0.00    -0.000 C 
BRANCH  27  28
ATOM     28  C   UNL     1      -5.581   2.493  35.432  1.00  0.00    -0.000 C 
BRANCH  28  29
ATOM     29  C   UNL     1      -6.206   1.667  34.293  1.00  0.00    -0.000 C 
BRANCH  29  30
ATOM     30  C   UNL     1      -5.596   0.266  34.090  1.00  0.00    -0.000 C 
BRANCH  30  31
ATOM     31  C   UNL     1      -4.161   0.257  33.532  1.00  0.00    -0.003 C 
ATOM     32  C   UNL     1      -3.191  -0.545  34.398  1.00  0.00     0.004 C 
ENDBRANCH  30  31
ENDBRANCH  29  30
ENDBRANCH  28  29
ENDBRANCH  27  28
ENDBRANCH  26  27
ENDBRANCH  25  26
ENDBRANCH  24  25
ENDBRANCH  23  24
ENDBRANCH  22  23
ENDBRANCH  21  22
ENDBRANCH  20  21
ENDBRANCH  19  20
ENDBRANCH  18  19
ENDBRANCH   1  18
TORSDOF 28
ENDMDL
MODEL 6
REMARK VINA RESULT:    -3.463      1.738      3.922
REMARK INTER + INTRA:         -14.693
REMARK INTER:                  -8.833
REMARK INTRA:                  -5.860
REMARK UNBOUND:                -5.562
REMARK SMILES CCCCCCCCCCCCCCCCCCCCCCCCCCCCCC(=O)[O-]
REMARK SMILES IDX 16 1 17 2 18 3 19 4 20 5 21 6 22 7 23 8 24 9 25 10 26 11
REMARK SMILES IDX 27 12 28 13 29 14 30 15 31 16 32 17 15 18 14 19 13 20 12 21
REMARK SMILES IDX 11 22 10 23 9 24 8 25 7 26 6 27 5 28 4 29 3 30 2 31 1 32
REMARK H PARENT
REMARK Flexibility Score: inf
ROOT
ATOM      1  C   UNL     1      -8.985   0.918  40.124  1.00  0.00     0.000 C 
ENDROOT
BRANCH   1   2
ATOM      2  C   UNL     1      -9.225   0.250  38.753  1.00  0.00     0.000 C 
BRANCH   2   3
ATOM      3  C   UNL     1      -9.345  -1.283  38.783  1.00  0.00     0.000 C 
BRANCH   3   4
ATOM      4  C   UNL     1      -8.425  -1.975  37.766  1.00  0.00     0.000 C 
BRANCH   4   5
ATOM      5  C   UNL     1      -7.638  -0.941  36.946  1.00  0.00     0.000 C 
BRANCH   5   6
ATOM      6  C   UNL     1      -6.114  -1.122  37.061  1.00  0.00     0.000 C 
BRANCH   6   7
ATOM      7  C   UNL     1      -5.514  -0.704  38.416  1.00  0.00     0.000 C 
BRANCH   7   8
ATOM      8  C   UNL     1      -5.053   0.761  38.437  1.00  0.00     0.000 C 
BRANCH   8   9
ATOM      9  C   UNL     1      -3.548   0.867  38.145  1.00  0.00     0.000 C 
BRANCH   9  10
ATOM     10  C   UNL     1      -3.254   1.447  36.753  1.00  0.00     0.000 C 
BRANCH  10  11
ATOM     11  C   UNL     1      -2.857   0.363  35.734  1.00  0.00     0.000 C 
BRANCH  11  12
ATOM     12  C   UNL     1      -3.634   0.482  34.413  1.00  0.00     0.000 C 
BRANCH  12  13
ATOM     13  C   UNL     1      -4.228  -0.860  33.954  1.00  0.00     0.006 C 
BRANCH  13  14
ATOM     14  C   UNL     1      -3.160  -1.800  33.377  1.00  0.00     0.053 C 
BRANCH  14  15
ATOM     15  C   UNL     1      -3.664  -3.205  33.257  1.00  0.00     0.041 C 
ATOM     16  O   UNL     1      -4.893  -3.450  33.372  1.00  0.00    -0.550 OA
ATOM     17  O   UNL     1      -2.778  -4.239  32.984  1.00  0.00    -0.550 OA
ENDBRANCH  14  15
ENDBRANCH  13  14
ENDBRANCH  12  13
ENDBRANCH  11  12
ENDBRANCH  10  11
ENDBRANCH   9  10
ENDBRANCH   8   9
ENDBRANCH   7   8
ENDBRANCH   6   7
ENDBRANCH   5   6
ENDBRANCH   4   5
ENDBRANCH   3   4
ENDBRANCH   2   3
ENDBRANCH   1   2
BRANCH   1  18
ATOM     18  C   UNL     1      -8.360   2.324  40.073  1.00  0.00     0.000 C 
BRANCH  18  19
ATOM     19  C   UNL     1      -8.084   2.803  38.638  1.00  0.00     0.000 C 
BRANCH  19  20
ATOM     20  C   UNL     1      -8.285   4.318  38.471  1.00  0.00     0.000 C 
BRANCH  20  21
ATOM     21  C   UNL     1      -7.217   4.970  37.581  1.00  0.00     0.000 C 
BRANCH  21  22
ATOM     22  C   UNL     1      -6.131   3.958  37.194  1.00  0.00     0.000 C 
BRANCH  22  23
ATOM     23  C   UNL     1      -5.531   4.222  35.802  1.00  0.00     0.000 C 
BRANCH  23  24
ATOM     24  C   UNL     1      -5.968   3.198  34.735  1.00  0.00    -0.000 C 
BRANCH  24  25
ATOM     25  C   UNL     1      -7.002   2.198  35.281  1.00  0.00    -0.000 C 
BRANCH  25  26
ATOM     26  C   UNL     1      -8.346   2.269  34.540  1.00  0.00    -0.000 C 
BRANCH  26  27
ATOM     27  C   UNL     1      -9.539   1.931  35.445  1.00  0.00    -0.000 C 
BRANCH  27  28
ATOM     28  C   UNL     1     -10.868   2.230  34.736  1.00  0.00    -0.000 C 
BRANCH  28  29
ATOM     29  C   UNL     1     -11.511   3.550  35.200  1.00  0.00    -0.000 C 
BRANCH  29  30
ATOM     30  C   UNL     1     -11.301   3.893  36.688  1.00  0.00    -0.000 C 
BRANCH  30  31
ATOM     31  C   UNL     1     -12.479   3.531  37.611  1.00  0.00    -0.003 C 
ATOM     32  C   UNL     1     -12.176   2.342  38.522  1.00  0.00     0.004 C 
ENDBRANCH  30  31
ENDBRANCH  29  30
ENDBRANCH  28  29
ENDBRANCH  27  28
ENDBRANCH  26  27
ENDBRANCH  25  26
ENDBRANCH  24  25
ENDBRANCH  23  24
ENDBRANCH  22  23
ENDBRANCH  21  22
ENDBRANCH  20  21
ENDBRANCH  19  20
ENDBRANCH  18  19
ENDBRANCH   1  18
TORSDOF 28
ENDMDL
MODEL 7
REMARK VINA RESULT:    -3.460      1.746      2.988
REMARK INTER + INTRA:         -14.685
REMARK INTER:                  -8.635
REMARK INTRA:                  -6.050
REMARK UNBOUND:                -5.562
REMARK SMILES CCCCCCCCCCCCCCCCCCCCCCCCCCCCCC(=O)[O-]
REMARK SMILES IDX 16 1 17 2 18 3 19 4 20 5 21 6 22 7 23 8 24 9 25 10 26 11
REMARK SMILES IDX 27 12 28 13 29 14 30 15 31 16 32 17 15 18 14 19 13 20 12 21
REMARK SMILES IDX 11 22 10 23 9 24 8 25 7 26 6 27 5 28 4 29 3 30 2 31 1 32
REMARK H PARENT
REMARK Flexibility Score: inf
ROOT
ATOM      1  C   UNL     1      -7.183   0.231  34.764  1.00  0.00     0.000 C 
ENDROOT
BRANCH   1   2
ATOM      2  C   UNL     1      -7.782  -0.800  35.743  1.00  0.00     0.000 C 
BRANCH   2   3
ATOM      3  C   UNL     1      -6.756  -1.574  36.589  1.00  0.00     0.000 C 
BRANCH   3   4
ATOM      4  C   UNL     1      -7.160  -1.682  38.067  1.00  0.00     0.000 C 
BRANCH   4   5
ATOM      5  C   UNL     1      -6.093  -1.052  38.975  1.00  0.00     0.000 C 
BRANCH   5   6
ATOM      6  C   UNL     1      -4.893  -0.495  38.187  1.00  0.00     0.000 C 
BRANCH   6   7
ATOM      7  C   UNL     1      -4.735   1.035  38.249  1.00  0.00     0.000 C 
BRANCH   7   8
ATOM      8  C   UNL     1      -3.629   1.558  37.321  1.00  0.00     0.000 C 
BRANCH   8   9
ATOM      9  C   UNL     1      -2.999   0.411  36.516  1.00  0.00     0.000 C 
BRANCH   9  10
ATOM     10  C   UNL     1      -3.223   0.559  35.003  1.00  0.00     0.000 C 
BRANCH  10  11
ATOM     11  C   UNL     1      -3.658  -0.761  34.339  1.00  0.00     0.000 C 
BRANCH  11  12
ATOM     12  C   UNL     1      -3.758  -0.647  32.810  1.00  0.00     0.000 C 
BRANCH  12  13
ATOM     13  C   UNL     1      -3.606  -2.006  32.105  1.00  0.00     0.006 C 
BRANCH  13  14
ATOM     14  C   UNL     1      -3.568  -3.174  33.101  1.00  0.00     0.053 C 
BRANCH  14  15
ATOM     15  C   UNL     1      -4.743  -4.087  32.930  1.00  0.00     0.041 C 
ATOM     16  O   UNL     1      -4.698  -5.029  32.096  1.00  0.00    -0.550 OA
ATOM     17  O   UNL     1      -5.874  -3.916  33.717  1.00  0.00    -0.550 OA
ENDBRANCH  14  15
ENDBRANCH  13  14
ENDBRANCH  12  13
ENDBRANCH  11  12
ENDBRANCH  10  11
ENDBRANCH   9  10
ENDBRANCH   8   9
ENDBRANCH   7   8
ENDBRANCH   6   7
ENDBRANCH   5   6
ENDBRANCH   4   5
ENDBRANCH   3   4
ENDBRANCH   2   3
ENDBRANCH   1   2
BRANCH   1  18
ATOM     18  C   UNL     1      -6.961   1.640  35.344  1.00  0.00     0.000 C 
BRANCH  18  19
ATOM     19  C   UNL     1      -7.834   2.710  34.667  1.00  0.00     0.000 C 
BRANCH  19  20
ATOM     20  C   UNL     1      -9.309   2.289  34.560  1.00  0.00     0.000 C 
BRANCH  20  21
ATOM     21  C   UNL     1     -10.281   3.398  34.988  1.00  0.00     0.000 C 
BRANCH  21  22
ATOM     22  C   UNL     1      -9.528   4.694  35.314  1.00  0.00     0.000 C 
BRANCH  22  23
ATOM     23  C   UNL     1      -9.704   5.140  36.776  1.00  0.00     0.000 C 
BRANCH  23  24
ATOM     24  C   UNL     1      -8.380   5.514  37.473  1.00  0.00    -0.000 C 
BRANCH  24  25
ATOM     25  C   UNL     1      -7.634   4.276  38.002  1.00  0.00    -0.000 C 
BRANCH  25  26
ATOM     26  C   UNL     1      -8.518   3.384  38.888  1.00  0.00    -0.000 C 
BRANCH  26  27
ATOM     27  C   UNL     1      -8.229   1.888  38.695  1.00  0.00    -0.000 C 
BRANCH  27  28
ATOM     28  C   UNL     1      -9.486   1.048  38.962  1.00  0.00    -0.000 C 
BRANCH  28  29
ATOM     29  C   UNL     1     -10.482   1.068  37.788  1.00  0.00    -0.000 C 
BRANCH  29  30
ATOM     30  C   UNL     1     -11.934   1.422  38.167  1.00  0.00    -0.000 C 
BRANCH  30  31
ATOM     31  C   UNL     1     -12.265   2.925  38.137  1.00  0.00    -0.003 C 
ATOM     32  C   UNL     1     -13.364   3.272  37.134  1.00  0.00     0.004 C 
ENDBRANCH  30  31
ENDBRANCH  29  30
ENDBRANCH  28  29
ENDBRANCH  27  28
ENDBRANCH  26  27
ENDBRANCH  25  26
ENDBRANCH  24  25
ENDBRANCH  23  24
ENDBRANCH  22  23
ENDBRANCH  21  22
ENDBRANCH  20  21
ENDBRANCH  19  20
ENDBRANCH  18  19
ENDBRANCH   1  18
TORSDOF 28
ENDMDL
MODEL 8
REMARK VINA RESULT:    -3.440      3.544      7.484
REMARK INTER + INTRA:         -14.632
REMARK INTER:                  -8.504
REMARK INTRA:                  -6.128
REMARK UNBOUND:                -5.562
REMARK SMILES CCCCCCCCCCCCCCCCCCCCCCCCCCCCCC(=O)[O-]
REMARK SMILES IDX 16 1 17 2 18 3 19 4 20 5 21 6 22 7 23 8 24 9 25 10 26 11
REMARK SMILES IDX 27 12 28 13 29 14 30 15 31 16 32 17 15 18 14 19 13 20 12 21
REMARK SMILES IDX 11 22 10 23 9 24 8 25 7 26 6 27 5 28 4 29 3 30 2 31 1 32
REMARK H PARENT
REMARK Flexibility Score: inf
ROOT
ATOM      1  C   UNL     1      -8.089   3.704  39.103  1.00  0.00     0.000 C 
ENDROOT
BRANCH   1   2
ATOM      2  C   UNL     1      -9.020   3.832  37.879  1.00  0.00     0.000 C 
BRANCH   2   3
ATOM      3  C   UNL     1      -8.894   5.149  37.094  1.00  0.00     0.000 C 
BRANCH   3   4
ATOM      4  C   UNL     1     -10.171   5.508  36.319  1.00  0.00     0.000 C 
BRANCH   4   5
ATOM      5  C   UNL     1     -10.057   5.083  34.847  1.00  0.00     0.000 C 
BRANCH   5   6
ATOM      6  C   UNL     1     -11.273   4.273  34.363  1.00  0.00     0.000 C 
BRANCH   6   7
ATOM      7  C   UNL     1     -11.691   3.119  35.292  1.00  0.00     0.000 C 
BRANCH   7   8
ATOM      8  C   UNL     1     -11.013   1.788  34.930  1.00  0.00     0.000 C 
BRANCH   8   9
ATOM      9  C   UNL     1     -10.548   1.048  36.193  1.00  0.00     0.000 C 
BRANCH   9  10
ATOM     10  C   UNL     1     -11.448   1.326  37.407  1.00  0.00     0.000 C 
BRANCH  10  11
ATOM     11  C   UNL     1     -10.922   0.666  38.696  1.00  0.00     0.000 C 
BRANCH  11  12
ATOM     12  C   UNL     1     -10.710  -0.847  38.540  1.00  0.00     0.000 C 
BRANCH  12  13
ATOM     13  C   UNL     1     -10.103  -1.492  39.798  1.00  0.00     0.006 C 
BRANCH  13  14
ATOM     14  C   UNL     1     -10.078  -3.024  39.710  1.00  0.00     0.053 C 
BRANCH  14  15
ATOM     15  C   UNL     1      -8.808  -3.523  39.092  1.00  0.00     0.041 C 
ATOM     16  O   UNL     1      -7.721  -3.437  39.720  1.00  0.00    -0.550 OA
ATOM     17  O   UNL     1      -8.834  -4.115  37.836  1.00  0.00    -0.550 OA
ENDBRANCH  14  15
ENDBRANCH  13  14
ENDBRANCH  12  13
ENDBRANCH  11  12
ENDBRANCH  10  11
ENDBRANCH   9  10
ENDBRANCH   8   9
ENDBRANCH   7   8
ENDBRANCH   6   7
ENDBRANCH   5   6
ENDBRANCH   4   5
ENDBRANCH   3   4
ENDBRANCH   2   3
ENDBRANCH   1   2
BRANCH   1  18
ATOM     18  C   UNL     1      -7.575   2.282  39.395  1.00  0.00     0.000 C 
BRANCH  18  19
ATOM     19  C   UNL     1      -7.123   1.538  38.126  1.00  0.00     0.000 C 
BRANCH  19  20
ATOM     20  C   UNL     1      -7.077   0.014  38.319  1.00  0.00     0.000 C 
BRANCH  20  21
ATOM     21  C   UNL     1      -7.567  -0.761  37.087  1.00  0.00     0.000 C 
BRANCH  21  22
ATOM     22  C   UNL     1      -6.772  -0.364  35.836  1.00  0.00     0.000 C 
BRANCH  22  23
ATOM     23  C   UNL     1      -5.283  -0.740  35.926  1.00  0.00     0.000 C 
BRANCH  23  24
ATOM     24  C   UNL     1      -4.334   0.368  35.425  1.00  0.00    -0.000 C 
BRANCH  24  25
ATOM     25  C   UNL     1      -3.155   0.601  36.387  1.00  0.00    -0.000 C 
BRANCH  25  26
ATOM     26  C   UNL     1      -3.596   0.685  37.857  1.00  0.00    -0.000 C 
BRANCH  26  27
ATOM     27  C   UNL     1      -3.575   2.121  38.399  1.00  0.00    -0.000 C 
BRANCH  27  28
ATOM     28  C   UNL     1      -3.088   3.106  37.326  1.00  0.00    -0.000 C 
BRANCH  28  29
ATOM     29  C   UNL     1      -3.933   4.391  37.264  1.00  0.00    -0.000 C 
BRANCH  29  30
ATOM     30  C   UNL     1      -5.355   4.213  36.693  1.00  0.00    -0.000 C 
BRANCH  30  31
ATOM     31  C   UNL     1      -5.413   3.821  35.206  1.00  0.00    -0.003 C 
ATOM     32  C   UNL     1      -6.785   3.297  34.783  1.00  0.00     0.004 C 
ENDBRANCH  30  31
ENDBRANCH  29  30
ENDBRANCH  28  29
ENDBRANCH  27  28
ENDBRANCH  26  27
ENDBRANCH  25  26
ENDBRANCH  24  25
ENDBRANCH  23  24
ENDBRANCH  22  23
ENDBRANCH  21  22
ENDBRANCH  20  21
ENDBRANCH  19  20
ENDBRANCH  18  19
ENDBRANCH   1  18
TORSDOF 28
ENDMDL
MODEL 9
REMARK VINA RESULT:    -3.356      3.197      6.536
REMARK INTER + INTRA:         -14.412
REMARK INTER:                  -7.655
REMARK INTRA:                  -6.757
REMARK UNBOUND:                -5.562
REMARK SMILES CCCCCCCCCCCCCCCCCCCCCCCCCCCCCC(=O)[O-]
REMARK SMILES IDX 16 1 17 2 18 3 19 4 20 5 21 6 22 7 23 8 24 9 25 10 26 11
REMARK SMILES IDX 27 12 28 13 29 14 30 15 31 16 32 17 15 18 14 19 13 20 12 21
REMARK SMILES IDX 11 22 10 23 9 24 8 25 7 26 6 27 5 28 4 29 3 30 2 31 1 32
REMARK H PARENT
REMARK Flexibility Score: inf
ROOT
ATOM      1  C   UNL     1      -7.070   1.527  38.726  1.00  0.00     0.000 C 
ENDROOT
BRANCH   1   2
ATOM      2  C   UNL     1      -6.773   2.642  39.751  1.00  0.00     0.000 C 
BRANCH   2   3
ATOM      3  C   UNL     1      -7.412   4.006  39.440  1.00  0.00     0.000 C 
BRANCH   3   4
ATOM      4  C   UNL     1      -8.447   3.936  38.306  1.00  0.00     0.000 C 
BRANCH   4   5
ATOM      5  C   UNL     1      -8.476   5.248  37.508  1.00  0.00     0.000 C 
BRANCH   5   6
ATOM      6  C   UNL     1      -9.605   5.286  36.462  1.00  0.00     0.000 C 
BRANCH   6   7
ATOM      7  C   UNL     1     -10.539   4.063  36.477  1.00  0.00     0.000 C 
BRANCH   7   8
ATOM      8  C   UNL     1     -11.340   3.909  35.175  1.00  0.00     0.000 C 
BRANCH   8   9
ATOM      9  C   UNL     1     -11.776   2.450  34.967  1.00  0.00     0.000 C 
BRANCH   9  10
ATOM     10  C   UNL     1     -10.587   1.505  34.739  1.00  0.00     0.000 C 
BRANCH  10  11
ATOM     11  C   UNL     1     -10.689   0.215  35.574  1.00  0.00     0.000 C 
BRANCH  11  12
ATOM     12  C   UNL     1     -10.147   0.392  37.001  1.00  0.00     0.000 C 
BRANCH  12  13
ATOM     13  C   UNL     1      -9.621  -0.924  37.601  1.00  0.00     0.006 C 
BRANCH  13  14
ATOM     14  C   UNL     1      -8.616  -1.623  36.674  1.00  0.00     0.053 C 
BRANCH  14  15
ATOM     15  C   UNL     1      -8.229  -2.973  37.194  1.00  0.00     0.041 C 
ATOM     16  O   UNL     1      -7.970  -3.910  36.394  1.00  0.00    -0.550 OA
ATOM     17  O   UNL     1      -8.122  -3.184  38.562  1.00  0.00    -0.550 OA
ENDBRANCH  14  15
ENDBRANCH  13  14
ENDBRANCH  12  13
ENDBRANCH  11  12
ENDBRANCH  10  11
ENDBRANCH   9  10
ENDBRANCH   8   9
ENDBRANCH   7   8
ENDBRANCH   6   7
ENDBRANCH   5   6
ENDBRANCH   4   5
ENDBRANCH   3   4
ENDBRANCH   2   3
ENDBRANCH   1   2
BRANCH   1  18
ATOM     18  C   UNL     1      -6.430   0.160  39.033  1.00  0.00     0.000 C 
BRANCH  18  19
ATOM     19  C   UNL     1      -5.409  -0.274  37.968  1.00  0.00     0.000 C 
BRANCH  19  20
ATOM     20  C   UNL     1      -4.105   0.536  38.033  1.00  0.00     0.000 C 
BRANCH  20  21
ATOM     21  C   UNL     1      -3.426   0.691  36.664  1.00  0.00     0.000 C 
BRANCH  21  22
ATOM     22  C   UNL     1      -3.318   2.170  36.268  1.00  0.00     0.000 C 
BRANCH  22  23
ATOM     23  C   UNL     1      -4.020   3.110  37.263  1.00  0.00     0.000 C 
BRANCH  23  24
ATOM     24  C   UNL     1      -5.026   4.073  36.599  1.00  0.00    -0.000 C 
BRANCH  24  25
ATOM     25  C   UNL     1      -5.020   3.950  35.065  1.00  0.00    -0.000 C 
BRANCH  25  26
ATOM     26  C   UNL     1      -6.381   3.513  34.500  1.00  0.00    -0.000 C 
BRANCH  26  27
ATOM     27  C   UNL     1      -7.076   2.463  35.377  1.00  0.00    -0.000 C 
BRANCH  27  28
ATOM     28  C   UNL     1      -6.799   1.044  34.859  1.00  0.00    -0.000 C 
BRANCH  28  29
ATOM     29  C   UNL     1      -6.243   1.028  33.423  1.00  0.00    -0.000 C 
BRANCH  29  30
ATOM     30  C   UNL     1      -4.846   0.396  33.269  1.00  0.00    -0.000 C 
BRANCH  30  31
ATOM     31  C   UNL     1      -3.992   0.975  32.127  1.00  0.00    -0.003 C 
ATOM     32  C   UNL     1      -3.066   2.100  32.589  1.00  0.00     0.004 C 
ENDBRANCH  30  31
ENDBRANCH  29  30
ENDBRANCH  28  29
ENDBRANCH  27  28
ENDBRANCH  26  27
ENDBRANCH  25  26
ENDBRANCH  24  25
ENDBRANCH  23  24
ENDBRANCH  22  23
ENDBRANCH  21  22
ENDBRANCH  20  21
ENDBRANCH  19  20
ENDBRANCH  18  19
ENDBRANCH   1  18
TORSDOF 28
ENDMDL
