MODEL 1
REMARK VINA RESULT:    -3.958      0.000      0.000
REMARK INTER + INTRA:          -5.377
REMARK INTER:                  -5.115
REMARK INTRA:                  -0.262
REMARK UNBOUND:                -0.262
REMARK SMILES CCCCCCC(=O)[O-]
REMARK SMILES IDX 5 1 6 2 7 3 8 4 9 5 4 6 3 7 2 8 1 9
REMARK H PARENT
REMARK Flexibility Score: inf
ROOT
ATOM      1  C   UNL     1      13.250  49.732  97.579  1.00  0.00     0.006 C 
ENDROOT
BRANCH   1   2
ATOM      2  C   UNL     1      12.292  49.012  96.618  1.00  0.00     0.053 C 
BRANCH   2   3
ATOM      3  C   UNL     1      10.919  48.865  97.197  1.00  0.00     0.041 C 
ATOM      4  O   UNL     1      10.025  48.245  96.563  1.00  0.00    -0.550 OA
ATOM      5  O   UNL     1      10.616  49.441  98.424  1.00  0.00    -0.550 OA
ENDBRANCH   2   3
ENDBRANCH   1   2
BRANCH   1   6
ATOM      6  C   UNL     1      14.076  50.859  96.930  1.00  0.00     0.000 C 
BRANCH   6   7
ATOM      7  C   UNL     1      14.172  50.721  95.401  1.00  0.00    -0.000 C 
BRANCH   7   8
ATOM      8  C   UNL     1      15.612  50.487  94.921  1.00  0.00    -0.003 C 
ATOM      9  C   UNL     1      15.892  49.024  94.578  1.00  0.00     0.004 C 
ENDBRANCH   7   8
ENDBRANCH   6   7
ENDBRANCH   1   6
TORSDOF 5
ENDMDL
MODEL 2
REMARK VINA RESULT:    -3.747      1.086      1.600
REMARK INTER + INTRA:          -5.104
REMARK INTER:                  -4.967
REMARK INTRA:                  -0.137
REMARK UNBOUND:                -0.262
REMARK SMILES CCCCCCC(=O)[O-]
REMARK SMILES IDX 5 1 6 2 7 3 8 4 9 5 4 6 3 7 2 8 1 9
REMARK H PARENT
REMARK Flexibility Score: inf
ROOT
ATOM      1  C   UNL     1      12.138  49.203  96.917  1.00  0.00     0.006 C 
ENDROOT
BRANCH   1   2
ATOM      2  C   UNL     1      11.069  49.309  98.015  1.00  0.00     0.053 C 
BRANCH   2   3
ATOM      3  C   UNL     1       9.780  48.663  97.610  1.00  0.00     0.041 C 
ATOM      4  O   UNL     1       9.688  47.409  97.558  1.00  0.00    -0.550 OA
ATOM      5  O   UNL     1       8.689  49.447  97.257  1.00  0.00    -0.550 OA
ENDBRANCH   2   3
ENDBRANCH   1   2
BRANCH   1   6
ATOM      6  C   UNL     1      13.570  49.516  97.390  1.00  0.00     0.000 C 
BRANCH   6   7
ATOM      7  C   UNL     1      14.085  50.871  96.876  1.00  0.00    -0.000 C 
BRANCH   7   8
ATOM      8  C   UNL     1      14.237  50.901  95.348  1.00  0.00    -0.003 C 
ATOM      9  C   UNL     1      15.649  50.540  94.884  1.00  0.00     0.004 C 
ENDBRANCH   7   8
ENDBRANCH   6   7
ENDBRANCH   1   6
TORSDOF 5
ENDMDL
MODEL 3
REMARK VINA RESULT:    -3.657      2.858      4.956
REMARK INTER + INTRA:          -4.988
REMARK INTER:                  -4.849
REMARK INTRA:                  -0.139
REMARK UNBOUND:                -0.262
REMARK SMILES CCCCCCC(=O)[O-]
REMARK SMILES IDX 5 1 6 2 7 3 8 4 9 5 4 6 3 7 2 8 1 9
REMARK H PARENT
REMARK Flexibility Score: inf
ROOT
ATOM      1  C   UNL     1      13.367  49.313  97.158  1.00  0.00     0.006 C 
ENDROOT
BRANCH   1   2
ATOM      2  C   UNL     1      14.149  50.616  96.927  1.00  0.00     0.053 C 
BRANCH   2   3
ATOM      3  C   UNL     1      14.504  50.811  95.485  1.00  0.00     0.041 C 
ATOM      4  O   UNL     1      13.598  50.909  94.617  1.00  0.00    -0.550 OA
ATOM      5  O   UNL     1      15.837  50.850  95.097  1.00  0.00    -0.550 OA
ENDBRANCH   2   3
ENDBRANCH   1   2
BRANCH   1   6
ATOM      6  C   UNL     1      11.913  49.516  97.623  1.00  0.00     0.000 C 
BRANCH   6   7
ATOM      7  C   UNL     1      10.917  48.609  96.882  1.00  0.00    -0.000 C 
BRANCH   7   8
ATOM      8  C   UNL     1       9.541  48.566  97.562  1.00  0.00    -0.003 C 
ATOM      9  C   UNL     1       9.077  49.939  98.049  1.00  0.00     0.004 C 
ENDBRANCH   7   8
ENDBRANCH   6   7
ENDBRANCH   1   6
TORSDOF 5
ENDMDL
MODEL 4
REMARK VINA RESULT:    -3.615      3.254      4.912
REMARK INTER + INTRA:          -4.934
REMARK INTER:                  -4.739
REMARK INTRA:                  -0.194
REMARK UNBOUND:                -0.262
REMARK SMILES CCCCCCC(=O)[O-]
REMARK SMILES IDX 5 1 6 2 7 3 8 4 9 5 4 6 3 7 2 8 1 9
REMARK H PARENT
REMARK Flexibility Score: inf
ROOT
ATOM      1  C   UNL     1      14.111  50.509  95.231  1.00  0.00     0.006 C 
ENDROOT
BRANCH   1   2
ATOM      2  C   UNL     1      15.607  50.331  94.923  1.00  0.00     0.053 C 
BRANCH   2   3
ATOM      3  C   UNL     1      15.911  48.969  94.381  1.00  0.00     0.041 C 
ATOM      4  O   UNL     1      16.635  48.173  95.035  1.00  0.00    -0.550 OA
ATOM      5  O   UNL     1      15.424  48.591  93.136  1.00  0.00    -0.550 OA
ENDBRANCH   2   3
ENDBRANCH   1   2
BRANCH   1   6
ATOM      6  C   UNL     1      13.492  49.366  96.057  1.00  0.00     0.000 C 
BRANCH   6   7
ATOM      7  C   UNL     1      13.013  49.826  97.445  1.00  0.00    -0.000 C 
BRANCH   7   8
ATOM      8  C   UNL     1      11.584  49.360  97.759  1.00  0.00    -0.003 C 
ATOM      9  C   UNL     1      10.937  48.605  96.597  1.00  0.00     0.004 C 
ENDBRANCH   7   8
ENDBRANCH   6   7
ENDBRANCH   1   6
TORSDOF 5
ENDMDL
MODEL 5
REMARK VINA RESULT:    -3.583      3.999      5.471
REMARK INTER + INTRA:          -4.893
REMARK INTER:                  -4.736
REMARK INTRA:                  -0.157
REMARK UNBOUND:                -0.262
REMARK SMILES CCCCCCC(=O)[O-]
REMARK SMILES IDX 5 1 6 2 7 3 8 4 9 5 4 6 3 7 2 8 1 9
REMARK H PARENT
REMARK Flexibility Score: inf
ROOT
ATOM      1  C   UNL     1      15.852  49.063  94.748  1.00  0.00     0.006 C 
ENDROOT
BRANCH   1   2
ATOM      2  C   UNL     1      15.729  48.566  93.299  1.00  0.00     0.053 C 
BRANCH   2   3
ATOM      3  C   UNL     1      16.772  47.546  92.964  1.00  0.00     0.041 C 
ATOM      4  O   UNL     1      17.414  47.626  91.884  1.00  0.00    -0.550 OA
ATOM      5  O   UNL     1      17.012  46.486  93.829  1.00  0.00    -0.550 OA
ENDBRANCH   2   3
ENDBRANCH   1   2
BRANCH   1   6
ATOM      6  C   UNL     1      15.677  50.584  94.917  1.00  0.00     0.000 C 
BRANCH   6   7
ATOM      7  C   UNL     1      14.290  50.968  95.459  1.00  0.00    -0.000 C 
BRANCH   7   8
ATOM      8  C   UNL     1      14.178  50.775  96.979  1.00  0.00    -0.003 C 
ATOM      9  C   UNL     1      13.062  49.808  97.375  1.00  0.00     0.004 C 
ENDBRANCH   7   8
ENDBRANCH   6   7
ENDBRANCH   1   6
TORSDOF 5
ENDMDL
MODEL 6
REMARK VINA RESULT:    -3.513      2.781      4.910
REMARK INTER + INTRA:          -4.802
REMARK INTER:                  -4.647
REMARK INTRA:                  -0.155
REMARK UNBOUND:                -0.262
REMARK SMILES CCCCCCC(=O)[O-]
REMARK SMILES IDX 5 1 6 2 7 3 8 4 9 5 4 6 3 7 2 8 1 9
REMARK H PARENT
REMARK Flexibility Score: inf
ROOT
ATOM      1  C   UNL     1      12.207  49.134  97.094  1.00  0.00     0.006 C 
ENDROOT
BRANCH   1   2
ATOM      2  C   UNL     1      13.486  49.940  97.371  1.00  0.00     0.053 C 
BRANCH   2   3
ATOM      3  C   UNL     1      14.329  50.096  96.143  1.00  0.00     0.041 C 
ATOM      4  O   UNL     1      14.139  51.065  95.363  1.00  0.00    -0.550 OA
ATOM      5  O   UNL     1      15.303  49.152  95.843  1.00  0.00    -0.550 OA
ENDBRANCH   2   3
ENDBRANCH   1   2
BRANCH   1   6
ATOM      6  C   UNL     1      11.044  49.433  98.060  1.00  0.00     0.000 C 
BRANCH   6   7
ATOM      7  C   UNL     1       9.739  48.725  97.658  1.00  0.00    -0.000 C 
BRANCH   7   8
ATOM      8  C   UNL     1       9.979  47.551  96.698  1.00  0.00    -0.003 C 
ATOM      9  C   UNL     1       9.213  46.290  97.100  1.00  0.00     0.004 C 
ENDBRANCH   7   8
ENDBRANCH   6   7
ENDBRANCH   1   6
TORSDOF 5
ENDMDL
MODEL 7
REMARK VINA RESULT:    -3.512      1.511      2.621
REMARK INTER + INTRA:          -4.801
REMARK INTER:                  -4.622
REMARK INTRA:                  -0.179
REMARK UNBOUND:                -0.262
REMARK SMILES CCCCCCC(=O)[O-]
REMARK SMILES IDX 5 1 6 2 7 3 8 4 9 5 4 6 3 7 2 8 1 9
REMARK H PARENT
REMARK Flexibility Score: inf
ROOT
ATOM      1  C   UNL     1      11.112  48.607  97.543  1.00  0.00     0.006 C 
ENDROOT
BRANCH   1   2
ATOM      2  C   UNL     1      10.264  49.639  98.303  1.00  0.00     0.053 C 
BRANCH   2   3
ATOM      3  C   UNL     1       8.900  49.797  97.703  1.00  0.00     0.041 C 
ATOM      4  O   UNL     1       7.951  50.247  98.396  1.00  0.00    -0.550 OA
ATOM      5  O   UNL     1       8.670  49.413  96.388  1.00  0.00    -0.550 OA
ENDBRANCH   2   3
ENDBRANCH   1   2
BRANCH   1   6
ATOM      6  C   UNL     1      12.225  49.216  96.670  1.00  0.00     0.000 C 
BRANCH   6   7
ATOM      7  C   UNL     1      13.385  49.793  97.500  1.00  0.00    -0.000 C 
BRANCH   7   8
ATOM      8  C   UNL     1      14.232  50.799  96.707  1.00  0.00    -0.003 C 
ATOM      9  C   UNL     1      14.039  50.677  95.196  1.00  0.00     0.004 C 
ENDBRANCH   7   8
ENDBRANCH   6   7
ENDBRANCH   1   6
TORSDOF 5
ENDMDL
MODEL 8
REMARK VINA RESULT:    -3.389     11.708     13.041
REMARK INTER + INTRA:          -4.642
REMARK INTER:                  -4.382
REMARK INTRA:                  -0.260
REMARK UNBOUND:                -0.262
REMARK SMILES CCCCCCC(=O)[O-]
REMARK SMILES IDX 5 1 6 2 7 3 8 4 9 5 4 6 3 7 2 8 1 9
REMARK H PARENT
REMARK Flexibility Score: inf
ROOT
ATOM      1  C   UNL     1      19.460  38.994  97.326  1.00  0.00     0.006 C 
ENDROOT
BRANCH   1   2
ATOM      2  C   UNL     1      20.084  39.589  96.054  1.00  0.00     0.053 C 
BRANCH   2   3
ATOM      3  C   UNL     1      21.482  40.073  96.287  1.00  0.00     0.041 C 
ATOM      4  O   UNL     1      21.767  40.711  97.333  1.00  0.00    -0.550 OA
ATOM      5  O   UNL     1      22.465  39.847  95.331  1.00  0.00    -0.550 OA
ENDBRANCH   2   3
ENDBRANCH   1   2
BRANCH   1   6
ATOM      6  C   UNL     1      18.107  38.293  97.104  1.00  0.00     0.000 C 
BRANCH   6   7
ATOM      7  C   UNL     1      17.947  37.748  95.674  1.00  0.00    -0.000 C 
BRANCH   7   8
ATOM      8  C   UNL     1      16.587  38.107  95.057  1.00  0.00    -0.003 C 
ATOM      9  C   UNL     1      16.421  39.608  94.820  1.00  0.00     0.004 C 
ENDBRANCH   7   8
ENDBRANCH   6   7
ENDBRANCH   1   6
TORSDOF 5
ENDMDL
MODEL 9
REMARK VINA RESULT:    -3.284      1.483      2.308
REMARK INTER + INTRA:          -4.507
REMARK INTER:                  -4.332
REMARK INTRA:                  -0.175
REMARK UNBOUND:                -0.262
REMARK SMILES CCCCCCC(=O)[O-]
REMARK SMILES IDX 5 1 6 2 7 3 8 4 9 5 4 6 3 7 2 8 1 9
REMARK H PARENT
REMARK Flexibility Score: inf
ROOT
ATOM      1  C   UNL     1      11.449  48.901  97.185  1.00  0.00     0.006 C 
ENDROOT
BRANCH   1   2
ATOM      2  C   UNL     1      11.359  48.466  95.714  1.00  0.00     0.053 C 
BRANCH   2   3
ATOM      3  C   UNL     1      10.005  48.730  95.130  1.00  0.00     0.041 C 
ATOM      4  O   UNL     1       9.039  49.026  95.880  1.00  0.00    -0.550 OA
ATOM      5  O   UNL     1       9.804  48.616  93.761  1.00  0.00    -0.550 OA
ENDBRANCH   2   3
ENDBRANCH   1   2
BRANCH   1   6
ATOM      6  C   UNL     1      12.736  49.667  97.545  1.00  0.00     0.000 C 
BRANCH   6   7
ATOM      7  C   UNL     1      13.876  49.422  96.542  1.00  0.00    -0.000 C 
BRANCH   7   8
ATOM      8  C   UNL     1      14.486  50.729  96.014  1.00  0.00    -0.003 C 
ATOM      9  C   UNL     1      15.587  50.494  94.979  1.00  0.00     0.004 C 
ENDBRANCH   7   8
ENDBRANCH   6   7
ENDBRANCH   1   6
TORSDOF 5
ENDMDL
