MODEL 1
REMARK VINA RESULT:    -4.173      0.000      0.000
REMARK INTER + INTRA:          -6.190
REMARK INTER:                  -6.124
REMARK INTRA:                  -0.066
REMARK UNBOUND:                -0.066
REMARK SMILES O=C([O-])CCCCCCCC(=O)[O-]
REMARK SMILES IDX 7 1 6 2 5 3 4 4 2 5 1 6 3 7 8 8 9 9 10 10 11 11 12 12 13 13
REMARK H PARENT
REMARK Flexibility Score: inf
ROOT
ATOM      1  C   UNL     1      36.629  73.116  74.379  1.00  0.00     0.000 C 
ENDROOT
BRANCH   1   2
ATOM      2  C   UNL     1      36.658  73.544  72.906  1.00  0.00     0.000 C 
BRANCH   2   3
ATOM      3  C   UNL     1      38.041  74.079  72.515  1.00  0.00     0.006 C 
BRANCH   3   4
ATOM      4  C   UNL     1      38.996  74.060  73.712  1.00  0.00     0.053 C 
BRANCH   4   5
ATOM      5  C   UNL     1      40.044  75.117  73.563  1.00  0.00     0.041 C 
ATOM      6  O   UNL     1      40.766  75.438  74.544  1.00  0.00    -0.550 OA
ATOM      7  O   UNL     1      40.259  75.712  72.328  1.00  0.00    -0.550 OA
ENDBRANCH   4   5
ENDBRANCH   3   4
ENDBRANCH   2   3
ENDBRANCH   1   2
BRANCH   1   8
ATOM      8  C   UNL     1      36.857  71.604  74.517  1.00  0.00     0.000 C 
BRANCH   8   9
ATOM      9  C   UNL     1      36.367  71.051  75.864  1.00  0.00     0.006 C 
BRANCH   9  10
ATOM     10  C   UNL     1      37.280  69.948  76.417  1.00  0.00     0.053 C 
BRANCH  10  11
ATOM     11  C   UNL     1      36.894  68.618  75.851  1.00  0.00     0.041 C 
ATOM     12  O   UNL     1      37.604  67.603  76.076  1.00  0.00    -0.550 OA
ATOM     13  O   UNL     1      35.777  68.510  75.032  1.00  0.00    -0.550 OA
ENDBRANCH  10  11
ENDBRANCH   9  10
ENDBRANCH   8   9
ENDBRANCH   1   8
TORSDOF 8
ENDMDL
MODEL 2
REMARK VINA RESULT:    -3.935      0.381      6.482
REMARK INTER + INTRA:          -5.841
REMARK INTER:                  -5.691
REMARK INTRA:                  -0.150
REMARK UNBOUND:                -0.066
REMARK SMILES O=C([O-])CCCCCCCC(=O)[O-]
REMARK SMILES IDX 7 1 6 2 5 3 4 4 2 5 1 6 3 7 8 8 9 9 10 10 11 11 12 12 13 13
REMARK H PARENT
REMARK Flexibility Score: inf
ROOT
ATOM      1  C   UNL     1      36.618  73.025  74.180  1.00  0.00     0.000 C 
ENDROOT
BRANCH   1   2
ATOM      2  C   UNL     1      37.372  71.906  74.910  1.00  0.00     0.000 C 
BRANCH   2   3
ATOM      3  C   UNL     1      36.415  71.059  75.757  1.00  0.00     0.006 C 
BRANCH   3   4
ATOM      4  C   UNL     1      37.174  69.963  76.513  1.00  0.00     0.053 C 
BRANCH   4   5
ATOM      5  C   UNL     1      36.974  68.636  75.852  1.00  0.00     0.041 C 
ATOM      6  O   UNL     1      37.739  67.672  76.120  1.00  0.00    -0.550 OA
ATOM      7  O   UNL     1      35.913  68.449  74.977  1.00  0.00    -0.550 OA
ENDBRANCH   4   5
ENDBRANCH   3   4
ENDBRANCH   2   3
ENDBRANCH   1   2
BRANCH   1   8
ATOM      8  C   UNL     1      37.002  73.068  72.694  1.00  0.00     0.000 C 
BRANCH   8   9
ATOM      9  C   UNL     1      38.136  74.063  72.403  1.00  0.00     0.006 C 
BRANCH   9  10
ATOM     10  C   UNL     1      38.604  74.809  73.660  1.00  0.00     0.053 C 
BRANCH  10  11
ATOM     11  C   UNL     1      40.009  75.293  73.486  1.00  0.00     0.041 C 
ATOM     12  O   UNL     1      40.411  75.678  72.357  1.00  0.00    -0.550 OA
ATOM     13  O   UNL     1      40.889  75.272  74.561  1.00  0.00    -0.550 OA
ENDBRANCH  10  11
ENDBRANCH   9  10
ENDBRANCH   8   9
ENDBRANCH   1   8
TORSDOF 8
ENDMDL
MODEL 3
REMARK VINA RESULT:    -3.669     17.282     19.319
REMARK INTER + INTRA:          -5.452
REMARK INTER:                  -5.073
REMARK INTRA:                  -0.379
REMARK UNBOUND:                -0.066
REMARK SMILES O=C([O-])CCCCCCCC(=O)[O-]
REMARK SMILES IDX 7 1 6 2 5 3 4 4 2 5 1 6 3 7 8 8 9 9 10 10 11 11 12 12 13 13
REMARK H PARENT
REMARK Flexibility Score: inf
ROOT
ATOM      1  C   UNL     1      30.110  58.466  85.733  1.00  0.00     0.000 C 
ENDROOT
BRANCH   1   2
ATOM      2  C   UNL     1      31.376  57.601  85.722  1.00  0.00     0.000 C 
BRANCH   2   3
ATOM      3  C   UNL     1      31.838  57.318  84.288  1.00  0.00     0.006 C 
BRANCH   3   4
ATOM      4  C   UNL     1      30.802  57.809  83.271  1.00  0.00     0.053 C 
BRANCH   4   5
ATOM      5  C   UNL     1      31.472  58.221  81.998  1.00  0.00     0.041 C 
ATOM      6  O   UNL     1      30.791  58.668  81.039  1.00  0.00    -0.550 OA
ATOM      7  O   UNL     1      32.855  58.157  81.889  1.00  0.00    -0.550 OA
ENDBRANCH   4   5
ENDBRANCH   3   4
ENDBRANCH   2   3
ENDBRANCH   1   2
BRANCH   1   8
ATOM      8  C   UNL     1      29.138  58.005  86.830  1.00  0.00     0.000 C 
BRANCH   8   9
ATOM      9  C   UNL     1      27.771  58.701  86.741  1.00  0.00     0.006 C 
BRANCH   9  10
ATOM     10  C   UNL     1      27.596  59.798  87.799  1.00  0.00     0.053 C 
BRANCH  10  11
ATOM     11  C   UNL     1      27.753  61.151  87.178  1.00  0.00     0.041 C 
ATOM     12  O   UNL     1      28.230  62.104  87.848  1.00  0.00    -0.550 OA
ATOM     13  O   UNL     1      27.324  61.371  85.875  1.00  0.00    -0.550 OA
ENDBRANCH  10  11
ENDBRANCH   9  10
ENDBRANCH   8   9
ENDBRANCH   1   8
TORSDOF 8
ENDMDL
MODEL 4
REMARK VINA RESULT:    -3.619     16.830     19.611
REMARK INTER + INTRA:          -5.378
REMARK INTER:                  -4.973
REMARK INTRA:                  -0.405
REMARK UNBOUND:                -0.066
REMARK SMILES O=C([O-])CCCCCCCC(=O)[O-]
REMARK SMILES IDX 7 1 6 2 5 3 4 4 2 5 1 6 3 7 8 8 9 9 10 10 11 11 12 12 13 13
REMARK H PARENT
REMARK Flexibility Score: inf
ROOT
ATOM      1  C   UNL     1      30.771  58.000  85.648  1.00  0.00     0.000 C 
ENDROOT
BRANCH   1   2
ATOM      2  C   UNL     1      29.943  57.186  86.649  1.00  0.00     0.000 C 
BRANCH   2   3
ATOM      3  C   UNL     1      28.676  57.945  87.062  1.00  0.00     0.006 C 
BRANCH   3   4
ATOM      4  C   UNL     1      28.737  59.406  86.604  1.00  0.00     0.053 C 
BRANCH   4   5
ATOM      5  C   UNL     1      27.927  60.275  87.514  1.00  0.00     0.041 C 
ATOM      6  O   UNL     1      27.089  59.761  88.301  1.00  0.00    -0.550 OA
ATOM      7  O   UNL     1      28.133  61.648  87.528  1.00  0.00    -0.550 OA
ENDBRANCH   4   5
ENDBRANCH   3   4
ENDBRANCH   2   3
ENDBRANCH   1   2
BRANCH   1   8
ATOM      8  C   UNL     1      31.982  57.196  85.154  1.00  0.00     0.000 C 
BRANCH   8   9
ATOM      9  C   UNL     1      32.048  57.106  83.621  1.00  0.00     0.006 C 
BRANCH   9  10
ATOM     10  C   UNL     1      30.972  57.955  82.932  1.00  0.00     0.053 C 
BRANCH  10  11
ATOM     11  C   UNL     1      31.486  58.498  81.636  1.00  0.00     0.041 C 
ATOM     12  O   UNL     1      30.697  58.694  80.674  1.00  0.00    -0.550 OA
ATOM     13  O   UNL     1      32.844  58.739  81.474  1.00  0.00    -0.550 OA
ENDBRANCH  10  11
ENDBRANCH   9  10
ENDBRANCH   8   9
ENDBRANCH   1   8
TORSDOF 8
ENDMDL
MODEL 5
REMARK VINA RESULT:    -3.576     17.516     19.594
REMARK INTER + INTRA:          -5.315
REMARK INTER:                  -4.939
REMARK INTRA:                  -0.376
REMARK UNBOUND:                -0.066
REMARK SMILES O=C([O-])CCCCCCCC(=O)[O-]
REMARK SMILES IDX 7 1 6 2 5 3 4 4 2 5 1 6 3 7 8 8 9 9 10 10 11 11 12 12 13 13
REMARK H PARENT
REMARK Flexibility Score: inf
ROOT
ATOM      1  C   UNL     1      30.033  58.342  86.041  1.00  0.00     0.000 C 
ENDROOT
BRANCH   1   2
ATOM      2  C   UNL     1      28.852  57.713  86.791  1.00  0.00     0.000 C 
BRANCH   2   3
ATOM      3  C   UNL     1      27.600  58.590  86.684  1.00  0.00     0.006 C 
BRANCH   3   4
ATOM      4  C   UNL     1      27.601  59.682  87.758  1.00  0.00     0.053 C 
BRANCH   4   5
ATOM      5  C   UNL     1      27.698  61.036  87.129  1.00  0.00     0.041 C 
ATOM      6  O   UNL     1      27.324  61.211  85.939  1.00  0.00    -0.550 OA
ATOM      7  O   UNL     1      28.156  62.116  87.872  1.00  0.00    -0.550 OA
ENDBRANCH   4   5
ENDBRANCH   3   4
ENDBRANCH   2   3
ENDBRANCH   1   2
BRANCH   1   8
ATOM      8  C   UNL     1      31.191  57.344  85.901  1.00  0.00     0.000 C 
BRANCH   8   9
ATOM      9  C   UNL     1      31.767  57.299  84.477  1.00  0.00     0.006 C 
BRANCH   9  10
ATOM     10  C   UNL     1      30.834  57.943  83.443  1.00  0.00     0.053 C 
BRANCH  10  11
ATOM     11  C   UNL     1      31.501  58.002  82.105  1.00  0.00     0.041 C 
ATOM     12  O   UNL     1      32.756  57.945  82.019  1.00  0.00    -0.550 OA
ATOM     13  O   UNL     1      30.739  58.172  80.956  1.00  0.00    -0.550 OA
ENDBRANCH  10  11
ENDBRANCH   9  10
ENDBRANCH   8   9
ENDBRANCH   1   8
TORSDOF 8
ENDMDL
MODEL 6
REMARK VINA RESULT:    -3.478     18.530     20.162
REMARK INTER + INTRA:          -5.171
REMARK INTER:                  -4.443
REMARK INTRA:                  -0.728
REMARK UNBOUND:                -0.066
REMARK SMILES O=C([O-])CCCCCCCC(=O)[O-]
REMARK SMILES IDX 7 1 6 2 5 3 4 4 2 5 1 6 3 7 8 8 9 9 10 10 11 11 12 12 13 13
REMARK H PARENT
REMARK Flexibility Score: inf
ROOT
ATOM      1  C   UNL     1      27.294  58.781  87.671  1.00  0.00     0.000 C 
ENDROOT
BRANCH   1   2
ATOM      2  C   UNL     1      28.550  57.901  87.700  1.00  0.00     0.000 C 
BRANCH   2   3
ATOM      3  C   UNL     1      29.016  57.559  86.280  1.00  0.00     0.006 C 
BRANCH   3   4
ATOM      4  C   UNL     1      30.232  58.403  85.883  1.00  0.00     0.053 C 
BRANCH   4   5
ATOM      5  C   UNL     1      31.458  57.549  85.801  1.00  0.00     0.041 C 
ATOM      6  O   UNL     1      31.896  56.968  86.828  1.00  0.00    -0.550 OA
ATOM      7  O   UNL     1      32.088  57.355  84.579  1.00  0.00    -0.550 OA
ENDBRANCH   4   5
ENDBRANCH   3   4
ENDBRANCH   2   3
ENDBRANCH   1   2
BRANCH   1   8
ATOM      8  C   UNL     1      27.652  60.259  87.885  1.00  0.00     0.000 C 
BRANCH   8   9
ATOM      9  C   UNL     1      27.579  61.081  86.589  1.00  0.00     0.006 C 
BRANCH   9  10
ATOM     10  C   UNL     1      26.642  60.457  85.546  1.00  0.00     0.053 C 
BRANCH  10  11
ATOM     11  C   UNL     1      27.234  60.576  84.177  1.00  0.00     0.041 C 
ATOM     12  O   UNL     1      27.226  61.683  83.578  1.00  0.00    -0.550 OA
ATOM     13  O   UNL     1      27.748  59.452  83.542  1.00  0.00    -0.550 OA
ENDBRANCH  10  11
ENDBRANCH   9  10
ENDBRANCH   8   9
ENDBRANCH   1   8
TORSDOF 8
ENDMDL
MODEL 7
REMARK VINA RESULT:    -3.331     13.494     15.812
REMARK INTER + INTRA:          -4.955
REMARK INTER:                  -4.513
REMARK INTRA:                  -0.441
REMARK UNBOUND:                -0.066
REMARK SMILES O=C([O-])CCCCCCCC(=O)[O-]
REMARK SMILES IDX 7 1 6 2 5 3 4 4 2 5 1 6 3 7 8 8 9 9 10 10 11 11 12 12 13 13
REMARK H PARENT
REMARK Flexibility Score: inf
ROOT
ATOM      1  C   UNL     1      25.654  63.792  75.453  1.00  0.00     0.000 C 
ENDROOT
BRANCH   1   2
ATOM      2  C   UNL     1      24.530  64.110  76.446  1.00  0.00     0.000 C 
BRANCH   2   3
ATOM      3  C   UNL     1      24.762  63.402  77.786  1.00  0.00     0.006 C 
BRANCH   3   4
ATOM      4  C   UNL     1      25.312  61.988  77.572  1.00  0.00     0.053 C 
BRANCH   4   5
ATOM      5  C   UNL     1      26.215  61.600  78.700  1.00  0.00     0.041 C 
ATOM      6  O   UNL     1      25.734  61.134  79.766  1.00  0.00    -0.550 OA
ATOM      7  O   UNL     1      27.592  61.708  78.556  1.00  0.00    -0.550 OA
ENDBRANCH   4   5
ENDBRANCH   3   4
ENDBRANCH   2   3
ENDBRANCH   1   2
BRANCH   1   8
ATOM      8  C   UNL     1      26.570  65.008  75.251  1.00  0.00     0.000 C 
BRANCH   8   9
ATOM      9  C   UNL     1      25.790  66.290  74.919  1.00  0.00     0.006 C 
BRANCH   9  10
ATOM     10  C   UNL     1      26.107  67.441  75.883  1.00  0.00     0.053 C 
BRANCH  10  11
ATOM     11  C   UNL     1      24.852  68.161  76.266  1.00  0.00     0.041 C 
ATOM     12  O   UNL     1      24.312  67.942  77.382  1.00  0.00    -0.550 OA
ATOM     13  O   UNL     1      24.254  69.037  75.370  1.00  0.00    -0.550 OA
ENDBRANCH  10  11
ENDBRANCH   9  10
ENDBRANCH   8   9
ENDBRANCH   1   8
TORSDOF 8
ENDMDL
MODEL 8
REMARK VINA RESULT:    -3.301     17.508     19.044
REMARK INTER + INTRA:          -4.911
REMARK INTER:                  -4.481
REMARK INTRA:                  -0.430
REMARK UNBOUND:                -0.066
REMARK SMILES O=C([O-])CCCCCCCC(=O)[O-]
REMARK SMILES IDX 7 1 6 2 5 3 4 4 2 5 1 6 3 7 8 8 9 9 10 10 11 11 12 12 13 13
REMARK H PARENT
REMARK Flexibility Score: inf
ROOT
ATOM      1  C   UNL     1      28.780  58.245  86.219  1.00  0.00     0.000 C 
ENDROOT
BRANCH   1   2
ATOM      2  C   UNL     1      28.317  59.324  87.205  1.00  0.00     0.000 C 
BRANCH   2   3
ATOM      3  C   UNL     1      27.524  60.423  86.487  1.00  0.00     0.006 C 
BRANCH   3   4
ATOM      4  C   UNL     1      27.265  60.047  85.025  1.00  0.00     0.053 C 
BRANCH   4   5
ATOM      5  C   UNL     1      26.813  61.243  84.249  1.00  0.00     0.041 C 
ATOM      6  O   UNL     1      27.516  61.690  83.304  1.00  0.00    -0.550 OA
ATOM      7  O   UNL     1      25.590  61.835  84.535  1.00  0.00    -0.550 OA
ENDBRANCH   4   5
ENDBRANCH   3   4
ENDBRANCH   2   3
ENDBRANCH   1   2
BRANCH   1   8
ATOM      8  C   UNL     1      30.284  58.368  85.935  1.00  0.00     0.000 C 
BRANCH   8   9
ATOM      9  C   UNL     1      30.691  57.723  84.601  1.00  0.00     0.006 C 
BRANCH   9  10
ATOM     10  C   UNL     1      30.340  58.598  83.391  1.00  0.00     0.053 C 
BRANCH  10  11
ATOM     11  C   UNL     1      31.188  58.228  82.215  1.00  0.00     0.041 C 
ATOM     12  O   UNL     1      30.768  58.423  81.045  1.00  0.00    -0.550 OA
ATOM     13  O   UNL     1      32.422  57.621  82.413  1.00  0.00    -0.550 OA
ENDBRANCH  10  11
ENDBRANCH   9  10
ENDBRANCH   8   9
ENDBRANCH   1   8
TORSDOF 8
ENDMDL
MODEL 9
REMARK VINA RESULT:    -3.282     17.529     20.209
REMARK INTER + INTRA:          -4.882
REMARK INTER:                  -4.517
REMARK INTRA:                  -0.366
REMARK UNBOUND:                -0.066
REMARK SMILES O=C([O-])CCCCCCCC(=O)[O-]
REMARK SMILES IDX 7 1 6 2 5 3 4 4 2 5 1 6 3 7 8 8 9 9 10 10 11 11 12 12 13 13
REMARK H PARENT
REMARK Flexibility Score: inf
ROOT
ATOM      1  C   UNL     1      28.932  58.444  86.687  1.00  0.00     0.000 C 
ENDROOT
BRANCH   1   2
ATOM      2  C   UNL     1      30.202  58.356  85.833  1.00  0.00     0.000 C 
BRANCH   2   3
ATOM      3  C   UNL     1      29.929  57.631  84.511  1.00  0.00     0.006 C 
BRANCH   3   4
ATOM      4  C   UNL     1      30.194  58.550  83.314  1.00  0.00     0.053 C 
BRANCH   4   5
ATOM      5  C   UNL     1      31.337  58.034  82.499  1.00  0.00     0.041 C 
ATOM      6  O   UNL     1      31.971  57.011  82.872  1.00  0.00    -0.550 OA
ATOM      7  O   UNL     1      31.672  58.652  81.302  1.00  0.00    -0.550 OA
ENDBRANCH   4   5
ENDBRANCH   3   4
ENDBRANCH   2   3
ENDBRANCH   1   2
BRANCH   1   8
ATOM      8  C   UNL     1      28.583  59.904  87.007  1.00  0.00     0.000 C 
BRANCH   8   9
ATOM      9  C   UNL     1      27.360  60.034  87.928  1.00  0.00     0.006 C 
BRANCH   9  10
ATOM     10  C   UNL     1      26.567  58.726  88.045  1.00  0.00     0.053 C 
BRANCH  10  11
ATOM     11  C   UNL     1      25.269  58.836  87.310  1.00  0.00     0.041 C 
ATOM     12  O   UNL     1      25.254  59.170  86.096  1.00  0.00    -0.550 OA
ATOM     13  O   UNL     1      24.071  58.617  87.979  1.00  0.00    -0.550 OA
ENDBRANCH  10  11
ENDBRANCH   9  10
ENDBRANCH   8   9
ENDBRANCH   1   8
TORSDOF 8
ENDMDL
