MODEL 1
REMARK VINA RESULT:    -4.551      0.000      0.000
REMARK INTER + INTRA:         -10.142
REMARK INTER:                  -8.275
REMARK INTRA:                  -1.866
REMARK UNBOUND:                -1.866
REMARK SMILES CCCCCCCCCCCCCC[C@@H](C)C(=O)[O-]
REMARK SMILES IDX 9 1 10 2 11 3 12 4 13 5 14 6 15 7 16 8 17 9 18 10 19 11 8 12
REMARK SMILES IDX 7 13 6 14 5 15 4 16 3 17 2 18 1 19
REMARK H PARENT
REMARK Flexibility Score: inf
ROOT
ATOM      1  C   UNL     1      97.650  86.409  81.902  1.00  0.00     0.000 C 
ENDROOT
BRANCH   1   2
ATOM      2  C   UNL     1      97.516  86.287  80.370  1.00  0.00     0.000 C 
BRANCH   2   3
ATOM      3  C   UNL     1      96.138  86.713  79.834  1.00  0.00     0.000 C 
BRANCH   3   4
ATOM      4  C   UNL     1      95.429  85.594  79.054  1.00  0.00     0.000 C 
BRANCH   4   5
ATOM      5  C   UNL     1      94.982  84.425  79.950  1.00  0.00     0.001 C 
BRANCH   5   6
ATOM      6  C   UNL     1      93.688  83.709  79.511  1.00  0.00     0.009 C 
BRANCH   6   7
ATOM      7  C   UNL     1      92.404  84.160  80.244  1.00  0.00     0.032 C 
ATOM      8  C   UNL     1      92.699  85.133  81.395  1.00  0.00     0.014 C 
BRANCH   7   9
ATOM      9  C   UNL     1      91.459  84.801  79.263  1.00  0.00     0.044 C 
ATOM     10  O   UNL     1      91.897  85.532  78.334  1.00  0.00    -0.550 OA
ATOM     11  O   UNL     1      90.092  84.578  79.370  1.00  0.00    -0.550 OA
ENDBRANCH   7   9
ENDBRANCH   6   7
ENDBRANCH   5   6
ENDBRANCH   4   5
ENDBRANCH   3   4
ENDBRANCH   2   3
ENDBRANCH   1   2
BRANCH   1  12
ATOM     12  C   UNL     1      97.394  85.067  82.611  1.00  0.00     0.000 C 
BRANCH  12  13
ATOM     13  C   UNL     1      98.030  83.879  81.874  1.00  0.00    -0.000 C 
BRANCH  13  14
ATOM     14  C   UNL     1      99.215  83.276  82.643  1.00  0.00    -0.000 C 
BRANCH  14  15
ATOM     15  C   UNL     1     100.542  83.879  82.168  1.00  0.00    -0.000 C 
BRANCH  15  16
ATOM     16  C   UNL     1     101.157  84.778  83.251  1.00  0.00    -0.000 C 
BRANCH  16  17
ATOM     17  C   UNL     1     100.778  84.336  84.673  1.00  0.00    -0.000 C 
BRANCH  17  18
ATOM     18  C   UNL     1     100.026  85.427  85.451  1.00  0.00    -0.003 C 
ATOM     19  C   UNL     1     100.077  86.761  84.713  1.00  0.00     0.004 C 
ENDBRANCH  17  18
ENDBRANCH  16  17
ENDBRANCH  15  16
ENDBRANCH  14  15
ENDBRANCH  13  14
ENDBRANCH  12  13
ENDBRANCH   1  12
TORSDOF 14
ENDMDL
MODEL 2
REMARK VINA RESULT:    -4.494      1.284      2.730
REMARK INTER + INTRA:         -10.039
REMARK INTER:                  -8.214
REMARK INTRA:                  -1.825
REMARK UNBOUND:                -1.866
REMARK SMILES CCCCCCCCCCCCCC[C@@H](C)C(=O)[O-]
REMARK SMILES IDX 9 1 10 2 11 3 12 4 13 5 14 6 15 7 16 8 17 9 18 10 19 11 8 12
REMARK SMILES IDX 7 13 6 14 5 15 4 16 3 17 2 18 1 19
REMARK H PARENT
REMARK Flexibility Score: inf
ROOT
ATOM      1  C   UNL     1      98.411  83.262  82.068  1.00  0.00     0.000 C 
ENDROOT
BRANCH   1   2
ATOM      2  C   UNL     1      97.380  84.277  81.531  1.00  0.00     0.000 C 
BRANCH   2   3
ATOM      3  C   UNL     1      98.016  85.501  80.850  1.00  0.00     0.000 C 
BRANCH   3   4
ATOM      4  C   UNL     1      96.974  86.520  80.360  1.00  0.00     0.000 C 
BRANCH   4   5
ATOM      5  C   UNL     1      95.976  85.923  79.352  1.00  0.00     0.001 C 
BRANCH   5   6
ATOM      6  C   UNL     1      94.504  85.891  79.816  1.00  0.00     0.009 C 
BRANCH   6   7
ATOM      7  C   UNL     1      93.623  84.818  79.135  1.00  0.00     0.032 C 
ATOM      8  C   UNL     1      93.555  83.517  79.948  1.00  0.00     0.014 C 
BRANCH   7   9
ATOM      9  C   UNL     1      92.236  85.361  78.923  1.00  0.00     0.044 C 
ATOM     10  O   UNL     1      91.278  84.975  79.645  1.00  0.00    -0.550 OA
ATOM     11  O   UNL     1      92.007  86.307  77.932  1.00  0.00    -0.550 OA
ENDBRANCH   7   9
ENDBRANCH   6   7
ENDBRANCH   5   6
ENDBRANCH   4   5
ENDBRANCH   3   4
ENDBRANCH   2   3
ENDBRANCH   1   2
BRANCH   1  12
ATOM     12  C   UNL     1      99.854  83.781  81.935  1.00  0.00     0.000 C 
BRANCH  12  13
ATOM     13  C   UNL     1     100.513  84.051  83.296  1.00  0.00    -0.000 C 
BRANCH  13  14
ATOM     14  C   UNL     1     101.228  85.409  83.343  1.00  0.00    -0.000 C 
BRANCH  14  15
ATOM     15  C   UNL     1     100.622  86.312  84.425  1.00  0.00    -0.000 C 
BRANCH  15  16
ATOM     16  C   UNL     1      99.263  86.872  83.977  1.00  0.00    -0.000 C 
BRANCH  16  17
ATOM     17  C   UNL     1      98.182  86.736  85.060  1.00  0.00    -0.000 C 
BRANCH  17  18
ATOM     18  C   UNL     1      96.944  85.971  84.568  1.00  0.00    -0.003 C 
ATOM     19  C   UNL     1      96.571  84.851  85.534  1.00  0.00     0.004 C 
ENDBRANCH  17  18
ENDBRANCH  16  17
ENDBRANCH  15  16
ENDBRANCH  14  15
ENDBRANCH  13  14
ENDBRANCH  12  13
ENDBRANCH   1  12
TORSDOF 14
ENDMDL
MODEL 3
REMARK VINA RESULT:    -4.470      3.702      7.360
REMARK INTER + INTRA:          -9.994
REMARK INTER:                  -8.423
REMARK INTRA:                  -1.571
REMARK UNBOUND:                -1.866
REMARK SMILES CCCCCCCCCCCCCC[C@@H](C)C(=O)[O-]
REMARK SMILES IDX 9 1 10 2 11 3 12 4 13 5 14 6 15 7 16 8 17 9 18 10 19 11 8 12
REMARK SMILES IDX 7 13 6 14 5 15 4 16 3 17 2 18 1 19
REMARK H PARENT
REMARK Flexibility Score: inf
ROOT
ATOM      1  C   UNL     1      94.854  84.542  80.280  1.00  0.00     0.000 C 
ENDROOT
BRANCH   1   2
ATOM      2  C   UNL     1      95.007  85.964  79.702  1.00  0.00     0.000 C 
BRANCH   2   3
ATOM      3  C   UNL     1      96.470  86.426  79.576  1.00  0.00     0.000 C 
BRANCH   3   4
ATOM      4  C   UNL     1      96.949  87.232  80.794  1.00  0.00     0.000 C 
BRANCH   4   5
ATOM      5  C   UNL     1      98.336  86.794  81.297  1.00  0.00     0.001 C 
BRANCH   5   6
ATOM      6  C   UNL     1      98.681  85.306  81.082  1.00  0.00     0.009 C 
BRANCH   6   7
ATOM      7  C   UNL     1      98.553  84.412  82.337  1.00  0.00     0.032 C 
ATOM      8  C   UNL     1      97.953  83.035  82.015  1.00  0.00     0.014 C 
BRANCH   7   9
ATOM      9  C   UNL     1      99.903  84.244  82.980  1.00  0.00     0.044 C 
ATOM     10  O   UNL     1     100.856  83.720  82.343  1.00  0.00    -0.550 OA
ATOM     11  O   UNL     1     100.110  84.681  84.282  1.00  0.00    -0.550 OA
ENDBRANCH   7   9
ENDBRANCH   6   7
ENDBRANCH   5   6
ENDBRANCH   4   5
ENDBRANCH   3   4
ENDBRANCH   2   3
ENDBRANCH   1   2
BRANCH   1  12
ATOM     12  C   UNL     1      93.571  83.852  79.783  1.00  0.00     0.000 C 
BRANCH  12  13
ATOM     13  C   UNL     1      92.678  84.791  78.958  1.00  0.00    -0.000 C 
BRANCH  13  14
ATOM     14  C   UNL     1      91.184  84.600  79.262  1.00  0.00    -0.000 C 
BRANCH  14  15
ATOM     15  C   UNL     1      90.800  85.284  80.580  1.00  0.00    -0.000 C 
BRANCH  15  16
ATOM     16  C   UNL     1      90.666  84.258  81.714  1.00  0.00    -0.000 C 
BRANCH  16  17
ATOM     17  C   UNL     1      91.028  84.843  83.088  1.00  0.00    -0.000 C 
BRANCH  17  18
ATOM     18  C   UNL     1      92.375  85.579  83.081  1.00  0.00    -0.003 C 
ATOM     19  C   UNL     1      92.814  85.936  84.498  1.00  0.00     0.004 C 
ENDBRANCH  17  18
ENDBRANCH  16  17
ENDBRANCH  15  16
ENDBRANCH  14  15
ENDBRANCH  13  14
ENDBRANCH  12  13
ENDBRANCH   1  12
TORSDOF 14
ENDMDL
MODEL 4
REMARK VINA RESULT:    -4.361      3.447      7.640
REMARK INTER + INTRA:          -9.796
REMARK INTER:                  -8.071
REMARK INTRA:                  -1.725
REMARK UNBOUND:                -1.866
REMARK SMILES CCCCCCCCCCCCCC[C@@H](C)C(=O)[O-]
REMARK SMILES IDX 9 1 10 2 11 3 12 4 13 5 14 6 15 7 16 8 17 9 18 10 19 11 8 12
REMARK SMILES IDX 7 13 6 14 5 15 4 16 3 17 2 18 1 19
REMARK H PARENT
REMARK Flexibility Score: inf
ROOT
ATOM      1  C   UNL     1      97.030  85.230  82.657  1.00  0.00     0.000 C 
ENDROOT
BRANCH   1   2
ATOM      2  C   UNL     1      97.245  83.930  81.856  1.00  0.00     0.000 C 
BRANCH   2   3
ATOM      3  C   UNL     1      98.540  83.185  82.225  1.00  0.00     0.000 C 
BRANCH   3   4
ATOM      4  C   UNL     1      99.782  83.763  81.527  1.00  0.00     0.000 C 
BRANCH   4   5
ATOM      5  C   UNL     1     100.919  84.104  82.506  1.00  0.00     0.001 C 
BRANCH   5   6
ATOM      6  C   UNL     1     100.562  83.990  84.003  1.00  0.00     0.009 C 
BRANCH   6   7
ATOM      7  C   UNL     1     100.933  85.220  84.864  1.00  0.00     0.032 C 
ATOM      8  C   UNL     1     102.203  85.922  84.362  1.00  0.00     0.014 C 
BRANCH   7   9
ATOM      9  C   UNL     1      99.784  86.191  84.881  1.00  0.00     0.044 C 
ATOM     10  O   UNL     1      98.881  86.101  85.756  1.00  0.00    -0.550 OA
ATOM     11  O   UNL     1      99.720  87.207  83.936  1.00  0.00    -0.550 OA
ENDBRANCH   7   9
ENDBRANCH   6   7
ENDBRANCH   5   6
ENDBRANCH   4   5
ENDBRANCH   3   4
ENDBRANCH   2   3
ENDBRANCH   1   2
BRANCH   1  12
ATOM     12  C   UNL     1      96.613  86.403  81.752  1.00  0.00     0.000 C 
BRANCH  12  13
ATOM     13  C   UNL     1      97.184  86.283  80.330  1.00  0.00    -0.000 C 
BRANCH  13  14
ATOM     14  C   UNL     1      96.095  86.373  79.250  1.00  0.00    -0.000 C 
BRANCH  14  15
ATOM     15  C   UNL     1      94.774  85.777  79.751  1.00  0.00    -0.000 C 
BRANCH  15  16
ATOM     16  C   UNL     1      94.587  84.342  79.235  1.00  0.00    -0.000 C 
BRANCH  16  17
ATOM     17  C   UNL     1      93.484  83.581  79.986  1.00  0.00    -0.000 C 
BRANCH  17  18
ATOM     18  C   UNL     1      92.356  84.503  80.472  1.00  0.00    -0.003 C 
ATOM     19  C   UNL     1      91.312  84.716  79.379  1.00  0.00     0.004 C 
ENDBRANCH  17  18
ENDBRANCH  16  17
ENDBRANCH  15  16
ENDBRANCH  14  15
ENDBRANCH  13  14
ENDBRANCH  12  13
ENDBRANCH   1  12
TORSDOF 14
ENDMDL
MODEL 5
REMARK VINA RESULT:    -4.347      1.648      2.240
REMARK INTER + INTRA:          -9.772
REMARK INTER:                  -8.399
REMARK INTRA:                  -1.373
REMARK UNBOUND:                -1.866
REMARK SMILES CCCCCCCCCCCCCC[C@@H](C)C(=O)[O-]
REMARK SMILES IDX 9 1 10 2 11 3 12 4 13 5 14 6 15 7 16 8 17 9 18 10 19 11 8 12
REMARK SMILES IDX 7 13 6 14 5 15 4 16 3 17 2 18 1 19
REMARK H PARENT
REMARK Flexibility Score: inf
ROOT
ATOM      1  C   UNL     1      96.147  86.247  81.777  1.00  0.00     0.000 C 
ENDROOT
BRANCH   1   2
ATOM      2  C   UNL     1      96.387  86.591  80.293  1.00  0.00     0.000 C 
BRANCH   2   3
ATOM      3  C   UNL     1      95.671  85.643  79.316  1.00  0.00     0.000 C 
BRANCH   3   4
ATOM      4  C   UNL     1      95.111  84.387  80.004  1.00  0.00     0.000 C 
BRANCH   4   5
ATOM      5  C   UNL     1      93.840  83.845  79.326  1.00  0.00     0.001 C 
BRANCH   5   6
ATOM      6  C   UNL     1      92.670  83.513  80.276  1.00  0.00     0.009 C 
BRANCH   6   7
ATOM      7  C   UNL     1      91.721  84.693  80.589  1.00  0.00     0.032 C 
ATOM      8  C   UNL     1      90.283  84.425  80.122  1.00  0.00     0.014 C 
BRANCH   7   9
ATOM      9  C   UNL     1      91.735  84.977  82.067  1.00  0.00     0.044 C 
ATOM     10  O   UNL     1      90.786  84.592  82.802  1.00  0.00    -0.550 OA
ATOM     11  O   UNL     1      92.806  85.655  82.632  1.00  0.00    -0.550 OA
ENDBRANCH   7   9
ENDBRANCH   6   7
ENDBRANCH   5   6
ENDBRANCH   4   5
ENDBRANCH   3   4
ENDBRANCH   2   3
ENDBRANCH   1   2
BRANCH   1  12
ATOM     12  C   UNL     1      97.464  86.170  82.571  1.00  0.00     0.000 C 
BRANCH  12  13
ATOM     13  C   UNL     1      97.663  84.807  83.253  1.00  0.00    -0.000 C 
BRANCH  13  14
ATOM     14  C   UNL     1      97.919  83.677  82.245  1.00  0.00    -0.000 C 
BRANCH  14  15
ATOM     15  C   UNL     1      99.404  83.604  81.867  1.00  0.00    -0.000 C 
BRANCH  15  16
ATOM     16  C   UNL     1     100.290  83.567  83.121  1.00  0.00    -0.000 C 
BRANCH  16  17
ATOM     17  C   UNL     1     101.533  84.462  82.995  1.00  0.00    -0.000 C 
BRANCH  17  18
ATOM     18  C   UNL     1     101.581  85.562  84.065  1.00  0.00    -0.003 C 
ATOM     19  C   UNL     1     102.808  86.450  83.884  1.00  0.00     0.004 C 
ENDBRANCH  17  18
ENDBRANCH  16  17
ENDBRANCH  15  16
ENDBRANCH  14  15
ENDBRANCH  13  14
ENDBRANCH  12  13
ENDBRANCH   1  12
TORSDOF 14
ENDMDL
MODEL 6
REMARK VINA RESULT:    -4.329      3.418      8.485
REMARK INTER + INTRA:          -9.738
REMARK INTER:                  -8.544
REMARK INTRA:                  -1.193
REMARK UNBOUND:                -1.866
REMARK SMILES CCCCCCCCCCCCCC[C@@H](C)C(=O)[O-]
REMARK SMILES IDX 9 1 10 2 11 3 12 4 13 5 14 6 15 7 16 8 17 9 18 10 19 11 8 12
REMARK SMILES IDX 7 13 6 14 5 15 4 16 3 17 2 18 1 19
REMARK H PARENT
REMARK Flexibility Score: inf
ROOT
ATOM      1  C   UNL     1      94.928  84.311  79.859  1.00  0.00     0.000 C 
ENDROOT
BRANCH   1   2
ATOM      2  C   UNL     1      94.798  85.829  79.613  1.00  0.00     0.000 C 
BRANCH   2   3
ATOM      3  C   UNL     1      96.149  86.541  79.421  1.00  0.00     0.000 C 
BRANCH   3   4
ATOM      4  C   UNL     1      96.739  87.067  80.740  1.00  0.00     0.000 C 
BRANCH   4   5
ATOM      5  C   UNL     1      98.260  86.853  80.845  1.00  0.00     0.001 C 
BRANCH   5   6
ATOM      6  C   UNL     1      98.709  85.405  81.134  1.00  0.00     0.009 C 
BRANCH   6   7
ATOM      7  C   UNL     1      97.819  84.627  82.131  1.00  0.00     0.032 C 
ATOM      8  C   UNL     1      97.934  83.106  81.952  1.00  0.00     0.014 C 
BRANCH   7   9
ATOM      9  C   UNL     1      98.185  85.006  83.540  1.00  0.00     0.044 C 
ATOM     10  O   UNL     1      99.382  85.253  83.847  1.00  0.00    -0.550 OA
ATOM     11  O   UNL     1      97.197  85.099  84.512  1.00  0.00    -0.550 OA
ENDBRANCH   7   9
ENDBRANCH   6   7
ENDBRANCH   5   6
ENDBRANCH   4   5
ENDBRANCH   3   4
ENDBRANCH   2   3
ENDBRANCH   1   2
BRANCH   1  12
ATOM     12  C   UNL     1      93.606  83.568  79.592  1.00  0.00     0.000 C 
BRANCH  12  13
ATOM     13  C   UNL     1      92.382  84.335  80.116  1.00  0.00    -0.000 C 
BRANCH  13  14
ATOM     14  C   UNL     1      91.469  84.828  78.984  1.00  0.00    -0.000 C 
BRANCH  14  15
ATOM     15  C   UNL     1      90.170  85.420  79.544  1.00  0.00    -0.000 C 
BRANCH  15  16
ATOM     16  C   UNL     1      89.526  84.469  80.563  1.00  0.00    -0.000 C 
BRANCH  16  17
ATOM     17  C   UNL     1      88.026  84.253  80.307  1.00  0.00    -0.000 C 
BRANCH  17  18
ATOM     18  C   UNL     1      87.755  83.118  79.309  1.00  0.00    -0.003 C 
ATOM     19  C   UNL     1      86.990  83.629  78.092  1.00  0.00     0.004 C 
ENDBRANCH  17  18
ENDBRANCH  16  17
ENDBRANCH  15  16
ENDBRANCH  14  15
ENDBRANCH  13  14
ENDBRANCH  12  13
ENDBRANCH   1  12
TORSDOF 14
ENDMDL
MODEL 7
REMARK VINA RESULT:    -4.324      1.599      3.366
REMARK INTER + INTRA:          -9.730
REMARK INTER:                  -7.310
REMARK INTRA:                  -2.420
REMARK UNBOUND:                -1.866
REMARK SMILES CCCCCCCCCCCCCC[C@@H](C)C(=O)[O-]
REMARK SMILES IDX 9 1 10 2 11 3 12 4 13 5 14 6 15 7 16 8 17 9 18 10 19 11 8 12
REMARK SMILES IDX 7 13 6 14 5 15 4 16 3 17 2 18 1 19
REMARK H PARENT
REMARK Flexibility Score: inf
ROOT
ATOM      1  C   UNL     1      97.748  85.138  85.378  1.00  0.00     0.000 C 
ENDROOT
BRANCH   1   2
ATOM      2  C   UNL     1      96.337  85.089  84.756  1.00  0.00     0.000 C 
BRANCH   2   3
ATOM      3  C   UNL     1      95.946  86.376  84.009  1.00  0.00     0.000 C 
BRANCH   3   4
ATOM      4  C   UNL     1      94.484  86.370  83.531  1.00  0.00     0.000 C 
BRANCH   4   5
ATOM      5  C   UNL     1      94.345  86.616  82.018  1.00  0.00     0.001 C 
BRANCH   5   6
ATOM      6  C   UNL     1      93.504  85.573  81.251  1.00  0.00     0.009 C 
BRANCH   6   7
ATOM      7  C   UNL     1      93.917  85.349  79.778  1.00  0.00     0.032 C 
ATOM      8  C   UNL     1      94.399  83.914  79.519  1.00  0.00     0.014 C 
BRANCH   7   9
ATOM      9  C   UNL     1      92.760  85.672  78.872  1.00  0.00     0.044 C 
ATOM     10  O   UNL     1      92.776  86.708  78.156  1.00  0.00    -0.550 OA
ATOM     11  O   UNL     1      91.668  84.816  78.811  1.00  0.00    -0.550 OA
ENDBRANCH   7   9
ENDBRANCH   6   7
ENDBRANCH   5   6
ENDBRANCH   4   5
ENDBRANCH   3   4
ENDBRANCH   2   3
ENDBRANCH   1   2
BRANCH   1  12
ATOM     12  C   UNL     1      98.573  86.323  84.842  1.00  0.00     0.000 C 
BRANCH  12  13
ATOM     13  C   UNL     1      99.863  85.873  84.139  1.00  0.00    -0.000 C 
BRANCH  13  14
ATOM     14  C   UNL     1      99.940  84.348  83.973  1.00  0.00    -0.000 C 
BRANCH  14  15
ATOM     15  C   UNL     1      99.890  83.954  82.492  1.00  0.00    -0.000 C 
BRANCH  15  16
ATOM     16  C   UNL     1      98.514  83.379  82.122  1.00  0.00    -0.000 C 
BRANCH  16  17
ATOM     17  C   UNL     1      97.605  84.412  81.437  1.00  0.00    -0.000 C 
BRANCH  17  18
ATOM     18  C   UNL     1      98.395  85.570  80.810  1.00  0.00    -0.003 C 
ATOM     19  C   UNL     1      97.464  86.702  80.384  1.00  0.00     0.004 C 
ENDBRANCH  17  18
ENDBRANCH  16  17
ENDBRANCH  15  16
ENDBRANCH  14  15
ENDBRANCH  13  14
ENDBRANCH  12  13
ENDBRANCH   1  12
TORSDOF 14
ENDMDL
MODEL 8
REMARK VINA RESULT:    -4.321      1.648      2.749
REMARK INTER + INTRA:          -9.723
REMARK INTER:                  -8.401
REMARK INTRA:                  -1.322
REMARK UNBOUND:                -1.866
REMARK SMILES CCCCCCCCCCCCCC[C@@H](C)C(=O)[O-]
REMARK SMILES IDX 9 1 10 2 11 3 12 4 13 5 14 6 15 7 16 8 17 9 18 10 19 11 8 12
REMARK SMILES IDX 7 13 6 14 5 15 4 16 3 17 2 18 1 19
REMARK H PARENT
REMARK Flexibility Score: inf
ROOT
ATOM      1  C   UNL     1      95.947  86.117  79.533  1.00  0.00     0.000 C 
ENDROOT
BRANCH   1   2
ATOM      2  C   UNL     1      94.525  85.522  79.592  1.00  0.00     0.000 C 
BRANCH   2   3
ATOM      3  C   UNL     1      94.492  83.989  79.467  1.00  0.00     0.000 C 
BRANCH   3   4
ATOM      4  C   UNL     1      93.195  83.373  80.016  1.00  0.00     0.000 C 
BRANCH   4   5
ATOM      5  C   UNL     1      92.051  84.395  80.147  1.00  0.00     0.001 C 
BRANCH   5   6
ATOM      6  C   UNL     1      90.891  83.977  81.074  1.00  0.00     0.009 C 
BRANCH   6   7
ATOM      7  C   UNL     1      90.502  85.015  82.153  1.00  0.00     0.032 C 
ATOM      8  C   UNL     1      91.620  85.233  83.183  1.00  0.00     0.014 C 
BRANCH   7   9
ATOM      9  C   UNL     1      90.151  86.322  81.494  1.00  0.00     0.044 C 
ATOM     10  O   UNL     1      89.185  86.395  80.689  1.00  0.00    -0.550 OA
ATOM     11  O   UNL     1      90.887  87.463  81.785  1.00  0.00    -0.550 OA
ENDBRANCH   7   9
ENDBRANCH   6   7
ENDBRANCH   5   6
ENDBRANCH   4   5
ENDBRANCH   3   4
ENDBRANCH   2   3
ENDBRANCH   1   2
BRANCH   1  12
ATOM     12  C   UNL     1      96.489  86.458  80.933  1.00  0.00     0.000 C 
BRANCH  12  13
ATOM     13  C   UNL     1      97.705  85.602  81.319  1.00  0.00    -0.000 C 
BRANCH  13  14
ATOM     14  C   UNL     1      97.304  84.221  81.858  1.00  0.00    -0.000 C 
BRANCH  14  15
ATOM     15  C   UNL     1      98.522  83.295  81.960  1.00  0.00    -0.000 C 
BRANCH  15  16
ATOM     16  C   UNL     1      99.820  84.058  81.658  1.00  0.00    -0.000 C 
BRANCH  16  17
ATOM     17  C   UNL     1     100.956  83.702  82.630  1.00  0.00    -0.000 C 
BRANCH  17  18
ATOM     18  C   UNL     1     101.052  84.679  83.810  1.00  0.00    -0.003 C 
ATOM     19  C   UNL     1     100.713  86.101  83.374  1.00  0.00     0.004 C 
ENDBRANCH  17  18
ENDBRANCH  16  17
ENDBRANCH  15  16
ENDBRANCH  14  15
ENDBRANCH  13  14
ENDBRANCH  12  13
ENDBRANCH   1  12
TORSDOF 14
ENDMDL
MODEL 9
REMARK VINA RESULT:    -4.297      3.797      8.229
REMARK INTER + INTRA:          -9.680
REMARK INTER:                  -8.481
REMARK INTRA:                  -1.199
REMARK UNBOUND:                -1.866
REMARK SMILES CCCCCCCCCCCCCC[C@@H](C)C(=O)[O-]
REMARK SMILES IDX 9 1 10 2 11 3 12 4 13 5 14 6 15 7 16 8 17 9 18 10 19 11 8 12
REMARK SMILES IDX 7 13 6 14 5 15 4 16 3 17 2 18 1 19
REMARK H PARENT
REMARK Flexibility Score: inf
ROOT
ATOM      1  C   UNL     1      95.491  85.686  80.871  1.00  0.00     0.000 C 
ENDROOT
BRANCH   1   2
ATOM      2  C   UNL     1      97.003  85.452  81.070  1.00  0.00     0.000 C 
BRANCH   2   3
ATOM      3  C   UNL     1      97.344  84.680  82.357  1.00  0.00     0.000 C 
BRANCH   3   4
ATOM      4  C   UNL     1      98.336  83.530  82.119  1.00  0.00     0.000 C 
BRANCH   4   5
ATOM      5  C   UNL     1      99.760  84.020  81.798  1.00  0.00     0.001 C 
BRANCH   5   6
ATOM      6  C   UNL     1     100.833  83.678  82.853  1.00  0.00     0.009 C 
BRANCH   6   7
ATOM      7  C   UNL     1     101.170  84.818  83.841  1.00  0.00     0.032 C 
ATOM      8  C   UNL     1     100.856  86.205  83.263  1.00  0.00     0.014 C 
BRANCH   7   9
ATOM      9  C   UNL     1     100.413  84.616  85.126  1.00  0.00     0.044 C 
ATOM     10  O   UNL     1      99.230  85.034  85.246  1.00  0.00    -0.550 OA
ATOM     11  O   UNL     1     101.014  83.952  86.187  1.00  0.00    -0.550 OA
ENDBRANCH   7   9
ENDBRANCH   6   7
ENDBRANCH   5   6
ENDBRANCH   4   5
ENDBRANCH   3   4
ENDBRANCH   2   3
ENDBRANCH   1   2
BRANCH   1  12
ATOM     12  C   UNL     1      95.048  85.396  79.426  1.00  0.00     0.000 C 
BRANCH  12  13
ATOM     13  C   UNL     1      94.495  83.973  79.253  1.00  0.00    -0.000 C 
BRANCH  13  14
ATOM     14  C   UNL     1      92.968  83.913  79.410  1.00  0.00    -0.000 C 
BRANCH  14  15
ATOM     15  C   UNL     1      92.313  85.208  78.916  1.00  0.00    -0.000 C 
BRANCH  15  16
ATOM     16  C   UNL     1      90.789  85.158  79.097  1.00  0.00    -0.000 C 
BRANCH  16  17
ATOM     17  C   UNL     1      90.370  84.484  80.414  1.00  0.00    -0.000 C 
BRANCH  17  18
ATOM     18  C   UNL     1      90.374  85.457  81.602  1.00  0.00    -0.003 C 
ATOM     19  C   UNL     1      91.097  84.854  82.803  1.00  0.00     0.004 C 
ENDBRANCH  17  18
ENDBRANCH  16  17
ENDBRANCH  15  16
ENDBRANCH  14  15
ENDBRANCH  13  14
ENDBRANCH  12  13
ENDBRANCH   1  12
TORSDOF 14
ENDMDL
