MODEL 1
REMARK VINA RESULT:    -7.031      0.000      0.000
REMARK INTER + INTRA:          -8.825
REMARK INTER:                  -8.676
REMARK INTRA:                  -0.149
REMARK UNBOUND:                -0.149
REMARK SMILES O=c1c(O)c(-c2cc(O)c(O)c(O)c2)oc2cc(O)cc(O)c12
REMARK SMILES IDX 5 1 3 2 2 3 1 4 23 5 21 6 20 7 18 8 17 9 16 10 15 11 6 12
REMARK SMILES IDX 7 13 8 14 14 15 10 16 12 17 9 18 11 20 13 22 4 24 22 26
REMARK SMILES IDX 19 28
REMARK H PARENT 9 19 11 21 13 23 4 25 22 27 19 29
REMARK Flexibility Score: inf
ROOT
ATOM      1  C   UNL     1     169.452 143.833 153.919  1.00  0.00     0.180 A 
ATOM      2  C   UNL     1     169.257 145.149 153.465  1.00  0.00     0.208 A 
ATOM      3  C   UNL     1     169.776 145.521 152.214  1.00  0.00     0.238 A 
ATOM      4  O   UNL     1     169.646 146.715 151.837  1.00  0.00    -0.285 OA
ATOM      5  C   UNL     1     170.467 144.568 151.427  1.00  0.00     0.111 A 
ATOM      6  C   UNL     1     170.999 144.825 150.128  1.00  0.00     0.134 A 
ATOM      7  C   UNL     1     171.777 143.848 149.496  1.00  0.00     0.093 A 
ATOM      8  C   UNL     1     171.988 142.602 150.084  1.00  0.00     0.123 A 
ATOM      9  C   UNL     1     171.424 142.320 151.329  1.00  0.00     0.094 A 
ATOM     10  C   UNL     1     170.671 143.287 152.001  1.00  0.00     0.146 A 
ATOM     11  O   UNL     1     170.161 142.982 153.187  1.00  0.00    -0.452 OA
ENDROOT
BRANCH   1  12
ATOM     12  C   UNL     1     168.914 143.360 155.216  1.00  0.00     0.029 A 
ATOM     13  C   UNL     1     169.311 143.947 156.430  1.00  0.00     0.062 A 
ATOM     14  C   UNL     1     168.772 143.502 157.645  1.00  0.00     0.162 A 
ATOM     15  C   UNL     1     167.945 142.345 155.233  1.00  0.00     0.062 A 
ATOM     16  C   UNL     1     167.823 142.472 157.655  1.00  0.00     0.200 A 
ATOM     17  C   UNL     1     167.404 141.895 156.445  1.00  0.00     0.162 A 
BRANCH  14  18
ATOM     18  O   UNL     1     169.174 144.082 158.847  1.00  0.00    -0.504 OA
ATOM     19  H   UNL     1     169.255 145.086 158.951  1.00  0.00     0.293 HD
ENDBRANCH  14  18
BRANCH  16  20
ATOM     20  O   UNL     1     167.301 142.039 158.875  1.00  0.00    -0.502 OA
ATOM     21  H   UNL     1     166.330 141.775 158.982  1.00  0.00     0.293 HD
ENDBRANCH  16  20
BRANCH  17  22
ATOM     22  O   UNL     1     166.453 140.875 156.451  1.00  0.00    -0.504 OA
ATOM     23  H   UNL     1     165.642 140.909 157.058  1.00  0.00     0.293 HD
ENDBRANCH  17  22
ENDBRANCH   1  12
BRANCH   2  24
ATOM     24  O   UNL     1     168.591 146.079 154.268  1.00  0.00    -0.502 OA
ATOM     25  H   UNL     1     168.325 146.996 153.933  1.00  0.00     0.293 HD
ENDBRANCH   2  24
BRANCH   6  26
ATOM     26  O   UNL     1     170.771 146.002 149.409  1.00  0.00    -0.507 OA
ATOM     27  H   UNL     1     169.864 146.418 149.261  1.00  0.00     0.293 HD
ENDBRANCH   6  26
BRANCH   8  28
ATOM     28  O   UNL     1     172.755 141.648 149.420  1.00  0.00    -0.508 OA
ATOM     29  H   UNL     1     172.370 141.086 148.669  1.00  0.00     0.293 HD
ENDBRANCH   8  28
TORSDOF 7
ENDMDL
MODEL 2
REMARK VINA RESULT:    -6.897      1.559      3.451
REMARK INTER + INTRA:          -8.659
REMARK INTER:                  -8.323
REMARK INTRA:                  -0.336
REMARK UNBOUND:                -0.149
REMARK SMILES O=c1c(O)c(-c2cc(O)c(O)c(O)c2)oc2cc(O)cc(O)c12
REMARK SMILES IDX 5 1 3 2 2 3 1 4 23 5 21 6 20 7 18 8 17 9 16 10 15 11 6 12
REMARK SMILES IDX 7 13 8 14 14 15 10 16 12 17 9 18 11 20 13 22 4 24 22 26
REMARK SMILES IDX 19 28
REMARK H PARENT 9 19 11 21 13 23 4 25 22 27 19 29
REMARK Flexibility Score: inf
ROOT
ATOM      1  C   UNL     1     170.096 143.045 153.092  1.00  0.00     0.180 A 
ATOM      2  C   UNL     1     171.010 142.011 152.821  1.00  0.00     0.208 A 
ATOM      3  C   UNL     1     171.535 141.889 151.525  1.00  0.00     0.238 A 
ATOM      4  O   UNL     1     172.310 140.929 151.276  1.00  0.00    -0.285 OA
ATOM      5  C   UNL     1     171.154 142.811 150.521  1.00  0.00     0.111 A 
ATOM      6  C   UNL     1     171.656 142.806 149.184  1.00  0.00     0.134 A 
ATOM      7  C   UNL     1     171.110 143.683 148.240  1.00  0.00     0.093 A 
ATOM      8  C   UNL     1     170.132 144.609 148.596  1.00  0.00     0.123 A 
ATOM      9  C   UNL     1     169.677 144.663 149.914  1.00  0.00     0.094 A 
ATOM     10  C   UNL     1     170.175 143.776 150.872  1.00  0.00     0.146 A 
ATOM     11  O   UNL     1     169.708 143.853 152.112  1.00  0.00    -0.452 OA
ENDROOT
BRANCH   1  12
ATOM     12  C   UNL     1     169.518 143.253 154.440  1.00  0.00     0.029 A 
ATOM     13  C   UNL     1     168.420 142.499 154.888  1.00  0.00     0.062 A 
ATOM     14  C   UNL     1     167.902 142.693 156.176  1.00  0.00     0.162 A 
ATOM     15  C   UNL     1     170.111 144.179 155.310  1.00  0.00     0.062 A 
ATOM     16  C   UNL     1     168.486 143.636 157.031  1.00  0.00     0.200 A 
ATOM     17  C   UNL     1     169.597 144.378 156.600  1.00  0.00     0.162 A 
BRANCH  14  18
ATOM     18  O   UNL     1     166.808 141.948 156.614  1.00  0.00    -0.504 OA
ATOM     19  H   UNL     1     165.891 142.056 156.196  1.00  0.00     0.293 HD
ENDBRANCH  14  18
BRANCH  16  20
ATOM     20  O   UNL     1     167.954 143.818 158.308  1.00  0.00    -0.502 OA
ATOM     21  H   UNL     1     168.361 144.462 158.974  1.00  0.00     0.293 HD
ENDBRANCH  16  20
BRANCH  17  22
ATOM     22  O   UNL     1     170.186 145.312 157.451  1.00  0.00    -0.504 OA
ATOM     23  H   UNL     1     170.762 145.026 158.235  1.00  0.00     0.293 HD
ENDBRANCH  17  22
ENDBRANCH   1  12
BRANCH   2  24
ATOM     24  O   UNL     1     171.355 141.099 153.822  1.00  0.00    -0.502 OA
ATOM     25  H   UNL     1     171.442 140.105 153.647  1.00  0.00     0.293 HD
ENDBRANCH   2  24
BRANCH   6  26
ATOM     26  O   UNL     1     172.697 141.984 148.745  1.00  0.00    -0.507 OA
ATOM     27  H   UNL     1     173.041 141.176 149.242  1.00  0.00     0.293 HD
ENDBRANCH   6  26
BRANCH   8  28
ATOM     28  O   UNL     1     169.623 145.479 147.634  1.00  0.00    -0.508 OA
ATOM     29  H   UNL     1     168.937 145.175 146.953  1.00  0.00     0.293 HD
ENDBRANCH   8  28
TORSDOF 7
ENDMDL
MODEL 3
REMARK VINA RESULT:    -6.869      1.582      3.034
REMARK INTER + INTRA:          -8.624
REMARK INTER:                  -8.277
REMARK INTRA:                  -0.347
REMARK UNBOUND:                -0.149
REMARK SMILES O=c1c(O)c(-c2cc(O)c(O)c(O)c2)oc2cc(O)cc(O)c12
REMARK SMILES IDX 5 1 3 2 2 3 1 4 23 5 21 6 20 7 18 8 17 9 16 10 15 11 6 12
REMARK SMILES IDX 7 13 8 14 14 15 10 16 12 17 9 18 11 20 13 22 4 24 22 26
REMARK SMILES IDX 19 28
REMARK H PARENT 9 19 11 21 13 23 4 25 22 27 19 29
REMARK Flexibility Score: inf
ROOT
ATOM      1  C   UNL     1     170.169 143.017 153.098  1.00  0.00     0.180 A 
ATOM      2  C   UNL     1     171.071 141.977 152.814  1.00  0.00     0.208 A 
ATOM      3  C   UNL     1     171.567 141.844 151.507  1.00  0.00     0.238 A 
ATOM      4  O   UNL     1     172.331 140.878 151.246  1.00  0.00    -0.285 OA
ATOM      5  C   UNL     1     171.169 142.763 150.506  1.00  0.00     0.111 A 
ATOM      6  C   UNL     1     171.642 142.748 149.159  1.00  0.00     0.134 A 
ATOM      7  C   UNL     1     171.081 143.623 148.222  1.00  0.00     0.093 A 
ATOM      8  C   UNL     1     170.116 144.557 148.594  1.00  0.00     0.123 A 
ATOM      9  C   UNL     1     169.690 144.620 149.922  1.00  0.00     0.094 A 
ATOM     10  C   UNL     1     170.204 143.735 150.874  1.00  0.00     0.146 A 
ATOM     11  O   UNL     1     169.764 143.822 152.123  1.00  0.00    -0.452 OA
ENDROOT
BRANCH   1  12
ATOM     12  C   UNL     1     169.621 143.235 154.457  1.00  0.00     0.029 A 
ATOM     13  C   UNL     1     170.185 144.182 155.329  1.00  0.00     0.062 A 
ATOM     14  C   UNL     1     169.638 144.392 156.602  1.00  0.00     0.162 A 
ATOM     15  C   UNL     1     168.481 142.526 154.864  1.00  0.00     0.062 A 
ATOM     16  C   UNL     1     168.513 143.663 157.010  1.00  0.00     0.200 A 
ATOM     17  C   UNL     1     167.930 142.730 156.137  1.00  0.00     0.162 A 
BRANCH  14  18
ATOM     18  O   UNL     1     170.205 145.326 157.467  1.00  0.00    -0.504 OA
ATOM     19  H   UNL     1     171.069 145.137 157.960  1.00  0.00     0.293 HD
ENDBRANCH  14  18
BRANCH  16  20
ATOM     20  O   UNL     1     167.985 143.882 158.282  1.00  0.00    -0.502 OA
ATOM     21  H   UNL     1     168.526 143.728 159.124  1.00  0.00     0.293 HD
ENDBRANCH  16  20
BRANCH  17  22
ATOM     22  O   UNL     1     166.806 142.009 156.536  1.00  0.00    -0.504 OA
ATOM     23  H   UNL     1     166.063 142.439 157.075  1.00  0.00     0.293 HD
ENDBRANCH  17  22
ENDBRANCH   1  12
BRANCH   2  24
ATOM     24  O   UNL     1     171.432 141.067 153.812  1.00  0.00    -0.502 OA
ATOM     25  H   UNL     1     172.359 141.045 154.218  1.00  0.00     0.293 HD
ENDBRANCH   2  24
BRANCH   6  26
ATOM     26  O   UNL     1     172.669 141.917 148.702  1.00  0.00    -0.507 OA
ATOM     27  H   UNL     1     173.570 141.821 149.144  1.00  0.00     0.293 HD
ENDBRANCH   6  26
BRANCH   8  28
ATOM     28  O   UNL     1     169.591 145.424 147.639  1.00  0.00    -0.508 OA
ATOM     29  H   UNL     1     169.105 146.273 147.902  1.00  0.00     0.293 HD
ENDBRANCH   8  28
TORSDOF 7
ENDMDL
MODEL 4
REMARK VINA RESULT:    -6.726      1.816      6.924
REMARK INTER + INTRA:          -8.448
REMARK INTER:                  -8.146
REMARK INTRA:                  -0.302
REMARK UNBOUND:                -0.149
REMARK SMILES O=c1c(O)c(-c2cc(O)c(O)c(O)c2)oc2cc(O)cc(O)c12
REMARK SMILES IDX 5 1 3 2 2 3 1 4 23 5 21 6 20 7 18 8 17 9 16 10 15 11 6 12
REMARK SMILES IDX 7 13 8 14 14 15 10 16 12 17 9 18 11 20 13 22 4 24 22 26
REMARK SMILES IDX 19 28
REMARK H PARENT 9 19 11 21 13 23 4 25 22 27 19 29
REMARK Flexibility Score: inf
ROOT
ATOM      1  C   UNL     1     170.159 143.907 153.152  1.00  0.00     0.180 A 
ATOM      2  C   UNL     1     171.189 144.649 153.756  1.00  0.00     0.208 A 
ATOM      3  C   UNL     1     171.167 144.839 155.147  1.00  0.00     0.238 A 
ATOM      4  O   UNL     1     172.062 145.550 155.674  1.00  0.00    -0.285 OA
ATOM      5  C   UNL     1     170.125 144.270 155.918  1.00  0.00     0.111 A 
ATOM      6  C   UNL     1     170.026 144.364 157.339  1.00  0.00     0.134 A 
ATOM      7  C   UNL     1     168.884 143.875 157.985  1.00  0.00     0.093 A 
ATOM      8  C   UNL     1     167.870 143.238 157.272  1.00  0.00     0.123 A 
ATOM      9  C   UNL     1     167.985 143.088 155.889  1.00  0.00     0.094 A 
ATOM     10  C   UNL     1     169.096 143.597 155.211  1.00  0.00     0.146 A 
ATOM     11  O   UNL     1     169.161 143.443 153.895  1.00  0.00    -0.452 OA
ENDROOT
BRANCH   1  12
ATOM     12  C   UNL     1     170.127 143.645 151.695  1.00  0.00     0.029 A 
ATOM     13  C   UNL     1     169.751 144.644 150.780  1.00  0.00     0.062 A 
ATOM     14  C   UNL     1     169.750 144.384 149.403  1.00  0.00     0.162 A 
ATOM     15  C   UNL     1     170.535 142.394 151.209  1.00  0.00     0.062 A 
ATOM     16  C   UNL     1     170.137 143.124 148.927  1.00  0.00     0.200 A 
ATOM     17  C   UNL     1     170.535 142.127 149.833  1.00  0.00     0.162 A 
BRANCH  14  18
ATOM     18  O   UNL     1     169.369 145.375 148.500  1.00  0.00    -0.504 OA
ATOM     19  H   UNL     1     168.546 145.274 147.918  1.00  0.00     0.293 HD
ENDBRANCH  14  18
BRANCH  16  20
ATOM     20  O   UNL     1     170.125 142.882 147.554  1.00  0.00    -0.502 OA
ATOM     21  H   UNL     1     170.043 143.629 146.876  1.00  0.00     0.293 HD
ENDBRANCH  16  20
BRANCH  17  22
ATOM     22  O   UNL     1     170.928 140.875 149.363  1.00  0.00    -0.504 OA
ATOM     23  H   UNL     1     171.440 140.225 149.948  1.00  0.00     0.293 HD
ENDBRANCH  17  22
ENDBRANCH   1  12
BRANCH   2  24
ATOM     24  O   UNL     1     172.196 145.221 152.972  1.00  0.00    -0.502 OA
ATOM     25  H   UNL     1     172.015 145.971 152.317  1.00  0.00     0.293 HD
ENDBRANCH   2  24
BRANCH   6  26
ATOM     26  O   UNL     1     171.025 144.899 158.158  1.00  0.00    -0.507 OA
ATOM     27  H   UNL     1     171.962 145.118 157.854  1.00  0.00     0.293 HD
ENDBRANCH   6  26
BRANCH   8  28
ATOM     28  O   UNL     1     166.755 142.749 157.948  1.00  0.00    -0.508 OA
ATOM     29  H   UNL     1     166.498 143.094 158.866  1.00  0.00     0.293 HD
ENDBRANCH   8  28
TORSDOF 7
ENDMDL
MODEL 5
REMARK VINA RESULT:    -6.649      1.795      7.109
REMARK INTER + INTRA:          -8.353
REMARK INTER:                  -8.289
REMARK INTRA:                  -0.064
REMARK UNBOUND:                -0.149
REMARK SMILES O=c1c(O)c(-c2cc(O)c(O)c(O)c2)oc2cc(O)cc(O)c12
REMARK SMILES IDX 5 1 3 2 2 3 1 4 23 5 21 6 20 7 18 8 17 9 16 10 15 11 6 12
REMARK SMILES IDX 7 13 8 14 14 15 10 16 12 17 9 18 11 20 13 22 4 24 22 26
REMARK SMILES IDX 19 28
REMARK H PARENT 9 19 11 21 13 23 4 25 22 27 19 29
REMARK Flexibility Score: inf
ROOT
ATOM      1  C   UNL     1     170.513 144.140 153.529  1.00  0.00     0.180 A 
ATOM      2  C   UNL     1     171.497 144.833 154.255  1.00  0.00     0.208 A 
ATOM      3  C   UNL     1     171.374 144.924 155.651  1.00  0.00     0.238 A 
ATOM      4  O   UNL     1     172.229 145.592 156.290  1.00  0.00    -0.285 OA
ATOM      5  C   UNL     1     170.280 144.307 156.304  1.00  0.00     0.111 A 
ATOM      6  C   UNL     1     170.078 144.302 157.717  1.00  0.00     0.134 A 
ATOM      7  C   UNL     1     168.892 143.774 158.242  1.00  0.00     0.093 A 
ATOM      8  C   UNL     1     167.933 143.194 157.415  1.00  0.00     0.123 A 
ATOM      9  C   UNL     1     168.147 143.141 156.037  1.00  0.00     0.094 A 
ATOM     10  C   UNL     1     169.304 143.691 155.479  1.00  0.00     0.146 A 
ATOM     11  O   UNL     1     169.464 143.630 154.163  1.00  0.00    -0.452 OA
ENDROOT
BRANCH   1  12
ATOM     12  C   UNL     1     170.586 143.981 152.058  1.00  0.00     0.029 A 
ATOM     13  C   UNL     1     170.515 142.713 151.455  1.00  0.00     0.062 A 
ATOM     14  C   UNL     1     170.561 142.585 150.060  1.00  0.00     0.162 A 
ATOM     15  C   UNL     1     170.669 145.121 151.243  1.00  0.00     0.062 A 
ATOM     16  C   UNL     1     170.668 143.726 149.255  1.00  0.00     0.200 A 
ATOM     17  C   UNL     1     170.717 144.999 149.847  1.00  0.00     0.162 A 
BRANCH  14  18
ATOM     18  O   UNL     1     170.498 141.326 149.467  1.00  0.00    -0.504 OA
ATOM     19  H   UNL     1     171.119 140.576 149.746  1.00  0.00     0.293 HD
ENDBRANCH  14  18
BRANCH  16  20
ATOM     20  O   UNL     1     170.717 143.579 147.868  1.00  0.00    -0.502 OA
ATOM     21  H   UNL     1     169.910 143.294 147.328  1.00  0.00     0.293 HD
ENDBRANCH  16  20
BRANCH  17  22
ATOM     22  O   UNL     1     170.815 146.137 149.049  1.00  0.00    -0.504 OA
ATOM     23  H   UNL     1     170.417 146.167 148.117  1.00  0.00     0.293 HD
ENDBRANCH  17  22
ENDBRANCH   1  12
BRANCH   2  24
ATOM     24  O   UNL     1     172.557 145.453 153.588  1.00  0.00    -0.502 OA
ATOM     25  H   UNL     1     173.146 146.148 154.030  1.00  0.00     0.293 HD
ENDBRANCH   2  24
BRANCH   6  26
ATOM     26  O   UNL     1     171.015 144.773 158.641  1.00  0.00    -0.507 OA
ATOM     27  H   UNL     1     170.933 145.639 159.152  1.00  0.00     0.293 HD
ENDBRANCH   6  26
BRANCH   8  28
ATOM     28  O   UNL     1     166.772 142.665 157.973  1.00  0.00    -0.508 OA
ATOM     29  H   UNL     1     166.375 141.791 157.646  1.00  0.00     0.293 HD
ENDBRANCH   8  28
TORSDOF 7
ENDMDL
MODEL 6
REMARK VINA RESULT:    -6.541      3.906      6.272
REMARK INTER + INTRA:          -8.220
REMARK INTER:                  -8.217
REMARK INTRA:                  -0.003
REMARK UNBOUND:                -0.149
REMARK SMILES O=c1c(O)c(-c2cc(O)c(O)c(O)c2)oc2cc(O)cc(O)c12
REMARK SMILES IDX 5 1 3 2 2 3 1 4 23 5 21 6 20 7 18 8 17 9 16 10 15 11 6 12
REMARK SMILES IDX 7 13 8 14 14 15 10 16 12 17 9 18 11 20 13 22 4 24 22 26
REMARK SMILES IDX 19 28
REMARK H PARENT 9 19 11 21 13 23 4 25 22 27 19 29
REMARK Flexibility Score: inf
ROOT
ATOM      1  C   UNL     1     171.254 144.961 157.566  1.00  0.00     0.180 A 
ATOM      2  C   UNL     1     170.050 144.363 157.977  1.00  0.00     0.208 A 
ATOM      3  C   UNL     1     168.996 144.252 157.056  1.00  0.00     0.238 A 
ATOM      4  O   UNL     1     167.902 143.765 157.446  1.00  0.00    -0.285 OA
ATOM      5  C   UNL     1     169.165 144.723 155.732  1.00  0.00     0.111 A 
ATOM      6  C   UNL     1     168.178 144.624 154.705  1.00  0.00     0.134 A 
ATOM      7  C   UNL     1     168.405 145.243 153.470  1.00  0.00     0.093 A 
ATOM      8  C   UNL     1     169.605 145.898 153.200  1.00  0.00     0.123 A 
ATOM      9  C   UNL     1     170.600 145.949 154.177  1.00  0.00     0.094 A 
ATOM     10  C   UNL     1     170.390 145.373 155.433  1.00  0.00     0.146 A 
ATOM     11  O   UNL     1     171.358 145.454 156.337  1.00  0.00    -0.452 OA
ENDROOT
BRANCH   1  12
ATOM     12  C   UNL     1     172.418 145.093 158.473  1.00  0.00     0.029 A 
ATOM     13  C   UNL     1     172.858 144.014 159.259  1.00  0.00     0.062 A 
ATOM     14  C   UNL     1     173.976 144.150 160.092  1.00  0.00     0.162 A 
ATOM     15  C   UNL     1     173.133 146.299 158.507  1.00  0.00     0.062 A 
ATOM     16  C   UNL     1     174.672 145.366 160.139  1.00  0.00     0.200 A 
ATOM     17  C   UNL     1     174.252 146.442 159.340  1.00  0.00     0.162 A 
BRANCH  14  18
ATOM     18  O   UNL     1     174.405 143.081 160.876  1.00  0.00    -0.504 OA
ATOM     19  H   UNL     1     174.305 142.122 160.565  1.00  0.00     0.293 HD
ENDBRANCH  14  18
BRANCH  16  20
ATOM     20  O   UNL     1     175.780 145.485 160.978  1.00  0.00    -0.502 OA
ATOM     21  H   UNL     1     175.882 144.927 161.817  1.00  0.00     0.293 HD
ENDBRANCH  16  20
BRANCH  17  22
ATOM     22  O   UNL     1     174.946 147.650 159.377  1.00  0.00    -0.504 OA
ATOM     23  H   UNL     1     174.604 148.444 159.907  1.00  0.00     0.293 HD
ENDBRANCH  17  22
ENDBRANCH   1  12
BRANCH   2  24
ATOM     24  O   UNL     1     169.897 143.924 159.296  1.00  0.00    -0.502 OA
ATOM     25  H   UNL     1     169.009 143.607 159.664  1.00  0.00     0.293 HD
ENDBRANCH   2  24
BRANCH   6  26
ATOM     26  O   UNL     1     166.982 143.914 154.838  1.00  0.00    -0.507 OA
ATOM     27  H   UNL     1     166.784 143.032 154.390  1.00  0.00     0.293 HD
ENDBRANCH   6  26
BRANCH   8  28
ATOM     28  O   UNL     1     169.803 146.488 151.954  1.00  0.00    -0.508 OA
ATOM     29  H   UNL     1     169.036 146.632 151.307  1.00  0.00     0.293 HD
ENDBRANCH   8  28
TORSDOF 7
ENDMDL
MODEL 7
REMARK VINA RESULT:    -6.512      1.882      7.146
REMARK INTER + INTRA:          -8.184
REMARK INTER:                  -7.836
REMARK INTRA:                  -0.348
REMARK UNBOUND:                -0.149
REMARK SMILES O=c1c(O)c(-c2cc(O)c(O)c(O)c2)oc2cc(O)cc(O)c12
REMARK SMILES IDX 5 1 3 2 2 3 1 4 23 5 21 6 20 7 18 8 17 9 16 10 15 11 6 12
REMARK SMILES IDX 7 13 8 14 14 15 10 16 12 17 9 18 11 20 13 22 4 24 22 26
REMARK SMILES IDX 19 28
REMARK H PARENT 9 19 11 21 13 23 4 25 22 27 19 29
REMARK Flexibility Score: inf
ROOT
ATOM      1  C   UNL     1     171.456 143.467 152.897  1.00  0.00     0.180 A 
ATOM      2  C   UNL     1     171.970 144.559 153.618  1.00  0.00     0.208 A 
ATOM      3  C   UNL     1     171.364 144.918 154.833  1.00  0.00     0.238 A 
ATOM      4  O   UNL     1     171.795 145.929 155.446  1.00  0.00    -0.285 OA
ATOM      5  C   UNL     1     170.265 144.170 155.321  1.00  0.00     0.111 A 
ATOM      6  C   UNL     1     169.602 144.420 156.559  1.00  0.00     0.134 A 
ATOM      7  C   UNL     1     168.444 143.701 156.879  1.00  0.00     0.093 A 
ATOM      8  C   UNL     1     167.963 142.698 156.039  1.00  0.00     0.123 A 
ATOM      9  C   UNL     1     168.639 142.405 154.853  1.00  0.00     0.094 A 
ATOM     10  C   UNL     1     169.777 143.130 154.489  1.00  0.00     0.146 A 
ATOM     11  O   UNL     1     170.383 142.827 153.348  1.00  0.00    -0.452 OA
ENDROOT
BRANCH   1  12
ATOM     12  C   UNL     1     172.055 143.013 151.620  1.00  0.00     0.029 A 
ATOM     13  C   UNL     1     171.567 143.466 150.383  1.00  0.00     0.062 A 
ATOM     14  C   UNL     1     172.163 143.045 149.186  1.00  0.00     0.162 A 
ATOM     15  C   UNL     1     173.169 142.161 151.645  1.00  0.00     0.062 A 
ATOM     16  C   UNL     1     173.260 142.175 149.218  1.00  0.00     0.200 A 
ATOM     17  C   UNL     1     173.768 141.735 150.451  1.00  0.00     0.162 A 
BRANCH  14  18
ATOM     18  O   UNL     1     171.671 143.491 147.960  1.00  0.00    -0.504 OA
ATOM     19  H   UNL     1     170.722 143.830 147.861  1.00  0.00     0.293 HD
ENDBRANCH  14  18
BRANCH  16  20
ATOM     20  O   UNL     1     173.837 141.763 148.016  1.00  0.00    -0.502 OA
ATOM     21  H   UNL     1     173.375 141.891 147.125  1.00  0.00     0.293 HD
ENDBRANCH  16  20
BRANCH  17  22
ATOM     22  O   UNL     1     174.865 140.876 150.487  1.00  0.00    -0.504 OA
ATOM     23  H   UNL     1     175.751 141.127 150.063  1.00  0.00     0.293 HD
ENDBRANCH  17  22
ENDBRANCH   1  12
BRANCH   2  24
ATOM     24  O   UNL     1     173.041 145.297 153.107  1.00  0.00    -0.502 OA
ATOM     25  H   UNL     1     173.744 144.889 152.504  1.00  0.00     0.293 HD
ENDBRANCH   2  24
BRANCH   6  26
ATOM     26  O   UNL     1     170.051 145.336 157.514  1.00  0.00    -0.507 OA
ATOM     27  H   UNL     1     169.848 146.324 157.503  1.00  0.00     0.293 HD
ENDBRANCH   6  26
BRANCH   8  28
ATOM     28  O   UNL     1     166.818 141.991 156.396  1.00  0.00    -0.508 OA
ATOM     29  H   UNL     1     166.154 142.359 157.068  1.00  0.00     0.293 HD
ENDBRANCH   8  28
TORSDOF 7
ENDMDL
MODEL 8
REMARK VINA RESULT:    -6.505      1.662      3.481
REMARK INTER + INTRA:          -8.175
REMARK INTER:                  -8.443
REMARK INTRA:                   0.268
REMARK UNBOUND:                -0.149
REMARK SMILES O=c1c(O)c(-c2cc(O)c(O)c(O)c2)oc2cc(O)cc(O)c12
REMARK SMILES IDX 5 1 3 2 2 3 1 4 23 5 21 6 20 7 18 8 17 9 16 10 15 11 6 12
REMARK SMILES IDX 7 13 8 14 14 15 10 16 12 17 9 18 11 20 13 22 4 24 22 26
REMARK SMILES IDX 19 28
REMARK H PARENT 9 19 11 21 13 23 4 25 22 27 19 29
REMARK Flexibility Score: inf
ROOT
ATOM      1  C   UNL     1     170.375 143.396 152.126  1.00  0.00     0.180 A 
ATOM      2  C   UNL     1     171.011 142.173 151.852  1.00  0.00     0.208 A 
ATOM      3  C   UNL     1     171.730 142.032 150.654  1.00  0.00     0.238 A 
ATOM      4  O   UNL     1     172.252 140.917 150.390  1.00  0.00    -0.285 OA
ATOM      5  C   UNL     1     171.818 143.121 149.754  1.00  0.00     0.111 A 
ATOM      6  C   UNL     1     172.554 143.103 148.532  1.00  0.00     0.134 A 
ATOM      7  C   UNL     1     172.464 144.192 147.656  1.00  0.00     0.093 A 
ATOM      8  C   UNL     1     171.720 145.324 147.987  1.00  0.00     0.123 A 
ATOM      9  C   UNL     1     171.045 145.376 149.207  1.00  0.00     0.094 A 
ATOM     10  C   UNL     1     171.086 144.290 150.086  1.00  0.00     0.146 A 
ATOM     11  O   UNL     1     170.421 144.376 151.231  1.00  0.00    -0.452 OA
ENDROOT
BRANCH   1  12
ATOM     12  C   UNL     1     169.618 143.627 153.378  1.00  0.00     0.029 A 
ATOM     13  C   UNL     1     169.538 144.905 153.958  1.00  0.00     0.062 A 
ATOM     14  C   UNL     1     168.797 145.109 155.130  1.00  0.00     0.162 A 
ATOM     15  C   UNL     1     168.919 142.564 153.969  1.00  0.00     0.062 A 
ATOM     16  C   UNL     1     168.120 144.038 155.727  1.00  0.00     0.200 A 
ATOM     17  C   UNL     1     168.177 142.762 155.143  1.00  0.00     0.162 A 
BRANCH  14  18
ATOM     18  O   UNL     1     168.727 146.376 155.706  1.00  0.00    -0.504 OA
ATOM     19  H   UNL     1     167.884 146.706 156.161  1.00  0.00     0.293 HD
ENDBRANCH  14  18
BRANCH  16  20
ATOM     20  O   UNL     1     167.392 144.259 156.896  1.00  0.00    -0.502 OA
ATOM     21  H   UNL     1     166.824 145.087 157.029  1.00  0.00     0.293 HD
ENDBRANCH  16  20
BRANCH  17  22
ATOM     22  O   UNL     1     167.498 141.695 155.729  1.00  0.00    -0.504 OA
ATOM     23  H   UNL     1     166.733 141.845 156.377  1.00  0.00     0.293 HD
ENDBRANCH  17  22
ENDBRANCH   1  12
BRANCH   2  24
ATOM     24  O   UNL     1     170.893 141.103 152.745  1.00  0.00    -0.502 OA
ATOM     25  H   UNL     1     171.362 141.088 153.642  1.00  0.00     0.293 HD
ENDBRANCH   2  24
BRANCH   6  26
ATOM     26  O   UNL     1     173.402 142.061 148.146  1.00  0.00    -0.507 OA
ATOM     27  H   UNL     1     173.092 141.153 147.835  1.00  0.00     0.293 HD
ENDBRANCH   6  26
BRANCH   8  28
ATOM     28  O   UNL     1     171.665 146.395 147.099  1.00  0.00    -0.508 OA
ATOM     29  H   UNL     1     170.799 146.887 146.913  1.00  0.00     0.293 HD
ENDBRANCH   8  28
TORSDOF 7
ENDMDL
MODEL 9
REMARK VINA RESULT:    -6.371      2.126      7.543
REMARK INTER + INTRA:          -8.010
REMARK INTER:                  -7.665
REMARK INTRA:                  -0.344
REMARK UNBOUND:                -0.149
REMARK SMILES O=c1c(O)c(-c2cc(O)c(O)c(O)c2)oc2cc(O)cc(O)c12
REMARK SMILES IDX 5 1 3 2 2 3 1 4 23 5 21 6 20 7 18 8 17 9 16 10 15 11 6 12
REMARK SMILES IDX 7 13 8 14 14 15 10 16 12 17 9 18 11 20 13 22 4 24 22 26
REMARK SMILES IDX 19 28
REMARK H PARENT 9 19 11 21 13 23 4 25 22 27 19 29
REMARK Flexibility Score: inf
ROOT
ATOM      1  C   UNL     1     170.451 143.921 151.255  1.00  0.00     0.180 A 
ATOM      2  C   UNL     1     171.429 143.030 151.732  1.00  0.00     0.208 A 
ATOM      3  C   UNL     1     171.346 142.576 153.058  1.00  0.00     0.238 A 
ATOM      4  O   UNL     1     172.255 141.822 153.495  1.00  0.00    -0.285 OA
ATOM      5  C   UNL     1     170.278 143.002 153.884  1.00  0.00     0.111 A 
ATOM      6  C   UNL     1     170.074 142.572 155.229  1.00  0.00     0.134 A 
ATOM      7  C   UNL     1     169.059 143.160 155.995  1.00  0.00     0.093 A 
ATOM      8  C   UNL     1     168.201 144.111 155.445  1.00  0.00     0.123 A 
ATOM      9  C   UNL     1     168.355 144.495 154.113  1.00  0.00     0.094 A 
ATOM     10  C   UNL     1     169.381 143.953 153.333  1.00  0.00     0.146 A 
ATOM     11  O   UNL     1     169.500 144.354 152.074  1.00  0.00    -0.452 OA
ENDROOT
BRANCH   1  12
ATOM     12  C   UNL     1     170.458 144.425 149.862  1.00  0.00     0.029 A 
ATOM     13  C   UNL     1     171.243 145.529 149.489  1.00  0.00     0.062 A 
ATOM     14  C   UNL     1     171.255 145.977 148.160  1.00  0.00     0.162 A 
ATOM     15  C   UNL     1     169.711 143.755 148.881  1.00  0.00     0.062 A 
ATOM     16  C   UNL     1     170.489 145.316 147.191  1.00  0.00     0.200 A 
ATOM     17  C   UNL     1     169.718 144.199 147.551  1.00  0.00     0.162 A 
BRANCH  14  18
ATOM     18  O   UNL     1     172.029 147.076 147.795  1.00  0.00    -0.504 OA
ATOM     19  H   UNL     1     171.687 148.024 147.898  1.00  0.00     0.293 HD
ENDBRANCH  14  18
BRANCH  16  20
ATOM     20  O   UNL     1     170.509 145.779 145.875  1.00  0.00    -0.502 OA
ATOM     21  H   UNL     1     169.688 146.165 145.427  1.00  0.00     0.293 HD
ENDBRANCH  16  20
BRANCH  17  22
ATOM     22  O   UNL     1     168.961 143.534 146.588  1.00  0.00    -0.504 OA
ATOM     23  H   UNL     1     169.277 143.449 145.629  1.00  0.00     0.293 HD
ENDBRANCH  17  22
ENDBRANCH   1  12
BRANCH   2  24
ATOM     24  O   UNL     1     172.487 142.640 150.906  1.00  0.00    -0.502 OA
ATOM     25  H   UNL     1     172.344 142.297 149.965  1.00  0.00     0.293 HD
ENDBRANCH   2  24
BRANCH   6  26
ATOM     26  O   UNL     1     170.816 141.562 155.847  1.00  0.00    -0.507 OA
ATOM     27  H   UNL     1     170.702 140.575 155.671  1.00  0.00     0.293 HD
ENDBRANCH   6  26
BRANCH   8  28
ATOM     28  O   UNL     1     167.193 144.663 156.231  1.00  0.00    -0.508 OA
ATOM     29  H   UNL     1     166.374 145.095 155.818  1.00  0.00     0.293 HD
ENDBRANCH   8  28
TORSDOF 7
ENDMDL
