MODEL 1
REMARK VINA RESULT:    -6.633      0.000      0.000
REMARK INTER + INTRA:          -9.196
REMARK INTER:                  -8.379
REMARK INTRA:                  -0.817
REMARK UNBOUND:                -0.817
REMARK SMILES Oc1ccc(CCc2cc(O)cc(O)c2)cc1
REMARK SMILES IDX 6 1 5 2 4 3 3 4 2 5 16 6 17 7 1 8 7 10 8 11 15 12 9 13 13 14
REMARK SMILES IDX 10 15 12 16 14 17 11 19
REMARK H PARENT 1 9 14 18 11 20
REMARK Flexibility Score: inf
ROOT
ATOM      1  C   UNL     1      26.604   6.482  22.851  1.00  0.00     0.040 C 
ENDROOT
BRANCH   1   2
ATOM      2  C   UNL     1      25.354   5.949  23.504  1.00  0.00    -0.047 A 
ATOM      3  C   UNL     1      24.870   6.533  24.686  1.00  0.00     0.007 A 
ATOM      4  C   UNL     1      23.684   6.071  25.265  1.00  0.00     0.046 A 
ATOM      5  C   UNL     1      22.967   5.030  24.667  1.00  0.00     0.115 A 
ATOM      6  C   UNL     1      24.626   4.908  22.902  1.00  0.00     0.007 A 
ATOM      7  C   UNL     1      23.440   4.450  23.482  1.00  0.00     0.046 A 
BRANCH   5   8
ATOM      8  O   UNL     1      21.786   4.582  25.254  1.00  0.00    -0.508 OA
ATOM      9  H   UNL     1      20.896   4.654  24.776  1.00  0.00     0.293 HD
ENDBRANCH   5   8
ENDBRANCH   1   2
BRANCH   1  10
ATOM     10  C   UNL     1      26.407   7.908  22.320  1.00  0.00     0.040 C 
BRANCH  10  11
ATOM     11  C   UNL     1      25.515   7.932  21.104  1.00  0.00    -0.040 A 
ATOM     12  C   UNL     1      24.328   8.683  21.111  1.00  0.00     0.050 A 
ATOM     13  C   UNL     1      25.832   7.154  19.980  1.00  0.00     0.050 A 
ATOM     14  C   UNL     1      23.474   8.667  20.002  1.00  0.00     0.119 A 
ATOM     15  C   UNL     1      24.980   7.137  18.867  1.00  0.00     0.119 A 
ATOM     16  C   UNL     1      23.804   7.896  18.880  1.00  0.00     0.092 A 
BRANCH  14  17
ATOM     17  O   UNL     1      22.301   9.417  20.028  1.00  0.00    -0.508 OA
ATOM     18  H   UNL     1      22.270  10.365  19.669  1.00  0.00     0.293 HD
ENDBRANCH  14  17
BRANCH  15  19
ATOM     19  O   UNL     1      25.290   6.371  17.746  1.00  0.00    -0.508 OA
ATOM     20  H   UNL     1      24.715   6.392  16.913  1.00  0.00     0.293 HD
ENDBRANCH  15  19
ENDBRANCH  10  11
ENDBRANCH   1  10
TORSDOF 6
ENDMDL
MODEL 2
REMARK VINA RESULT:    -6.627      1.552      5.668
REMARK INTER + INTRA:          -9.188
REMARK INTER:                  -8.372
REMARK INTRA:                  -0.816
REMARK UNBOUND:                -0.817
REMARK SMILES Oc1ccc(CCc2cc(O)cc(O)c2)cc1
REMARK SMILES IDX 6 1 5 2 4 3 3 4 2 5 16 6 17 7 1 8 7 10 8 11 15 12 9 13 13 14
REMARK SMILES IDX 10 15 12 16 14 17 11 19
REMARK H PARENT 1 9 14 18 11 20
REMARK Flexibility Score: inf
ROOT
ATOM      1  C   UNL     1      26.678   7.052  22.127  1.00  0.00     0.040 C 
ENDROOT
BRANCH   1   2
ATOM      2  C   UNL     1      26.113   7.144  20.732  1.00  0.00    -0.047 A 
ATOM      3  C   UNL     1      26.736   6.468  19.671  1.00  0.00     0.007 A 
ATOM      4  C   UNL     1      26.185   6.513  18.386  1.00  0.00     0.046 A 
ATOM      5  C   UNL     1      25.004   7.225  18.151  1.00  0.00     0.115 A 
ATOM      6  C   UNL     1      24.923   7.853  20.493  1.00  0.00     0.007 A 
ATOM      7  C   UNL     1      24.374   7.894  19.208  1.00  0.00     0.046 A 
BRANCH   5   8
ATOM      8  O   UNL     1      24.466   7.259  16.867  1.00  0.00    -0.508 OA
ATOM      9  H   UNL     1      25.030   7.511  16.064  1.00  0.00     0.293 HD
ENDBRANCH   5   8
ENDBRANCH   1   2
BRANCH   1  10
ATOM     10  C   UNL     1      26.761   5.600  22.614  1.00  0.00     0.040 C 
BRANCH  10  11
ATOM     11  C   UNL     1      25.392   5.000  22.818  1.00  0.00    -0.040 A 
ATOM     12  C   UNL     1      24.925   3.991  21.960  1.00  0.00     0.050 A 
ATOM     13  C   UNL     1      24.549   5.492  23.828  1.00  0.00     0.050 A 
ATOM     14  C   UNL     1      23.637   3.469  22.118  1.00  0.00     0.119 A 
ATOM     15  C   UNL     1      23.259   4.969  23.989  1.00  0.00     0.119 A 
ATOM     16  C   UNL     1      22.806   3.957  23.135  1.00  0.00     0.092 A 
BRANCH  14  17
ATOM     17  O   UNL     1      23.192   2.469  21.256  1.00  0.00    -0.508 OA
ATOM     18  H   UNL     1      23.656   2.285  20.374  1.00  0.00     0.293 HD
ENDBRANCH  14  17
BRANCH  15  19
ATOM     19  O   UNL     1      22.419   5.448  24.991  1.00  0.00    -0.508 OA
ATOM     20  H   UNL     1      22.451   5.076  25.933  1.00  0.00     0.293 HD
ENDBRANCH  15  19
ENDBRANCH  10  11
ENDBRANCH   1  10
TORSDOF 6
ENDMDL
MODEL 3
REMARK VINA RESULT:    -6.627      0.129      2.039
REMARK INTER + INTRA:          -9.188
REMARK INTER:                  -8.389
REMARK INTRA:                  -0.800
REMARK UNBOUND:                -0.817
REMARK SMILES Oc1ccc(CCc2cc(O)cc(O)c2)cc1
REMARK SMILES IDX 6 1 5 2 4 3 3 4 2 5 16 6 17 7 1 8 7 10 8 11 15 12 9 13 13 14
REMARK SMILES IDX 10 15 12 16 14 17 11 19
REMARK H PARENT 1 9 14 18 11 20
REMARK Flexibility Score: inf
ROOT
ATOM      1  C   UNL     1      26.726   6.480  22.967  1.00  0.00     0.040 C 
ENDROOT
BRANCH   1   2
ATOM      2  C   UNL     1      25.454   5.950  23.580  1.00  0.00    -0.047 A 
ATOM      3  C   UNL     1      24.932   6.537  24.743  1.00  0.00     0.007 A 
ATOM      4  C   UNL     1      23.728   6.077  25.285  1.00  0.00     0.046 A 
ATOM      5  C   UNL     1      23.029   5.035  24.666  1.00  0.00     0.115 A 
ATOM      6  C   UNL     1      24.747   4.907  22.957  1.00  0.00     0.007 A 
ATOM      7  C   UNL     1      23.542   4.451  23.500  1.00  0.00     0.046 A 
BRANCH   5   8
ATOM      8  O   UNL     1      21.830   4.590  25.215  1.00  0.00    -0.508 OA
ATOM      9  H   UNL     1      21.063   4.278  24.630  1.00  0.00     0.293 HD
ENDBRANCH   5   8
ENDBRANCH   1   2
BRANCH   1  10
ATOM     10  C   UNL     1      26.535   7.886  22.385  1.00  0.00     0.040 C 
BRANCH  10  11
ATOM     11  C   UNL     1      25.583   7.882  21.216  1.00  0.00    -0.040 A 
ATOM     12  C   UNL     1      25.892   7.159  20.052  1.00  0.00     0.050 A 
ATOM     13  C   UNL     1      24.411   8.655  21.257  1.00  0.00     0.050 A 
ATOM     14  C   UNL     1      25.033   7.195  18.948  1.00  0.00     0.119 A 
ATOM     15  C   UNL     1      23.548   8.691  20.153  1.00  0.00     0.119 A 
ATOM     16  C   UNL     1      23.860   7.960  19.002  1.00  0.00     0.092 A 
BRANCH  14  17
ATOM     17  O   UNL     1      25.357   6.472  17.803  1.00  0.00    -0.508 OA
ATOM     18  H   UNL     1      25.538   5.475  17.839  1.00  0.00     0.293 HD
ENDBRANCH  14  17
BRANCH  15  19
ATOM     19  O   UNL     1      22.382   9.451  20.189  1.00  0.00    -0.508 OA
ATOM     20  H   UNL     1      21.536   9.103  20.624  1.00  0.00     0.293 HD
ENDBRANCH  15  19
ENDBRANCH  10  11
ENDBRANCH   1  10
TORSDOF 6
ENDMDL
MODEL 4
REMARK VINA RESULT:    -6.626      1.507      5.364
REMARK INTER + INTRA:          -9.187
REMARK INTER:                  -8.389
REMARK INTRA:                  -0.798
REMARK UNBOUND:                -0.817
REMARK SMILES Oc1ccc(CCc2cc(O)cc(O)c2)cc1
REMARK SMILES IDX 6 1 5 2 4 3 3 4 2 5 16 6 17 7 1 8 7 10 8 11 15 12 9 13 13 14
REMARK SMILES IDX 10 15 12 16 14 17 11 19
REMARK H PARENT 1 9 14 18 11 20
REMARK Flexibility Score: inf
ROOT
ATOM      1  C   UNL     1      26.729   7.069  22.093  1.00  0.00     0.040 C 
ENDROOT
BRANCH   1   2
ATOM      2  C   UNL     1      26.141   7.159  20.707  1.00  0.00    -0.047 A 
ATOM      3  C   UNL     1      26.740   6.470  19.640  1.00  0.00     0.007 A 
ATOM      4  C   UNL     1      26.169   6.515  18.364  1.00  0.00     0.046 A 
ATOM      5  C   UNL     1      24.992   7.239  18.144  1.00  0.00     0.115 A 
ATOM      6  C   UNL     1      24.956   7.880  20.483  1.00  0.00     0.007 A 
ATOM      7  C   UNL     1      24.386   7.921  19.208  1.00  0.00     0.046 A 
BRANCH   5   8
ATOM      8  O   UNL     1      24.434   7.272  16.869  1.00  0.00    -0.508 OA
ATOM      9  H   UNL     1      24.951   7.628  16.074  1.00  0.00     0.293 HD
ENDBRANCH   5   8
ENDBRANCH   1   2
BRANCH   1  10
ATOM     10  C   UNL     1      26.736   5.626  22.615  1.00  0.00     0.040 C 
BRANCH  10  11
ATOM     11  C   UNL     1      25.339   5.096  22.816  1.00  0.00    -0.040 A 
ATOM     12  C   UNL     1      24.543   5.576  23.868  1.00  0.00     0.050 A 
ATOM     13  C   UNL     1      24.846   4.072  21.990  1.00  0.00     0.050 A 
ATOM     14  C   UNL     1      23.265   5.050  24.086  1.00  0.00     0.119 A 
ATOM     15  C   UNL     1      23.566   3.545  22.205  1.00  0.00     0.119 A 
ATOM     16  C   UNL     1      22.777   4.036  23.251  1.00  0.00     0.092 A 
BRANCH  14  17
ATOM     17  O   UNL     1      22.491   5.538  25.136  1.00  0.00    -0.508 OA
ATOM     18  H   UNL     1      22.200   6.509  25.172  1.00  0.00     0.293 HD
ENDBRANCH  14  17
BRANCH  15  19
ATOM     19  O   UNL     1      23.069   2.533  21.388  1.00  0.00    -0.508 OA
ATOM     20  H   UNL     1      23.258   2.514  20.393  1.00  0.00     0.293 HD
ENDBRANCH  15  19
ENDBRANCH  10  11
ENDBRANCH   1  10
TORSDOF 6
ENDMDL
MODEL 5
REMARK VINA RESULT:    -6.624      2.224      6.098
REMARK INTER + INTRA:          -9.184
REMARK INTER:                  -8.522
REMARK INTRA:                  -0.662
REMARK UNBOUND:                -0.817
REMARK SMILES Oc1ccc(CCc2cc(O)cc(O)c2)cc1
REMARK SMILES IDX 6 1 5 2 4 3 3 4 2 5 16 6 17 7 1 8 7 10 8 11 15 12 9 13 13 14
REMARK SMILES IDX 10 15 12 16 14 17 11 19
REMARK H PARENT 1 9 14 18 11 20
REMARK Flexibility Score: inf
ROOT
ATOM      1  C   UNL     1      24.709   3.602  20.292  1.00  0.00     0.040 C 
ENDROOT
BRANCH   1   2
ATOM      2  C   UNL     1      24.531   4.793  19.385  1.00  0.00    -0.047 A 
ATOM      3  C   UNL     1      23.389   4.901  18.576  1.00  0.00     0.007 A 
ATOM      4  C   UNL     1      23.200   6.028  17.771  1.00  0.00     0.046 A 
ATOM      5  C   UNL     1      24.143   7.062  17.773  1.00  0.00     0.115 A 
ATOM      6  C   UNL     1      25.473   5.837  19.390  1.00  0.00     0.007 A 
ATOM      7  C   UNL     1      25.280   6.963  18.586  1.00  0.00     0.046 A 
BRANCH   5   8
ATOM      8  O   UNL     1      23.940   8.179  16.968  1.00  0.00    -0.508 OA
ATOM      9  H   UNL     1      23.149   8.797  17.109  1.00  0.00     0.293 HD
ENDBRANCH   5   8
ENDBRANCH   1   2
BRANCH   1  10
ATOM     10  C   UNL     1      25.276   4.006  21.660  1.00  0.00     0.040 C 
BRANCH  10  11
ATOM     11  C   UNL     1      24.181   4.274  22.661  1.00  0.00    -0.040 A 
ATOM     12  C   UNL     1      24.385   5.191  23.705  1.00  0.00     0.050 A 
ATOM     13  C   UNL     1      22.973   3.562  22.595  1.00  0.00     0.050 A 
ATOM     14  C   UNL     1      23.388   5.404  24.665  1.00  0.00     0.119 A 
ATOM     15  C   UNL     1      21.972   3.775  23.553  1.00  0.00     0.119 A 
ATOM     16  C   UNL     1      22.181   4.697  24.584  1.00  0.00     0.092 A 
BRANCH  14  17
ATOM     17  O   UNL     1      23.610   6.316  25.693  1.00  0.00    -0.508 OA
ATOM     18  H   UNL     1      23.228   6.170  26.622  1.00  0.00     0.293 HD
ENDBRANCH  14  17
BRANCH  15  19
ATOM     19  O   UNL     1      20.769   3.075  23.490  1.00  0.00    -0.508 OA
ATOM     20  H   UNL     1      20.459   2.485  24.253  1.00  0.00     0.293 HD
ENDBRANCH  15  19
ENDBRANCH  10  11
ENDBRANCH   1  10
TORSDOF 6
ENDMDL
MODEL 6
REMARK VINA RESULT:    -6.569      2.523      3.998
REMARK INTER + INTRA:          -9.114
REMARK INTER:                  -8.328
REMARK INTRA:                  -0.786
REMARK UNBOUND:                -0.817
REMARK SMILES Oc1ccc(CCc2cc(O)cc(O)c2)cc1
REMARK SMILES IDX 6 1 5 2 4 3 3 4 2 5 16 6 17 7 1 8 7 10 8 11 15 12 9 13 13 14
REMARK SMILES IDX 10 15 12 16 14 17 11 19
REMARK H PARENT 1 9 14 18 11 20
REMARK Flexibility Score: inf
ROOT
ATOM      1  C   UNL     1      26.446   6.874  22.214  1.00  0.00     0.040 C 
ENDROOT
BRANCH   1   2
ATOM      2  C   UNL     1      25.343   7.901  22.268  1.00  0.00    -0.047 A 
ATOM      3  C   UNL     1      25.589   9.223  21.864  1.00  0.00     0.007 A 
ATOM      4  C   UNL     1      24.556  10.165  21.869  1.00  0.00     0.046 A 
ATOM      5  C   UNL     1      23.267   9.794  22.267  1.00  0.00     0.115 A 
ATOM      6  C   UNL     1      24.046   7.531  22.661  1.00  0.00     0.007 A 
ATOM      7  C   UNL     1      23.014   8.474  22.662  1.00  0.00     0.046 A 
BRANCH   5   8
ATOM      8  O   UNL     1      22.247  10.743  22.264  1.00  0.00    -0.508 OA
ATOM      9  H   UNL     1      21.378  10.586  22.760  1.00  0.00     0.293 HD
ENDBRANCH   5   8
ENDBRANCH   1   2
BRANCH   1  10
ATOM     10  C   UNL     1      26.796   6.489  20.770  1.00  0.00     0.040 C 
BRANCH  10  11
ATOM     11  C   UNL     1      25.728   5.627  20.146  1.00  0.00    -0.040 A 
ATOM     12  C   UNL     1      24.997   6.092  19.041  1.00  0.00     0.050 A 
ATOM     13  C   UNL     1      25.412   4.378  20.706  1.00  0.00     0.050 A 
ATOM     14  C   UNL     1      23.971   5.314  18.493  1.00  0.00     0.119 A 
ATOM     15  C   UNL     1      24.386   3.596  20.157  1.00  0.00     0.119 A 
ATOM     16  C   UNL     1      23.670   4.064  19.051  1.00  0.00     0.092 A 
BRANCH  14  17
ATOM     17  O   UNL     1      23.257   5.793  17.398  1.00  0.00    -0.508 OA
ATOM     18  H   UNL     1      23.636   5.752  16.458  1.00  0.00     0.293 HD
ENDBRANCH  14  17
BRANCH  15  19
ATOM     19  O   UNL     1      24.071   2.355  20.705  1.00  0.00    -0.508 OA
ATOM     20  H   UNL     1      24.588   1.519  20.457  1.00  0.00     0.293 HD
ENDBRANCH  15  19
ENDBRANCH  10  11
ENDBRANCH   1  10
TORSDOF 6
ENDMDL
MODEL 7
REMARK VINA RESULT:    -6.532      2.533      4.134
REMARK INTER + INTRA:          -9.068
REMARK INTER:                  -8.317
REMARK INTRA:                  -0.751
REMARK UNBOUND:                -0.817
REMARK SMILES Oc1ccc(CCc2cc(O)cc(O)c2)cc1
REMARK SMILES IDX 6 1 5 2 4 3 3 4 2 5 16 6 17 7 1 8 7 10 8 11 15 12 9 13 13 14
REMARK SMILES IDX 10 15 12 16 14 17 11 19
REMARK H PARENT 1 9 14 18 11 20
REMARK Flexibility Score: inf
ROOT
ATOM      1  C   UNL     1      26.469   6.878  22.228  1.00  0.00     0.040 C 
ENDROOT
BRANCH   1   2
ATOM      2  C   UNL     1      25.359   7.897  22.271  1.00  0.00    -0.047 A 
ATOM      3  C   UNL     1      25.597   9.219  21.861  1.00  0.00     0.007 A 
ATOM      4  C   UNL     1      24.556  10.153  21.856  1.00  0.00     0.046 A 
ATOM      5  C   UNL     1      23.268   9.774  22.249  1.00  0.00     0.115 A 
ATOM      6  C   UNL     1      24.062   7.519  22.660  1.00  0.00     0.007 A 
ATOM      7  C   UNL     1      23.023   8.454  22.651  1.00  0.00     0.046 A 
BRANCH   5   8
ATOM      8  O   UNL     1      22.241  10.715  22.236  1.00  0.00    -0.508 OA
ATOM      9  H   UNL     1      22.156  11.416  22.962  1.00  0.00     0.293 HD
ENDBRANCH   5   8
ENDBRANCH   1   2
BRANCH   1  10
ATOM     10  C   UNL     1      26.785   6.440  20.792  1.00  0.00     0.040 C 
BRANCH  10  11
ATOM     11  C   UNL     1      25.675   5.606  20.205  1.00  0.00    -0.040 A 
ATOM     12  C   UNL     1      25.397   4.330  20.722  1.00  0.00     0.050 A 
ATOM     13  C   UNL     1      24.952   6.072  19.095  1.00  0.00     0.050 A 
ATOM     14  C   UNL     1      24.401   3.535  20.146  1.00  0.00     0.119 A 
ATOM     15  C   UNL     1      23.952   5.279  18.517  1.00  0.00     0.119 A 
ATOM     16  C   UNL     1      23.677   4.013  19.045  1.00  0.00     0.092 A 
BRANCH  14  17
ATOM     17  O   UNL     1      24.141   2.272  20.672  1.00  0.00    -0.508 OA
ATOM     18  H   UNL     1      24.857   1.554  20.704  1.00  0.00     0.293 HD
ENDBRANCH  14  17
BRANCH  15  19
ATOM     19  O   UNL     1      23.228   5.737  17.419  1.00  0.00    -0.508 OA
ATOM     20  H   UNL     1      23.590   5.660  16.476  1.00  0.00     0.293 HD
ENDBRANCH  15  19
ENDBRANCH  10  11
ENDBRANCH   1  10
TORSDOF 6
ENDMDL
MODEL 8
REMARK VINA RESULT:    -6.517      2.476      4.060
REMARK INTER + INTRA:          -9.049
REMARK INTER:                  -8.267
REMARK INTRA:                  -0.782
REMARK UNBOUND:                -0.817
REMARK SMILES Oc1ccc(CCc2cc(O)cc(O)c2)cc1
REMARK SMILES IDX 6 1 5 2 4 3 3 4 2 5 16 6 17 7 1 8 7 10 8 11 15 12 9 13 13 14
REMARK SMILES IDX 10 15 12 16 14 17 11 19
REMARK H PARENT 1 9 14 18 11 20
REMARK Flexibility Score: inf
ROOT
ATOM      1  C   UNL     1      26.769   6.043  22.427  1.00  0.00     0.040 C 
ENDROOT
BRANCH   1   2
ATOM      2  C   UNL     1      26.122   4.867  21.739  1.00  0.00    -0.047 A 
ATOM      3  C   UNL     1      26.225   3.581  22.292  1.00  0.00     0.007 A 
ATOM      4  C   UNL     1      25.585   2.498  21.681  1.00  0.00     0.046 A 
ATOM      5  C   UNL     1      24.831   2.690  20.519  1.00  0.00     0.115 A 
ATOM      6  C   UNL     1      25.358   5.058  20.575  1.00  0.00     0.007 A 
ATOM      7  C   UNL     1      24.718   3.974  19.968  1.00  0.00     0.046 A 
BRANCH   5   8
ATOM      8  O   UNL     1      24.198   1.603  19.922  1.00  0.00    -0.508 OA
ATOM      9  H   UNL     1      24.107   0.715  20.402  1.00  0.00     0.293 HD
ENDBRANCH   5   8
ENDBRANCH   1   2
BRANCH   1  10
ATOM     10  C   UNL     1      26.019   6.438  23.706  1.00  0.00     0.040 C 
BRANCH  10  11
ATOM     11  C   UNL     1      24.711   7.124  23.399  1.00  0.00    -0.040 A 
ATOM     12  C   UNL     1      23.497   6.550  23.809  1.00  0.00     0.050 A 
ATOM     13  C   UNL     1      24.695   8.308  22.644  1.00  0.00     0.050 A 
ATOM     14  C   UNL     1      22.280   7.159  23.481  1.00  0.00     0.119 A 
ATOM     15  C   UNL     1      23.478   8.921  22.316  1.00  0.00     0.119 A 
ATOM     16  C   UNL     1      22.274   8.347  22.737  1.00  0.00     0.092 A 
BRANCH  14  17
ATOM     17  O   UNL     1      21.086   6.574  23.895  1.00  0.00    -0.508 OA
ATOM     18  H   UNL     1      20.944   5.571  23.850  1.00  0.00     0.293 HD
ENDBRANCH  14  17
BRANCH  15  19
ATOM     19  O   UNL     1      23.455  10.098  21.572  1.00  0.00    -0.508 OA
ATOM     20  H   UNL     1      24.300  10.625  21.386  1.00  0.00     0.293 HD
ENDBRANCH  15  19
ENDBRANCH  10  11
ENDBRANCH   1  10
TORSDOF 6
ENDMDL
MODEL 9
REMARK VINA RESULT:    -6.515      1.559      2.777
REMARK INTER + INTRA:          -9.047
REMARK INTER:                  -8.386
REMARK INTRA:                  -0.660
REMARK UNBOUND:                -0.817
REMARK SMILES Oc1ccc(CCc2cc(O)cc(O)c2)cc1
REMARK SMILES IDX 6 1 5 2 4 3 3 4 2 5 16 6 17 7 1 8 7 10 8 11 15 12 9 13 13 14
REMARK SMILES IDX 10 15 12 16 14 17 11 19
REMARK H PARENT 1 9 14 18 11 20
REMARK Flexibility Score: inf
ROOT
ATOM      1  C   UNL     1      23.164   8.767  22.480  1.00  0.00     0.040 C 
ENDROOT
BRANCH   1   2
ATOM      2  C   UNL     1      22.824   7.457  23.144  1.00  0.00    -0.047 A 
ATOM      3  C   UNL     1      23.764   6.818  23.969  1.00  0.00     0.007 A 
ATOM      4  C   UNL     1      23.432   5.627  24.623  1.00  0.00     0.046 A 
ATOM      5  C   UNL     1      22.159   5.069  24.468  1.00  0.00     0.115 A 
ATOM      6  C   UNL     1      21.544   6.897  22.996  1.00  0.00     0.007 A 
ATOM      7  C   UNL     1      21.214   5.708  23.653  1.00  0.00     0.046 A 
BRANCH   5   8
ATOM      8  O   UNL     1      21.842   3.884  25.128  1.00  0.00    -0.508 OA
ATOM      9  H   UNL     1      22.563   3.248  25.448  1.00  0.00     0.293 HD
ENDBRANCH   5   8
ENDBRANCH   1   2
BRANCH   1  10
ATOM     10  C   UNL     1      24.510   8.701  21.746  1.00  0.00     0.040 C 
BRANCH  10  11
ATOM     11  C   UNL     1      24.348   8.226  20.324  1.00  0.00    -0.040 A 
ATOM     12  C   UNL     1      25.373   7.498  19.699  1.00  0.00     0.050 A 
ATOM     13  C   UNL     1      23.198   8.565  19.593  1.00  0.00     0.050 A 
ATOM     14  C   UNL     1      25.246   7.100  18.363  1.00  0.00     0.119 A 
ATOM     15  C   UNL     1      23.067   8.166  18.255  1.00  0.00     0.119 A 
ATOM     16  C   UNL     1      24.090   7.433  17.644  1.00  0.00     0.092 A 
BRANCH  14  17
ATOM     17  O   UNL     1      26.274   6.380  17.761  1.00  0.00    -0.508 OA
ATOM     18  H   UNL     1      26.505   5.437  18.056  1.00  0.00     0.293 HD
ENDBRANCH  14  17
BRANCH  15  19
ATOM     19  O   UNL     1      21.927   8.494  17.526  1.00  0.00    -0.508 OA
ATOM     20  H   UNL     1      21.968   8.672  16.529  1.00  0.00     0.293 HD
ENDBRANCH  15  19
ENDBRANCH  10  11
ENDBRANCH   1  10
TORSDOF 6
ENDMDL
