MODEL 1
REMARK VINA RESULT:    -2.038      0.000      0.000
REMARK INTER + INTRA:          -3.408
REMARK INTER:                  -3.110
REMARK INTRA:                  -0.299
REMARK UNBOUND:                -0.299
REMARK SMILES O=C([O-])CCCCCCCCC(=O)[O-]
REMARK SMILES IDX 7 1 6 2 5 3 4 4 2 5 1 6 3 7 8 8 9 9 10 10 11 11 12 12 13 13
REMARK SMILES IDX 14 14
REMARK H PARENT
REMARK Flexibility Score: inf
ROOT
ATOM      1  C   UNL     1     -27.877   7.894  -0.993  1.00  0.00     0.000 C 
ENDROOT
BRANCH   1   2
ATOM      2  C   UNL     1     -29.284   7.279  -0.887  1.00  0.00     0.000 C 
BRANCH   2   3
ATOM      3  C   UNL     1     -29.820   7.251   0.555  1.00  0.00     0.006 C 
BRANCH   3   4
ATOM      4  C   UNL     1     -31.260   6.727   0.628  1.00  0.00     0.053 C 
BRANCH   4   5
ATOM      5  C   UNL     1     -32.259   7.809   0.354  1.00  0.00     0.041 C 
ATOM      6  O   UNL     1     -32.611   8.061  -0.828  1.00  0.00    -0.550 OA
ATOM      7  O   UNL     1     -32.774   8.562   1.402  1.00  0.00    -0.550 OA
ENDBRANCH   4   5
ENDBRANCH   3   4
ENDBRANCH   2   3
ENDBRANCH   1   2
BRANCH   1   8
ATOM      8  C   UNL     1     -27.371   8.124  -2.429  1.00  0.00     0.000 C 
BRANCH   8   9
ATOM      9  C   UNL     1     -28.509   8.184  -3.463  1.00  0.00     0.000 C 
BRANCH   9  10
ATOM     10  C   UNL     1     -28.018   8.613  -4.855  1.00  0.00     0.006 C 
BRANCH  10  11
ATOM     11  C   UNL     1     -26.731   7.892  -5.277  1.00  0.00     0.053 C 
BRANCH  11  12
ATOM     12  C   UNL     1     -26.082   8.608  -6.418  1.00  0.00     0.041 C 
ATOM     13  O   UNL     1     -24.881   8.370  -6.715  1.00  0.00    -0.550 OA
ATOM     14  O   UNL     1     -26.787   9.574  -7.124  1.00  0.00    -0.550 OA
ENDBRANCH  11  12
ENDBRANCH  10  11
ENDBRANCH   9  10
ENDBRANCH   8   9
ENDBRANCH   1   8
TORSDOF 9
ENDMDL
MODEL 2
REMARK VINA RESULT:    -1.980      0.609      7.457
REMARK INTER + INTRA:          -3.320
REMARK INTER:                  -3.028
REMARK INTRA:                  -0.293
REMARK UNBOUND:                -0.299
REMARK SMILES O=C([O-])CCCCCCCCC(=O)[O-]
REMARK SMILES IDX 7 1 6 2 5 3 4 4 2 5 1 6 3 7 8 8 9 9 10 10 11 11 12 12 13 13
REMARK SMILES IDX 14 14
REMARK H PARENT
REMARK Flexibility Score: inf
ROOT
ATOM      1  C   UNL     1     -28.258   7.879  -2.139  1.00  0.00     0.000 C 
ENDROOT
BRANCH   1   2
ATOM      2  C   UNL     1     -27.220   8.247  -3.215  1.00  0.00     0.000 C 
BRANCH   2   3
ATOM      3  C   UNL     1     -27.847   8.471  -4.602  1.00  0.00     0.006 C 
BRANCH   3   4
ATOM      4  C   UNL     1     -27.071   7.748  -5.711  1.00  0.00     0.053 C 
BRANCH   4   5
ATOM      5  C   UNL     1     -26.215   8.693  -6.497  1.00  0.00     0.041 C 
ATOM      6  O   UNL     1     -26.714   9.739  -6.989  1.00  0.00    -0.550 OA
ATOM      7  O   UNL     1     -24.875   8.400  -6.717  1.00  0.00    -0.550 OA
ENDBRANCH   4   5
ENDBRANCH   3   4
ENDBRANCH   2   3
ENDBRANCH   1   2
BRANCH   1   8
ATOM      8  C   UNL     1     -27.740   7.923  -0.690  1.00  0.00     0.000 C 
BRANCH   8   9
ATOM      9  C   UNL     1     -28.797   7.484   0.338  1.00  0.00     0.000 C 
BRANCH   9  10
ATOM     10  C   UNL     1     -30.098   7.001  -0.324  1.00  0.00     0.006 C 
BRANCH  10  11
ATOM     11  C   UNL     1     -31.274   6.936   0.660  1.00  0.00     0.053 C 
BRANCH  11  12
ATOM     12  C   UNL     1     -32.321   7.936   0.286  1.00  0.00     0.041 C 
ATOM     13  O   UNL     1     -32.848   8.663   1.171  1.00  0.00    -0.550 OA
ATOM     14  O   UNL     1     -32.752   8.033  -1.030  1.00  0.00    -0.550 OA
ENDBRANCH  11  12
ENDBRANCH  10  11
ENDBRANCH   9  10
ENDBRANCH   8   9
ENDBRANCH   1   8
TORSDOF 9
ENDMDL
MODEL 3
REMARK VINA RESULT:    -0.328      1.722      7.464
REMARK INTER + INTRA:          -0.799
REMARK INTER:                  -0.785
REMARK INTRA:                  -0.013
REMARK UNBOUND:                -0.299
REMARK SMILES O=C([O-])CCCCCCCCC(=O)[O-]
REMARK SMILES IDX 7 1 6 2 5 3 4 4 2 5 1 6 3 7 8 8 9 9 10 10 11 11 12 12 13 13
REMARK SMILES IDX 14 14
REMARK H PARENT
REMARK Flexibility Score: inf
ROOT
ATOM      1  C   UNL     1     -28.369   7.865  -2.220  1.00  0.00     0.000 C 
ENDROOT
BRANCH   1   2
ATOM      2  C   UNL     1     -27.293   8.142  -3.285  1.00  0.00     0.000 C 
BRANCH   2   3
ATOM      3  C   UNL     1     -27.842   8.086  -4.722  1.00  0.00     0.006 C 
BRANCH   3   4
ATOM      4  C   UNL     1     -27.162   9.109  -5.641  1.00  0.00     0.053 C 
BRANCH   4   5
ATOM      5  C   UNL     1     -26.076   8.483  -6.461  1.00  0.00     0.041 C 
ATOM      6  O   UNL     1     -24.961   9.057  -6.579  1.00  0.00    -0.550 OA
ATOM      7  O   UNL     1     -26.307   7.285  -7.125  1.00  0.00    -0.550 OA
ENDBRANCH   4   5
ENDBRANCH   3   4
ENDBRANCH   2   3
ENDBRANCH   1   2
BRANCH   1   8
ATOM      8  C   UNL     1     -29.598   7.084  -2.721  1.00  0.00     0.000 C 
BRANCH   8   9
ATOM      9  C   UNL     1     -30.379   6.402  -1.585  1.00  0.00     0.000 C 
BRANCH   9  10
ATOM     10  C   UNL     1     -31.224   7.395  -0.771  1.00  0.00     0.006 C 
BRANCH  10  11
ATOM     11  C   UNL     1     -31.448   6.935   0.675  1.00  0.00     0.053 C 
BRANCH  11  12
ATOM     12  C   UNL     1     -30.241   7.228   1.508  1.00  0.00     0.041 C 
ATOM     13  O   UNL     1     -30.323   7.224   2.765  1.00  0.00    -0.550 OA
ATOM     14  O   UNL     1     -29.037   7.554   0.897  1.00  0.00    -0.550 OA
ENDBRANCH  11  12
ENDBRANCH  10  11
ENDBRANCH   9  10
ENDBRANCH   8   9
ENDBRANCH   1   8
TORSDOF 9
ENDMDL
MODEL 4
REMARK VINA RESULT:     0.357      1.697      2.324
REMARK INTER + INTRA:           0.246
REMARK INTER:                   0.088
REMARK INTRA:                   0.159
REMARK UNBOUND:                -0.299
REMARK SMILES O=C([O-])CCCCCCCCC(=O)[O-]
REMARK SMILES IDX 7 1 6 2 5 3 4 4 2 5 1 6 3 7 8 8 9 9 10 10 11 11 12 12 13 13
REMARK SMILES IDX 14 14
REMARK H PARENT
REMARK Flexibility Score: inf
ROOT
ATOM      1  C   UNL     1     -30.089   6.790  -3.012  1.00  0.00     0.000 C 
ENDROOT
BRANCH   1   2
ATOM      2  C   UNL     1     -30.153   6.483  -1.506  1.00  0.00     0.000 C 
BRANCH   2   3
ATOM      3  C   UNL     1     -31.238   7.293  -0.774  1.00  0.00     0.006 C 
BRANCH   3   4
ATOM      4  C   UNL     1     -31.348   6.908   0.707  1.00  0.00     0.053 C 
BRANCH   4   5
ATOM      5  C   UNL     1     -30.117   7.286   1.473  1.00  0.00     0.041 C 
ATOM      6  O   UNL     1     -30.177   7.470   2.716  1.00  0.00    -0.550 OA
ATOM      7  O   UNL     1     -28.912   7.471   0.806  1.00  0.00    -0.550 OA
ENDBRANCH   4   5
ENDBRANCH   3   4
ENDBRANCH   2   3
ENDBRANCH   1   2
BRANCH   1   8
ATOM      8  C   UNL     1     -29.272   8.040  -3.389  1.00  0.00     0.000 C 
BRANCH   8   9
ATOM      9  C   UNL     1     -27.786   7.923  -3.010  1.00  0.00     0.000 C 
BRANCH   9  10
ATOM     10  C   UNL     1     -26.862   7.924  -4.239  1.00  0.00     0.006 C 
BRANCH  10  11
ATOM     11  C   UNL     1     -27.537   8.514  -5.484  1.00  0.00     0.053 C 
BRANCH  11  12
ATOM     12  C   UNL     1     -26.526   8.752  -6.560  1.00  0.00     0.041 C 
ATOM     13  O   UNL     1     -26.455   9.876  -7.125  1.00  0.00    -0.550 OA
ATOM     14  O   UNL     1     -25.695   7.720  -6.975  1.00  0.00    -0.550 OA
ENDBRANCH  11  12
ENDBRANCH  10  11
ENDBRANCH   9  10
ENDBRANCH   8   9
ENDBRANCH   1   8
TORSDOF 9
ENDMDL
