MODEL 1
REMARK VINA RESULT:    -4.894      0.000      0.000
REMARK INTER + INTRA:          -5.037
REMARK INTER:                  -5.037
REMARK INTRA:                   0.000
REMARK UNBOUND:                 0.000
REMARK SMILES Oc1ccc2[nH]ccc2c1
REMARK SMILES IDX 3 1 4 2 5 3 9 4 8 5 7 6 6 7 10 8 2 9 1 11
REMARK H PARENT 6 10 1 12
REMARK Flexibility Score: inf
ROOT
ATOM      1  C   UNL     1      -3.247   6.971   1.546  1.00  0.00     0.048 A 
ATOM      2  C   UNL     1      -4.646   7.051   1.672  1.00  0.00     0.030 A 
ATOM      3  C   UNL     1      -5.280   6.128   2.501  1.00  0.00     0.046 A 
ATOM      4  C   UNL     1      -4.578   5.167   3.177  1.00  0.00     0.003 A 
ATOM      5  C   UNL     1      -5.486   4.423   3.899  1.00  0.00     0.028 A 
ATOM      6  C   UNL     1      -6.726   4.988   3.613  1.00  0.00     0.083 A 
ATOM      7  N   UNL     1      -6.594   6.029   2.760  1.00  0.00    -0.361 N 
ATOM      8  C   UNL     1      -3.192   5.059   3.076  1.00  0.00     0.056 A 
ATOM      9  C   UNL     1      -2.519   5.979   2.244  1.00  0.00     0.116 A 
ATOM     10  H   UNL     1      -7.361   6.630   2.382  1.00  0.00     0.166 HD
ENDROOT
BRANCH   9  11
ATOM     11  O   UNL     1      -1.134   5.920   2.103  1.00  0.00    -0.508 OA
ATOM     12  H   UNL     1      -0.651   6.463   1.397  1.00  0.00     0.293 HD
ENDBRANCH   9  11
TORSDOF 1
ENDMDL
MODEL 2
REMARK VINA RESULT:    -4.883      1.891      2.557
REMARK INTER + INTRA:          -5.026
REMARK INTER:                  -5.026
REMARK INTRA:                   0.000
REMARK UNBOUND:                 0.000
REMARK SMILES Oc1ccc2[nH]ccc2c1
REMARK SMILES IDX 3 1 4 2 5 3 9 4 8 5 7 6 6 7 10 8 2 9 1 11
REMARK H PARENT 6 10 1 12
REMARK Flexibility Score: inf
ROOT
ATOM      1  C   UNL     1      -2.067   5.819   4.791  1.00  0.00     0.048 A 
ATOM      2  C   UNL     1      -3.047   5.427   5.722  1.00  0.00     0.030 A 
ATOM      3  C   UNL     1      -4.226   4.872   5.231  1.00  0.00     0.046 A 
ATOM      4  C   UNL     1      -4.441   4.707   3.889  1.00  0.00     0.003 A 
ATOM      5  C   UNL     1      -5.687   4.139   3.736  1.00  0.00     0.028 A 
ATOM      6  C   UNL     1      -6.176   3.986   5.031  1.00  0.00     0.083 A 
ATOM      7  N   UNL     1      -5.281   4.435   5.939  1.00  0.00    -0.361 N 
ATOM      8  C   UNL     1      -3.492   5.083   2.940  1.00  0.00     0.056 A 
ATOM      9  C   UNL     1      -2.286   5.650   3.403  1.00  0.00     0.116 A 
ATOM     10  H   UNL     1      -5.391   4.439   6.978  1.00  0.00     0.166 HD
ENDROOT
BRANCH   9  11
ATOM     11  O   UNL     1      -1.300   6.046   2.502  1.00  0.00    -0.508 OA
ATOM     12  H   UNL     1      -0.786   6.910   2.628  1.00  0.00     0.293 HD
ENDBRANCH   9  11
TORSDOF 1
ENDMDL
MODEL 3
REMARK VINA RESULT:    -4.591      2.634      4.095
REMARK INTER + INTRA:          -4.725
REMARK INTER:                  -4.725
REMARK INTRA:                   0.000
REMARK UNBOUND:                 0.000
REMARK SMILES Oc1ccc2[nH]ccc2c1
REMARK SMILES IDX 3 1 4 2 5 3 9 4 8 5 7 6 6 7 10 8 2 9 1 11
REMARK H PARENT 6 10 1 12
REMARK Flexibility Score: inf
ROOT
ATOM      1  C   UNL     1      -6.160   4.759   3.948  1.00  0.00     0.048 A 
ATOM      2  C   UNL     1      -4.779   4.489   3.948  1.00  0.00     0.030 A 
ATOM      3  C   UNL     1      -3.962   5.274   3.138  1.00  0.00     0.046 A 
ATOM      4  C   UNL     1      -4.471   6.280   2.362  1.00  0.00     0.003 A 
ATOM      5  C   UNL     1      -3.416   6.858   1.690  1.00  0.00     0.028 A 
ATOM      6  C   UNL     1      -2.291   6.151   2.106  1.00  0.00     0.083 A 
ATOM      7  N   UNL     1      -2.630   5.185   2.990  1.00  0.00    -0.361 N 
ATOM      8  C   UNL     1      -5.832   6.576   2.339  1.00  0.00     0.056 A 
ATOM      9  C   UNL     1      -6.689   5.799   3.147  1.00  0.00     0.116 A 
ATOM     10  H   UNL     1      -1.985   4.511   3.459  1.00  0.00     0.166 HD
ENDROOT
BRANCH   9  11
ATOM     11  O   UNL     1      -8.059   6.047   3.165  1.00  0.00    -0.508 OA
ATOM     12  H   UNL     1      -8.427   6.991   3.126  1.00  0.00     0.293 HD
ENDBRANCH   9  11
TORSDOF 1
ENDMDL
MODEL 4
REMARK VINA RESULT:    -4.526      0.911      2.443
REMARK INTER + INTRA:          -4.658
REMARK INTER:                  -4.658
REMARK INTRA:                   0.000
REMARK UNBOUND:                 0.000
REMARK SMILES Oc1ccc2[nH]ccc2c1
REMARK SMILES IDX 3 1 4 2 5 3 9 4 8 5 7 6 6 7 10 8 2 9 1 11
REMARK H PARENT 6 10 1 12
REMARK Flexibility Score: inf
ROOT
ATOM      1  C   UNL     1      -3.669   4.867   3.287  1.00  0.00     0.048 A 
ATOM      2  C   UNL     1      -5.029   5.224   3.246  1.00  0.00     0.030 A 
ATOM      3  C   UNL     1      -5.392   6.321   2.468  1.00  0.00     0.046 A 
ATOM      4  C   UNL     1      -4.465   7.039   1.760  1.00  0.00     0.003 A 
ATOM      5  C   UNL     1      -5.138   8.046   1.103  1.00  0.00     0.028 A 
ATOM      6  C   UNL     1      -6.474   7.881   1.458  1.00  0.00     0.083 A 
ATOM      7  N   UNL     1      -6.623   6.826   2.291  1.00  0.00    -0.361 N 
ATOM      8  C   UNL     1      -3.111   6.713   1.778  1.00  0.00     0.056 A 
ATOM      9  C   UNL     1      -2.709   5.607   2.557  1.00  0.00     0.116 A 
ATOM     10  H   UNL     1      -7.516   6.480   2.708  1.00  0.00     0.166 HD
ENDROOT
BRANCH   9  11
ATOM     11  O   UNL     1      -1.369   5.234   2.615  1.00  0.00    -0.508 OA
ATOM     12  H   UNL     1      -0.630   5.872   2.342  1.00  0.00     0.293 HD
ENDBRANCH   9  11
TORSDOF 1
ENDMDL
MODEL 5
REMARK VINA RESULT:    -4.469      2.667      3.593
REMARK INTER + INTRA:          -4.599
REMARK INTER:                  -4.599
REMARK INTRA:                   0.000
REMARK UNBOUND:                 0.000
REMARK SMILES Oc1ccc2[nH]ccc2c1
REMARK SMILES IDX 3 1 4 2 5 3 9 4 8 5 7 6 6 7 10 8 2 9 1 11
REMARK H PARENT 6 10 1 12
REMARK Flexibility Score: inf
ROOT
ATOM      1  C   UNL     1      -6.294   7.231   1.957  1.00  0.00     0.048 A 
ATOM      2  C   UNL     1      -4.974   7.476   1.537  1.00  0.00     0.030 A 
ATOM      3  C   UNL     1      -3.969   6.649   2.033  1.00  0.00     0.046 A 
ATOM      4  C   UNL     1      -4.242   5.627   2.903  1.00  0.00     0.003 A 
ATOM      5  C   UNL     1      -3.047   5.007   3.199  1.00  0.00     0.028 A 
ATOM      6  C   UNL     1      -2.086   5.706   2.475  1.00  0.00     0.083 A 
ATOM      7  N   UNL     1      -2.654   6.707   1.764  1.00  0.00    -0.361 N 
ATOM      8  C   UNL     1      -5.537   5.356   3.338  1.00  0.00     0.056 A 
ATOM      9  C   UNL     1      -6.579   6.176   2.855  1.00  0.00     0.116 A 
ATOM     10  H   UNL     1      -2.167   7.385   1.137  1.00  0.00     0.166 HD
ENDROOT
BRANCH   9  11
ATOM     11  O   UNL     1      -7.895   5.955   3.255  1.00  0.00    -0.508 OA
ATOM     12  H   UNL     1      -8.230   6.259   4.162  1.00  0.00     0.293 HD
ENDBRANCH   9  11
TORSDOF 1
ENDMDL
MODEL 6
REMARK VINA RESULT:    -4.371      3.131      4.456
REMARK INTER + INTRA:          -4.499
REMARK INTER:                  -4.499
REMARK INTRA:                   0.000
REMARK UNBOUND:                 0.000
REMARK SMILES Oc1ccc2[nH]ccc2c1
REMARK SMILES IDX 3 1 4 2 5 3 9 4 8 5 7 6 6 7 10 8 2 9 1 11
REMARK H PARENT 6 10 1 12
REMARK Flexibility Score: inf
ROOT
ATOM      1  C   UNL     1      -4.354   4.689   6.478  1.00  0.00     0.048 A 
ATOM      2  C   UNL     1      -3.128   5.252   6.076  1.00  0.00     0.030 A 
ATOM      3  C   UNL     1      -2.883   5.371   4.709  1.00  0.00     0.046 A 
ATOM      4  C   UNL     1      -3.795   4.957   3.776  1.00  0.00     0.003 A 
ATOM      5  C   UNL     1      -3.257   5.210   2.533  1.00  0.00     0.028 A 
ATOM      6  C   UNL     1      -2.012   5.778   2.786  1.00  0.00     0.083 A 
ATOM      7  N   UNL     1      -1.789   5.874   4.116  1.00  0.00    -0.361 N 
ATOM      8  C   UNL     1      -5.018   4.396   4.139  1.00  0.00     0.056 A 
ATOM      9  C   UNL     1      -5.298   4.261   5.515  1.00  0.00     0.116 A 
ATOM     10  H   UNL     1      -0.938   6.262   4.582  1.00  0.00     0.166 HD
ENDROOT
BRANCH   9  11
ATOM     11  O   UNL     1      -6.504   3.707   5.939  1.00  0.00    -0.508 OA
ATOM     12  H   UNL     1      -6.578   3.213   6.821  1.00  0.00     0.293 HD
ENDBRANCH   9  11
TORSDOF 1
ENDMDL
MODEL 7
REMARK VINA RESULT:    -4.245      2.528      3.596
REMARK INTER + INTRA:          -4.369
REMARK INTER:                  -4.369
REMARK INTRA:                   0.000
REMARK UNBOUND:                 0.000
REMARK SMILES Oc1ccc2[nH]ccc2c1
REMARK SMILES IDX 3 1 4 2 5 3 9 4 8 5 7 6 6 7 10 8 2 9 1 11
REMARK H PARENT 6 10 1 12
REMARK Flexibility Score: inf
ROOT
ATOM      1  C   UNL     1      -6.508   6.221   3.085  1.00  0.00     0.048 A 
ATOM      2  C   UNL     1      -5.573   6.780   2.195  1.00  0.00     0.030 A 
ATOM      3  C   UNL     1      -4.255   6.335   2.270  1.00  0.00     0.046 A 
ATOM      4  C   UNL     1      -3.867   5.385   3.176  1.00  0.00     0.003 A 
ATOM      5  C   UNL     1      -2.519   5.167   2.995  1.00  0.00     0.028 A 
ATOM      6  C   UNL     1      -2.150   6.022   1.960  1.00  0.00     0.083 A 
ATOM      7  N   UNL     1      -3.214   6.732   1.521  1.00  0.00    -0.361 N 
ATOM      8  C   UNL     1      -4.767   4.810   4.072  1.00  0.00     0.056 A 
ATOM      9  C   UNL     1      -6.110   5.239   4.023  1.00  0.00     0.116 A 
ATOM     10  H   UNL     1      -3.220   7.443   0.756  1.00  0.00     0.166 HD
ENDROOT
BRANCH   9  11
ATOM     11  O   UNL     1      -7.055   4.702   4.894  1.00  0.00    -0.508 OA
ATOM     12  H   UNL     1      -7.072   4.953   5.875  1.00  0.00     0.293 HD
ENDBRANCH   9  11
TORSDOF 1
ENDMDL
MODEL 8
REMARK VINA RESULT:    -4.224      1.206      2.043
REMARK INTER + INTRA:          -4.347
REMARK INTER:                  -4.347
REMARK INTRA:                   0.000
REMARK UNBOUND:                 0.000
REMARK SMILES Oc1ccc2[nH]ccc2c1
REMARK SMILES IDX 3 1 4 2 5 3 9 4 8 5 7 6 6 7 10 8 2 9 1 11
REMARK H PARENT 6 10 1 12
REMARK Flexibility Score: inf
ROOT
ATOM      1  C   UNL     1      -2.193   6.048   2.456  1.00  0.00     0.048 A 
ATOM      2  C   UNL     1      -2.917   5.066   3.159  1.00  0.00     0.030 A 
ATOM      3  C   UNL     1      -4.306   5.167   3.173  1.00  0.00     0.046 A 
ATOM      4  C   UNL     1      -4.961   6.183   2.531  1.00  0.00     0.003 A 
ATOM      5  C   UNL     1      -6.311   5.999   2.735  1.00  0.00     0.028 A 
ATOM      6  C   UNL     1      -6.406   4.849   3.513  1.00  0.00     0.083 A 
ATOM      7  N   UNL     1      -5.179   4.345   3.777  1.00  0.00    -0.361 N 
ATOM      8  C   UNL     1      -4.276   7.171   1.826  1.00  0.00     0.056 A 
ATOM      9  C   UNL     1      -2.867   7.099   1.791  1.00  0.00     0.116 A 
ATOM     10  H   UNL     1      -4.960   3.491   4.338  1.00  0.00     0.166 HD
ENDROOT
BRANCH   9  11
ATOM     11  O   UNL     1      -2.128   8.058   1.103  1.00  0.00    -0.508 OA
ATOM     12  H   UNL     1      -2.411   8.388   0.188  1.00  0.00     0.293 HD
ENDBRANCH   9  11
TORSDOF 1
ENDMDL
MODEL 9
REMARK VINA RESULT:    -4.199      2.417      2.932
REMARK INTER + INTRA:          -4.321
REMARK INTER:                  -4.321
REMARK INTRA:                   0.000
REMARK UNBOUND:                 0.000
REMARK SMILES Oc1ccc2[nH]ccc2c1
REMARK SMILES IDX 3 1 4 2 5 3 9 4 8 5 7 6 6 7 10 8 2 9 1 11
REMARK H PARENT 6 10 1 12
REMARK Flexibility Score: inf
ROOT
ATOM      1  C   UNL     1      -3.488   5.134   2.854  1.00  0.00     0.048 A 
ATOM      2  C   UNL     1      -4.543   4.795   3.722  1.00  0.00     0.030 A 
ATOM      3  C   UNL     1      -4.323   4.917   5.092  1.00  0.00     0.046 A 
ATOM      4  C   UNL     1      -3.125   5.351   5.593  1.00  0.00     0.003 A 
ATOM      5  C   UNL     1      -3.231   5.360   6.967  1.00  0.00     0.028 A 
ATOM      6  C   UNL     1      -4.524   4.918   7.234  1.00  0.00     0.083 A 
ATOM      7  N   UNL     1      -5.186   4.649   6.086  1.00  0.00    -0.361 N 
ATOM      8  C   UNL     1      -2.061   5.696   4.763  1.00  0.00     0.056 A 
ATOM      9  C   UNL     1      -2.250   5.583   3.369  1.00  0.00     0.116 A 
ATOM     10  H   UNL     1      -6.168   4.304   5.995  1.00  0.00     0.166 HD
ENDROOT
BRANCH   9  11
ATOM     11  O   UNL     1      -1.222   5.912   2.488  1.00  0.00    -0.508 OA
ATOM     12  H   UNL     1      -0.281   5.558   2.618  1.00  0.00     0.293 HD
ENDBRANCH   9  11
TORSDOF 1
ENDMDL
