MODEL 1
REMARK VINA RESULT:    -3.825      0.000      0.000
REMARK INTER + INTRA:          -9.048
REMARK INTER:                  -6.956
REMARK INTRA:                  -2.093
REMARK UNBOUND:                -2.093
REMARK SMILES CCCCCCCCCCCCCCCC(=O)[O-]
REMARK SMILES IDX 9 1 10 2 11 3 12 4 13 5 14 6 15 7 16 8 17 9 18 10 8 11 7 12
REMARK SMILES IDX 6 13 5 14 4 15 3 16 2 17 1 18
REMARK H PARENT
REMARK Flexibility Score: inf
ROOT
ATOM      1  C   UNL     1       9.724 -25.458  41.027  1.00  0.00     0.000 C 
ENDROOT
BRANCH   1   2
ATOM      2  C   UNL     1      11.033 -26.181  40.686  1.00  0.00     0.000 C 
BRANCH   2   3
ATOM      3  C   UNL     1      11.364 -26.043  39.192  1.00  0.00     0.000 C 
BRANCH   3   4
ATOM      4  C   UNL     1      12.827 -25.635  38.936  1.00  0.00     0.000 C 
BRANCH   4   5
ATOM      5  C   UNL     1      13.467 -24.779  40.044  1.00  0.00     0.000 C 
BRANCH   5   6
ATOM      6  C   UNL     1      14.008 -23.436  39.526  1.00  0.00     0.006 C 
BRANCH   6   7
ATOM      7  C   UNL     1      13.286 -22.972  38.254  1.00  0.00     0.053 C 
BRANCH   7   8
ATOM      8  C   UNL     1      14.254 -22.596  37.174  1.00  0.00     0.041 C 
ATOM      9  O   UNL     1      13.834 -22.148  36.074  1.00  0.00    -0.550 OA
ATOM     10  O   UNL     1      15.618 -22.772  37.370  1.00  0.00    -0.550 OA
ENDBRANCH   7   8
ENDBRANCH   6   7
ENDBRANCH   5   6
ENDBRANCH   4   5
ENDBRANCH   3   4
ENDBRANCH   2   3
ENDBRANCH   1   2
BRANCH   1  11
ATOM     11  C   UNL     1       9.469 -24.295  40.059  1.00  0.00     0.000 C 
BRANCH  11  12
ATOM     12  C   UNL     1       9.495 -22.919  40.751  1.00  0.00    -0.000 C 
BRANCH  12  13
ATOM     13  C   UNL     1      10.899 -22.399  41.115  1.00  0.00    -0.000 C 
BRANCH  13  14
ATOM     14  C   UNL     1      11.279 -22.673  42.581  1.00  0.00    -0.000 C 
BRANCH  14  15
ATOM     15  C   UNL     1      12.735 -22.261  42.892  1.00  0.00    -0.000 C 
BRANCH  15  16
ATOM     16  C   UNL     1      13.168 -20.954  42.206  1.00  0.00    -0.000 C 
BRANCH  16  17
ATOM     17  C   UNL     1      14.317 -20.249  42.936  1.00  0.00    -0.003 C 
ATOM     18  C   UNL     1      14.294 -20.561  44.430  1.00  0.00     0.004 C 
ENDBRANCH  16  17
ENDBRANCH  15  16
ENDBRANCH  14  15
ENDBRANCH  13  14
ENDBRANCH  12  13
ENDBRANCH  11  12
ENDBRANCH   1  11
TORSDOF 14
ENDMDL
MODEL 2
REMARK VINA RESULT:    -3.722      1.578      4.928
REMARK INTER + INTRA:          -8.860
REMARK INTER:                  -6.796
REMARK INTRA:                  -2.065
REMARK UNBOUND:                -2.093
REMARK SMILES CCCCCCCCCCCCCCCC(=O)[O-]
REMARK SMILES IDX 9 1 10 2 11 3 12 4 13 5 14 6 15 7 16 8 17 9 18 10 8 11 7 12
REMARK SMILES IDX 6 13 5 14 4 15 3 16 2 17 1 18
REMARK H PARENT
REMARK Flexibility Score: inf
ROOT
ATOM      1  C   UNL     1       9.903 -22.678  40.683  1.00  0.00     0.000 C 
ENDROOT
BRANCH   1   2
ATOM      2  C   UNL     1      10.842 -22.507  41.884  1.00  0.00     0.000 C 
BRANCH   2   3
ATOM      3  C   UNL     1      12.107 -21.732  41.487  1.00  0.00     0.000 C 
BRANCH   3   4
ATOM      4  C   UNL     1      13.379 -22.600  41.517  1.00  0.00     0.000 C 
BRANCH   4   5
ATOM      5  C   UNL     1      13.606 -23.464  40.264  1.00  0.00     0.000 C 
BRANCH   5   6
ATOM      6  C   UNL     1      13.131 -22.781  38.971  1.00  0.00     0.006 C 
BRANCH   6   7
ATOM      7  C   UNL     1      14.169 -22.885  37.845  1.00  0.00     0.053 C 
BRANCH   7   8
ATOM      8  C   UNL     1      14.195 -21.649  36.999  1.00  0.00     0.041 C 
ATOM      9  O   UNL     1      14.466 -20.533  37.516  1.00  0.00    -0.550 OA
ATOM     10  O   UNL     1      13.885 -21.724  35.647  1.00  0.00    -0.550 OA
ENDBRANCH   7   8
ENDBRANCH   6   7
ENDBRANCH   5   6
ENDBRANCH   4   5
ENDBRANCH   3   4
ENDBRANCH   2   3
ENDBRANCH   1   2
BRANCH   1  11
ATOM     11  C   UNL     1       9.676 -24.163  40.369  1.00  0.00     0.000 C 
BRANCH  11  12
ATOM     12  C   UNL     1      10.436 -25.103  41.324  1.00  0.00    -0.000 C 
BRANCH  12  13
ATOM     13  C   UNL     1      11.226 -26.231  40.636  1.00  0.00    -0.000 C 
BRANCH  13  14
ATOM     14  C   UNL     1      11.136 -26.178  39.100  1.00  0.00    -0.000 C 
BRANCH  14  15
ATOM     15  C   UNL     1      12.492 -26.479  38.425  1.00  0.00    -0.000 C 
BRANCH  15  16
ATOM     16  C   UNL     1      13.326 -27.543  39.161  1.00  0.00    -0.000 C 
BRANCH  16  17
ATOM     17  C   UNL     1      13.762 -28.695  38.248  1.00  0.00    -0.003 C 
ATOM     18  C   UNL     1      12.620 -29.138  37.337  1.00  0.00     0.004 C 
ENDBRANCH  16  17
ENDBRANCH  15  16
ENDBRANCH  14  15
ENDBRANCH  13  14
ENDBRANCH  12  13
ENDBRANCH  11  12
ENDBRANCH   1  11
TORSDOF 14
ENDMDL
MODEL 3
REMARK VINA RESULT:    -3.696      2.740      4.283
REMARK INTER + INTRA:          -8.813
REMARK INTER:                  -6.882
REMARK INTRA:                  -1.931
REMARK UNBOUND:                -2.093
REMARK SMILES CCCCCCCCCCCCCCCC(=O)[O-]
REMARK SMILES IDX 9 1 10 2 11 3 12 4 13 5 14 6 15 7 16 8 17 9 18 10 8 11 7 12
REMARK SMILES IDX 6 13 5 14 4 15 3 16 2 17 1 18
REMARK H PARENT
REMARK Flexibility Score: inf
ROOT
ATOM      1  C   UNL     1      13.651 -25.407  40.561  1.00  0.00     0.000 C 
ENDROOT
BRANCH   1   2
ATOM      2  C   UNL     1      14.921 -25.494  39.707  1.00  0.00     0.000 C 
BRANCH   2   3
ATOM      3  C   UNL     1      15.590 -26.868  39.854  1.00  0.00     0.000 C 
BRANCH   3   4
ATOM      4  C   UNL     1      15.575 -27.688  38.551  1.00  0.00     0.000 C 
BRANCH   4   5
ATOM      5  C   UNL     1      14.743 -28.982  38.607  1.00  0.00     0.000 C 
BRANCH   5   6
ATOM      6  C   UNL     1      13.228 -28.720  38.616  1.00  0.00     0.006 C 
BRANCH   6   7
ATOM      7  C   UNL     1      12.591 -28.953  37.239  1.00  0.00     0.053 C 
BRANCH   7   8
ATOM      8  C   UNL     1      12.150 -27.667  36.609  1.00  0.00     0.041 C 
ATOM      9  O   UNL     1      10.978 -27.549  36.164  1.00  0.00    -0.550 OA
ATOM     10  O   UNL     1      13.044 -26.611  36.483  1.00  0.00    -0.550 OA
ENDBRANCH   7   8
ENDBRANCH   6   7
ENDBRANCH   5   6
ENDBRANCH   4   5
ENDBRANCH   3   4
ENDBRANCH   2   3
ENDBRANCH   1   2
BRANCH   1  11
ATOM     11  C   UNL     1      12.401 -25.286  39.679  1.00  0.00     0.000 C 
BRANCH  11  12
ATOM     12  C   UNL     1      11.192 -26.059  40.239  1.00  0.00    -0.000 C 
BRANCH  12  13
ATOM     13  C   UNL     1      10.304 -25.264  41.213  1.00  0.00    -0.000 C 
BRANCH  13  14
ATOM     14  C   UNL     1       9.251 -24.399  40.496  1.00  0.00    -0.000 C 
BRANCH  14  15
ATOM     15  C   UNL     1       9.591 -22.894  40.560  1.00  0.00    -0.000 C 
BRANCH  15  16
ATOM     16  C   UNL     1      10.627 -22.539  41.642  1.00  0.00    -0.000 C 
BRANCH  16  17
ATOM     17  C   UNL     1      11.882 -21.871  41.070  1.00  0.00    -0.003 C 
ATOM     18  C   UNL     1      13.063 -22.006  42.028  1.00  0.00     0.004 C 
ENDBRANCH  16  17
ENDBRANCH  15  16
ENDBRANCH  14  15
ENDBRANCH  13  14
ENDBRANCH  12  13
ENDBRANCH  11  12
ENDBRANCH   1  11
TORSDOF 14
ENDMDL
MODEL 4
REMARK VINA RESULT:    -3.648      2.172      5.066
REMARK INTER + INTRA:          -8.725
REMARK INTER:                  -6.945
REMARK INTRA:                  -1.781
REMARK UNBOUND:                -2.093
REMARK SMILES CCCCCCCCCCCCCCCC(=O)[O-]
REMARK SMILES IDX 9 1 10 2 11 3 12 4 13 5 14 6 15 7 16 8 17 9 18 10 8 11 7 12
REMARK SMILES IDX 6 13 5 14 4 15 3 16 2 17 1 18
REMARK H PARENT
REMARK Flexibility Score: inf
ROOT
ATOM      1  C   UNL     1       9.831 -22.750  40.491  1.00  0.00     0.000 C 
ENDROOT
BRANCH   1   2
ATOM      2  C   UNL     1      10.623 -22.847  41.801  1.00  0.00     0.000 C 
BRANCH   2   3
ATOM      3  C   UNL     1      11.881 -21.966  41.749  1.00  0.00     0.000 C 
BRANCH   3   4
ATOM      4  C   UNL     1      12.876 -22.401  40.657  1.00  0.00     0.000 C 
BRANCH   4   5
ATOM      5  C   UNL     1      13.878 -23.488  41.087  1.00  0.00     0.000 C 
BRANCH   5   6
ATOM      6  C   UNL     1      13.460 -24.899  40.640  1.00  0.00     0.006 C 
BRANCH   6   7
ATOM      7  C   UNL     1      14.219 -25.358  39.388  1.00  0.00     0.053 C 
BRANCH   7   8
ATOM      8  C   UNL     1      13.338 -25.361  38.177  1.00  0.00     0.041 C 
ATOM      9  O   UNL     1      12.196 -25.891  38.224  1.00  0.00    -0.550 OA
ATOM     10  O   UNL     1      13.791 -24.810  36.985  1.00  0.00    -0.550 OA
ENDBRANCH   7   8
ENDBRANCH   6   7
ENDBRANCH   5   6
ENDBRANCH   4   5
ENDBRANCH   3   4
ENDBRANCH   2   3
ENDBRANCH   1   2
BRANCH   1  11
ATOM     11  C   UNL     1       9.646 -24.135  39.856  1.00  0.00     0.000 C 
BRANCH  11  12
ATOM     12  C   UNL     1       9.722 -25.282  40.881  1.00  0.00    -0.000 C 
BRANCH  12  13
ATOM     13  C   UNL     1       8.376 -25.956  41.207  1.00  0.00    -0.000 C 
BRANCH  13  14
ATOM     14  C   UNL     1       8.369 -27.464  40.898  1.00  0.00    -0.000 C 
BRANCH  14  15
ATOM     15  C   UNL     1       8.744 -28.314  42.131  1.00  0.00    -0.000 C 
BRANCH  15  16
ATOM     16  C   UNL     1       9.907 -29.289  41.880  1.00  0.00    -0.000 C 
BRANCH  16  17
ATOM     17  C   UNL     1      11.281 -28.655  42.126  1.00  0.00    -0.003 C 
ATOM     18  C   UNL     1      11.993 -28.355  40.809  1.00  0.00     0.004 C 
ENDBRANCH  16  17
ENDBRANCH  15  16
ENDBRANCH  14  15
ENDBRANCH  13  14
ENDBRANCH  12  13
ENDBRANCH  11  12
ENDBRANCH   1  11
TORSDOF 14
ENDMDL
MODEL 5
REMARK VINA RESULT:    -3.609      1.641      3.862
REMARK INTER + INTRA:          -8.656
REMARK INTER:                  -6.365
REMARK INTRA:                  -2.291
REMARK UNBOUND:                -2.093
REMARK SMILES CCCCCCCCCCCCCCCC(=O)[O-]
REMARK SMILES IDX 9 1 10 2 11 3 12 4 13 5 14 6 15 7 16 8 17 9 18 10 8 11 7 12
REMARK SMILES IDX 6 13 5 14 4 15 3 16 2 17 1 18
REMARK H PARENT
REMARK Flexibility Score: inf
ROOT
ATOM      1  C   UNL     1      11.236 -21.882  41.734  1.00  0.00     0.000 C 
ENDROOT
BRANCH   1   2
ATOM      2  C   UNL     1      12.263 -22.620  42.601  1.00  0.00     0.000 C 
BRANCH   2   3
ATOM      3  C   UNL     1      13.695 -22.326  42.129  1.00  0.00     0.000 C 
BRANCH   3   4
ATOM      4  C   UNL     1      13.840 -20.937  41.478  1.00  0.00     0.000 C 
BRANCH   4   5
ATOM      5  C   UNL     1      14.486 -20.938  40.081  1.00  0.00     0.000 C 
BRANCH   5   6
ATOM      6  C   UNL     1      13.453 -20.909  38.943  1.00  0.00     0.006 C 
BRANCH   6   7
ATOM      7  C   UNL     1      14.055 -20.401  37.626  1.00  0.00     0.053 C 
BRANCH   7   8
ATOM      8  C   UNL     1      14.502 -21.530  36.749  1.00  0.00     0.041 C 
ATOM      9  O   UNL     1      13.879 -21.793  35.687  1.00  0.00    -0.550 OA
ATOM     10  O   UNL     1      15.585 -22.315  37.123  1.00  0.00    -0.550 OA
ENDBRANCH   7   8
ENDBRANCH   6   7
ENDBRANCH   5   6
ENDBRANCH   4   5
ENDBRANCH   3   4
ENDBRANCH   2   3
ENDBRANCH   1   2
BRANCH   1  11
ATOM     11  C   UNL     1      10.567 -22.839  40.738  1.00  0.00     0.000 C 
BRANCH  11  12
ATOM     12  C   UNL     1      10.822 -24.323  41.065  1.00  0.00    -0.000 C 
BRANCH  12  13
ATOM     13  C   UNL     1      11.541 -25.119  39.961  1.00  0.00    -0.000 C 
BRANCH  13  14
ATOM     14  C   UNL     1      12.484 -24.249  39.109  1.00  0.00    -0.000 C 
BRANCH  14  15
ATOM     15  C   UNL     1      13.920 -24.814  39.068  1.00  0.00    -0.000 C 
BRANCH  15  16
ATOM     16  C   UNL     1      14.331 -25.555  40.353  1.00  0.00    -0.000 C 
BRANCH  16  17
ATOM     17  C   UNL     1      15.833 -25.460  40.642  1.00  0.00    -0.003 C 
ATOM     18  C   UNL     1      16.091 -25.107  42.105  1.00  0.00     0.004 C 
ENDBRANCH  16  17
ENDBRANCH  15  16
ENDBRANCH  14  15
ENDBRANCH  13  14
ENDBRANCH  12  13
ENDBRANCH  11  12
ENDBRANCH   1  11
TORSDOF 14
ENDMDL
MODEL 6
REMARK VINA RESULT:    -3.579      4.309      5.805
REMARK INTER + INTRA:          -8.601
REMARK INTER:                  -6.532
REMARK INTRA:                  -2.069
REMARK UNBOUND:                -2.093
REMARK SMILES CCCCCCCCCCCCCCCC(=O)[O-]
REMARK SMILES IDX 9 1 10 2 11 3 12 4 13 5 14 6 15 7 16 8 17 9 18 10 8 11 7 12
REMARK SMILES IDX 6 13 5 14 4 15 3 16 2 17 1 18
REMARK H PARENT
REMARK Flexibility Score: inf
ROOT
ATOM      1  C   UNL     1      11.371 -28.802  39.212  1.00  0.00     0.000 C 
ENDROOT
BRANCH   1   2
ATOM      2  C   UNL     1      12.498 -29.289  38.294  1.00  0.00     0.000 C 
BRANCH   2   3
ATOM      3  C   UNL     1      13.722 -29.730  39.111  1.00  0.00     0.000 C 
BRANCH   3   4
ATOM      4  C   UNL     1      15.005 -28.965  38.734  1.00  0.00     0.000 C 
BRANCH   4   5
ATOM      5  C   UNL     1      15.375 -27.811  39.683  1.00  0.00     0.000 C 
BRANCH   5   6
ATOM      6  C   UNL     1      15.091 -26.425  39.081  1.00  0.00     0.006 C 
BRANCH   6   7
ATOM      7  C   UNL     1      15.007 -26.465  37.549  1.00  0.00     0.053 C 
BRANCH   7   8
ATOM      8  C   UNL     1      13.674 -25.992  37.055  1.00  0.00     0.041 C 
ATOM      9  O   UNL     1      13.477 -25.827  35.822  1.00  0.00    -0.550 OA
ATOM     10  O   UNL     1      12.660 -25.700  37.959  1.00  0.00    -0.550 OA
ENDBRANCH   7   8
ENDBRANCH   6   7
ENDBRANCH   5   6
ENDBRANCH   4   5
ENDBRANCH   3   4
ENDBRANCH   2   3
ENDBRANCH   1   2
BRANCH   1  11
ATOM     11  C   UNL     1      11.928 -28.320  40.559  1.00  0.00     0.000 C 
BRANCH  11  12
ATOM     12  C   UNL     1      11.235 -28.977  41.767  1.00  0.00    -0.000 C 
BRANCH  12  13
ATOM     13  C   UNL     1      10.224 -30.084  41.415  1.00  0.00    -0.000 C 
BRANCH  13  14
ATOM     14  C   UNL     1       8.807 -29.794  41.944  1.00  0.00    -0.000 C 
BRANCH  14  15
ATOM     15  C   UNL     1       8.607 -28.300  42.283  1.00  0.00    -0.000 C 
BRANCH  15  16
ATOM     16  C   UNL     1       7.943 -27.493  41.153  1.00  0.00    -0.000 C 
BRANCH  16  17
ATOM     17  C   UNL     1       8.520 -26.080  41.010  1.00  0.00    -0.003 C 
ATOM     18  C   UNL     1       9.103 -25.861  39.617  1.00  0.00     0.004 C 
ENDBRANCH  16  17
ENDBRANCH  15  16
ENDBRANCH  14  15
ENDBRANCH  13  14
ENDBRANCH  12  13
ENDBRANCH  11  12
ENDBRANCH   1  11
TORSDOF 14
ENDMDL
MODEL 7
REMARK VINA RESULT:    -3.575      2.996      5.394
REMARK INTER + INTRA:          -8.594
REMARK INTER:                  -6.425
REMARK INTRA:                  -2.169
REMARK UNBOUND:                -2.093
REMARK SMILES CCCCCCCCCCCCCCCC(=O)[O-]
REMARK SMILES IDX 9 1 10 2 11 3 12 4 13 5 14 6 15 7 16 8 17 9 18 10 8 11 7 12
REMARK SMILES IDX 6 13 5 14 4 15 3 16 2 17 1 18
REMARK H PARENT
REMARK Flexibility Score: inf
ROOT
ATOM      1  C   UNL     1      12.186 -22.229  39.869  1.00  0.00     0.000 C 
ENDROOT
BRANCH   1   2
ATOM      2  C   UNL     1      13.257 -23.285  39.568  1.00  0.00     0.000 C 
BRANCH   2   3
ATOM      3  C   UNL     1      13.351 -24.313  40.705  1.00  0.00     0.000 C 
BRANCH   3   4
ATOM      4  C   UNL     1      12.977 -25.740  40.259  1.00  0.00     0.000 C 
BRANCH   4   5
ATOM      5  C   UNL     1      13.024 -25.978  38.739  1.00  0.00     0.000 C 
BRANCH   5   6
ATOM      6  C   UNL     1      12.149 -27.160  38.290  1.00  0.00     0.006 C 
BRANCH   6   7
ATOM      7  C   UNL     1      12.957 -28.226  37.537  1.00  0.00     0.053 C 
BRANCH   7   8
ATOM      8  C   UNL     1      13.894 -28.957  38.449  1.00  0.00     0.041 C 
ATOM      9  O   UNL     1      13.469 -29.467  39.519  1.00  0.00    -0.550 OA
ATOM     10  O   UNL     1      15.245 -29.045  38.134  1.00  0.00    -0.550 OA
ENDBRANCH   7   8
ENDBRANCH   6   7
ENDBRANCH   5   6
ENDBRANCH   4   5
ENDBRANCH   3   4
ENDBRANCH   2   3
ENDBRANCH   1   2
BRANCH   1  11
ATOM     11  C   UNL     1      11.528 -22.487  41.232  1.00  0.00     0.000 C 
BRANCH  11  12
ATOM     12  C   UNL     1      10.052 -22.913  41.116  1.00  0.00    -0.000 C 
BRANCH  12  13
ATOM     13  C   UNL     1       9.628 -23.420  39.725  1.00  0.00    -0.000 C 
BRANCH  13  14
ATOM     14  C   UNL     1       9.424 -24.946  39.678  1.00  0.00    -0.000 C 
BRANCH  14  15
ATOM     15  C   UNL     1       8.814 -25.493  40.987  1.00  0.00    -0.000 C 
BRANCH  15  16
ATOM     16  C   UNL     1       9.757 -26.427  41.766  1.00  0.00    -0.000 C 
BRANCH  16  17
ATOM     17  C   UNL     1       9.284 -27.886  41.768  1.00  0.00    -0.003 C 
ATOM     18  C   UNL     1      10.310 -28.798  41.101  1.00  0.00     0.004 C 
ENDBRANCH  16  17
ENDBRANCH  15  16
ENDBRANCH  14  15
ENDBRANCH  13  14
ENDBRANCH  12  13
ENDBRANCH  11  12
ENDBRANCH   1  11
TORSDOF 14
ENDMDL
MODEL 8
REMARK VINA RESULT:    -3.540      2.984      4.676
REMARK INTER + INTRA:          -8.529
REMARK INTER:                  -6.162
REMARK INTRA:                  -2.367
REMARK UNBOUND:                -2.093
REMARK SMILES CCCCCCCCCCCCCCCC(=O)[O-]
REMARK SMILES IDX 9 1 10 2 11 3 12 4 13 5 14 6 15 7 16 8 17 9 18 10 8 11 7 12
REMARK SMILES IDX 6 13 5 14 4 15 3 16 2 17 1 18
REMARK H PARENT
REMARK Flexibility Score: inf
ROOT
ATOM      1  C   UNL     1      12.791 -28.292  37.755  1.00  0.00     0.000 C 
ENDROOT
BRANCH   1   2
ATOM      2  C   UNL     1      13.606 -29.381  38.462  1.00  0.00     0.000 C 
BRANCH   2   3
ATOM      3  C   UNL     1      15.069 -28.946  38.638  1.00  0.00     0.000 C 
BRANCH   3   4
ATOM      4  C   UNL     1      15.269 -27.970  39.812  1.00  0.00     0.000 C 
BRANCH   4   5
ATOM      5  C   UNL     1      15.600 -26.522  39.405  1.00  0.00     0.000 C 
BRANCH   5   6
ATOM      6  C   UNL     1      14.727 -25.482  40.126  1.00  0.00     0.006 C 
BRANCH   6   7
ATOM      7  C   UNL     1      13.583 -24.971  39.239  1.00  0.00     0.053 C 
BRANCH   7   8
ATOM      8  C   UNL     1      14.081 -24.513  37.902  1.00  0.00     0.041 C 
ATOM      9  O   UNL     1      13.669 -25.067  36.849  1.00  0.00    -0.550 OA
ATOM     10  O   UNL     1      15.026 -23.498  37.822  1.00  0.00    -0.550 OA
ENDBRANCH   7   8
ENDBRANCH   6   7
ENDBRANCH   5   6
ENDBRANCH   4   5
ENDBRANCH   3   4
ENDBRANCH   2   3
ENDBRANCH   1   2
BRANCH   1  11
ATOM     11  C   UNL     1      11.536 -27.931  38.563  1.00  0.00     0.000 C 
BRANCH  11  12
ATOM     12  C   UNL     1      11.596 -28.428  40.020  1.00  0.00    -0.000 C 
BRANCH  12  13
ATOM     13  C   UNL     1      11.491 -27.326  41.090  1.00  0.00    -0.000 C 
BRANCH  13  14
ATOM     14  C   UNL     1      10.107 -27.271  41.762  1.00  0.00    -0.000 C 
BRANCH  14  15
ATOM     15  C   UNL     1       9.351 -25.965  41.433  1.00  0.00    -0.000 C 
BRANCH  15  16
ATOM     16  C   UNL     1      10.276 -24.777  41.116  1.00  0.00    -0.000 C 
BRANCH  16  17
ATOM     17  C   UNL     1      10.027 -24.181  39.726  1.00  0.00    -0.003 C 
ATOM     18  C   UNL     1       9.115 -25.081  38.896  1.00  0.00     0.004 C 
ENDBRANCH  16  17
ENDBRANCH  15  16
ENDBRANCH  14  15
ENDBRANCH  13  14
ENDBRANCH  12  13
ENDBRANCH  11  12
ENDBRANCH   1  11
TORSDOF 14
ENDMDL
MODEL 9
REMARK VINA RESULT:    -3.529      4.365      6.123
REMARK INTER + INTRA:          -8.509
REMARK INTER:                  -6.422
REMARK INTRA:                  -2.087
REMARK UNBOUND:                -2.093
REMARK SMILES CCCCCCCCCCCCCCCC(=O)[O-]
REMARK SMILES IDX 9 1 10 2 11 3 12 4 13 5 14 6 15 7 16 8 17 9 18 10 8 11 7 12
REMARK SMILES IDX 6 13 5 14 4 15 3 16 2 17 1 18
REMARK H PARENT
REMARK Flexibility Score: inf
ROOT
ATOM      1  C   UNL     1      13.925 -26.370  40.535  1.00  0.00     0.000 C 
ENDROOT
BRANCH   1   2
ATOM      2  C   UNL     1      15.333 -26.801  40.107  1.00  0.00     0.000 C 
BRANCH   2   3
ATOM      3  C   UNL     1      15.315 -27.423  38.703  1.00  0.00     0.000 C 
BRANCH   3   4
ATOM      4  C   UNL     1      15.027 -28.936  38.718  1.00  0.00     0.000 C 
BRANCH   4   5
ATOM      5  C   UNL     1      13.614 -29.333  38.253  1.00  0.00     0.000 C 
BRANCH   5   6
ATOM      6  C   UNL     1      12.714 -29.808  39.406  1.00  0.00     0.006 C 
BRANCH   6   7
ATOM      7  C   UNL     1      13.513 -30.094  40.684  1.00  0.00     0.053 C 
BRANCH   7   8
ATOM      8  C   UNL     1      13.578 -31.560  40.981  1.00  0.00     0.041 C 
ATOM      9  O   UNL     1      13.960 -31.963  42.112  1.00  0.00    -0.550 OA
ATOM     10  O   UNL     1      13.249 -32.485  39.997  1.00  0.00    -0.550 OA
ENDBRANCH   7   8
ENDBRANCH   6   7
ENDBRANCH   5   6
ENDBRANCH   4   5
ENDBRANCH   3   4
ENDBRANCH   2   3
ENDBRANCH   1   2
BRANCH   1  11
ATOM     11  C   UNL     1      13.163 -25.737  39.362  1.00  0.00     0.000 C 
BRANCH  11  12
ATOM     12  C   UNL     1      11.685 -26.165  39.306  1.00  0.00    -0.000 C 
BRANCH  12  13
ATOM     13  C   UNL     1      11.071 -26.571  40.658  1.00  0.00    -0.000 C 
BRANCH  13  14
ATOM     14  C   UNL     1      10.272 -25.434  41.321  1.00  0.00    -0.000 C 
BRANCH  14  15
ATOM     15  C   UNL     1       9.438 -24.633  40.297  1.00  0.00    -0.000 C 
BRANCH  15  16
ATOM     16  C   UNL     1       9.628 -23.110  40.401  1.00  0.00    -0.000 C 
BRANCH  16  17
ATOM     17  C   UNL     1      11.102 -22.689  40.377  1.00  0.00    -0.003 C 
ATOM     18  C   UNL     1      11.477 -21.920  41.641  1.00  0.00     0.004 C 
ENDBRANCH  16  17
ENDBRANCH  15  16
ENDBRANCH  14  15
ENDBRANCH  13  14
ENDBRANCH  12  13
ENDBRANCH  11  12
ENDBRANCH   1  11
TORSDOF 14
ENDMDL
