MODEL 1
REMARK VINA RESULT:    -7.153      0.000      0.000
REMARK INTER + INTRA:          -8.700
REMARK INTER:                  -8.617
REMARK INTRA:                  -0.082
REMARK UNBOUND:                -0.082
REMARK SMILES O=c1c(O)c(-c2ccc(O)c(O)c2)oc2cc(O)cc(O)c12
REMARK SMILES IDX 5 1 3 2 2 3 1 4 22 5 20 6 19 7 17 8 16 9 15 10 14 11 6 12
REMARK SMILES IDX 7 13 8 14 9 15 13 16 11 17 10 18 12 20 4 22 21 24 18 26
REMARK H PARENT 10 19 12 21 4 23 21 25 18 27
REMARK Flexibility Score: inf
ROOT
ATOM      1  C   UNL     1      13.750   6.475  48.686  1.00  0.00     0.180 A 
ATOM      2  C   UNL     1      14.631   7.223  47.885  1.00  0.00     0.208 A 
ATOM      3  C   UNL     1      15.749   6.585  47.326  1.00  0.00     0.238 A 
ATOM      4  O   UNL     1      16.492   7.242  46.550  1.00  0.00    -0.285 OA
ATOM      5  C   UNL     1      16.005   5.224  47.618  1.00  0.00     0.111 A 
ATOM      6  C   UNL     1      17.134   4.489  47.141  1.00  0.00     0.134 A 
ATOM      7  C   UNL     1      17.226   3.117  47.408  1.00  0.00     0.093 A 
ATOM      8  C   UNL     1      16.266   2.468  48.188  1.00  0.00     0.123 A 
ATOM      9  C   UNL     1      15.191   3.188  48.703  1.00  0.00     0.094 A 
ATOM     10  C   UNL     1      15.050   4.549  48.422  1.00  0.00     0.146 A 
ATOM     11  O   UNL     1      13.998   5.192  48.915  1.00  0.00    -0.452 OA
ENDROOT
BRANCH   1  12
ATOM     12  C   UNL     1      12.542   7.073  49.300  1.00  0.00     0.025 A 
ATOM     13  C   UNL     1      12.369   7.103  50.695  1.00  0.00     0.016 A 
ATOM     14  C   UNL     1      11.233   7.695  51.252  1.00  0.00     0.051 A 
ATOM     15  C   UNL     1      10.260   8.275  50.427  1.00  0.00     0.157 A 
ATOM     16  C   UNL     1      11.575   7.675  48.479  1.00  0.00     0.062 A 
ATOM     17  C   UNL     1      10.436   8.268  49.033  1.00  0.00     0.158 A 
BRANCH  15  18
ATOM     18  O   UNL     1       9.127   8.862  50.987  1.00  0.00    -0.504 OA
ATOM     19  H   UNL     1       8.991   8.905  51.990  1.00  0.00     0.293 HD
ENDBRANCH  15  18
BRANCH  17  20
ATOM     20  O   UNL     1       9.490   8.843  48.185  1.00  0.00    -0.504 OA
ATOM     21  H   UNL     1       9.215   9.815  48.268  1.00  0.00     0.293 HD
ENDBRANCH  17  20
ENDBRANCH   1  12
BRANCH   2  22
ATOM     22  O   UNL     1      14.403   8.584  47.672  1.00  0.00    -0.502 OA
ATOM     23  H   UNL     1      14.478   9.271  48.412  1.00  0.00     0.293 HD
ENDBRANCH   2  22
BRANCH   6  24
ATOM     24  O   UNL     1      18.194   5.056  46.430  1.00  0.00    -0.507 OA
ATOM     25  H   UNL     1      18.977   4.544  46.052  1.00  0.00     0.293 HD
ENDBRANCH   6  24
BRANCH   8  26
ATOM     26  O   UNL     1      16.375   1.106  48.463  1.00  0.00    -0.508 OA
ATOM     27  H   UNL     1      17.068   0.751  49.112  1.00  0.00     0.293 HD
ENDBRANCH   8  26
TORSDOF 6
ENDMDL
MODEL 2
REMARK VINA RESULT:    -6.979      1.604      7.287
REMARK INTER + INTRA:          -8.489
REMARK INTER:                  -8.664
REMARK INTRA:                   0.175
REMARK UNBOUND:                -0.082
REMARK SMILES O=c1c(O)c(-c2ccc(O)c(O)c2)oc2cc(O)cc(O)c12
REMARK SMILES IDX 5 1 3 2 2 3 1 4 22 5 20 6 19 7 17 8 16 9 15 10 14 11 6 12
REMARK SMILES IDX 7 13 8 14 9 15 13 16 11 17 10 18 12 20 4 22 21 24 18 26
REMARK H PARENT 10 19 12 21 4 23 21 25 18 27
REMARK Flexibility Score: inf
ROOT
ATOM      1  C   UNL     1      12.759   6.443  49.353  1.00  0.00     0.180 A 
ATOM      2  C   UNL     1      12.669   6.538  50.753  1.00  0.00     0.208 A 
ATOM      3  C   UNL     1      11.629   7.292  51.318  1.00  0.00     0.238 A 
ATOM      4  O   UNL     1      11.510   7.311  52.571  1.00  0.00    -0.285 OA
ATOM      5  C   UNL     1      10.726   7.989  50.480  1.00  0.00     0.111 A 
ATOM      6  C   UNL     1       9.662   8.822  50.945  1.00  0.00     0.134 A 
ATOM      7  C   UNL     1       8.766   9.376  50.022  1.00  0.00     0.093 A 
ATOM      8  C   UNL     1       8.933   9.182  48.649  1.00  0.00     0.123 A 
ATOM      9  C   UNL     1      10.000   8.418  48.183  1.00  0.00     0.094 A 
ATOM     10  C   UNL     1      10.888   7.820  49.080  1.00  0.00     0.146 A 
ATOM     11  O   UNL     1      11.878   7.081  48.593  1.00  0.00    -0.452 OA
ENDROOT
BRANCH   1  12
ATOM     12  C   UNL     1      13.819   5.655  48.682  1.00  0.00     0.025 A 
ATOM     13  C   UNL     1      14.294   4.452  49.232  1.00  0.00     0.016 A 
ATOM     14  C   UNL     1      15.276   3.712  48.568  1.00  0.00     0.051 A 
ATOM     15  C   UNL     1      15.788   4.156  47.341  1.00  0.00     0.157 A 
ATOM     16  C   UNL     1      14.318   6.085  47.443  1.00  0.00     0.062 A 
ATOM     17  C   UNL     1      15.303   5.347  46.775  1.00  0.00     0.158 A 
BRANCH  15  18
ATOM     18  O   UNL     1      16.769   3.417  46.684  1.00  0.00    -0.504 OA
ATOM     19  H   UNL     1      17.141   3.706  45.786  1.00  0.00     0.293 HD
ENDBRANCH  15  18
BRANCH  17  20
ATOM     20  O   UNL     1      15.785   5.812  45.553  1.00  0.00    -0.504 OA
ATOM     21  H   UNL     1      15.379   6.614  45.084  1.00  0.00     0.293 HD
ENDBRANCH  17  20
ENDBRANCH   1  12
BRANCH   2  22
ATOM     22  O   UNL     1      13.615   5.905  51.562  1.00  0.00    -0.502 OA
ATOM     23  H   UNL     1      14.104   6.387  52.307  1.00  0.00     0.293 HD
ENDBRANCH   2  22
BRANCH   6  24
ATOM     24  O   UNL     1       9.457   9.153  52.287  1.00  0.00    -0.507 OA
ATOM     25  H   UNL     1       8.572   9.096  52.768  1.00  0.00     0.293 HD
ENDBRANCH   6  24
BRANCH   8  26
ATOM     26  O   UNL     1       8.046   9.752  47.737  1.00  0.00    -0.508 OA
ATOM     27  H   UNL     1       8.003  10.755  47.598  1.00  0.00     0.293 HD
ENDBRANCH   8  26
TORSDOF 6
ENDMDL
MODEL 3
REMARK VINA RESULT:    -6.796      1.185      1.256
REMARK INTER + INTRA:          -8.269
REMARK INTER:                  -8.035
REMARK INTRA:                  -0.234
REMARK UNBOUND:                -0.082
REMARK SMILES O=c1c(O)c(-c2ccc(O)c(O)c2)oc2cc(O)cc(O)c12
REMARK SMILES IDX 5 1 3 2 2 3 1 4 22 5 20 6 19 7 17 8 16 9 15 10 14 11 6 12
REMARK SMILES IDX 7 13 8 14 9 15 13 16 11 17 10 18 12 20 4 22 21 24 18 26
REMARK H PARENT 10 19 12 21 4 23 21 25 18 27
REMARK Flexibility Score: inf
ROOT
ATOM      1  C   UNL     1      14.113   6.812  48.147  1.00  0.00     0.180 A 
ATOM      2  C   UNL     1      14.955   7.115  47.063  1.00  0.00     0.208 A 
ATOM      3  C   UNL     1      15.875   6.150  46.626  1.00  0.00     0.238 A 
ATOM      4  O   UNL     1      16.573   6.400  45.608  1.00  0.00    -0.285 OA
ATOM      5  C   UNL     1      15.983   4.916  47.311  1.00  0.00     0.111 A 
ATOM      6  C   UNL     1      16.912   3.882  46.982  1.00  0.00     0.134 A 
ATOM      7  C   UNL     1      16.855   2.660  47.664  1.00  0.00     0.093 A 
ATOM      8  C   UNL     1      15.945   2.457  48.704  1.00  0.00     0.123 A 
ATOM      9  C   UNL     1      15.072   3.478  49.069  1.00  0.00     0.094 A 
ATOM     10  C   UNL     1      15.079   4.695  48.383  1.00  0.00     0.146 A 
ATOM     11  O   UNL     1      14.214   5.634  48.749  1.00  0.00    -0.452 OA
ENDROOT
BRANCH   1  12
ATOM     12  C   UNL     1      13.108   7.773  48.658  1.00  0.00     0.025 A 
ATOM     13  C   UNL     1      13.491   8.930  49.358  1.00  0.00     0.016 A 
ATOM     14  C   UNL     1      12.526   9.835  49.808  1.00  0.00     0.051 A 
ATOM     15  C   UNL     1      11.167   9.603  49.556  1.00  0.00     0.157 A 
ATOM     16  C   UNL     1      11.747   7.556  48.389  1.00  0.00     0.062 A 
ATOM     17  C   UNL     1      10.777   8.459  48.839  1.00  0.00     0.158 A 
BRANCH  15  18
ATOM     18  O   UNL     1      10.207  10.506  50.009  1.00  0.00    -0.504 OA
ATOM     19  H   UNL     1       9.870  11.262  49.424  1.00  0.00     0.293 HD
ENDBRANCH  15  18
BRANCH  17  20
ATOM     20  O   UNL     1       9.434   8.204  48.565  1.00  0.00    -0.504 OA
ATOM     21  H   UNL     1       9.091   8.088  47.619  1.00  0.00     0.293 HD
ENDBRANCH  17  20
ENDBRANCH   1  12
BRANCH   2  22
ATOM     22  O   UNL     1      14.887   8.368  46.449  1.00  0.00    -0.502 OA
ATOM     23  H   UNL     1      14.012   8.858  46.308  1.00  0.00     0.293 HD
ENDBRANCH   2  22
BRANCH   6  24
ATOM     24  O   UNL     1      17.919   4.011  46.021  1.00  0.00    -0.507 OA
ATOM     25  H   UNL     1      18.909   3.989  46.214  1.00  0.00     0.293 HD
ENDBRANCH   6  24
BRANCH   8  26
ATOM     26  O   UNL     1      15.907   1.243  49.389  1.00  0.00    -0.508 OA
ATOM     27  H   UNL     1      15.049   0.710  49.474  1.00  0.00     0.293 HD
ENDBRANCH   8  26
TORSDOF 6
ENDMDL
MODEL 4
REMARK VINA RESULT:    -6.641      2.100      7.065
REMARK INTER + INTRA:          -8.082
REMARK INTER:                  -7.785
REMARK INTRA:                  -0.297
REMARK UNBOUND:                -0.082
REMARK SMILES O=c1c(O)c(-c2ccc(O)c(O)c2)oc2cc(O)cc(O)c12
REMARK SMILES IDX 5 1 3 2 2 3 1 4 22 5 20 6 19 7 17 8 16 9 15 10 14 11 6 12
REMARK SMILES IDX 7 13 8 14 9 15 13 16 11 17 10 18 12 20 4 22 21 24 18 26
REMARK H PARENT 10 19 12 21 4 23 21 25 18 27
REMARK Flexibility Score: inf
ROOT
ATOM      1  C   UNL     1      13.226   7.617  48.604  1.00  0.00     0.180 A 
ATOM      2  C   UNL     1      13.824   8.765  49.152  1.00  0.00     0.208 A 
ATOM      3  C   UNL     1      13.012   9.853  49.506  1.00  0.00     0.238 A 
ATOM      4  O   UNL     1      13.545  10.847  50.065  1.00  0.00    -0.285 OA
ATOM      5  C   UNL     1      11.619   9.805  49.256  1.00  0.00     0.111 A 
ATOM      6  C   UNL     1      10.706  10.868  49.533  1.00  0.00     0.134 A 
ATOM      7  C   UNL     1       9.333  10.667  49.343  1.00  0.00     0.093 A 
ATOM      8  C   UNL     1       8.847   9.464  48.825  1.00  0.00     0.123 A 
ATOM      9  C   UNL     1       9.734   8.441  48.501  1.00  0.00     0.094 A 
ATOM     10  C   UNL     1      11.105   8.597  48.715  1.00  0.00     0.146 A 
ATOM     11  O   UNL     1      11.913   7.588  48.412  1.00  0.00    -0.452 OA
ENDROOT
BRANCH   1  12
ATOM     12  C   UNL     1      14.014   6.424  48.218  1.00  0.00     0.025 A 
ATOM     13  C   UNL     1      14.061   5.283  49.038  1.00  0.00     0.016 A 
ATOM     14  C   UNL     1      14.791   4.159  48.641  1.00  0.00     0.051 A 
ATOM     15  C   UNL     1      15.472   4.154  47.417  1.00  0.00     0.157 A 
ATOM     16  C   UNL     1      14.680   6.406  46.983  1.00  0.00     0.062 A 
ATOM     17  C   UNL     1      15.412   5.283  46.582  1.00  0.00     0.158 A 
BRANCH  15  18
ATOM     18  O   UNL     1      16.201   3.032  47.026  1.00  0.00    -0.504 OA
ATOM     19  H   UNL     1      15.931   2.097  47.309  1.00  0.00     0.293 HD
ENDBRANCH  15  18
BRANCH  17  20
ATOM     20  O   UNL     1      16.073   5.307  45.355  1.00  0.00    -0.504 OA
ATOM     21  H   UNL     1      16.975   4.866  45.221  1.00  0.00     0.293 HD
ENDBRANCH  17  20
ENDBRANCH   1  12
BRANCH   2  22
ATOM     22  O   UNL     1      15.210   8.823  49.319  1.00  0.00    -0.502 OA
ATOM     23  H   UNL     1      15.858   8.488  48.617  1.00  0.00     0.293 HD
ENDBRANCH   2  22
BRANCH   6  24
ATOM     24  O   UNL     1      11.093  12.139  49.968  1.00  0.00    -0.507 OA
ATOM     25  H   UNL     1      10.651  13.004  49.695  1.00  0.00     0.293 HD
ENDBRANCH   6  24
BRANCH   8  26
ATOM     26  O   UNL     1       7.480   9.278  48.623  1.00  0.00    -0.508 OA
ATOM     27  H   UNL     1       6.892  10.023  48.267  1.00  0.00     0.293 HD
ENDBRANCH   8  26
TORSDOF 6
ENDMDL
MODEL 5
REMARK VINA RESULT:    -6.438      3.254      6.172
REMARK INTER + INTRA:          -7.838
REMARK INTER:                  -7.548
REMARK INTRA:                  -0.289
REMARK UNBOUND:                -0.082
REMARK SMILES O=c1c(O)c(-c2ccc(O)c(O)c2)oc2cc(O)cc(O)c12
REMARK SMILES IDX 5 1 3 2 2 3 1 4 22 5 20 6 19 7 17 8 16 9 15 10 14 11 6 12
REMARK SMILES IDX 7 13 8 14 9 15 13 16 11 17 10 18 12 20 4 22 21 24 18 26
REMARK H PARENT 10 19 12 21 4 23 21 25 18 27
REMARK Flexibility Score: inf
ROOT
ATOM      1  C   UNL     1       9.052   8.910  50.577  1.00  0.00     0.180 A 
ATOM      2  C   UNL     1       9.527   8.434  51.811  1.00  0.00     0.208 A 
ATOM      3  C   UNL     1      10.742   7.733  51.848  1.00  0.00     0.238 A 
ATOM      4  O   UNL     1      11.198   7.376  52.965  1.00  0.00    -0.285 OA
ATOM      5  C   UNL     1      11.439   7.466  50.645  1.00  0.00     0.111 A 
ATOM      6  C   UNL     1      12.658   6.724  50.560  1.00  0.00     0.134 A 
ATOM      7  C   UNL     1      13.314   6.614  49.327  1.00  0.00     0.093 A 
ATOM      8  C   UNL     1      12.763   7.164  48.167  1.00  0.00     0.123 A 
ATOM      9  C   UNL     1      11.549   7.841  48.230  1.00  0.00     0.094 A 
ATOM     10  C   UNL     1      10.889   8.001  49.451  1.00  0.00     0.146 A 
ATOM     11  O   UNL     1       9.744   8.672  49.470  1.00  0.00    -0.452 OA
ENDROOT
BRANCH   1  12
ATOM     12  C   UNL     1       7.786   9.669  50.458  1.00  0.00     0.025 A 
ATOM     13  C   UNL     1       7.706  11.021  50.836  1.00  0.00     0.016 A 
ATOM     14  C   UNL     1       6.507  11.725  50.691  1.00  0.00     0.051 A 
ATOM     15  C   UNL     1       5.376  11.093  50.156  1.00  0.00     0.157 A 
ATOM     16  C   UNL     1       6.656   9.047  49.903  1.00  0.00     0.062 A 
ATOM     17  C   UNL     1       5.454   9.748  49.758  1.00  0.00     0.158 A 
BRANCH  15  18
ATOM     18  O   UNL     1       4.182  11.797  50.016  1.00  0.00    -0.504 OA
ATOM     19  H   UNL     1       4.127  12.793  50.198  1.00  0.00     0.293 HD
ENDBRANCH  15  18
BRANCH  17  20
ATOM     20  O   UNL     1       4.349   9.093  49.215  1.00  0.00    -0.504 OA
ATOM     21  H   UNL     1       3.497   9.586  48.973  1.00  0.00     0.293 HD
ENDBRANCH  17  20
ENDBRANCH   1  12
BRANCH   2  22
ATOM     22  O   UNL     1       8.786   8.641  52.977  1.00  0.00    -0.502 OA
ATOM     23  H   UNL     1       7.785   8.798  52.965  1.00  0.00     0.293 HD
ENDBRANCH   2  22
BRANCH   6  24
ATOM     24  O   UNL     1      13.248   6.061  51.639  1.00  0.00    -0.507 OA
ATOM     25  H   UNL     1      13.886   5.284  51.561  1.00  0.00     0.293 HD
ENDBRANCH   6  24
BRANCH   8  26
ATOM     26  O   UNL     1      13.414   7.034  46.941  1.00  0.00    -0.508 OA
ATOM     27  H   UNL     1      12.938   7.222  46.066  1.00  0.00     0.293 HD
ENDBRANCH   8  26
TORSDOF 6
ENDMDL
MODEL 6
REMARK VINA RESULT:    -6.409      3.313      7.012
REMARK INTER + INTRA:          -7.803
REMARK INTER:                  -7.535
REMARK INTRA:                  -0.268
REMARK UNBOUND:                -0.082
REMARK SMILES O=c1c(O)c(-c2ccc(O)c(O)c2)oc2cc(O)cc(O)c12
REMARK SMILES IDX 5 1 3 2 2 3 1 4 22 5 20 6 19 7 17 8 16 9 15 10 14 11 6 12
REMARK SMILES IDX 7 13 8 14 9 15 13 16 11 17 10 18 12 20 4 22 21 24 18 26
REMARK H PARENT 10 19 12 21 4 23 21 25 18 27
REMARK Flexibility Score: inf
ROOT
ATOM      1  C   UNL     1      17.318   6.395  45.789  1.00  0.00     0.180 A 
ATOM      2  C   UNL     1      16.439   7.189  46.545  1.00  0.00     0.208 A 
ATOM      3  C   UNL     1      15.721   6.598  47.596  1.00  0.00     0.238 A 
ATOM      4  O   UNL     1      14.992   7.330  48.315  1.00  0.00    -0.285 OA
ATOM      5  C   UNL     1      15.847   5.210  47.844  1.00  0.00     0.111 A 
ATOM      6  C   UNL     1      15.133   4.496  48.854  1.00  0.00     0.134 A 
ATOM      7  C   UNL     1      15.419   3.143  49.077  1.00  0.00     0.093 A 
ATOM      8  C   UNL     1      16.347   2.463  48.284  1.00  0.00     0.123 A 
ATOM      9  C   UNL     1      17.008   3.136  47.261  1.00  0.00     0.094 A 
ATOM     10  C   UNL     1      16.773   4.495  47.039  1.00  0.00     0.146 A 
ATOM     11  O   UNL     1      17.441   5.103  46.066  1.00  0.00    -0.452 OA
ENDROOT
BRANCH   1  12
ATOM     12  C   UNL     1      18.121   6.949  44.674  1.00  0.00     0.025 A 
ATOM     13  C   UNL     1      17.748   6.747  43.334  1.00  0.00     0.016 A 
ATOM     14  C   UNL     1      18.506   7.301  42.299  1.00  0.00     0.051 A 
ATOM     15  C   UNL     1      19.639   8.074  42.588  1.00  0.00     0.157 A 
ATOM     16  C   UNL     1      19.244   7.742  44.959  1.00  0.00     0.062 A 
ATOM     17  C   UNL     1      20.007   8.297  43.925  1.00  0.00     0.158 A 
BRANCH  15  18
ATOM     18  O   UNL     1      20.394   8.621  41.553  1.00  0.00    -0.504 OA
ATOM     19  H   UNL     1      20.158   9.515  41.137  1.00  0.00     0.293 HD
ENDBRANCH  15  18
BRANCH  17  20
ATOM     20  O   UNL     1      21.124   9.067  44.246  1.00  0.00    -0.504 OA
ATOM     21  H   UNL     1      21.259   9.461  45.170  1.00  0.00     0.293 HD
ENDBRANCH  17  20
ENDBRANCH   1  12
BRANCH   2  22
ATOM     22  O   UNL     1      16.269   8.541  46.236  1.00  0.00    -0.502 OA
ATOM     23  H   UNL     1      16.306   8.890  45.286  1.00  0.00     0.293 HD
ENDBRANCH   2  22
BRANCH   6  24
ATOM     24  O   UNL     1      14.124   5.055  49.643  1.00  0.00    -0.507 OA
ATOM     25  H   UNL     1      13.660   5.931  49.453  1.00  0.00     0.293 HD
ENDBRANCH   6  24
BRANCH   8  26
ATOM     26  O   UNL     1      16.613   1.112  48.502  1.00  0.00    -0.508 OA
ATOM     27  H   UNL     1      17.459   0.676  48.154  1.00  0.00     0.293 HD
ENDBRANCH   8  26
TORSDOF 6
ENDMDL
MODEL 7
REMARK VINA RESULT:    -6.266      1.720      3.438
REMARK INTER + INTRA:          -7.630
REMARK INTER:                  -7.652
REMARK INTRA:                   0.022
REMARK UNBOUND:                -0.082
REMARK SMILES O=c1c(O)c(-c2ccc(O)c(O)c2)oc2cc(O)cc(O)c12
REMARK SMILES IDX 5 1 3 2 2 3 1 4 22 5 20 6 19 7 17 8 16 9 15 10 14 11 6 12
REMARK SMILES IDX 7 13 8 14 9 15 13 16 11 17 10 18 12 20 4 22 21 24 18 26
REMARK H PARENT 10 19 12 21 4 23 21 25 18 27
REMARK Flexibility Score: inf
ROOT
ATOM      1  C   UNL     1      14.661   6.403  48.159  1.00  0.00     0.180 A 
ATOM      2  C   UNL     1      15.331   5.192  48.402  1.00  0.00     0.208 A 
ATOM      3  C   UNL     1      16.525   4.924  47.715  1.00  0.00     0.238 A 
ATOM      4  O   UNL     1      17.158   3.872  47.992  1.00  0.00    -0.285 OA
ATOM      5  C   UNL     1      17.006   5.844  46.752  1.00  0.00     0.111 A 
ATOM      6  C   UNL     1      18.182   5.655  45.963  1.00  0.00     0.134 A 
ATOM      7  C   UNL     1      18.619   6.682  45.118  1.00  0.00     0.093 A 
ATOM      8  C   UNL     1      17.889   7.866  44.985  1.00  0.00     0.123 A 
ATOM      9  C   UNL     1      16.712   8.037  45.708  1.00  0.00     0.094 A 
ATOM     10  C   UNL     1      16.270   7.047  46.588  1.00  0.00     0.146 A 
ATOM     11  O   UNL     1      15.154   7.262  47.275  1.00  0.00    -0.452 OA
ENDROOT
BRANCH   1  12
ATOM     12  C   UNL     1      13.405   6.764  48.855  1.00  0.00     0.025 A 
ATOM     13  C   UNL     1      13.272   6.620  50.248  1.00  0.00     0.016 A 
ATOM     14  C   UNL     1      12.085   6.991  50.885  1.00  0.00     0.051 A 
ATOM     15  C   UNL     1      11.020   7.521  50.145  1.00  0.00     0.157 A 
ATOM     16  C   UNL     1      12.342   7.315  48.121  1.00  0.00     0.062 A 
ATOM     17  C   UNL     1      11.152   7.686  48.756  1.00  0.00     0.158 A 
BRANCH  15  18
ATOM     18  O   UNL     1       9.837   7.886  50.785  1.00  0.00    -0.504 OA
ATOM     19  H   UNL     1       9.838   8.480  51.606  1.00  0.00     0.293 HD
ENDBRANCH  15  18
BRANCH  17  20
ATOM     20  O   UNL     1      10.113   8.217  47.993  1.00  0.00    -0.504 OA
ATOM     21  H   UNL     1       9.146   7.952  48.141  1.00  0.00     0.293 HD
ENDBRANCH  17  20
ENDBRANCH   1  12
BRANCH   2  22
ATOM     22  O   UNL     1      14.799   4.263  49.299  1.00  0.00    -0.502 OA
ATOM     23  H   UNL     1      15.016   4.275  50.288  1.00  0.00     0.293 HD
ENDBRANCH   2  22
BRANCH   6  24
ATOM     24  O   UNL     1      18.936   4.478  45.952  1.00  0.00    -0.507 OA
ATOM     25  H   UNL     1      18.591   3.572  45.672  1.00  0.00     0.293 HD
ENDBRANCH   6  24
BRANCH   8  26
ATOM     26  O   UNL     1      18.323   8.876  44.128  1.00  0.00    -0.508 OA
ATOM     27  H   UNL     1      17.732   9.230  43.384  1.00  0.00     0.293 HD
ENDBRANCH   8  26
TORSDOF 6
ENDMDL
MODEL 8
REMARK VINA RESULT:    -6.246      1.628      7.163
REMARK INTER + INTRA:          -7.606
REMARK INTER:                  -7.528
REMARK INTRA:                  -0.078
REMARK UNBOUND:                -0.082
REMARK SMILES O=c1c(O)c(-c2ccc(O)c(O)c2)oc2cc(O)cc(O)c12
REMARK SMILES IDX 5 1 3 2 2 3 1 4 22 5 20 6 19 7 17 8 16 9 15 10 14 11 6 12
REMARK SMILES IDX 7 13 8 14 9 15 13 16 11 17 10 18 12 20 4 22 21 24 18 26
REMARK H PARENT 10 19 12 21 4 23 21 25 18 27
REMARK Flexibility Score: inf
ROOT
ATOM      1  C   UNL     1      12.562   6.994  49.140  1.00  0.00     0.180 A 
ATOM      2  C   UNL     1      11.508   7.602  48.438  1.00  0.00     0.208 A 
ATOM      3  C   UNL     1      10.486   8.237  49.161  1.00  0.00     0.238 A 
ATOM      4  O   UNL     1       9.585   8.844  48.525  1.00  0.00    -0.285 OA
ATOM      5  C   UNL     1      10.500   8.209  50.576  1.00  0.00     0.111 A 
ATOM      6  C   UNL     1       9.492   8.781  51.411  1.00  0.00     0.134 A 
ATOM      7  C   UNL     1       9.666   8.785  52.800  1.00  0.00     0.093 A 
ATOM      8  C   UNL     1      10.780   8.181  53.388  1.00  0.00     0.123 A 
ATOM      9  C   UNL     1      11.741   7.572  52.586  1.00  0.00     0.094 A 
ATOM     10  C   UNL     1      11.615   7.585  51.195  1.00  0.00     0.146 A 
ATOM     11  O   UNL     1      12.566   7.012  50.468  1.00  0.00    -0.452 OA
ENDROOT
BRANCH   1  12
ATOM     12  C   UNL     1      13.684   6.316  48.449  1.00  0.00     0.025 A 
ATOM     13  C   UNL     1      14.454   6.981  47.479  1.00  0.00     0.016 A 
ATOM     14  C   UNL     1      15.524   6.329  46.859  1.00  0.00     0.051 A 
ATOM     15  C   UNL     1      15.846   5.010  47.206  1.00  0.00     0.157 A 
ATOM     16  C   UNL     1      14.024   5.002  48.809  1.00  0.00     0.062 A 
ATOM     17  C   UNL     1      15.093   4.346  48.189  1.00  0.00     0.158 A 
BRANCH  15  18
ATOM     18  O   UNL     1      16.911   4.363  46.583  1.00  0.00    -0.504 OA
ATOM     19  H   UNL     1      16.943   3.354  46.497  1.00  0.00     0.293 HD
ENDBRANCH  15  18
BRANCH  17  20
ATOM     20  O   UNL     1      15.392   3.036  48.563  1.00  0.00    -0.504 OA
ATOM     21  H   UNL     1      16.030   2.826  49.322  1.00  0.00     0.293 HD
ENDBRANCH  17  20
ENDBRANCH   1  12
BRANCH   2  22
ATOM     22  O   UNL     1      11.472   7.552  47.043  1.00  0.00    -0.502 OA
ATOM     23  H   UNL     1      12.222   7.152  46.493  1.00  0.00     0.293 HD
ENDBRANCH   2  22
BRANCH   6  24
ATOM     24  O   UNL     1       8.299   9.331  50.933  1.00  0.00    -0.507 OA
ATOM     25  H   UNL     1       7.664   9.897  51.475  1.00  0.00     0.293 HD
ENDBRANCH   6  24
BRANCH   8  26
ATOM     26  O   UNL     1      10.936   8.175  54.773  1.00  0.00    -0.508 OA
ATOM     27  H   UNL     1      11.079   9.032  55.294  1.00  0.00     0.293 HD
ENDBRANCH   8  26
TORSDOF 6
ENDMDL
MODEL 9
REMARK VINA RESULT:    -6.205      1.449      2.178
REMARK INTER + INTRA:          -7.557
REMARK INTER:                  -7.296
REMARK INTRA:                  -0.260
REMARK UNBOUND:                -0.082
REMARK SMILES O=c1c(O)c(-c2ccc(O)c(O)c2)oc2cc(O)cc(O)c12
REMARK SMILES IDX 5 1 3 2 2 3 1 4 22 5 20 6 19 7 17 8 16 9 15 10 14 11 6 12
REMARK SMILES IDX 7 13 8 14 9 15 13 16 11 17 10 18 12 20 4 22 21 24 18 26
REMARK H PARENT 10 19 12 21 4 23 21 25 18 27
REMARK Flexibility Score: inf
ROOT
ATOM      1  C   UNL     1      12.281   8.027  48.893  1.00  0.00     0.180 A 
ATOM      2  C   UNL     1      13.136   8.877  48.170  1.00  0.00     0.208 A 
ATOM      3  C   UNL     1      14.344   8.364  47.673  1.00  0.00     0.238 A 
ATOM      4  O   UNL     1      15.069   9.109  46.963  1.00  0.00    -0.285 OA
ATOM      5  C   UNL     1      14.710   7.025  47.952  1.00  0.00     0.111 A 
ATOM      6  C   UNL     1      15.933   6.413  47.536  1.00  0.00     0.134 A 
ATOM      7  C   UNL     1      16.139   5.049  47.779  1.00  0.00     0.093 A 
ATOM      8  C   UNL     1      15.197   4.291  48.478  1.00  0.00     0.123 A 
ATOM      9  C   UNL     1      14.027   4.891  48.935  1.00  0.00     0.094 A 
ATOM     10  C   UNL     1      13.774   6.240  48.675  1.00  0.00     0.146 A 
ATOM     11  O   UNL     1      12.636   6.767  49.111  1.00  0.00    -0.452 OA
ENDROOT
BRANCH   1  12
ATOM     12  C   UNL     1      10.984   8.491  49.437  1.00  0.00     0.025 A 
ATOM     13  C   UNL     1      10.828   8.789  50.802  1.00  0.00     0.016 A 
ATOM     14  C   UNL     1       9.601   9.250  51.288  1.00  0.00     0.051 A 
ATOM     15  C   UNL     1       8.518   9.429  50.418  1.00  0.00     0.157 A 
ATOM     16  C   UNL     1       9.902   8.693  48.566  1.00  0.00     0.062 A 
ATOM     17  C   UNL     1       8.672   9.153  49.049  1.00  0.00     0.158 A 
BRANCH  15  18
ATOM     18  O   UNL     1       7.296   9.886  50.907  1.00  0.00    -0.504 OA
ATOM     19  H   UNL     1       6.749  10.580  50.411  1.00  0.00     0.293 HD
ENDBRANCH  15  18
BRANCH  17  20
ATOM     20  O   UNL     1       7.616   9.329  48.156  1.00  0.00    -0.504 OA
ATOM     21  H   UNL     1       7.033   8.557  47.853  1.00  0.00     0.293 HD
ENDBRANCH  17  20
ENDBRANCH   1  12
BRANCH   2  22
ATOM     22  O   UNL     1      12.792  10.216  47.971  1.00  0.00    -0.502 OA
ATOM     23  H   UNL     1      13.457  10.971  48.086  1.00  0.00     0.293 HD
ENDBRANCH   2  22
BRANCH   6  24
ATOM     24  O   UNL     1      16.978   7.098  46.910  1.00  0.00    -0.507 OA
ATOM     25  H   UNL     1      17.849   7.351  47.350  1.00  0.00     0.293 HD
ENDBRANCH   6  24
BRANCH   8  26
ATOM     26  O   UNL     1      15.419   2.938  48.730  1.00  0.00    -0.508 OA
ATOM     27  H   UNL     1      16.331   2.517  48.593  1.00  0.00     0.293 HD
ENDBRANCH   8  26
TORSDOF 6
ENDMDL
