MODEL 1
REMARK VINA RESULT:    -4.467      0.000      0.000
REMARK INTER + INTRA:          -8.889
REMARK INTER:                  -7.862
REMARK INTRA:                  -1.027
REMARK UNBOUND:                -1.027
REMARK SMILES CCCCCCC=CCCCCCCCC(=O)[O-]
REMARK SMILES IDX 10 1 11 2 12 3 13 4 14 5 15 6 16 7 17 8 18 9 9 10 8 11 7 12
REMARK SMILES IDX 6 13 5 14 4 15 3 16 2 17 1 18
REMARK H PARENT
REMARK Flexibility Score: inf
ROOT
ATOM      1  C   UNL     1      -1.306 -17.042  -8.065  1.00  0.00     0.004 C 
ENDROOT
BRANCH   1   2
ATOM      2  C   UNL     1      -0.129 -16.161  -8.530  1.00  0.00     0.000 C 
BRANCH   2   3
ATOM      3  C   UNL     1       0.162 -14.931  -7.648  1.00  0.00     0.000 C 
BRANCH   3   4
ATOM      4  C   UNL     1       0.810 -15.245  -6.288  1.00  0.00     0.000 C 
BRANCH   4   5
ATOM      5  C   UNL     1      -0.018 -14.726  -5.100  1.00  0.00     0.006 C 
BRANCH   5   6
ATOM      6  C   UNL     1      -1.049 -13.674  -5.530  1.00  0.00     0.053 C 
BRANCH   6   7
ATOM      7  C   UNL     1      -1.002 -12.459  -4.653  1.00  0.00     0.041 C 
ATOM      8  O   UNL     1      -2.069 -11.897  -4.293  1.00  0.00    -0.550 OA
ATOM      9  O   UNL     1       0.222 -11.929  -4.265  1.00  0.00    -0.550 OA
ENDBRANCH   6   7
ENDBRANCH   5   6
ENDBRANCH   4   5
ENDBRANCH   3   4
ENDBRANCH   2   3
ENDBRANCH   1   2
BRANCH   1  10
ATOM     10  C   UNL     1      -0.902 -18.284  -7.254  1.00  0.00     0.027 C 
BRANCH  10  11
ATOM     11  C   UNL     1       0.523 -18.698  -7.533  1.00  0.00    -0.031 C 
ATOM     12  C   UNL     1       0.898 -19.793  -8.223  1.00  0.00    -0.031 C 
BRANCH  12  13
ATOM     13  C   UNL     1      -0.039 -20.786  -8.866  1.00  0.00     0.027 C 
BRANCH  13  14
ATOM     14  C   UNL     1       0.691 -21.981  -9.498  1.00  0.00     0.004 C 
BRANCH  14  15
ATOM     15  C   UNL     1      -0.283 -22.990 -10.133  1.00  0.00     0.000 C 
BRANCH  15  16
ATOM     16  C   UNL     1      -1.366 -22.308 -10.983  1.00  0.00    -0.000 C 
BRANCH  16  17
ATOM     17  C   UNL     1      -1.165 -22.528 -12.489  1.00  0.00    -0.003 C 
ATOM     18  C   UNL     1      -2.216 -23.480 -13.051  1.00  0.00     0.004 C 
ENDBRANCH  16  17
ENDBRANCH  15  16
ENDBRANCH  14  15
ENDBRANCH  13  14
ENDBRANCH  12  13
ENDBRANCH  10  11
ENDBRANCH   1  10
TORSDOF 13
ENDMDL
MODEL 2
REMARK VINA RESULT:    -4.312     11.929     14.593
REMARK INTER + INTRA:          -8.617
REMARK INTER:                  -6.832
REMARK INTRA:                  -1.785
REMARK UNBOUND:                -1.027
REMARK SMILES CCCCCCC=CCCCCCCCC(=O)[O-]
REMARK SMILES IDX 10 1 11 2 12 3 13 4 14 5 15 6 16 7 17 8 18 9 9 10 8 11 7 12
REMARK SMILES IDX 6 13 5 14 4 15 3 16 2 17 1 18
REMARK H PARENT
REMARK Flexibility Score: inf
ROOT
ATOM      1  C   UNL     1      13.708 -16.711  -7.963  1.00  0.00     0.004 C 
ENDROOT
BRANCH   1   2
ATOM      2  C   UNL     1      13.225 -17.833  -7.021  1.00  0.00     0.000 C 
BRANCH   2   3
ATOM      3  C   UNL     1      11.909 -17.543  -6.273  1.00  0.00     0.000 C 
BRANCH   3   4
ATOM      4  C   UNL     1      10.628 -17.815  -7.083  1.00  0.00     0.000 C 
BRANCH   4   5
ATOM      5  C   UNL     1      10.780 -18.996  -8.058  1.00  0.00     0.006 C 
BRANCH   5   6
ATOM      6  C   UNL     1      10.594 -18.566  -9.519  1.00  0.00     0.053 C 
BRANCH   6   7
ATOM      7  C   UNL     1      11.800 -18.886 -10.350  1.00  0.00     0.041 C 
ATOM      8  O   UNL     1      12.168 -18.098 -11.260  1.00  0.00    -0.550 OA
ATOM      9  O   UNL     1      12.492 -20.072 -10.142  1.00  0.00    -0.550 OA
ENDBRANCH   6   7
ENDBRANCH   5   6
ENDBRANCH   4   5
ENDBRANCH   3   4
ENDBRANCH   2   3
ENDBRANCH   1   2
BRANCH   1  10
ATOM     10  C   UNL     1      14.739 -15.750  -7.348  1.00  0.00     0.027 C 
BRANCH  10  11
ATOM     11  C   UNL     1      14.248 -14.321  -7.354  1.00  0.00    -0.031 C 
ATOM     12  C   UNL     1      13.553 -13.730  -6.362  1.00  0.00    -0.031 C 
BRANCH  12  13
ATOM     13  C   UNL     1      13.165 -14.381  -5.056  1.00  0.00     0.027 C 
BRANCH  13  14
ATOM     14  C   UNL     1      11.742 -14.020  -4.603  1.00  0.00     0.004 C 
BRANCH  14  15
ATOM     15  C   UNL     1      11.448 -14.499  -3.170  1.00  0.00     0.000 C 
BRANCH  15  16
ATOM     16  C   UNL     1      10.691 -15.836  -3.140  1.00  0.00    -0.000 C 
BRANCH  16  17
ATOM     17  C   UNL     1       9.423 -15.820  -4.006  1.00  0.00    -0.003 C 
ATOM     18  C   UNL     1       8.694 -17.159  -3.938  1.00  0.00     0.004 C 
ENDBRANCH  16  17
ENDBRANCH  15  16
ENDBRANCH  14  15
ENDBRANCH  13  14
ENDBRANCH  12  13
ENDBRANCH  10  11
ENDBRANCH   1  10
TORSDOF 13
ENDMDL
MODEL 3
REMARK VINA RESULT:    -4.308      2.163      4.611
REMARK INTER + INTRA:          -8.609
REMARK INTER:                  -6.482
REMARK INTRA:                  -2.128
REMARK UNBOUND:                -1.027
REMARK SMILES CCCCCCC=CCCCCCCCC(=O)[O-]
REMARK SMILES IDX 10 1 11 2 12 3 13 4 14 5 15 6 16 7 17 8 18 9 9 10 8 11 7 12
REMARK SMILES IDX 6 13 5 14 4 15 3 16 2 17 1 18
REMARK H PARENT
REMARK Flexibility Score: inf
ROOT
ATOM      1  C   UNL     1       0.052 -18.933  -7.378  1.00  0.00     0.004 C 
ENDROOT
BRANCH   1   2
ATOM      2  C   UNL     1       0.808 -17.617  -7.659  1.00  0.00     0.000 C 
BRANCH   2   3
ATOM      3  C   UNL     1      -0.002 -16.539  -8.406  1.00  0.00     0.000 C 
BRANCH   3   4
ATOM      4  C   UNL     1       0.386 -15.088  -8.072  1.00  0.00     0.000 C 
BRANCH   4   5
ATOM      5  C   UNL     1      -0.633 -14.396  -7.150  1.00  0.00     0.006 C 
BRANCH   5   6
ATOM      6  C   UNL     1      -0.153 -14.344  -5.694  1.00  0.00     0.053 C 
BRANCH   6   7
ATOM      7  C   UNL     1      -0.769 -13.199  -4.947  1.00  0.00     0.041 C 
ATOM      8  O   UNL     1      -0.079 -12.185  -4.663  1.00  0.00    -0.550 OA
ATOM      9  O   UNL     1      -2.093 -13.270  -4.534  1.00  0.00    -0.550 OA
ENDBRANCH   6   7
ENDBRANCH   5   6
ENDBRANCH   4   5
ENDBRANCH   3   4
ENDBRANCH   2   3
ENDBRANCH   1   2
BRANCH   1  10
ATOM     10  C   UNL     1      -0.122 -19.851  -8.599  1.00  0.00     0.027 C 
BRANCH  10  11
ATOM     11  C   UNL     1      -1.516 -20.427  -8.675  1.00  0.00    -0.031 C 
ATOM     12  C   UNL     1      -2.568 -19.847  -9.285  1.00  0.00    -0.031 C 
BRANCH  12  13
ATOM     13  C   UNL     1      -2.535 -18.533 -10.029  1.00  0.00     0.027 C 
BRANCH  13  14
ATOM     14  C   UNL     1      -3.723 -17.619  -9.690  1.00  0.00     0.004 C 
BRANCH  14  15
ATOM     15  C   UNL     1      -3.364 -16.566  -8.628  1.00  0.00     0.000 C 
BRANCH  15  16
ATOM     16  C   UNL     1      -4.275 -16.640  -7.392  1.00  0.00    -0.000 C 
BRANCH  16  17
ATOM     17  C   UNL     1      -3.790 -17.667  -6.358  1.00  0.00    -0.003 C 
ATOM     18  C   UNL     1      -2.590 -17.138  -5.579  1.00  0.00     0.004 C 
ENDBRANCH  16  17
ENDBRANCH  15  16
ENDBRANCH  14  15
ENDBRANCH  13  14
ENDBRANCH  12  13
ENDBRANCH  10  11
ENDBRANCH   1  10
TORSDOF 13
ENDMDL
MODEL 4
REMARK VINA RESULT:    -4.265      2.869      4.153
REMARK INTER + INTRA:          -8.533
REMARK INTER:                  -5.981
REMARK INTRA:                  -2.552
REMARK UNBOUND:                -1.027
REMARK SMILES CCCCCCC=CCCCCCCCC(=O)[O-]
REMARK SMILES IDX 10 1 11 2 12 3 13 4 14 5 15 6 16 7 17 8 18 9 9 10 8 11 7 12
REMARK SMILES IDX 6 13 5 14 4 15 3 16 2 17 1 18
REMARK H PARENT
REMARK Flexibility Score: inf
ROOT
ATOM      1  C   UNL     1       0.102 -17.869  -7.759  1.00  0.00     0.004 C 
ENDROOT
BRANCH   1   2
ATOM      2  C   UNL     1      -0.296 -16.614  -8.563  1.00  0.00     0.000 C 
BRANCH   2   3
ATOM      3  C   UNL     1      -0.288 -15.293  -7.768  1.00  0.00     0.000 C 
BRANCH   3   4
ATOM      4  C   UNL     1       0.779 -15.208  -6.662  1.00  0.00     0.000 C 
BRANCH   4   5
ATOM      5  C   UNL     1       0.215 -14.680  -5.331  1.00  0.00     0.006 C 
BRANCH   5   6
ATOM      6  C   UNL     1      -1.003 -13.772  -5.539  1.00  0.00     0.053 C 
BRANCH   6   7
ATOM      7  C   UNL     1      -0.932 -12.542  -4.687  1.00  0.00     0.041 C 
ATOM      8  O   UNL     1      -1.986 -11.935  -4.360  1.00  0.00    -0.550 OA
ATOM      9  O   UNL     1       0.302 -12.045  -4.284  1.00  0.00    -0.550 OA
ENDBRANCH   6   7
ENDBRANCH   5   6
ENDBRANCH   4   5
ENDBRANCH   3   4
ENDBRANCH   2   3
ENDBRANCH   1   2
BRANCH   1  10
ATOM     10  C   UNL     1      -1.077 -18.646  -7.148  1.00  0.00     0.027 C 
BRANCH  10  11
ATOM     11  C   UNL     1      -1.190 -18.415  -5.660  1.00  0.00    -0.031 C 
ATOM     12  C   UNL     1      -2.066 -17.583  -5.063  1.00  0.00    -0.031 C 
BRANCH  12  13
ATOM     13  C   UNL     1      -3.111 -16.755  -5.771  1.00  0.00     0.027 C 
BRANCH  13  14
ATOM     14  C   UNL     1      -4.446 -17.494  -5.950  1.00  0.00     0.004 C 
BRANCH  14  15
ATOM     15  C   UNL     1      -4.820 -17.671  -7.432  1.00  0.00     0.000 C 
BRANCH  15  16
ATOM     16  C   UNL     1      -4.048 -16.714  -8.354  1.00  0.00    -0.000 C 
BRANCH  16  17
ATOM     17  C   UNL     1      -4.058 -17.166  -9.821  1.00  0.00    -0.003 C 
ATOM     18  C   UNL     1      -3.097 -18.330 -10.043  1.00  0.00     0.004 C 
ENDBRANCH  16  17
ENDBRANCH  15  16
ENDBRANCH  14  15
ENDBRANCH  13  14
ENDBRANCH  12  13
ENDBRANCH  10  11
ENDBRANCH   1  10
TORSDOF 13
ENDMDL
MODEL 5
REMARK VINA RESULT:    -4.232      3.217      4.812
REMARK INTER + INTRA:          -8.475
REMARK INTER:                  -6.526
REMARK INTRA:                  -1.949
REMARK UNBOUND:                -1.027
REMARK SMILES CCCCCCC=CCCCCCCCC(=O)[O-]
REMARK SMILES IDX 10 1 11 2 12 3 13 4 14 5 15 6 16 7 17 8 18 9 9 10 8 11 7 12
REMARK SMILES IDX 6 13 5 14 4 15 3 16 2 17 1 18
REMARK H PARENT
REMARK Flexibility Score: inf
ROOT
ATOM      1  C   UNL     1      -0.852 -14.236  -6.286  1.00  0.00     0.004 C 
ENDROOT
BRANCH   1   2
ATOM      2  C   UNL     1      -1.407 -14.929  -5.025  1.00  0.00     0.000 C 
BRANCH   2   3
ATOM      3  C   UNL     1      -1.953 -16.354  -5.242  1.00  0.00     0.000 C 
BRANCH   3   4
ATOM      4  C   UNL     1      -3.352 -16.423  -5.881  1.00  0.00     0.000 C 
BRANCH   4   5
ATOM      5  C   UNL     1      -3.375 -17.256  -7.174  1.00  0.00     0.006 C 
BRANCH   5   6
ATOM      6  C   UNL     1      -3.401 -16.375  -8.429  1.00  0.00     0.053 C 
BRANCH   6   7
ATOM      7  C   UNL     1      -3.670 -17.177  -9.666  1.00  0.00     0.041 C 
ATOM      8  O   UNL     1      -2.883 -18.101 -10.004  1.00  0.00    -0.550 OA
ATOM      9  O   UNL     1      -4.768 -16.880 -10.463  1.00  0.00    -0.550 OA
ENDBRANCH   6   7
ENDBRANCH   5   6
ENDBRANCH   4   5
ENDBRANCH   3   4
ENDBRANCH   2   3
ENDBRANCH   1   2
BRANCH   1  10
ATOM     10  C   UNL     1       0.383 -14.914  -6.904  1.00  0.00     0.027 C 
BRANCH  10  11
ATOM     11  C   UNL     1       0.075 -15.521  -8.252  1.00  0.00    -0.031 C 
ATOM     12  C   UNL     1       0.224 -16.821  -8.576  1.00  0.00    -0.031 C 
BRANCH  12  13
ATOM     13  C   UNL     1       0.697 -17.908  -7.641  1.00  0.00     0.027 C 
BRANCH  13  14
ATOM     14  C   UNL     1      -0.294 -19.076  -7.525  1.00  0.00     0.004 C 
BRANCH  14  15
ATOM     15  C   UNL     1      -0.248 -20.003  -8.752  1.00  0.00     0.000 C 
BRANCH  15  16
ATOM     16  C   UNL     1       0.719 -21.183  -8.564  1.00  0.00    -0.000 C 
BRANCH  16  17
ATOM     17  C   UNL     1       0.693 -22.165  -9.744  1.00  0.00    -0.003 C 
ATOM     18  C   UNL     1      -0.733 -22.399 -10.234  1.00  0.00     0.004 C 
ENDBRANCH  16  17
ENDBRANCH  15  16
ENDBRANCH  14  15
ENDBRANCH  13  14
ENDBRANCH  12  13
ENDBRANCH  10  11
ENDBRANCH   1  10
TORSDOF 13
ENDMDL
MODEL 6
REMARK VINA RESULT:    -4.231      4.254      8.289
REMARK INTER + INTRA:          -8.473
REMARK INTER:                  -6.531
REMARK INTRA:                  -1.942
REMARK UNBOUND:                -1.027
REMARK SMILES CCCCCCC=CCCCCCCCC(=O)[O-]
REMARK SMILES IDX 10 1 11 2 12 3 13 4 14 5 15 6 16 7 17 8 18 9 9 10 8 11 7 12
REMARK SMILES IDX 6 13 5 14 4 15 3 16 2 17 1 18
REMARK H PARENT
REMARK Flexibility Score: inf
ROOT
ATOM      1  C   UNL     1       0.025 -16.559  -8.626  1.00  0.00     0.004 C 
ENDROOT
BRANCH   1   2
ATOM      2  C   UNL     1       0.629 -17.653  -7.722  1.00  0.00     0.000 C 
BRANCH   2   3
ATOM      3  C   UNL     1      -0.373 -18.696  -7.191  1.00  0.00     0.000 C 
BRANCH   3   4
ATOM      4  C   UNL     1      -1.616 -18.109  -6.499  1.00  0.00     0.000 C 
BRANCH   4   5
ATOM      5  C   UNL     1      -2.928 -18.497  -7.202  1.00  0.00     0.006 C 
BRANCH   5   6
ATOM      6  C   UNL     1      -3.587 -17.299  -7.897  1.00  0.00     0.053 C 
BRANCH   6   7
ATOM      7  C   UNL     1      -3.553 -17.436  -9.390  1.00  0.00     0.041 C 
ATOM      8  O   UNL     1      -4.329 -16.750 -10.106  1.00  0.00    -0.550 OA
ATOM      9  O   UNL     1      -2.691 -18.348  -9.985  1.00  0.00    -0.550 OA
ENDBRANCH   6   7
ENDBRANCH   5   6
ENDBRANCH   4   5
ENDBRANCH   3   4
ENDBRANCH   2   3
ENDBRANCH   1   2
BRANCH   1  10
ATOM     10  C   UNL     1       0.221 -15.120  -8.118  1.00  0.00     0.027 C 
BRANCH  10  11
ATOM     11  C   UNL     1      -1.033 -14.575  -7.477  1.00  0.00    -0.031 C 
ATOM     12  C   UNL     1      -1.225 -14.407  -6.154  1.00  0.00    -0.031 C 
BRANCH  12  13
ATOM     13  C   UNL     1      -0.209 -14.706  -5.077  1.00  0.00     0.027 C 
BRANCH  13  14
ATOM     14  C   UNL     1      -0.312 -13.758  -3.873  1.00  0.00     0.004 C 
BRANCH  14  15
ATOM     15  C   UNL     1      -0.518 -12.294  -4.300  1.00  0.00     0.000 C 
BRANCH  15  16
ATOM     16  C   UNL     1      -1.485 -11.540  -3.373  1.00  0.00    -0.000 C 
BRANCH  16  17
ATOM     17  C   UNL     1      -2.910 -11.460  -3.940  1.00  0.00    -0.003 C 
ATOM     18  C   UNL     1      -3.730 -12.682  -3.537  1.00  0.00     0.004 C 
ENDBRANCH  16  17
ENDBRANCH  15  16
ENDBRANCH  14  15
ENDBRANCH  13  14
ENDBRANCH  12  13
ENDBRANCH  10  11
ENDBRANCH   1  10
TORSDOF 13
ENDMDL
MODEL 7
REMARK VINA RESULT:    -4.219      2.313      3.826
REMARK INTER + INTRA:          -8.453
REMARK INTER:                  -5.956
REMARK INTRA:                  -2.497
REMARK UNBOUND:                -1.027
REMARK SMILES CCCCCCC=CCCCCCCCC(=O)[O-]
REMARK SMILES IDX 10 1 11 2 12 3 13 4 14 5 15 6 16 7 17 8 18 9 9 10 8 11 7 12
REMARK SMILES IDX 6 13 5 14 4 15 3 16 2 17 1 18
REMARK H PARENT
REMARK Flexibility Score: inf
ROOT
ATOM      1  C   UNL     1      -2.123 -14.758  -7.743  1.00  0.00     0.004 C 
ENDROOT
BRANCH   1   2
ATOM      2  C   UNL     1      -3.108 -15.903  -7.430  1.00  0.00     0.000 C 
BRANCH   2   3
ATOM      3  C   UNL     1      -3.020 -16.477  -6.003  1.00  0.00     0.000 C 
BRANCH   3   4
ATOM      4  C   UNL     1      -3.490 -15.523  -4.889  1.00  0.00     0.000 C 
BRANCH   4   5
ATOM      5  C   UNL     1      -2.326 -14.970  -4.049  1.00  0.00     0.006 C 
BRANCH   5   6
ATOM      6  C   UNL     1      -2.007 -13.510  -4.394  1.00  0.00     0.053 C 
BRANCH   6   7
ATOM      7  C   UNL     1      -0.706 -13.069  -3.795  1.00  0.00     0.041 C 
ATOM      8  O   UNL     1      -0.170 -13.745  -2.877  1.00  0.00    -0.550 OA
ATOM      9  O   UNL     1      -0.105 -11.893  -4.226  1.00  0.00    -0.550 OA
ENDBRANCH   6   7
ENDBRANCH   5   6
ENDBRANCH   4   5
ENDBRANCH   3   4
ENDBRANCH   2   3
ENDBRANCH   1   2
BRANCH   1  10
ATOM     10  C   UNL     1      -0.691 -15.210  -8.073  1.00  0.00     0.027 C 
BRANCH  10  11
ATOM     11  C   UNL     1       0.289 -14.803  -6.998  1.00  0.00    -0.031 C 
ATOM     12  C   UNL     1       0.822 -15.627  -6.075  1.00  0.00    -0.031 C 
BRANCH  12  13
ATOM     13  C   UNL     1       0.559 -17.110  -5.968  1.00  0.00     0.027 C 
BRANCH  13  14
ATOM     14  C   UNL     1       1.551 -17.958  -6.778  1.00  0.00     0.004 C 
BRANCH  14  15
ATOM     15  C   UNL     1       0.900 -18.588  -8.022  1.00  0.00     0.000 C 
BRANCH  15  16
ATOM     16  C   UNL     1      -0.591 -18.895  -7.815  1.00  0.00    -0.000 C 
BRANCH  16  17
ATOM     17  C   UNL     1      -1.420 -18.700  -9.093  1.00  0.00    -0.003 C 
ATOM     18  C   UNL     1      -2.094 -20.002  -9.515  1.00  0.00     0.004 C 
ENDBRANCH  16  17
ENDBRANCH  15  16
ENDBRANCH  14  15
ENDBRANCH  13  14
ENDBRANCH  12  13
ENDBRANCH  10  11
ENDBRANCH   1  10
TORSDOF 13
ENDMDL
MODEL 8
REMARK VINA RESULT:    -4.214      3.533      6.398
REMARK INTER + INTRA:          -8.444
REMARK INTER:                  -5.876
REMARK INTRA:                  -2.567
REMARK UNBOUND:                -1.027
REMARK SMILES CCCCCCC=CCCCCCCCC(=O)[O-]
REMARK SMILES IDX 10 1 11 2 12 3 13 4 14 5 15 6 16 7 17 8 18 9 9 10 8 11 7 12
REMARK SMILES IDX 6 13 5 14 4 15 3 16 2 17 1 18
REMARK H PARENT
REMARK Flexibility Score: inf
ROOT
ATOM      1  C   UNL     1       0.150 -14.813  -7.885  1.00  0.00     0.004 C 
ENDROOT
BRANCH   1   2
ATOM      2  C   UNL     1       0.175 -16.071  -8.779  1.00  0.00     0.000 C 
BRANCH   2   3
ATOM      3  C   UNL     1       0.641 -17.364  -8.082  1.00  0.00     0.000 C 
BRANCH   3   4
ATOM      4  C   UNL     1      -0.331 -18.552  -8.200  1.00  0.00     0.000 C 
BRANCH   4   5
ATOM      5  C   UNL     1      -1.505 -18.267  -9.153  1.00  0.00     0.006 C 
BRANCH   5   6
ATOM      6  C   UNL     1      -2.824 -18.060  -8.398  1.00  0.00     0.053 C 
BRANCH   6   7
ATOM      7  C   UNL     1      -3.494 -16.778  -8.792  1.00  0.00     0.041 C 
ATOM      8  O   UNL     1      -3.292 -15.728  -8.127  1.00  0.00    -0.550 OA
ATOM      9  O   UNL     1      -4.369 -16.753  -9.870  1.00  0.00    -0.550 OA
ENDBRANCH   6   7
ENDBRANCH   5   6
ENDBRANCH   4   5
ENDBRANCH   3   4
ENDBRANCH   2   3
ENDBRANCH   1   2
BRANCH   1  10
ATOM     10  C   UNL     1       0.456 -15.070  -6.400  1.00  0.00     0.027 C 
BRANCH  10  11
ATOM     11  C   UNL     1      -0.728 -14.747  -5.519  1.00  0.00    -0.031 C 
ATOM     12  C   UNL     1      -1.540 -15.652  -4.939  1.00  0.00    -0.031 C 
BRANCH  12  13
ATOM     13  C   UNL     1      -1.394 -17.152  -5.040  1.00  0.00     0.027 C 
BRANCH  13  14
ATOM     14  C   UNL     1      -0.515 -17.748  -3.929  1.00  0.00     0.004 C 
BRANCH  14  15
ATOM     15  C   UNL     1       0.246 -19.001  -4.398  1.00  0.00     0.000 C 
BRANCH  15  16
ATOM     16  C   UNL     1       1.629 -18.668  -4.978  1.00  0.00    -0.000 C 
BRANCH  16  17
ATOM     17  C   UNL     1       2.269 -17.437  -4.319  1.00  0.00    -0.003 C 
ATOM     18  C   UNL     1       3.390 -16.871  -5.184  1.00  0.00     0.004 C 
ENDBRANCH  16  17
ENDBRANCH  15  16
ENDBRANCH  14  15
ENDBRANCH  13  14
ENDBRANCH  12  13
ENDBRANCH  10  11
ENDBRANCH   1  10
TORSDOF 13
ENDMDL
MODEL 9
REMARK VINA RESULT:    -4.183     11.675     13.044
REMARK INTER + INTRA:          -8.390
REMARK INTER:                  -6.446
REMARK INTRA:                  -1.944
REMARK UNBOUND:                -1.027
REMARK SMILES CCCCCCC=CCCCCCCCC(=O)[O-]
REMARK SMILES IDX 10 1 11 2 12 3 13 4 14 5 15 6 16 7 17 8 18 9 9 10 8 11 7 12
REMARK SMILES IDX 6 13 5 14 4 15 3 16 2 17 1 18
REMARK H PARENT
REMARK Flexibility Score: inf
ROOT
ATOM      1  C   UNL     1      13.591 -16.335  -7.922  1.00  0.00     0.004 C 
ENDROOT
BRANCH   1   2
ATOM      2  C   UNL     1      14.599 -15.455  -7.154  1.00  0.00     0.000 C 
BRANCH   2   3
ATOM      3  C   UNL     1      14.097 -14.044  -6.788  1.00  0.00     0.000 C 
BRANCH   3   4
ATOM      4  C   UNL     1      12.992 -14.007  -5.717  1.00  0.00     0.000 C 
BRANCH   4   5
ATOM      5  C   UNL     1      13.364 -14.796  -4.449  1.00  0.00     0.006 C 
BRANCH   5   6
ATOM      6  C   UNL     1      12.280 -14.696  -3.368  1.00  0.00     0.053 C 
BRANCH   6   7
ATOM      7  C   UNL     1      11.337 -15.860  -3.419  1.00  0.00     0.041 C 
ATOM      8  O   UNL     1      11.724 -17.004  -3.064  1.00  0.00    -0.550 OA
ATOM      9  O   UNL     1      10.043 -15.686  -3.892  1.00  0.00    -0.550 OA
ENDBRANCH   6   7
ENDBRANCH   5   6
ENDBRANCH   4   5
ENDBRANCH   3   4
ENDBRANCH   2   3
ENDBRANCH   1   2
BRANCH   1  10
ATOM     10  C   UNL     1      13.016 -17.511  -7.115  1.00  0.00     0.027 C 
BRANCH  10  11
ATOM     11  C   UNL     1      11.553 -17.310  -6.795  1.00  0.00    -0.031 C 
ATOM     12  C   UNL     1      10.597 -18.255  -6.887  1.00  0.00    -0.031 C 
BRANCH  12  13
ATOM     13  C   UNL     1      10.820 -19.691  -7.297  1.00  0.00     0.027 C 
BRANCH  13  14
ATOM     14  C   UNL     1       9.947 -20.120  -8.486  1.00  0.00     0.004 C 
BRANCH  14  15
ATOM     15  C   UNL     1      10.215 -19.273  -9.742  1.00  0.00     0.000 C 
BRANCH  15  16
ATOM     16  C   UNL     1      11.639 -19.463 -10.289  1.00  0.00    -0.000 C 
BRANCH  16  17
ATOM     17  C   UNL     1      12.248 -18.159 -10.826  1.00  0.00    -0.003 C 
ATOM     18  C   UNL     1      13.752 -18.301 -11.035  1.00  0.00     0.004 C 
ENDBRANCH  16  17
ENDBRANCH  15  16
ENDBRANCH  14  15
ENDBRANCH  13  14
ENDBRANCH  12  13
ENDBRANCH  10  11
ENDBRANCH   1  10
TORSDOF 13
ENDMDL
