MODEL 1
REMARK VINA RESULT:    -6.280      0.000      0.000
REMARK INTER + INTRA:         -11.101
REMARK INTER:                  -9.584
REMARK INTRA:                  -1.516
REMARK UNBOUND:                -1.516
REMARK SMILES CC(=O)CCC=C(C)CCC=C(C)CCC=C(C)C
REMARK SMILES IDX 10 1 11 2 12 3 13 4 14 5 15 6 16 7 18 8 17 9 19 10 9 11 7 12
REMARK SMILES IDX 6 13 8 14 5 15 4 16 2 17 3 18 1 19
REMARK H PARENT
REMARK Flexibility Score: inf
ROOT
ATOM      1  C   UNL     1     255.687 259.960 248.674  1.00  0.00     0.032 C 
ENDROOT
BRANCH   1   2
ATOM      2  C   UNL     1     255.508 260.767 249.936  1.00  0.00    -0.028 C 
ATOM      3  C   UNL     1     256.448 261.589 250.457  1.00  0.00    -0.077 C 
ATOM      4  C   UNL     1     257.816 261.734 249.834  1.00  0.00     0.039 C 
BRANCH   3   5
ATOM      5  C   UNL     1     256.126 262.370 251.713  1.00  0.00     0.034 C 
BRANCH   5   6
ATOM      6  C   UNL     1     254.655 262.191 252.104  1.00  0.00     0.032 C 
BRANCH   6   7
ATOM      7  C   UNL     1     254.528 261.837 253.564  1.00  0.00    -0.028 C 
ATOM      8  C   UNL     1     254.564 259.370 253.135  1.00  0.00     0.039 C 
ATOM      9  C   UNL     1     254.518 260.573 254.044  1.00  0.00    -0.080 C 
ATOM     10  C   UNL     1     254.414 260.335 255.529  1.00  0.00     0.039 C 
ENDBRANCH   6   7
ENDBRANCH   5   6
ENDBRANCH   3   5
ENDBRANCH   1   2
BRANCH   1  11
ATOM     11  C   UNL     1     254.683 260.399 247.602  1.00  0.00     0.034 C 
BRANCH  11  12
ATOM     12  C   UNL     1     255.376 260.635 246.278  1.00  0.00    -0.077 C 
ATOM     13  C   UNL     1     256.575 261.262 246.270  1.00  0.00    -0.028 C 
ATOM     14  C   UNL     1     254.706 260.176 245.004  1.00  0.00     0.039 C 
BRANCH  13  15
ATOM     15  C   UNL     1     257.359 261.611 245.026  1.00  0.00     0.035 C 
BRANCH  15  16
ATOM     16  C   UNL     1     258.728 260.923 245.015  1.00  0.00     0.079 C 
BRANCH  16  17
ATOM     17  C   UNL     1     259.575 261.343 246.188  1.00  0.00     0.130 C 
ATOM     18  O   UNL     1     259.856 262.522 246.338  1.00  0.00    -0.300 OA
ATOM     19  C   UNL     1     260.081 260.339 247.180  1.00  0.00     0.087 C 
ENDBRANCH  16  17
ENDBRANCH  15  16
ENDBRANCH  13  15
ENDBRANCH  11  12
ENDBRANCH   1  11
TORSDOF 9
ENDMDL
MODEL 2
REMARK VINA RESULT:    -6.204      2.435      7.212
REMARK INTER + INTRA:         -10.984
REMARK INTER:                  -9.587
REMARK INTRA:                  -1.398
REMARK UNBOUND:                -1.516
REMARK SMILES CC(=O)CCC=C(C)CCC=C(C)CCC=C(C)C
REMARK SMILES IDX 10 1 11 2 12 3 13 4 14 5 15 6 16 7 18 8 17 9 19 10 9 11 7 12
REMARK SMILES IDX 6 13 8 14 5 15 4 16 2 17 3 18 1 19
REMARK H PARENT
REMARK Flexibility Score: inf
ROOT
ATOM      1  C   UNL     1     254.512 260.684 247.896  1.00  0.00     0.032 C 
ENDROOT
BRANCH   1   2
ATOM      2  C   UNL     1     255.610 260.991 246.910  1.00  0.00    -0.028 C 
ATOM      3  C   UNL     1     255.596 260.618 245.609  1.00  0.00    -0.077 C 
ATOM      4  C   UNL     1     254.474 259.790 245.028  1.00  0.00     0.039 C 
BRANCH   3   5
ATOM      5  C   UNL     1     256.749 261.023 244.716  1.00  0.00     0.034 C 
BRANCH   5   6
ATOM      6  C   UNL     1     257.841 261.733 245.524  1.00  0.00     0.032 C 
BRANCH   6   7
ATOM      7  C   UNL     1     259.092 260.894 245.584  1.00  0.00    -0.028 C 
ATOM      8  C   UNL     1     258.872 260.456 248.041  1.00  0.00     0.039 C 
ATOM      9  C   UNL     1     259.550 260.288 246.703  1.00  0.00    -0.080 C 
ATOM     10  C   UNL     1     260.800 259.448 246.644  1.00  0.00     0.039 C 
ENDBRANCH   6   7
ENDBRANCH   5   6
ENDBRANCH   3   5
ENDBRANCH   1   2
BRANCH   1  11
ATOM     11  C   UNL     1     254.893 259.490 248.779  1.00  0.00     0.034 C 
BRANCH  11  12
ATOM     12  C   UNL     1     255.190 259.939 250.194  1.00  0.00    -0.077 C 
ATOM     13  C   UNL     1     255.342 261.261 250.442  1.00  0.00    -0.028 C 
ATOM     14  C   UNL     1     255.320 258.902 251.284  1.00  0.00     0.039 C 
BRANCH  13  15
ATOM     15  C   UNL     1     255.690 261.852 251.789  1.00  0.00     0.035 C 
BRANCH  15  16
ATOM     16  C   UNL     1     254.433 262.127 252.622  1.00  0.00     0.079 C 
BRANCH  16  17
ATOM     17  C   UNL     1     254.483 261.424 253.954  1.00  0.00     0.130 C 
ATOM     18  O   UNL     1     255.375 261.689 254.744  1.00  0.00    -0.300 OA
ATOM     19  C   UNL     1     253.454 260.399 254.330  1.00  0.00     0.087 C 
ENDBRANCH  16  17
ENDBRANCH  15  16
ENDBRANCH  13  15
ENDBRANCH  11  12
ENDBRANCH   1  11
TORSDOF 9
ENDMDL
MODEL 3
REMARK VINA RESULT:    -6.111      4.164      6.488
REMARK INTER + INTRA:         -10.843
REMARK INTER:                  -9.726
REMARK INTRA:                  -1.116
REMARK UNBOUND:                -1.516
REMARK SMILES CC(=O)CCC=C(C)CCC=C(C)CCC=C(C)C
REMARK SMILES IDX 10 1 11 2 12 3 13 4 14 5 15 6 16 7 18 8 17 9 19 10 9 11 7 12
REMARK SMILES IDX 6 13 8 14 5 15 4 16 2 17 3 18 1 19
REMARK H PARENT
REMARK Flexibility Score: inf
ROOT
ATOM      1  C   UNL     1     253.404 260.726 247.208  1.00  0.00     0.032 C 
ENDROOT
BRANCH   1   2
ATOM      2  C   UNL     1     252.259 259.800 246.886  1.00  0.00    -0.028 C 
ATOM      3  C   UNL     1     252.167 258.519 247.315  1.00  0.00    -0.077 C 
ATOM      4  C   UNL     1     253.261 257.871 248.131  1.00  0.00     0.039 C 
BRANCH   3   5
ATOM      5  C   UNL     1     250.943 257.707 246.949  1.00  0.00     0.034 C 
BRANCH   5   6
ATOM      6  C   UNL     1     249.660 258.483 247.265  1.00  0.00     0.032 C 
BRANCH   6   7
ATOM      7  C   UNL     1     248.447 257.733 246.777  1.00  0.00    -0.028 C 
ATOM      8  C   UNL     1     247.737 259.569 245.228  1.00  0.00     0.039 C 
ATOM      9  C   UNL     1     247.592 258.197 245.837  1.00  0.00    -0.080 C 
ATOM     10  C   UNL     1     246.424 257.349 245.402  1.00  0.00     0.039 C 
ENDBRANCH   6   7
ENDBRANCH   5   6
ENDBRANCH   3   5
ENDBRANCH   1   2
BRANCH   1  11
ATOM     11  C   UNL     1     254.136 261.150 245.930  1.00  0.00     0.034 C 
BRANCH  11  12
ATOM     12  C   UNL     1     255.635 261.025 246.101  1.00  0.00    -0.077 C 
ATOM     13  C   UNL     1     256.428 261.121 245.009  1.00  0.00    -0.028 C 
ATOM     14  C   UNL     1     256.201 260.784 247.480  1.00  0.00     0.039 C 
BRANCH  13  15
ATOM     15  C   UNL     1     257.932 260.967 245.017  1.00  0.00     0.035 C 
BRANCH  15  16
ATOM     16  C   UNL     1     258.627 262.223 244.482  1.00  0.00     0.079 C 
BRANCH  16  17
ATOM     17  C   UNL     1     258.340 263.428 245.339  1.00  0.00     0.130 C 
ATOM     18  O   UNL     1     258.626 263.407 246.526  1.00  0.00    -0.300 OA
ATOM     19  C   UNL     1     257.705 264.658 244.761  1.00  0.00     0.087 C 
ENDBRANCH  16  17
ENDBRANCH  15  16
ENDBRANCH  13  15
ENDBRANCH  11  12
ENDBRANCH   1  11
TORSDOF 9
ENDMDL
MODEL 4
REMARK VINA RESULT:    -6.036      4.357      6.862
REMARK INTER + INTRA:         -10.728
REMARK INTER:                  -9.633
REMARK INTRA:                  -1.096
REMARK UNBOUND:                -1.516
REMARK SMILES CC(=O)CCC=C(C)CCC=C(C)CCC=C(C)C
REMARK SMILES IDX 10 1 11 2 12 3 13 4 14 5 15 6 16 7 18 8 17 9 19 10 9 11 7 12
REMARK SMILES IDX 6 13 8 14 5 15 4 16 2 17 3 18 1 19
REMARK H PARENT
REMARK Flexibility Score: inf
ROOT
ATOM      1  C   UNL     1     253.343 260.340 246.675  1.00  0.00     0.032 C 
ENDROOT
BRANCH   1   2
ATOM      2  C   UNL     1     252.113 259.490 246.875  1.00  0.00    -0.028 C 
ATOM      3  C   UNL     1     252.109 258.137 246.861  1.00  0.00    -0.077 C 
ATOM      4  C   UNL     1     253.360 257.337 246.581  1.00  0.00     0.039 C 
BRANCH   3   5
ATOM      5  C   UNL     1     250.809 257.404 247.112  1.00  0.00     0.034 C 
BRANCH   5   6
ATOM      6  C   UNL     1     249.609 258.327 246.876  1.00  0.00     0.032 C 
BRANCH   6   7
ATOM      7  C   UNL     1     248.393 257.532 246.471  1.00  0.00    -0.028 C 
ATOM      8  C   UNL     1     247.442 259.391 245.087  1.00  0.00     0.039 C 
ATOM      9  C   UNL     1     247.427 257.988 245.641  1.00  0.00    -0.080 C 
ATOM     10  C   UNL     1     246.267 257.096 245.280  1.00  0.00     0.039 C 
ENDBRANCH   6   7
ENDBRANCH   5   6
ENDBRANCH   3   5
ENDBRANCH   1   2
BRANCH   1  11
ATOM     11  C   UNL     1     253.709 261.078 247.968  1.00  0.00     0.034 C 
BRANCH  11  12
ATOM     12  C   UNL     1     255.092 260.684 248.440  1.00  0.00    -0.077 C 
ATOM     13  C   UNL     1     256.155 260.952 247.647  1.00  0.00    -0.028 C 
ATOM     14  C   UNL     1     255.245 259.992 249.774  1.00  0.00     0.039 C 
BRANCH  13  15
ATOM     15  C   UNL     1     257.584 260.574 247.961  1.00  0.00     0.035 C 
BRANCH  15  16
ATOM     16  C   UNL     1     258.471 261.814 248.120  1.00  0.00     0.079 C 
BRANCH  16  17
ATOM     17  C   UNL     1     259.092 261.884 249.491  1.00  0.00     0.130 C 
ATOM     18  O   UNL     1     260.150 261.313 249.705  1.00  0.00    -0.300 OA
ATOM     19  C   UNL     1     258.432 262.642 250.604  1.00  0.00     0.087 C 
ENDBRANCH  16  17
ENDBRANCH  15  16
ENDBRANCH  13  15
ENDBRANCH  11  12
ENDBRANCH   1  11
TORSDOF 9
ENDMDL
MODEL 5
REMARK VINA RESULT:    -6.033      3.381      6.554
REMARK INTER + INTRA:         -10.724
REMARK INTER:                  -9.074
REMARK INTRA:                  -1.649
REMARK UNBOUND:                -1.516
REMARK SMILES CC(=O)CCC=C(C)CCC=C(C)CCC=C(C)C
REMARK SMILES IDX 10 1 11 2 12 3 13 4 14 5 15 6 16 7 18 8 17 9 19 10 9 11 7 12
REMARK SMILES IDX 6 13 8 14 5 15 4 16 2 17 3 18 1 19
REMARK H PARENT
REMARK Flexibility Score: inf
ROOT
ATOM      1  C   UNL     1     253.937 260.279 246.985  1.00  0.00     0.032 C 
ENDROOT
BRANCH   1   2
ATOM      2  C   UNL     1     253.971 258.809 246.652  1.00  0.00    -0.028 C 
ATOM      3  C   UNL     1     252.910 257.976 246.762  1.00  0.00    -0.077 C 
ATOM      4  C   UNL     1     251.578 258.446 247.295  1.00  0.00     0.039 C 
BRANCH   3   5
ATOM      5  C   UNL     1     253.071 256.526 246.359  1.00  0.00     0.034 C 
BRANCH   5   6
ATOM      6  C   UNL     1     253.352 255.648 247.583  1.00  0.00     0.032 C 
BRANCH   6   7
ATOM      7  C   UNL     1     254.832 255.401 247.736  1.00  0.00    -0.028 C 
ATOM      8  C   UNL     1     255.068 257.012 249.639  1.00  0.00     0.039 C 
ATOM      9  C   UNL     1     255.609 255.983 248.677  1.00  0.00    -0.080 C 
ATOM     10  C   UNL     1     257.075 255.641 248.756  1.00  0.00     0.039 C 
ENDBRANCH   6   7
ENDBRANCH   5   6
ENDBRANCH   3   5
ENDBRANCH   1   2
BRANCH   1  11
ATOM     11  C   UNL     1     255.354 260.864 247.010  1.00  0.00     0.034 C 
BRANCH  11  12
ATOM     12  C   UNL     1     255.974 260.717 248.383  1.00  0.00    -0.077 C 
ATOM     13  C   UNL     1     255.163 260.682 249.466  1.00  0.00    -0.028 C 
ATOM     14  C   UNL     1     257.476 260.628 248.507  1.00  0.00     0.039 C 
BRANCH  13  15
ATOM     15  C   UNL     1     255.638 260.591 250.898  1.00  0.00     0.035 C 
BRANCH  15  16
ATOM     16  C   UNL     1     255.806 261.980 251.523  1.00  0.00     0.079 C 
BRANCH  16  17
ATOM     17  C   UNL     1     254.693 262.297 252.487  1.00  0.00     0.130 C 
ATOM     18  O   UNL     1     253.641 262.752 252.067  1.00  0.00    -0.300 OA
ATOM     19  C   UNL     1     254.853 262.065 253.960  1.00  0.00     0.087 C 
ENDBRANCH  16  17
ENDBRANCH  15  16
ENDBRANCH  13  15
ENDBRANCH  11  12
ENDBRANCH   1  11
TORSDOF 9
ENDMDL
MODEL 6
REMARK VINA RESULT:    -6.012      3.035      7.429
REMARK INTER + INTRA:         -10.692
REMARK INTER:                  -9.506
REMARK INTRA:                  -1.186
REMARK UNBOUND:                -1.516
REMARK SMILES CC(=O)CCC=C(C)CCC=C(C)CCC=C(C)C
REMARK SMILES IDX 10 1 11 2 12 3 13 4 14 5 15 6 16 7 18 8 17 9 19 10 9 11 7 12
REMARK SMILES IDX 6 13 8 14 5 15 4 16 2 17 3 18 1 19
REMARK H PARENT
REMARK Flexibility Score: inf
ROOT
ATOM      1  C   UNL     1     254.754 262.359 252.659  1.00  0.00     0.032 C 
ENDROOT
BRANCH   1   2
ATOM      2  C   UNL     1     254.970 261.408 251.509  1.00  0.00    -0.028 C 
ATOM      3  C   UNL     1     256.084 261.377 250.741  1.00  0.00    -0.077 C 
ATOM      4  C   UNL     1     257.217 262.356 250.939  1.00  0.00     0.039 C 
BRANCH   3   5
ATOM      5  C   UNL     1     256.188 260.346 249.638  1.00  0.00     0.034 C 
BRANCH   5   6
ATOM      6  C   UNL     1     256.485 261.015 248.293  1.00  0.00     0.032 C 
BRANCH   6   7
ATOM      7  C   UNL     1     255.485 260.588 247.249  1.00  0.00    -0.028 C 
ATOM      8  C   UNL     1     256.903 261.369 245.338  1.00  0.00     0.039 C 
ATOM      9  C   UNL     1     255.674 260.712 245.915  1.00  0.00    -0.080 C 
ATOM     10  C   UNL     1     254.617 260.224 244.959  1.00  0.00     0.039 C 
ENDBRANCH   6   7
ENDBRANCH   5   6
ENDBRANCH   3   5
ENDBRANCH   1   2
BRANCH   1  11
ATOM     11  C   UNL     1     254.583 261.591 253.975  1.00  0.00     0.034 C 
BRANCH  11  12
ATOM     12  C   UNL     1     255.928 261.273 254.591  1.00  0.00    -0.077 C 
ATOM     13  C   UNL     1     256.862 262.249 254.662  1.00  0.00    -0.028 C 
ATOM     14  C   UNL     1     256.193 259.875 255.097  1.00  0.00     0.039 C 
BRANCH  13  15
ATOM     15  C   UNL     1     258.262 262.067 255.202  1.00  0.00     0.035 C 
BRANCH  15  16
ATOM     16  C   UNL     1     258.998 263.407 255.315  1.00  0.00     0.079 C 
BRANCH  16  17
ATOM     17  C   UNL     1     260.202 263.461 254.410  1.00  0.00     0.130 C 
ATOM     18  O   UNL     1     260.195 262.839 253.359  1.00  0.00    -0.300 OA
ATOM     19  C   UNL     1     261.413 264.264 254.777  1.00  0.00     0.087 C 
ENDBRANCH  16  17
ENDBRANCH  15  16
ENDBRANCH  13  15
ENDBRANCH  11  12
ENDBRANCH   1  11
TORSDOF 9
ENDMDL
MODEL 7
REMARK VINA RESULT:    -6.009      4.552      7.005
REMARK INTER + INTRA:         -10.687
REMARK INTER:                  -9.793
REMARK INTRA:                  -0.893
REMARK UNBOUND:                -1.516
REMARK SMILES CC(=O)CCC=C(C)CCC=C(C)CCC=C(C)C
REMARK SMILES IDX 10 1 11 2 12 3 13 4 14 5 15 6 16 7 18 8 17 9 19 10 9 11 7 12
REMARK SMILES IDX 6 13 8 14 5 15 4 16 2 17 3 18 1 19
REMARK H PARENT
REMARK Flexibility Score: inf
ROOT
ATOM      1  C   UNL     1     252.874 260.217 246.998  1.00  0.00     0.032 C 
ENDROOT
BRANCH   1   2
ATOM      2  C   UNL     1     251.852 259.126 247.195  1.00  0.00    -0.028 C 
ATOM      3  C   UNL     1     250.513 259.311 247.130  1.00  0.00    -0.077 C 
ATOM      4  C   UNL     1     249.907 260.676 246.904  1.00  0.00     0.039 C 
BRANCH   3   5
ATOM      5  C   UNL     1     249.597 258.121 247.312  1.00  0.00     0.034 C 
BRANCH   5   6
ATOM      6  C   UNL     1     249.569 257.257 246.046  1.00  0.00     0.032 C 
BRANCH   6   7
ATOM      7  C   UNL     1     248.170 256.771 245.761  1.00  0.00    -0.028 C 
ATOM      8  C   UNL     1     247.450 258.944 244.746  1.00  0.00     0.039 C 
ATOM      9  C   UNL     1     247.217 257.508 245.147  1.00  0.00    -0.080 C 
ATOM     10  C   UNL     1     245.859 256.911 244.887  1.00  0.00     0.039 C 
ENDBRANCH   6   7
ENDBRANCH   5   6
ENDBRANCH   3   5
ENDBRANCH   1   2
BRANCH   1  11
ATOM     11  C   UNL     1     254.114 259.677 246.277  1.00  0.00     0.034 C 
BRANCH  11  12
ATOM     12  C   UNL     1     255.321 260.547 246.554  1.00  0.00    -0.077 C 
ATOM     13  C   UNL     1     256.014 261.056 245.509  1.00  0.00    -0.028 C 
ATOM     14  C   UNL     1     255.724 260.813 247.985  1.00  0.00     0.039 C 
BRANCH  13  15
ATOM     15  C   UNL     1     257.265 261.896 245.629  1.00  0.00     0.035 C 
BRANCH  15  16
ATOM     16  C   UNL     1     258.513 261.104 245.226  1.00  0.00     0.079 C 
BRANCH  16  17
ATOM     17  C   UNL     1     259.387 260.797 246.414  1.00  0.00     0.130 C 
ATOM     18  O   UNL     1     259.209 261.393 247.465  1.00  0.00    -0.300 OA
ATOM     19  C   UNL     1     260.477 259.769 246.332  1.00  0.00     0.087 C 
ENDBRANCH  16  17
ENDBRANCH  15  16
ENDBRANCH  13  15
ENDBRANCH  11  12
ENDBRANCH   1  11
TORSDOF 9
ENDMDL
MODEL 8
REMARK VINA RESULT:    -5.966      3.147      5.265
REMARK INTER + INTRA:         -10.622
REMARK INTER:                  -8.941
REMARK INTRA:                  -1.681
REMARK UNBOUND:                -1.516
REMARK SMILES CC(=O)CCC=C(C)CCC=C(C)CCC=C(C)C
REMARK SMILES IDX 10 1 11 2 12 3 13 4 14 5 15 6 16 7 18 8 17 9 19 10 9 11 7 12
REMARK SMILES IDX 6 13 8 14 5 15 4 16 2 17 3 18 1 19
REMARK H PARENT
REMARK Flexibility Score: inf
ROOT
ATOM      1  C   UNL     1     254.106 259.842 246.322  1.00  0.00     0.032 C 
ENDROOT
BRANCH   1   2
ATOM      2  C   UNL     1     254.045 258.342 246.173  1.00  0.00    -0.028 C 
ATOM      3  C   UNL     1     252.997 257.578 246.557  1.00  0.00    -0.077 C 
ATOM      4  C   UNL     1     251.786 258.169 247.240  1.00  0.00     0.039 C 
BRANCH   3   5
ATOM      5  C   UNL     1     253.050 256.084 246.317  1.00  0.00     0.034 C 
BRANCH   5   6
ATOM      6  C   UNL     1     253.400 255.337 247.607  1.00  0.00     0.032 C 
BRANCH   6   7
ATOM      7  C   UNL     1     254.894 255.178 247.746  1.00  0.00    -0.028 C 
ATOM      8  C   UNL     1     255.078 256.939 249.518  1.00  0.00     0.039 C 
ATOM      9  C   UNL     1     255.655 255.870 248.624  1.00  0.00    -0.080 C 
ATOM     10  C   UNL     1     257.138 255.611 248.696  1.00  0.00     0.039 C 
ENDBRANCH   6   7
ENDBRANCH   5   6
ENDBRANCH   3   5
ENDBRANCH   1   2
BRANCH   1  11
ATOM     11  C   UNL     1     254.818 260.229 247.624  1.00  0.00     0.034 C 
BRANCH  11  12
ATOM     12  C   UNL     1     256.124 260.937 247.333  1.00  0.00    -0.077 C 
ATOM     13  C   UNL     1     256.400 261.304 246.061  1.00  0.00    -0.028 C 
ATOM     14  C   UNL     1     257.086 261.200 248.467  1.00  0.00     0.039 C 
BRANCH  13  15
ATOM     15  C   UNL     1     257.681 261.970 245.612  1.00  0.00     0.035 C 
BRANCH  15  16
ATOM     16  C   UNL     1     258.725 260.938 245.172  1.00  0.00     0.079 C 
BRANCH  16  17
ATOM     17  C   UNL     1     259.851 260.825 246.167  1.00  0.00     0.130 C 
ATOM     18  O   UNL     1     260.224 261.818 246.772  1.00  0.00    -0.300 OA
ATOM     19  C   UNL     1     260.527 259.512 246.429  1.00  0.00     0.087 C 
ENDBRANCH  16  17
ENDBRANCH  15  16
ENDBRANCH  13  15
ENDBRANCH  11  12
ENDBRANCH   1  11
TORSDOF 9
ENDMDL
MODEL 9
REMARK VINA RESULT:    -5.911      4.567      7.656
REMARK INTER + INTRA:         -10.537
REMARK INTER:                  -9.144
REMARK INTRA:                  -1.393
REMARK UNBOUND:                -1.516
REMARK SMILES CC(=O)CCC=C(C)CCC=C(C)CCC=C(C)C
REMARK SMILES IDX 10 1 11 2 12 3 13 4 14 5 15 6 16 7 18 8 17 9 19 10 9 11 7 12
REMARK SMILES IDX 6 13 8 14 5 15 4 16 2 17 3 18 1 19
REMARK H PARENT
REMARK Flexibility Score: inf
ROOT
ATOM      1  C   UNL     1     253.777 260.248 247.026  1.00  0.00     0.032 C 
ENDROOT
BRANCH   1   2
ATOM      2  C   UNL     1     255.099 260.868 247.399  1.00  0.00    -0.028 C 
ATOM      3  C   UNL     1     255.814 260.540 248.501  1.00  0.00    -0.077 C 
ATOM      4  C   UNL     1     255.310 259.535 249.509  1.00  0.00     0.039 C 
BRANCH   3   5
ATOM      5  C   UNL     1     257.147 261.215 248.740  1.00  0.00     0.034 C 
BRANCH   5   6
ATOM      6  C   UNL     1     258.091 260.992 247.553  1.00  0.00     0.032 C 
BRANCH   6   7
ATOM      7  C   UNL     1     258.262 262.262 246.758  1.00  0.00    -0.028 C 
ATOM      8  C   UNL     1     257.531 261.205 244.609  1.00  0.00     0.039 C 
ATOM      9  C   UNL     1     257.982 262.379 245.440  1.00  0.00    -0.080 C 
ATOM     10  C   UNL     1     258.164 263.707 244.751  1.00  0.00     0.039 C 
ENDBRANCH   6   7
ENDBRANCH   5   6
ENDBRANCH   3   5
ENDBRANCH   1   2
BRANCH   1  11
ATOM     11  C   UNL     1     253.987 259.003 246.155  1.00  0.00     0.034 C 
BRANCH  11  12
ATOM     12  C   UNL     1     253.053 257.889 246.574  1.00  0.00    -0.077 C 
ATOM     13  C   UNL     1     253.306 256.629 246.149  1.00  0.00    -0.028 C 
ATOM     14  C   UNL     1     251.860 258.215 247.441  1.00  0.00     0.039 C 
BRANCH  13  15
ATOM     15  C   UNL     1     252.437 255.427 246.443  1.00  0.00     0.035 C 
BRANCH  15  16
ATOM     16  C   UNL     1     251.427 255.177 245.318  1.00  0.00     0.079 C 
BRANCH  16  17
ATOM     17  C   UNL     1     250.012 255.148 245.835  1.00  0.00     0.130 C 
ATOM     18  O   UNL     1     249.577 254.128 246.347  1.00  0.00    -0.300 OA
ATOM     19  C   UNL     1     249.123 256.352 245.732  1.00  0.00     0.087 C 
ENDBRANCH  16  17
ENDBRANCH  15  16
ENDBRANCH  13  15
ENDBRANCH  11  12
ENDBRANCH   1  11
TORSDOF 9
ENDMDL
