MODEL 1
REMARK VINA RESULT:    -3.493      0.000      0.000
REMARK INTER + INTRA:          -5.231
REMARK INTER:                  -4.718
REMARK INTRA:                  -0.513
REMARK UNBOUND:                -0.513
REMARK SMILES CCCCCCCC(=O)[O-]
REMARK SMILES IDX 5 1 6 2 7 3 8 4 9 5 10 6 4 7 3 8 2 9 1 10
REMARK H PARENT
REMARK Flexibility Score: inf
ROOT
ATOM      1  C   UNL     1      28.853 -22.756  25.621  1.00  0.00     0.000 C 
ENDROOT
BRANCH   1   2
ATOM      2  C   UNL     1      27.544 -22.239  26.238  1.00  0.00     0.006 C 
BRANCH   2   3
ATOM      3  C   UNL     1      27.148 -20.854  25.709  1.00  0.00     0.053 C 
BRANCH   3   4
ATOM      4  C   UNL     1      28.229 -19.859  25.992  1.00  0.00     0.041 C 
ATOM      5  O   UNL     1      28.808 -19.266  25.044  1.00  0.00    -0.550 OA
ATOM      6  O   UNL     1      28.631 -19.622  27.300  1.00  0.00    -0.550 OA
ENDBRANCH   3   4
ENDBRANCH   2   3
ENDBRANCH   1   2
BRANCH   1   7
ATOM      7  C   UNL     1      28.623 -23.551  24.327  1.00  0.00     0.000 C 
BRANCH   7   8
ATOM      8  C   UNL     1      29.394 -22.930  23.156  1.00  0.00    -0.000 C 
BRANCH   8   9
ATOM      9  C   UNL     1      28.588 -21.801  22.504  1.00  0.00    -0.003 C 
ATOM     10  C   UNL     1      29.500 -20.671  22.035  1.00  0.00     0.004 C 
ENDBRANCH   8   9
ENDBRANCH   7   8
ENDBRANCH   1   7
TORSDOF 6
ENDMDL
MODEL 2
REMARK VINA RESULT:    -3.444      1.644      3.634
REMARK INTER + INTRA:          -5.165
REMARK INTER:                  -4.678
REMARK INTRA:                  -0.487
REMARK UNBOUND:                -0.513
REMARK SMILES CCCCCCCC(=O)[O-]
REMARK SMILES IDX 5 1 6 2 7 3 8 4 9 5 10 6 4 7 3 8 2 9 1 10
REMARK H PARENT
REMARK Flexibility Score: inf
ROOT
ATOM      1  C   UNL     1      29.362 -22.397  24.376  1.00  0.00     0.000 C 
ENDROOT
BRANCH   1   2
ATOM      2  C   UNL     1      29.063 -22.558  22.877  1.00  0.00     0.006 C 
BRANCH   2   3
ATOM      3  C   UNL     1      28.563 -21.259  22.231  1.00  0.00     0.053 C 
BRANCH   3   4
ATOM      4  C   UNL     1      29.649 -20.230  22.222  1.00  0.00     0.041 C 
ATOM      5  O   UNL     1      30.672 -20.396  21.506  1.00  0.00    -0.550 OA
ATOM      6  O   UNL     1      29.556 -19.112  23.041  1.00  0.00    -0.550 OA
ENDBRANCH   3   4
ENDBRANCH   2   3
ENDBRANCH   1   2
BRANCH   1   7
ATOM      7  C   UNL     1      28.316 -23.086  25.265  1.00  0.00     0.000 C 
BRANCH   7   8
ATOM      8  C   UNL     1      27.737 -22.105  26.292  1.00  0.00    -0.000 C 
BRANCH   8   9
ATOM      9  C   UNL     1      27.181 -20.853  25.604  1.00  0.00    -0.003 C 
ATOM     10  C   UNL     1      27.705 -19.582  26.266  1.00  0.00     0.004 C 
ENDBRANCH   8   9
ENDBRANCH   7   8
ENDBRANCH   1   7
TORSDOF 6
ENDMDL
MODEL 3
REMARK VINA RESULT:    -3.395      1.206      1.508
REMARK INTER + INTRA:          -5.099
REMARK INTER:                  -4.580
REMARK INTRA:                  -0.520
REMARK UNBOUND:                -0.513
REMARK SMILES CCCCCCCC(=O)[O-]
REMARK SMILES IDX 5 1 6 2 7 3 8 4 9 5 10 6 4 7 3 8 2 9 1 10
REMARK H PARENT
REMARK Flexibility Score: inf
ROOT
ATOM      1  C   UNL     1      29.219 -23.540  24.551  1.00  0.00     0.000 C 
ENDROOT
BRANCH   1   2
ATOM      2  C   UNL     1      28.044 -23.211  25.486  1.00  0.00     0.006 C 
BRANCH   2   3
ATOM      3  C   UNL     1      28.386 -22.112  26.500  1.00  0.00     0.053 C 
BRANCH   3   4
ATOM      4  C   UNL     1      27.966 -20.773  25.980  1.00  0.00     0.041 C 
ATOM      5  O   UNL     1      28.812 -19.848  25.857  1.00  0.00    -0.550 OA
ATOM      6  O   UNL     1      26.632 -20.531  25.677  1.00  0.00    -0.550 OA
ENDBRANCH   3   4
ENDBRANCH   2   3
ENDBRANCH   1   2
BRANCH   1   7
ATOM      7  C   UNL     1      28.933 -23.171  23.088  1.00  0.00     0.000 C 
BRANCH   7   8
ATOM      8  C   UNL     1      29.674 -21.889  22.690  1.00  0.00    -0.000 C 
BRANCH   8   9
ATOM      9  C   UNL     1      28.687 -20.781  22.305  1.00  0.00    -0.003 C 
ATOM     10  C   UNL     1      29.346 -19.406  22.379  1.00  0.00     0.004 C 
ENDBRANCH   8   9
ENDBRANCH   7   8
ENDBRANCH   1   7
TORSDOF 6
ENDMDL
MODEL 4
REMARK VINA RESULT:    -3.363      1.944      3.044
REMARK INTER + INTRA:          -5.055
REMARK INTER:                  -4.583
REMARK INTRA:                  -0.472
REMARK UNBOUND:                -0.513
REMARK SMILES CCCCCCCC(=O)[O-]
REMARK SMILES IDX 5 1 6 2 7 3 8 4 9 5 10 6 4 7 3 8 2 9 1 10
REMARK H PARENT
REMARK Flexibility Score: inf
ROOT
ATOM      1  C   UNL     1      29.125 -20.421  23.862  1.00  0.00     0.000 C 
ENDROOT
BRANCH   1   2
ATOM      2  C   UNL     1      27.961 -20.744  24.813  1.00  0.00     0.006 C 
BRANCH   2   3
ATOM      3  C   UNL     1      28.416 -20.909  26.268  1.00  0.00     0.053 C 
BRANCH   3   4
ATOM      4  C   UNL     1      28.207 -22.319  26.723  1.00  0.00     0.041 C 
ATOM      5  O   UNL     1      28.903 -22.794  27.659  1.00  0.00    -0.550 OA
ATOM      6  O   UNL     1      27.276 -23.127  26.080  1.00  0.00    -0.550 OA
ENDBRANCH   3   4
ENDBRANCH   2   3
ENDBRANCH   1   2
BRANCH   1   7
ATOM      7  C   UNL     1      29.122 -21.300  22.603  1.00  0.00     0.000 C 
BRANCH   7   8
ATOM      8  C   UNL     1      28.653 -22.724  22.928  1.00  0.00    -0.000 C 
BRANCH   8   9
ATOM      9  C   UNL     1      29.790 -23.550  23.542  1.00  0.00    -0.003 C 
ATOM     10  C   UNL     1      29.372 -25.005  23.734  1.00  0.00     0.004 C 
ENDBRANCH   8   9
ENDBRANCH   7   8
ENDBRANCH   1   7
TORSDOF 6
ENDMDL
MODEL 5
REMARK VINA RESULT:    -3.288      1.194      2.170
REMARK INTER + INTRA:          -4.954
REMARK INTER:                  -4.622
REMARK INTRA:                  -0.332
REMARK UNBOUND:                -0.513
REMARK SMILES CCCCCCCC(=O)[O-]
REMARK SMILES IDX 5 1 6 2 7 3 8 4 9 5 10 6 4 7 3 8 2 9 1 10
REMARK H PARENT
REMARK Flexibility Score: inf
ROOT
ATOM      1  C   UNL     1      28.573 -20.918  23.698  1.00  0.00     0.000 C 
ENDROOT
BRANCH   1   2
ATOM      2  C   UNL     1      28.121 -21.371  25.095  1.00  0.00     0.006 C 
BRANCH   2   3
ATOM      3  C   UNL     1      27.296 -20.303  25.824  1.00  0.00     0.053 C 
BRANCH   3   4
ATOM      4  C   UNL     1      28.198 -19.284  26.447  1.00  0.00     0.041 C 
ATOM      5  O   UNL     1      28.728 -19.508  27.567  1.00  0.00    -0.550 OA
ATOM      6  O   UNL     1      28.414 -18.066  25.815  1.00  0.00    -0.550 OA
ENDBRANCH   3   4
ENDBRANCH   2   3
ENDBRANCH   1   2
BRANCH   1   7
ATOM      7  C   UNL     1      28.867 -22.099  22.759  1.00  0.00     0.000 C 
BRANCH   7   8
ATOM      8  C   UNL     1      28.913 -23.419  23.537  1.00  0.00    -0.000 C 
BRANCH   8   9
ATOM      9  C   UNL     1      30.083 -24.293  23.069  1.00  0.00    -0.003 C 
ATOM     10  C   UNL     1      31.318 -23.447  22.775  1.00  0.00     0.004 C 
ENDBRANCH   8   9
ENDBRANCH   7   8
ENDBRANCH   1   7
TORSDOF 6
ENDMDL
MODEL 6
REMARK VINA RESULT:    -3.261      2.027      2.458
REMARK INTER + INTRA:          -4.918
REMARK INTER:                  -4.617
REMARK INTRA:                  -0.301
REMARK UNBOUND:                -0.513
REMARK SMILES CCCCCCCC(=O)[O-]
REMARK SMILES IDX 5 1 6 2 7 3 8 4 9 5 10 6 4 7 3 8 2 9 1 10
REMARK H PARENT
REMARK Flexibility Score: inf
ROOT
ATOM      1  C   UNL     1      28.001 -22.818  25.675  1.00  0.00     0.000 C 
ENDROOT
BRANCH   1   2
ATOM      2  C   UNL     1      28.516 -22.660  27.114  1.00  0.00     0.006 C 
BRANCH   2   3
ATOM      3  C   UNL     1      29.455 -21.457  27.277  1.00  0.00     0.053 C 
BRANCH   3   4
ATOM      4  C   UNL     1      29.803 -21.259  28.718  1.00  0.00     0.041 C 
ATOM      5  O   UNL     1      30.337 -22.191  29.375  1.00  0.00    -0.550 OA
ATOM      6  O   UNL     1      29.493 -20.061  29.351  1.00  0.00    -0.550 OA
ENDBRANCH   3   4
ENDBRANCH   2   3
ENDBRANCH   1   2
BRANCH   1   7
ATOM      7  C   UNL     1      28.988 -23.577  24.774  1.00  0.00     0.000 C 
BRANCH   7   8
ATOM      8  C   UNL     1      28.809 -23.176  23.305  1.00  0.00    -0.000 C 
BRANCH   8   9
ATOM      9  C   UNL     1      29.599 -21.902  22.982  1.00  0.00    -0.003 C 
ATOM     10  C   UNL     1      28.671 -20.775  22.540  1.00  0.00     0.004 C 
ENDBRANCH   8   9
ENDBRANCH   7   8
ENDBRANCH   1   7
TORSDOF 6
ENDMDL
MODEL 7
REMARK VINA RESULT:    -3.227      2.590      4.457
REMARK INTER + INTRA:          -4.871
REMARK INTER:                  -4.330
REMARK INTRA:                  -0.541
REMARK UNBOUND:                -0.513
REMARK SMILES CCCCCCCC(=O)[O-]
REMARK SMILES IDX 5 1 6 2 7 3 8 4 9 5 10 6 4 7 3 8 2 9 1 10
REMARK H PARENT
REMARK Flexibility Score: inf
ROOT
ATOM      1  C   UNL     1      28.749 -20.341  23.261  1.00  0.00     0.000 C 
ENDROOT
BRANCH   1   2
ATOM      2  C   UNL     1      29.127 -21.514  22.342  1.00  0.00     0.006 C 
BRANCH   2   3
ATOM      3  C   UNL     1      28.676 -22.870  22.899  1.00  0.00     0.053 C 
BRANCH   3   4
ATOM      4  C   UNL     1      29.862 -23.690  23.298  1.00  0.00     0.041 C 
ATOM      5  O   UNL     1      29.782 -24.947  23.328  1.00  0.00    -0.550 OA
ATOM      6  O   UNL     1      31.042 -23.066  23.684  1.00  0.00    -0.550 OA
ENDBRANCH   3   4
ENDBRANCH   2   3
ENDBRANCH   1   2
BRANCH   1   7
ATOM      7  C   UNL     1      28.088 -20.804  24.569  1.00  0.00     0.000 C 
BRANCH   7   8
ATOM      8  C   UNL     1      29.080 -20.743  25.736  1.00  0.00    -0.000 C 
BRANCH   8   9
ATOM      9  C   UNL     1      28.942 -21.973  26.640  1.00  0.00    -0.003 C 
ATOM     10  C   UNL     1      27.631 -22.707  26.376  1.00  0.00     0.004 C 
ENDBRANCH   8   9
ENDBRANCH   7   8
ENDBRANCH   1   7
TORSDOF 6
ENDMDL
MODEL 8
REMARK VINA RESULT:    -3.188     13.945     15.209
REMARK INTER + INTRA:          -4.820
REMARK INTER:                  -4.459
REMARK INTRA:                  -0.361
REMARK UNBOUND:                -0.513
REMARK SMILES CCCCCCCC(=O)[O-]
REMARK SMILES IDX 5 1 6 2 7 3 8 4 9 5 10 6 4 7 3 8 2 9 1 10
REMARK H PARENT
REMARK Flexibility Score: inf
ROOT
ATOM      1  C   UNL     1      32.183  -6.327  18.674  1.00  0.00     0.000 C 
ENDROOT
BRANCH   1   2
ATOM      2  C   UNL     1      32.164  -6.647  20.177  1.00  0.00     0.006 C 
BRANCH   2   3
ATOM      3  C   UNL     1      31.018  -7.589  20.566  1.00  0.00     0.053 C 
BRANCH   3   4
ATOM      4  C   UNL     1      30.686  -7.436  22.016  1.00  0.00     0.041 C 
ATOM      5  O   UNL     1      31.240  -6.536  22.701  1.00  0.00    -0.550 OA
ATOM      6  O   UNL     1      29.801  -8.317  22.625  1.00  0.00    -0.550 OA
ENDBRANCH   3   4
ENDBRANCH   2   3
ENDBRANCH   1   2
BRANCH   1   7
ATOM      7  C   UNL     1      31.399  -7.352  17.841  1.00  0.00     0.000 C 
BRANCH   7   8
ATOM      8  C   UNL     1      32.041  -7.544  16.461  1.00  0.00    -0.000 C 
BRANCH   8   9
ATOM      9  C   UNL     1      32.378  -9.019  16.212  1.00  0.00    -0.003 C 
ATOM     10  C   UNL     1      32.384  -9.811  17.517  1.00  0.00     0.004 C 
ENDBRANCH   8   9
ENDBRANCH   7   8
ENDBRANCH   1   7
TORSDOF 6
ENDMDL
MODEL 9
REMARK VINA RESULT:    -3.171      2.600      3.989
REMARK INTER + INTRA:          -4.795
REMARK INTER:                  -4.237
REMARK INTRA:                  -0.558
REMARK UNBOUND:                -0.513
REMARK SMILES CCCCCCCC(=O)[O-]
REMARK SMILES IDX 5 1 6 2 7 3 8 4 9 5 10 6 4 7 3 8 2 9 1 10
REMARK H PARENT
REMARK Flexibility Score: inf
ROOT
ATOM      1  C   UNL     1      28.889 -20.694  24.626  1.00  0.00     0.000 C 
ENDROOT
BRANCH   1   2
ATOM      2  C   UNL     1      28.552 -20.152  23.227  1.00  0.00     0.006 C 
BRANCH   2   3
ATOM      3  C   UNL     1      28.994 -21.099  22.105  1.00  0.00     0.053 C 
BRANCH   3   4
ATOM      4  C   UNL     1      30.471 -20.996  21.887  1.00  0.00     0.041 C 
ATOM      5  O   UNL     1      30.958 -19.982  21.321  1.00  0.00    -0.550 OA
ATOM      6  O   UNL     1      31.305 -22.041  22.265  1.00  0.00    -0.550 OA
ENDBRANCH   3   4
ENDBRANCH   2   3
ENDBRANCH   1   2
BRANCH   1   7
ATOM      7  C   UNL     1      27.681 -21.349  25.313  1.00  0.00     0.000 C 
BRANCH   7   8
ATOM      8  C   UNL     1      28.015 -22.774  25.770  1.00  0.00    -0.000 C 
BRANCH   8   9
ATOM      9  C   UNL     1      29.239 -23.318  25.024  1.00  0.00    -0.003 C 
ATOM     10  C   UNL     1      28.835 -24.363  23.989  1.00  0.00     0.004 C 
ENDBRANCH   8   9
ENDBRANCH   7   8
ENDBRANCH   1   7
TORSDOF 6
ENDMDL
