MODEL 1
REMARK VINA RESULT:    -3.470      0.000      0.000
REMARK INTER + INTRA:          -4.765
REMARK INTER:                  -4.281
REMARK INTRA:                  -0.484
REMARK UNBOUND:                -0.484
REMARK SMILES C=CC[C@@H](C)C(=O)CC
REMARK SMILES IDX 4 1 5 2 6 3 7 4 8 5 9 6 3 7 2 8 1 9
REMARK H PARENT
REMARK Flexibility Score: inf
ROOT
ATOM      1  C   UNL     1       6.671   2.632  -6.828  1.00  0.00     0.057 C 
ATOM      2  C   UNL     1       7.639   3.531  -7.605  1.00  0.00     0.016 C 
ENDROOT
BRANCH   1   3
ATOM      3  C   UNL     1       7.429   1.482  -6.194  1.00  0.00     0.135 C 
ATOM      4  O   UNL     1       6.815   0.598  -5.614  1.00  0.00    -0.299 OA
BRANCH   3   5
ATOM      5  C   UNL     1       8.934   1.415  -6.251  1.00  0.00     0.072 C 
ATOM      6  C   UNL     1       9.536   1.461  -4.850  1.00  0.00     0.012 C 
ENDBRANCH   3   5
ENDBRANCH   1   3
BRANCH   1   7
ATOM      7  C   UNL     1       5.908   3.452  -5.766  1.00  0.00     0.038 C 
BRANCH   7   8
ATOM      8  C   UNL     1       6.774   4.512  -5.137  1.00  0.00    -0.034 C 
ATOM      9  C   UNL     1       7.371   4.325  -3.956  1.00  0.00     0.004 C 
ENDBRANCH   7   8
ENDBRANCH   1   7
TORSDOF 4
ENDMDL
MODEL 2
REMARK VINA RESULT:    -3.421      1.000      2.339
REMARK INTER + INTRA:          -4.704
REMARK INTER:                  -4.215
REMARK INTRA:                  -0.490
REMARK UNBOUND:                -0.484
REMARK SMILES C=CC[C@@H](C)C(=O)CC
REMARK SMILES IDX 4 1 5 2 6 3 7 4 8 5 9 6 3 7 2 8 1 9
REMARK H PARENT
REMARK Flexibility Score: inf
ROOT
ATOM      1  C   UNL     1       8.292   2.639  -5.483  1.00  0.00     0.057 C 
ATOM      2  C   UNL     1       9.399   1.928  -4.696  1.00  0.00     0.016 C 
ENDROOT
BRANCH   1   3
ATOM      3  C   UNL     1       7.447   1.620  -6.220  1.00  0.00     0.135 C 
ATOM      4  O   UNL     1       6.950   0.686  -5.606  1.00  0.00    -0.299 OA
BRANCH   3   5
ATOM      5  C   UNL     1       7.217   1.727  -7.706  1.00  0.00     0.072 C 
ATOM      6  C   UNL     1       8.198   2.705  -8.342  1.00  0.00     0.012 C 
ENDBRANCH   3   5
ENDBRANCH   1   3
BRANCH   1   7
ATOM      7  C   UNL     1       7.430   3.504  -4.539  1.00  0.00     0.038 C 
BRANCH   7   8
ATOM      8  C   UNL     1       6.385   4.291  -5.286  1.00  0.00    -0.034 C 
ATOM      9  C   UNL     1       6.706   5.331  -6.060  1.00  0.00     0.004 C 
ENDBRANCH   7   8
ENDBRANCH   1   7
TORSDOF 4
ENDMDL
MODEL 3
REMARK VINA RESULT:    -3.397      1.701      2.331
REMARK INTER + INTRA:          -4.675
REMARK INTER:                  -4.398
REMARK INTRA:                  -0.277
REMARK UNBOUND:                -0.484
REMARK SMILES C=CC[C@@H](C)C(=O)CC
REMARK SMILES IDX 4 1 5 2 6 3 7 4 8 5 9 6 3 7 2 8 1 9
REMARK H PARENT
REMARK Flexibility Score: inf
ROOT
ATOM      1  C   UNL     1       5.993   3.827  -5.969  1.00  0.00     0.057 C 
ATOM      2  C   UNL     1       6.024   3.472  -7.460  1.00  0.00     0.016 C 
ENDROOT
BRANCH   1   3
ATOM      3  C   UNL     1       6.772   2.796  -5.176  1.00  0.00     0.135 C 
ATOM      4  O   UNL     1       6.476   1.613  -5.265  1.00  0.00    -0.299 OA
BRANCH   3   5
ATOM      5  C   UNL     1       7.900   3.204  -4.264  1.00  0.00     0.072 C 
ATOM      6  C   UNL     1       9.192   2.484  -4.635  1.00  0.00     0.012 C 
ENDBRANCH   3   5
ENDBRANCH   1   3
BRANCH   1   7
ATOM      7  C   UNL     1       6.553   5.248  -5.742  1.00  0.00     0.038 C 
BRANCH   7   8
ATOM      8  C   UNL     1       6.767   5.987  -7.037  1.00  0.00    -0.034 C 
ATOM      9  C   UNL     1       6.269   7.210  -7.242  1.00  0.00     0.004 C 
ENDBRANCH   7   8
ENDBRANCH   1   7
TORSDOF 4
ENDMDL
MODEL 4
REMARK VINA RESULT:    -3.300     14.437     15.828
REMARK INTER + INTRA:          -4.556
REMARK INTER:                  -4.133
REMARK INTRA:                  -0.423
REMARK UNBOUND:                -0.484
REMARK SMILES C=CC[C@@H](C)C(=O)CC
REMARK SMILES IDX 4 1 5 2 6 3 7 4 8 5 9 6 3 7 2 8 1 9
REMARK H PARENT
REMARK Flexibility Score: inf
ROOT
ATOM      1  C   UNL     1      -4.108  12.078  -6.190  1.00  0.00     0.057 C 
ATOM      2  C   UNL     1      -3.112  11.916  -7.344  1.00  0.00     0.016 C 
ENDROOT
BRANCH   1   3
ATOM      3  C   UNL     1      -3.476  12.881  -5.070  1.00  0.00     0.135 C 
ATOM      4  O   UNL     1      -2.653  13.746  -5.335  1.00  0.00    -0.299 OA
BRANCH   3   5
ATOM      5  C   UNL     1      -3.833  12.624  -3.629  1.00  0.00     0.072 C 
ATOM      6  C   UNL     1      -4.795  13.685  -3.105  1.00  0.00     0.012 C 
ENDBRANCH   3   5
ENDBRANCH   1   3
BRANCH   1   7
ATOM      7  C   UNL     1      -5.409  12.741  -6.690  1.00  0.00     0.038 C 
BRANCH   7   8
ATOM      8  C   UNL     1      -6.617  11.876  -6.447  1.00  0.00    -0.034 C 
ATOM      9  C   UNL     1      -6.722  11.100  -5.364  1.00  0.00     0.004 C 
ENDBRANCH   7   8
ENDBRANCH   1   7
TORSDOF 4
ENDMDL
MODEL 5
REMARK VINA RESULT:    -3.291     14.906     16.360
REMARK INTER + INTRA:          -4.544
REMARK INTER:                  -4.145
REMARK INTRA:                  -0.399
REMARK UNBOUND:                -0.484
REMARK SMILES C=CC[C@@H](C)C(=O)CC
REMARK SMILES IDX 4 1 5 2 6 3 7 4 8 5 9 6 3 7 2 8 1 9
REMARK H PARENT
REMARK Flexibility Score: inf
ROOT
ATOM      1  C   UNL     1      -6.055  11.812  -4.534  1.00  0.00     0.057 C 
ATOM      2  C   UNL     1      -7.194  10.800  -4.700  1.00  0.00     0.016 C 
ENDROOT
BRANCH   1   3
ATOM      3  C   UNL     1      -5.278  11.932  -5.830  1.00  0.00     0.135 C 
ATOM      4  O   UNL     1      -5.874  12.145  -6.877  1.00  0.00    -0.299 OA
BRANCH   3   5
ATOM      5  C   UNL     1      -3.779  11.780  -5.857  1.00  0.00     0.072 C 
ATOM      6  C   UNL     1      -3.094  13.133  -6.014  1.00  0.00     0.012 C 
ENDBRANCH   3   5
ENDBRANCH   1   3
BRANCH   1   7
ATOM      7  C   UNL     1      -6.611  13.180  -4.086  1.00  0.00     0.038 C 
BRANCH   7   8
ATOM      8  C   UNL     1      -6.004  13.643  -2.788  1.00  0.00    -0.034 C 
ATOM      9  C   UNL     1      -4.683  13.784  -2.638  1.00  0.00     0.004 C 
ENDBRANCH   7   8
ENDBRANCH   1   7
TORSDOF 4
ENDMDL
MODEL 6
REMARK VINA RESULT:    -3.274     15.412     17.054
REMARK INTER + INTRA:          -4.523
REMARK INTER:                  -4.123
REMARK INTRA:                  -0.400
REMARK UNBOUND:                -0.484
REMARK SMILES C=CC[C@@H](C)C(=O)CC
REMARK SMILES IDX 4 1 5 2 6 3 7 4 8 5 9 6 3 7 2 8 1 9
REMARK H PARENT
REMARK Flexibility Score: inf
ROOT
ATOM      1  C   UNL     1      -5.353  11.760  -4.775  1.00  0.00     0.057 C 
ATOM      2  C   UNL     1      -4.076  11.873  -5.615  1.00  0.00     0.016 C 
ENDROOT
BRANCH   1   3
ATOM      3  C   UNL     1      -5.390  12.865  -3.738  1.00  0.00     0.135 C 
ATOM      4  O   UNL     1      -4.532  12.907  -2.867  1.00  0.00    -0.299 OA
BRANCH   3   5
ATOM      5  C   UNL     1      -6.476  13.909  -3.749  1.00  0.00     0.072 C 
ATOM      6  C   UNL     1      -7.288  13.868  -2.458  1.00  0.00     0.012 C 
ENDBRANCH   3   5
ENDBRANCH   1   3
BRANCH   1   7
ATOM      7  C   UNL     1      -6.600  11.803  -5.683  1.00  0.00     0.038 C 
BRANCH   7   8
ATOM      8  C   UNL     1      -7.505  10.619  -5.461  1.00  0.00    -0.034 C 
ATOM      9  C   UNL     1      -8.113  10.406  -4.291  1.00  0.00     0.004 C 
ENDBRANCH   7   8
ENDBRANCH   1   7
TORSDOF 4
ENDMDL
MODEL 7
REMARK VINA RESULT:    -3.252     15.323     16.342
REMARK INTER + INTRA:          -4.496
REMARK INTER:                  -4.088
REMARK INTRA:                  -0.408
REMARK UNBOUND:                -0.484
REMARK SMILES C=CC[C@@H](C)C(=O)CC
REMARK SMILES IDX 4 1 5 2 6 3 7 4 8 5 9 6 3 7 2 8 1 9
REMARK H PARENT
REMARK Flexibility Score: inf
ROOT
ATOM      1  C   UNL     1      -4.301  13.427  -4.683  1.00  0.00     0.057 C 
ATOM      2  C   UNL     1      -2.868  13.913  -4.929  1.00  0.00     0.016 C 
ENDROOT
BRANCH   1   3
ATOM      3  C   UNL     1      -4.641  12.311  -5.651  1.00  0.00     0.135 C 
ATOM      4  O   UNL     1      -3.775  11.515  -5.987  1.00  0.00    -0.299 OA
BRANCH   3   5
ATOM      5  C   UNL     1      -6.028  12.171  -6.223  1.00  0.00     0.072 C 
ATOM      6  C   UNL     1      -6.846  11.155  -5.433  1.00  0.00     0.012 C 
ENDBRANCH   3   5
ENDBRANCH   1   3
BRANCH   1   7
ATOM      7  C   UNL     1      -4.471  12.969  -3.219  1.00  0.00     0.038 C 
BRANCH   7   8
ATOM      8  C   UNL     1      -5.431  13.846  -2.458  1.00  0.00    -0.034 C 
ATOM      9  C   UNL     1      -6.737  13.870  -2.737  1.00  0.00     0.004 C 
ENDBRANCH   7   8
ENDBRANCH   1   7
TORSDOF 4
ENDMDL
MODEL 8
REMARK VINA RESULT:    -3.248      1.604      3.265
REMARK INTER + INTRA:          -4.491
REMARK INTER:                  -4.010
REMARK INTRA:                  -0.481
REMARK UNBOUND:                -0.484
REMARK SMILES C=CC[C@@H](C)C(=O)CC
REMARK SMILES IDX 4 1 5 2 6 3 7 4 8 5 9 6 3 7 2 8 1 9
REMARK H PARENT
REMARK Flexibility Score: inf
ROOT
ATOM      1  C   UNL     1       7.680   1.742  -7.548  1.00  0.00     0.057 C 
ATOM      2  C   UNL     1       8.451   3.049  -7.765  1.00  0.00     0.016 C 
ENDROOT
BRANCH   1   3
ATOM      3  C   UNL     1       7.143   1.688  -6.131  1.00  0.00     0.135 C 
ATOM      4  O   UNL     1       6.839   0.611  -5.639  1.00  0.00    -0.299 OA
BRANCH   3   5
ATOM      5  C   UNL     1       6.960   2.944  -5.319  1.00  0.00     0.072 C 
ATOM      6  C   UNL     1       5.553   3.508  -5.493  1.00  0.00     0.012 C 
ENDBRANCH   3   5
ENDBRANCH   1   3
BRANCH   1   7
ATOM      7  C   UNL     1       6.542   1.609  -8.583  1.00  0.00     0.038 C 
BRANCH   7   8
ATOM      8  C   UNL     1       6.125   2.945  -9.143  1.00  0.00    -0.034 C 
ATOM      9  C   UNL     1       4.848   3.336  -9.154  1.00  0.00     0.004 C 
ENDBRANCH   7   8
ENDBRANCH   1   7
TORSDOF 4
ENDMDL
MODEL 9
REMARK VINA RESULT:    -3.191     15.055     16.646
REMARK INTER + INTRA:          -4.421
REMARK INTER:                  -4.085
REMARK INTRA:                  -0.336
REMARK UNBOUND:                -0.484
REMARK SMILES C=CC[C@@H](C)C(=O)CC
REMARK SMILES IDX 4 1 5 2 6 3 7 4 8 5 9 6 3 7 2 8 1 9
REMARK H PARENT
REMARK Flexibility Score: inf
ROOT
ATOM      1  C   UNL     1      -4.971  12.745  -3.702  1.00  0.00     0.057 C 
ATOM      2  C   UNL     1      -4.827  13.725  -2.532  1.00  0.00     0.016 C 
ENDROOT
BRANCH   1   3
ATOM      3  C   UNL     1      -6.215  13.074  -4.503  1.00  0.00     0.135 C 
ATOM      4  O   UNL     1      -6.221  14.053  -5.236  1.00  0.00    -0.299 OA
BRANCH   3   5
ATOM      5  C   UNL     1      -7.454  12.224  -4.402  1.00  0.00     0.072 C 
ATOM      6  C   UNL     1      -7.144  10.764  -4.721  1.00  0.00     0.012 C 
ENDBRANCH   3   5
ENDBRANCH   1   3
BRANCH   1   7
ATOM      7  C   UNL     1      -3.708  12.777  -4.590  1.00  0.00     0.038 C 
BRANCH   7   8
ATOM      8  C   UNL     1      -3.799  11.808  -5.740  1.00  0.00    -0.034 C 
ATOM      9  C   UNL     1      -3.421  12.146  -6.977  1.00  0.00     0.004 C 
ENDBRANCH   7   8
ENDBRANCH   1   7
TORSDOF 4
ENDMDL
