MODEL 1
REMARK VINA RESULT:   131.226      0.000      0.000
REMARK INTER + INTRA:         142.638
REMARK INTER:                 142.733
REMARK INTRA:                  -0.095
REMARK UNBOUND:                -0.095
REMARK SMILES C=C(C)[C@@H]1CC[C@]2(C)CC[C@]3(C)[C@H](CC[C@@H]4[C@]5(C)CC[C@H](O)C(C)(C)[C@H]5CC[C@]43C)[C@H]12
REMARK SMILES IDX 4 1 5 2 6 3 7 4 31 5 13 6 14 7 15 8 16 9 17 10 19 11 20 12
REMARK SMILES IDX 21 13 23 14 26 15 27 16 28 17 29 18 11 19 10 20 9 21 12 22
REMARK SMILES IDX 30 23 24 24 25 25 18 26 8 27 2 28 3 29 1 30 22 31
REMARK H PARENT 22 32
REMARK Flexibility Score: inf
ROOT
ATOM      1  C   UNL     1      -2.246  -1.246  -0.693  1.00  0.00     0.018 C 
ATOM      2  C   UNL     1      -2.256   0.237  -1.023  1.00  0.00     0.009 C 
ATOM      3  C   UNL     1      -2.499   0.926   0.326  1.00  0.00     0.008 C 
ATOM      4  C   UNL     1      -2.271  -0.131   1.465  1.00  0.00    -0.029 C 
ATOM      5  C   UNL     1      -1.580  -1.334   0.716  1.00  0.00     0.006 C 
ATOM      6  C   UNL     1       0.026  -1.403   0.784  1.00  0.00    -0.000 C 
ATOM      7  C   UNL     1       0.825  -1.741  -0.523  1.00  0.00     0.005 C 
ATOM      8  C   UNL     1       2.370  -1.930  -0.380  1.00  0.00     0.005 C 
ATOM      9  C   UNL     1       3.019  -0.878   0.566  1.00  0.00     0.002 C 
ATOM     10  C   UNL     1       4.618  -0.697   0.637  1.00  0.00    -0.026 C 
ATOM     11  C   UNL     1       5.416  -1.393  -0.530  1.00  0.00     0.010 C 
ATOM     12  C   UNL     1       5.858  -2.804  -0.179  1.00  0.00     0.033 C 
ATOM     13  C   UNL     1       6.883  -2.810   0.973  1.00  0.00     0.120 C 
ATOM     14  C   UNL     1       6.604  -1.737   2.119  1.00  0.00    -0.006 C 
ATOM     15  C   UNL     1       5.097  -1.256   2.018  1.00  0.00     0.003 C 
ATOM     16  C   UNL     1       4.534  -0.421   3.202  1.00  0.00     0.005 C 
ATOM     17  C   UNL     1       3.042   0.003   3.019  1.00  0.00     0.008 C 
ATOM     18  C   UNL     1       2.246  -0.867   1.977  1.00  0.00    -0.024 C 
ATOM     19  C   UNL     1       0.757  -0.303   1.662  1.00  0.00    -0.024 C 
ATOM     20  C   UNL     1      -0.091  -0.099   2.947  1.00  0.00     0.008 C 
ATOM     21  C   UNL     1      -1.495   0.475   2.688  1.00  0.00     0.007 C 
ATOM     22  C   UNL     1       0.839   1.095   0.929  1.00  0.00     0.012 C 
ATOM     23  C   UNL     1       2.157  -2.304   2.661  1.00  0.00     0.012 C 
ATOM     24  C   UNL     1       7.611  -0.568   1.986  1.00  0.00     0.014 C 
ATOM     25  C   UNL     1       6.856  -2.364   3.520  1.00  0.00     0.014 C 
ATOM     26  C   UNL     1       4.931   0.838   0.519  1.00  0.00     0.012 C 
ATOM     27  C   UNL     1      -3.667  -0.567   2.018  1.00  0.00     0.011 C 
ENDROOT
BRANCH   1  28
ATOM     28  C   UNL     1      -1.864  -2.234  -1.796  1.00  0.00    -0.077 C 
ATOM     29  C   UNL     1      -1.493  -3.681  -1.524  1.00  0.00     0.039 C 
ATOM     30  C   UNL     1      -1.716  -1.785  -3.061  1.00  0.00     0.008 C 
ENDBRANCH   1  28
BRANCH  13  31
ATOM     31  O   UNL     1       7.002  -4.125   1.472  1.00  0.00    -0.393 OA
ATOM     32  H   UNL     1       6.625  -4.139   2.390  1.00  0.00     0.210 HD
ENDBRANCH  13  31
TORSDOF 2
ENDMDL
