MODEL 1
REMARK VINA RESULT:    -3.242      0.000      0.000
REMARK INTER + INTRA:          -3.548
REMARK INTER:                  -3.526
REMARK INTRA:                  -0.022
REMARK UNBOUND:                -0.022
REMARK SMILES OCc1ccco1
REMARK SMILES IDX 2 1 3 2 5 3 6 4 4 5 7 6 1 7
REMARK H PARENT 1 8
REMARK Flexibility Score: inf
ROOT
ATOM      1  C   UNL     1      39.159 -43.497  19.094  1.00  0.00     0.231 C 
ENDROOT
BRANCH   1   2
ATOM      2  C   UNL     1      39.131 -42.191  19.815  1.00  0.00     0.129 A 
ATOM      3  C   UNL     1      39.324 -40.059  20.308  1.00  0.00     0.042 A 
ATOM      4  C   UNL     1      38.749 -40.761  21.349  1.00  0.00     0.195 A 
ATOM      5  C   UNL     1      39.568 -40.982  19.314  1.00  0.00     0.048 A 
ATOM      6  O   UNL     1      38.644 -42.029  21.025  1.00  0.00    -0.467 OA
ENDBRANCH   1   2
BRANCH   1   7
ATOM      7  O   UNL     1      38.226 -44.364  19.671  1.00  0.00    -0.388 OA
ATOM      8  H   UNL     1      38.597 -45.278  19.563  1.00  0.00     0.211 HD
ENDBRANCH   1   7
TORSDOF 2
ENDMDL
MODEL 2
REMARK VINA RESULT:    -3.237      1.755      2.342
REMARK INTER + INTRA:          -3.543
REMARK INTER:                  -3.526
REMARK INTRA:                  -0.017
REMARK UNBOUND:                -0.022
REMARK SMILES OCc1ccco1
REMARK SMILES IDX 2 1 3 2 5 3 6 4 4 5 7 6 1 7
REMARK H PARENT 1 8
REMARK Flexibility Score: inf
ROOT
ATOM      1  C   UNL     1      38.162 -44.104  22.281  1.00  0.00     0.231 C 
ENDROOT
BRANCH   1   2
ATOM      2  C   UNL     1      38.585 -43.238  21.141  1.00  0.00     0.129 A 
ATOM      3  C   UNL     1      39.246 -42.543  19.165  1.00  0.00     0.042 A 
ATOM      4  C   UNL     1      38.997 -41.479  20.010  1.00  0.00     0.195 A 
ATOM      5  C   UNL     1      38.977 -43.681  19.894  1.00  0.00     0.048 A 
ATOM      6  O   UNL     1      38.601 -41.926  21.180  1.00  0.00    -0.467 OA
ENDBRANCH   1   2
BRANCH   1   7
ATOM      7  O   UNL     1      38.042 -45.425  21.839  1.00  0.00    -0.388 OA
ATOM      8  H   UNL     1      37.434 -45.876  22.480  1.00  0.00     0.211 HD
ENDBRANCH   1   7
TORSDOF 2
ENDMDL
MODEL 3
REMARK VINA RESULT:    -3.188     10.469     11.071
REMARK INTER + INTRA:          -3.490
REMARK INTER:                  -3.476
REMARK INTRA:                  -0.013
REMARK UNBOUND:                -0.022
REMARK SMILES OCc1ccco1
REMARK SMILES IDX 2 1 3 2 5 3 6 4 4 5 7 6 1 7
REMARK H PARENT 1 8
REMARK Flexibility Score: inf
ROOT
ATOM      1  C   UNL     1      41.374 -46.071  29.736  1.00  0.00     0.231 C 
ENDROOT
BRANCH   1   2
ATOM      2  C   UNL     1      42.557 -45.197  29.994  1.00  0.00     0.129 A 
ATOM      3  C   UNL     1      43.970 -43.516  29.973  1.00  0.00     0.042 A 
ATOM      4  C   UNL     1      44.387 -44.507  30.840  1.00  0.00     0.195 A 
ATOM      5  C   UNL     1      42.785 -43.960  29.427  1.00  0.00     0.048 A 
ATOM      6  O   UNL     1      43.522 -45.495  30.833  1.00  0.00    -0.467 OA
ENDBRANCH   1   2
BRANCH   1   7
ATOM      7  O   UNL     1      41.463 -46.602  28.445  1.00  0.00    -0.388 OA
ATOM      8  H   UNL     1      41.424 -45.827  27.827  1.00  0.00     0.211 HD
ENDBRANCH   1   7
TORSDOF 2
ENDMDL
MODEL 4
REMARK VINA RESULT:    -2.963      2.026      2.462
REMARK INTER + INTRA:          -3.245
REMARK INTER:                  -3.231
REMARK INTRA:                  -0.014
REMARK UNBOUND:                -0.022
REMARK SMILES OCc1ccco1
REMARK SMILES IDX 2 1 3 2 5 3 6 4 4 5 7 6 1 7
REMARK H PARENT 1 8
REMARK Flexibility Score: inf
ROOT
ATOM      1  C   UNL     1      39.245 -43.639  19.099  1.00  0.00     0.231 C 
ENDROOT
BRANCH   1   2
ATOM      2  C   UNL     1      38.802 -43.409  20.506  1.00  0.00     0.129 A 
ATOM      3  C   UNL     1      38.163 -42.451  22.377  1.00  0.00     0.042 A 
ATOM      4  C   UNL     1      38.144 -43.828  22.490  1.00  0.00     0.195 A 
ATOM      5  C   UNL     1      38.586 -42.179  21.094  1.00  0.00     0.048 A 
ATOM      6  O   UNL     1      38.526 -44.371  21.357  1.00  0.00    -0.467 OA
ENDBRANCH   1   2
BRANCH   1   7
ATOM      7  O   UNL     1      40.643 -43.660  19.053  1.00  0.00    -0.388 OA
ATOM      8  H   UNL     1      40.883 -44.067  18.180  1.00  0.00     0.211 HD
ENDBRANCH   1   7
TORSDOF 2
ENDMDL
MODEL 5
REMARK VINA RESULT:    -2.853     10.199     11.049
REMARK INTER + INTRA:          -3.126
REMARK INTER:                  -3.110
REMARK INTRA:                  -0.015
REMARK UNBOUND:                -0.022
REMARK SMILES OCc1ccco1
REMARK SMILES IDX 2 1 3 2 5 3 6 4 4 5 7 6 1 7
REMARK H PARENT 1 8
REMARK Flexibility Score: inf
ROOT
ATOM      1  C   UNL     1      44.122 -44.209  30.604  1.00  0.00     0.231 C 
ENDROOT
BRANCH   1   2
ATOM      2  C   UNL     1      42.873 -44.764  30.002  1.00  0.00     0.129 A 
ATOM      3  C   UNL     1      41.038 -45.000  28.818  1.00  0.00     0.042 A 
ATOM      4  C   UNL     1      41.336 -46.157  29.512  1.00  0.00     0.195 A 
ATOM      5  C   UNL     1      42.033 -44.100  29.131  1.00  0.00     0.048 A 
ATOM      6  O   UNL     1      42.437 -45.986  30.206  1.00  0.00    -0.467 OA
ENDBRANCH   1   2
BRANCH   1   7
ATOM      7  O   UNL     1      44.920 -43.664  29.594  1.00  0.00    -0.388 OA
ATOM      8  H   UNL     1      44.325 -43.542  28.809  1.00  0.00     0.211 HD
ENDBRANCH   1   7
TORSDOF 2
ENDMDL
MODEL 6
REMARK VINA RESULT:    -2.797      1.423      3.028
REMARK INTER + INTRA:          -3.065
REMARK INTER:                  -3.048
REMARK INTRA:                  -0.017
REMARK UNBOUND:                -0.022
REMARK SMILES OCc1ccco1
REMARK SMILES IDX 2 1 3 2 5 3 6 4 4 5 7 6 1 7
REMARK H PARENT 1 8
REMARK Flexibility Score: inf
ROOT
ATOM      1  C   UNL     1      39.128 -40.170  20.517  1.00  0.00     0.231 C 
ENDROOT
BRANCH   1   2
ATOM      2  C   UNL     1      39.014 -41.641  20.294  1.00  0.00     0.129 A 
ATOM      3  C   UNL     1      39.048 -43.634  19.371  1.00  0.00     0.042 A 
ATOM      4  C   UNL     1      38.719 -43.711  20.710  1.00  0.00     0.195 A 
ATOM      5  C   UNL     1      39.242 -42.297  19.101  1.00  0.00     0.048 A 
ATOM      6  O   UNL     1      38.709 -42.507  21.234  1.00  0.00    -0.467 OA
ENDBRANCH   1   2
BRANCH   1   7
ATOM      7  O   UNL     1      39.933 -39.612  19.519  1.00  0.00    -0.388 OA
ATOM      8  H   UNL     1      40.210 -38.721  19.856  1.00  0.00     0.211 HD
ENDBRANCH   1   7
TORSDOF 2
ENDMDL
MODEL 7
REMARK VINA RESULT:    -2.707      1.163      3.004
REMARK INTER + INTRA:          -2.967
REMARK INTER:                  -2.947
REMARK INTRA:                  -0.020
REMARK UNBOUND:                -0.022
REMARK SMILES OCc1ccco1
REMARK SMILES IDX 2 1 3 2 5 3 6 4 4 5 7 6 1 7
REMARK H PARENT 1 8
REMARK Flexibility Score: inf
ROOT
ATOM      1  C   UNL     1      38.647 -40.600  21.533  1.00  0.00     0.231 C 
ENDROOT
BRANCH   1   2
ATOM      2  C   UNL     1      38.753 -41.878  20.767  1.00  0.00     0.129 A 
ATOM      3  C   UNL     1      39.113 -43.350  19.178  1.00  0.00     0.042 A 
ATOM      4  C   UNL     1      38.733 -43.968  20.353  1.00  0.00     0.195 A 
ATOM      5  C   UNL     1      39.129 -41.998  19.445  1.00  0.00     0.048 A 
ATOM      6  O   UNL     1      38.528 -43.065  21.283  1.00  0.00    -0.467 OA
ENDBRANCH   1   2
BRANCH   1   7
ATOM      7  O   UNL     1      37.593 -40.694  22.447  1.00  0.00    -0.388 OA
ATOM      8  H   UNL     1      36.946 -39.986  22.194  1.00  0.00     0.211 HD
ENDBRANCH   1   7
TORSDOF 2
ENDMDL
MODEL 8
REMARK VINA RESULT:    -2.624      2.012      2.315
REMARK INTER + INTRA:          -2.877
REMARK INTER:                  -2.862
REMARK INTRA:                  -0.015
REMARK UNBOUND:                -0.022
REMARK SMILES OCc1ccco1
REMARK SMILES IDX 2 1 3 2 5 3 6 4 4 5 7 6 1 7
REMARK H PARENT 1 8
REMARK Flexibility Score: inf
ROOT
ATOM      1  C   UNL     1      38.122 -44.076  22.373  1.00  0.00     0.231 C 
ENDROOT
BRANCH   1   2
ATOM      2  C   UNL     1      38.409 -42.614  22.282  1.00  0.00     0.129 A 
ATOM      3  C   UNL     1      38.766 -40.588  21.512  1.00  0.00     0.042 A 
ATOM      4  C   UNL     1      38.763 -40.603  22.893  1.00  0.00     0.195 A 
ATOM      5  C   UNL     1      38.534 -41.887  21.115  1.00  0.00     0.048 A 
ATOM      6  O   UNL     1      38.544 -41.824  23.323  1.00  0.00    -0.467 OA
ENDBRANCH   1   2
BRANCH   1   7
ATOM      7  O   UNL     1      38.881 -44.757  21.416  1.00  0.00    -0.388 OA
ATOM      8  H   UNL     1      38.231 -45.144  20.775  1.00  0.00     0.211 HD
ENDBRANCH   1   7
TORSDOF 2
ENDMDL
MODEL 9
REMARK VINA RESULT:    -2.569      9.313     10.159
REMARK INTER + INTRA:          -2.817
REMARK INTER:                  -2.801
REMARK INTRA:                  -0.016
REMARK UNBOUND:                -0.022
REMARK SMILES OCc1ccco1
REMARK SMILES IDX 2 1 3 2 5 3 6 4 4 5 7 6 1 7
REMARK H PARENT 1 8
REMARK Flexibility Score: inf
ROOT
ATOM      1  C   UNL     1      39.861 -44.174  28.192  1.00  0.00     0.231 C 
ENDROOT
BRANCH   1   2
ATOM      2  C   UNL     1      40.985 -44.715  29.012  1.00  0.00     0.129 A 
ATOM      3  C   UNL     1      42.880 -44.918  30.105  1.00  0.00     0.042 A 
ATOM      4  C   UNL     1      42.097 -46.046  30.251  1.00  0.00     0.195 A 
ATOM      5  C   UNL     1      42.161 -44.055  29.307  1.00  0.00     0.048 A 
ATOM      6  O   UNL     1      40.972 -45.894  29.591  1.00  0.00    -0.467 OA
ENDBRANCH   1   2
BRANCH   1   7
ATOM      7  O   UNL     1      39.574 -42.869  28.606  1.00  0.00    -0.388 OA
ATOM      8  H   UNL     1      40.165 -42.691  29.382  1.00  0.00     0.211 HD
ENDBRANCH   1   7
TORSDOF 2
ENDMDL
