MODEL 1
REMARK VINA RESULT:    -4.811      0.000      0.000
REMARK INTER + INTRA:          -7.957
REMARK INTER:                  -7.343
REMARK INTRA:                  -0.615
REMARK UNBOUND:                -0.615
REMARK SMILES CCCCCCCCCCC(=O)[O-]
REMARK SMILES IDX 7 1 8 2 9 3 10 4 11 5 12 6 13 7 6 8 5 9 4 10 3 11 2 12 1 13
REMARK H PARENT
REMARK Flexibility Score: inf
ROOT
ATOM      1  C   UNL     1      11.880  29.029  60.550  1.00  0.00     0.000 C 
ENDROOT
BRANCH   1   2
ATOM      2  C   UNL     1      11.258  29.945  59.476  1.00  0.00     0.000 C 
BRANCH   2   3
ATOM      3  C   UNL     1       9.805  29.600  59.089  1.00  0.00     0.006 C 
BRANCH   3   4
ATOM      4  C   UNL     1       9.055  28.755  60.131  1.00  0.00     0.053 C 
BRANCH   4   5
ATOM      5  C   UNL     1       8.297  29.606  61.102  1.00  0.00     0.041 C 
ATOM      6  O   UNL     1       7.421  30.411  60.689  1.00  0.00    -0.550 OA
ATOM      7  O   UNL     1       8.581  29.536  62.460  1.00  0.00    -0.550 OA
ENDBRANCH   4   5
ENDBRANCH   3   4
ENDBRANCH   2   3
ENDBRANCH   1   2
BRANCH   1   8
ATOM      8  C   UNL     1      12.117  29.694  61.920  1.00  0.00     0.000 C 
BRANCH   8   9
ATOM      9  C   UNL     1      13.488  30.374  62.087  1.00  0.00    -0.000 C 
BRANCH   9  10
ATOM     10  C   UNL     1      14.660  29.453  61.720  1.00  0.00    -0.000 C 
BRANCH  10  11
ATOM     11  C   UNL     1      15.875  29.726  62.619  1.00  0.00    -0.000 C 
BRANCH  11  12
ATOM     12  C   UNL     1      15.788  28.995  63.967  1.00  0.00    -0.003 C 
ATOM     13  C   UNL     1      15.117  27.626  63.857  1.00  0.00     0.004 C 
ENDBRANCH  11  12
ENDBRANCH  10  11
ENDBRANCH   9  10
ENDBRANCH   8   9
ENDBRANCH   1   8
TORSDOF 9
ENDMDL
MODEL 2
REMARK VINA RESULT:    -4.809      3.122      6.289
REMARK INTER + INTRA:          -7.954
REMARK INTER:                  -7.337
REMARK INTRA:                  -0.618
REMARK UNBOUND:                -0.615
REMARK SMILES CCCCCCCCCCC(=O)[O-]
REMARK SMILES IDX 7 1 8 2 9 3 10 4 11 5 12 6 13 7 6 8 5 9 4 10 3 11 2 12 1 13
REMARK H PARENT
REMARK Flexibility Score: inf
ROOT
ATOM      1  C   UNL     1      13.360  29.933  62.000  1.00  0.00     0.000 C 
ENDROOT
BRANCH   1   2
ATOM      2  C   UNL     1      14.733  30.009  61.302  1.00  0.00     0.000 C 
BRANCH   2   3
ATOM      3  C   UNL     1      15.818  29.086  61.896  1.00  0.00     0.006 C 
BRANCH   3   4
ATOM      4  C   UNL     1      15.864  29.069  63.432  1.00  0.00     0.053 C 
BRANCH   4   5
ATOM      5  C   UNL     1      15.698  27.686  63.983  1.00  0.00     0.041 C 
ATOM      6  O   UNL     1      14.551  27.174  64.074  1.00  0.00    -0.550 OA
ATOM      7  O   UNL     1      16.806  26.976  64.427  1.00  0.00    -0.550 OA
ENDBRANCH   4   5
ENDBRANCH   3   4
ENDBRANCH   2   3
ENDBRANCH   1   2
BRANCH   1   8
ATOM      8  C   UNL     1      12.538  28.666  61.690  1.00  0.00     0.000 C 
BRANCH   8   9
ATOM      9  C   UNL     1      12.093  28.521  60.224  1.00  0.00    -0.000 C 
BRANCH   9  10
ATOM     10  C   UNL     1      11.702  29.860  59.582  1.00  0.00    -0.000 C 
BRANCH  10  11
ATOM     11  C   UNL     1      10.184  29.940  59.363  1.00  0.00    -0.000 C 
BRANCH  11  12
ATOM     12  C   UNL     1       9.411  28.908  60.198  1.00  0.00    -0.003 C 
ATOM     13  C   UNL     1       8.585  29.548  61.313  1.00  0.00     0.004 C 
ENDBRANCH  11  12
ENDBRANCH  10  11
ENDBRANCH   9  10
ENDBRANCH   8   9
ENDBRANCH   1   8
TORSDOF 9
ENDMDL
MODEL 3
REMARK VINA RESULT:    -4.722      1.570      2.730
REMARK INTER + INTRA:          -7.821
REMARK INTER:                  -6.856
REMARK INTRA:                  -0.965
REMARK UNBOUND:                -0.615
REMARK SMILES CCCCCCCCCCC(=O)[O-]
REMARK SMILES IDX 7 1 8 2 9 3 10 4 11 5 12 6 13 7 6 8 5 9 4 10 3 11 2 12 1 13
REMARK H PARENT
REMARK Flexibility Score: inf
ROOT
ATOM      1  C   UNL     1      14.073  29.773  60.400  1.00  0.00     0.000 C 
ENDROOT
BRANCH   1   2
ATOM      2  C   UNL     1      13.282  30.180  61.659  1.00  0.00     0.000 C 
BRANCH   2   3
ATOM      3  C   UNL     1      11.877  29.554  61.776  1.00  0.00     0.006 C 
BRANCH   3   4
ATOM      4  C   UNL     1      11.498  28.624  60.612  1.00  0.00     0.053 C 
BRANCH   4   5
ATOM      5  C   UNL     1      10.411  29.205  59.762  1.00  0.00     0.041 C 
ATOM      6  O   UNL     1       9.254  28.708  59.787  1.00  0.00    -0.550 OA
ATOM      7  O   UNL     1      10.683  30.272  58.916  1.00  0.00    -0.550 OA
ENDBRANCH   4   5
ENDBRANCH   3   4
ENDBRANCH   2   3
ENDBRANCH   1   2
BRANCH   1   8
ATOM      8  C   UNL     1      15.573  30.126  60.427  1.00  0.00     0.000 C 
BRANCH   8   9
ATOM      9  C   UNL     1      16.421  29.293  61.404  1.00  0.00    -0.000 C 
BRANCH   9  10
ATOM     10  C   UNL     1      16.778  30.057  62.687  1.00  0.00    -0.000 C 
BRANCH  10  11
ATOM     11  C   UNL     1      16.097  29.426  63.910  1.00  0.00    -0.000 C 
BRANCH  11  12
ATOM     12  C   UNL     1      15.974  27.899  63.794  1.00  0.00    -0.003 C 
ATOM     13  C   UNL     1      14.528  27.413  63.885  1.00  0.00     0.004 C 
ENDBRANCH  11  12
ENDBRANCH  10  11
ENDBRANCH   9  10
ENDBRANCH   8   9
ENDBRANCH   1   8
TORSDOF 9
ENDMDL
MODEL 4
REMARK VINA RESULT:    -4.627      3.240      6.391
REMARK INTER + INTRA:          -7.676
REMARK INTER:                  -7.157
REMARK INTRA:                  -0.520
REMARK UNBOUND:                -0.615
REMARK SMILES CCCCCCCCCCC(=O)[O-]
REMARK SMILES IDX 7 1 8 2 9 3 10 4 11 5 12 6 13 7 6 8 5 9 4 10 3 11 2 12 1 13
REMARK H PARENT
REMARK Flexibility Score: inf
ROOT
ATOM      1  C   UNL     1      14.773  29.812  60.692  1.00  0.00     0.000 C 
ENDROOT
BRANCH   1   2
ATOM      2  C   UNL     1      16.212  29.986  61.217  1.00  0.00     0.000 C 
BRANCH   2   3
ATOM      3  C   UNL     1      16.733  28.824  62.088  1.00  0.00     0.006 C 
BRANCH   3   4
ATOM      4  C   UNL     1      16.275  28.876  63.554  1.00  0.00     0.053 C 
BRANCH   4   5
ATOM      5  C   UNL     1      15.906  27.521  64.075  1.00  0.00     0.041 C 
ATOM      6  O   UNL     1      16.802  26.731  64.473  1.00  0.00    -0.550 OA
ATOM      7  O   UNL     1      14.577  27.118  64.088  1.00  0.00    -0.550 OA
ENDBRANCH   4   5
ENDBRANCH   3   4
ENDBRANCH   2   3
ENDBRANCH   1   2
BRANCH   1   8
ATOM      8  C   UNL     1      13.661  30.112  61.718  1.00  0.00     0.000 C 
BRANCH   8   9
ATOM      9  C   UNL     1      12.565  29.037  61.823  1.00  0.00    -0.000 C 
BRANCH   9  10
ATOM     10  C   UNL     1      12.040  28.582  60.454  1.00  0.00    -0.000 C 
BRANCH  10  11
ATOM     11  C   UNL     1      10.566  28.973  60.273  1.00  0.00    -0.000 C 
BRANCH  11  12
ATOM     12  C   UNL     1       9.984  29.670  61.512  1.00  0.00    -0.003 C 
ATOM     13  C   UNL     1       8.471  29.496  61.633  1.00  0.00     0.004 C 
ENDBRANCH  11  12
ENDBRANCH  10  11
ENDBRANCH   9  10
ENDBRANCH   8   9
ENDBRANCH   1   8
TORSDOF 9
ENDMDL
MODEL 5
REMARK VINA RESULT:    -4.620      1.605      2.846
REMARK INTER + INTRA:          -7.666
REMARK INTER:                  -6.711
REMARK INTRA:                  -0.955
REMARK UNBOUND:                -0.615
REMARK SMILES CCCCCCCCCCC(=O)[O-]
REMARK SMILES IDX 7 1 8 2 9 3 10 4 11 5 12 6 13 7 6 8 5 9 4 10 3 11 2 12 1 13
REMARK H PARENT
REMARK Flexibility Score: inf
ROOT
ATOM      1  C   UNL     1      13.527  29.810  62.128  1.00  0.00     0.000 C 
ENDROOT
BRANCH   1   2
ATOM      2  C   UNL     1      13.619  30.317  60.675  1.00  0.00     0.000 C 
BRANCH   2   3
ATOM      3  C   UNL     1      12.874  29.455  59.636  1.00  0.00     0.006 C 
BRANCH   3   4
ATOM      4  C   UNL     1      11.643  30.133  59.014  1.00  0.00     0.053 C 
BRANCH   4   5
ATOM      5  C   UNL     1      10.362  29.574  59.553  1.00  0.00     0.041 C 
ATOM      6  O   UNL     1      10.194  29.463  60.796  1.00  0.00    -0.550 OA
ATOM      7  O   UNL     1       9.369  29.142  58.683  1.00  0.00    -0.550 OA
ENDBRANCH   4   5
ENDBRANCH   3   4
ENDBRANCH   2   3
ENDBRANCH   1   2
BRANCH   1   8
ATOM      8  C   UNL     1      13.340  28.288  62.279  1.00  0.00     0.000 C 
BRANCH   8   9
ATOM      9  C   UNL     1      14.169  27.638  63.401  1.00  0.00    -0.000 C 
BRANCH   9  10
ATOM     10  C   UNL     1      15.347  28.511  63.856  1.00  0.00    -0.000 C 
BRANCH  10  11
ATOM     11  C   UNL     1      16.685  27.912  63.398  1.00  0.00    -0.000 C 
BRANCH  11  12
ATOM     12  C   UNL     1      17.244  28.604  62.145  1.00  0.00    -0.003 C 
ATOM     13  C   UNL     1      17.167  30.128  62.228  1.00  0.00     0.004 C 
ENDBRANCH  11  12
ENDBRANCH  10  11
ENDBRANCH   9  10
ENDBRANCH   8   9
ENDBRANCH   1   8
TORSDOF 9
ENDMDL
MODEL 6
REMARK VINA RESULT:    -4.616      1.862      2.706
REMARK INTER + INTRA:          -7.659
REMARK INTER:                  -6.839
REMARK INTRA:                  -0.820
REMARK UNBOUND:                -0.615
REMARK SMILES CCCCCCCCCCC(=O)[O-]
REMARK SMILES IDX 7 1 8 2 9 3 10 4 11 5 12 6 13 7 6 8 5 9 4 10 3 11 2 12 1 13
REMARK H PARENT
REMARK Flexibility Score: inf
ROOT
ATOM      1  C   UNL     1      13.672  30.340  61.841  1.00  0.00     0.000 C 
ENDROOT
BRANCH   1   2
ATOM      2  C   UNL     1      12.327  29.601  61.993  1.00  0.00     0.000 C 
BRANCH   2   3
ATOM      3  C   UNL     1      11.870  28.820  60.744  1.00  0.00     0.006 C 
BRANCH   3   4
ATOM      4  C   UNL     1      10.443  29.150  60.277  1.00  0.00     0.053 C 
BRANCH   4   5
ATOM      5  C   UNL     1      10.436  29.861  58.959  1.00  0.00     0.041 C 
ATOM      6  O   UNL     1       9.433  29.780  58.202  1.00  0.00    -0.550 OA
ATOM      7  O   UNL     1      11.549  30.586  58.551  1.00  0.00    -0.550 OA
ENDBRANCH   4   5
ENDBRANCH   3   4
ENDBRANCH   2   3
ENDBRANCH   1   2
BRANCH   1   8
ATOM      8  C   UNL     1      14.559  29.854  60.678  1.00  0.00     0.000 C 
BRANCH   8   9
ATOM      9  C   UNL     1      16.068  29.817  60.981  1.00  0.00    -0.000 C 
BRANCH   9  10
ATOM     10  C   UNL     1      16.373  29.593  62.469  1.00  0.00    -0.000 C 
BRANCH  10  11
ATOM     11  C   UNL     1      17.180  28.302  62.676  1.00  0.00    -0.000 C 
BRANCH  11  12
ATOM     12  C   UNL     1      16.578  27.397  63.762  1.00  0.00    -0.003 C 
ATOM     13  C   UNL     1      15.096  27.675  64.010  1.00  0.00     0.004 C 
ENDBRANCH  11  12
ENDBRANCH  10  11
ENDBRANCH   9  10
ENDBRANCH   8   9
ENDBRANCH   1   8
TORSDOF 9
ENDMDL
MODEL 7
REMARK VINA RESULT:    -4.484      3.274      6.014
REMARK INTER + INTRA:          -7.457
REMARK INTER:                  -6.783
REMARK INTRA:                  -0.674
REMARK UNBOUND:                -0.615
REMARK SMILES CCCCCCCCCCC(=O)[O-]
REMARK SMILES IDX 7 1 8 2 9 3 10 4 11 5 12 6 13 7 6 8 5 9 4 10 3 11 2 12 1 13
REMARK H PARENT
REMARK Flexibility Score: inf
ROOT
ATOM      1  C   UNL     1      13.516  31.156  59.546  1.00  0.00     0.000 C 
ENDROOT
BRANCH   1   2
ATOM      2  C   UNL     1      14.337  30.107  60.322  1.00  0.00     0.000 C 
BRANCH   2   3
ATOM      3  C   UNL     1      13.977  29.972  61.815  1.00  0.00     0.006 C 
BRANCH   3   4
ATOM      4  C   UNL     1      13.888  28.523  62.318  1.00  0.00     0.053 C 
BRANCH   4   5
ATOM      5  C   UNL     1      14.924  28.225  63.358  1.00  0.00     0.041 C 
ATOM      6  O   UNL     1      14.812  27.208  64.091  1.00  0.00    -0.550 OA
ATOM      7  O   UNL     1      15.996  29.089  63.540  1.00  0.00    -0.550 OA
ENDBRANCH   4   5
ENDBRANCH   3   4
ENDBRANCH   2   3
ENDBRANCH   1   2
BRANCH   1   8
ATOM      8  C   UNL     1      12.585  30.585  58.458  1.00  0.00     0.000 C 
BRANCH   8   9
ATOM      9  C   UNL     1      11.134  30.337  58.907  1.00  0.00    -0.000 C 
BRANCH   9  10
ATOM     10  C   UNL     1      10.996  29.123  59.838  1.00  0.00    -0.000 C 
BRANCH  10  11
ATOM     11  C   UNL     1      10.028  29.424  60.992  1.00  0.00    -0.000 C 
BRANCH  11  12
ATOM     12  C   UNL     1       8.572  29.080  60.647  1.00  0.00    -0.003 C 
ATOM     13  C   UNL     1       7.566  30.008  61.326  1.00  0.00     0.004 C 
ENDBRANCH  11  12
ENDBRANCH  10  11
ENDBRANCH   9  10
ENDBRANCH   8   9
ENDBRANCH   1   8
TORSDOF 9
ENDMDL
MODEL 8
REMARK VINA RESULT:    -4.428      3.722      6.653
REMARK INTER + INTRA:          -7.372
REMARK INTER:                  -6.835
REMARK INTRA:                  -0.537
REMARK UNBOUND:                -0.615
REMARK SMILES CCCCCCCCCCC(=O)[O-]
REMARK SMILES IDX 7 1 8 2 9 3 10 4 11 5 12 6 13 7 6 8 5 9 4 10 3 11 2 12 1 13
REMARK H PARENT
REMARK Flexibility Score: inf
ROOT
ATOM      1  C   UNL     1      12.133  28.775  61.679  1.00  0.00     0.000 C 
ENDROOT
BRANCH   1   2
ATOM      2  C   UNL     1      13.490  28.345  62.273  1.00  0.00     0.000 C 
BRANCH   2   3
ATOM      3  C   UNL     1      14.458  29.503  62.589  1.00  0.00     0.006 C 
BRANCH   3   4
ATOM      4  C   UNL     1      15.750  29.072  63.303  1.00  0.00     0.053 C 
BRANCH   4   5
ATOM      5  C   UNL     1      16.913  29.002  62.363  1.00  0.00     0.041 C 
ATOM      6  O   UNL     1      17.142  29.951  61.567  1.00  0.00    -0.550 OA
ATOM      7  O   UNL     1      17.725  27.875  62.342  1.00  0.00    -0.550 OA
ENDBRANCH   4   5
ENDBRANCH   3   4
ENDBRANCH   2   3
ENDBRANCH   1   2
BRANCH   1   8
ATOM      8  C   UNL     1      12.012  28.630  60.150  1.00  0.00     0.000 C 
BRANCH   8   9
ATOM      9  C   UNL     1      11.848  29.954  59.381  1.00  0.00    -0.000 C 
BRANCH   9  10
ATOM     10  C   UNL     1      10.455  30.112  58.754  1.00  0.00    -0.000 C 
BRANCH  10  11
ATOM     11  C   UNL     1       9.429  29.216  59.464  1.00  0.00    -0.000 C 
BRANCH  11  12
ATOM     12  C   UNL     1       8.490  30.009  60.387  1.00  0.00    -0.003 C 
ATOM     13  C   UNL     1       8.495  29.490  61.824  1.00  0.00     0.004 C 
ENDBRANCH  11  12
ENDBRANCH  10  11
ENDBRANCH   9  10
ENDBRANCH   8   9
ENDBRANCH   1   8
TORSDOF 9
ENDMDL
MODEL 9
REMARK VINA RESULT:    -4.388      2.096      3.540
REMARK INTER + INTRA:          -7.311
REMARK INTER:                  -6.339
REMARK INTRA:                  -0.972
REMARK UNBOUND:                -0.615
REMARK SMILES CCCCCCCCCCC(=O)[O-]
REMARK SMILES IDX 7 1 8 2 9 3 10 4 11 5 12 6 13 7 6 8 5 9 4 10 3 11 2 12 1 13
REMARK H PARENT
REMARK Flexibility Score: inf
ROOT
ATOM      1  C   UNL     1      13.442  28.005  62.402  1.00  0.00     0.000 C 
ENDROOT
BRANCH   1   2
ATOM      2  C   UNL     1      12.438  28.978  61.753  1.00  0.00     0.000 C 
BRANCH   2   3
ATOM      3  C   UNL     1      11.867  28.516  60.397  1.00  0.00     0.006 C 
BRANCH   3   4
ATOM      4  C   UNL     1      11.213  29.635  59.570  1.00  0.00     0.053 C 
BRANCH   4   5
ATOM      5  C   UNL     1       9.719  29.579  59.633  1.00  0.00     0.041 C 
ATOM      6  O   UNL     1       9.025  30.266  58.838  1.00  0.00    -0.550 OA
ATOM      7  O   UNL     1       9.091  28.795  60.593  1.00  0.00    -0.550 OA
ENDBRANCH   4   5
ENDBRANCH   3   4
ENDBRANCH   2   3
ENDBRANCH   1   2
BRANCH   1   8
ATOM      8  C   UNL     1      14.889  28.527  62.502  1.00  0.00     0.000 C 
BRANCH   8   9
ATOM      9  C   UNL     1      15.131  29.903  61.855  1.00  0.00    -0.000 C 
BRANCH   9  10
ATOM     10  C   UNL     1      15.774  29.805  60.464  1.00  0.00    -0.000 C 
BRANCH  10  11
ATOM     11  C   UNL     1      14.930  30.544  59.416  1.00  0.00    -0.000 C 
BRANCH  11  12
ATOM     12  C   UNL     1      14.856  29.791  58.079  1.00  0.00    -0.003 C 
ATOM     13  C   UNL     1      14.350  30.666  56.933  1.00  0.00     0.004 C 
ENDBRANCH  11  12
ENDBRANCH  10  11
ENDBRANCH   9  10
ENDBRANCH   8   9
ENDBRANCH   1   8
TORSDOF 9
ENDMDL
