MODEL 1
REMARK VINA RESULT:    -4.881      0.000      0.000
REMARK INTER + INTRA:          -6.556
REMARK INTER:                  -6.307
REMARK INTRA:                  -0.249
REMARK UNBOUND:                -0.249
REMARK SMILES CO[C@@]1(CO)O[C@@H](CO)[C@H](O)[C@@H]1O
REMARK SMILES IDX 3 1 12 2 10 3 7 4 6 5 2 6 1 7 4 8 5 9 13 11 11 13 8 15 9 16
REMARK H PARENT 5 10 13 12 11 14 9 17
REMARK Flexibility Score: inf
ROOT
ATOM      1  C   UNL     1      38.035   9.009  44.913  1.00  0.00     0.221 C 
ATOM      2  C   UNL     1      36.496   8.866  44.836  1.00  0.00     0.207 C 
ATOM      3  C   UNL     1      35.991  10.280  44.610  1.00  0.00     0.180 C 
ATOM      4  C   UNL     1      37.259  11.078  44.275  1.00  0.00     0.179 C 
ATOM      5  O   UNL     1      38.366  10.204  44.236  1.00  0.00    -0.337 OA
ENDROOT
BRANCH   1   6
ATOM      6  O   UNL     1      38.678   7.951  44.203  1.00  0.00    -0.349 OA
ATOM      7  C   UNL     1      37.813   7.232  43.344  1.00  0.00     0.198 C 
ENDBRANCH   1   6
BRANCH   1   8
ATOM      8  C   UNL     1      38.573   9.146  46.366  1.00  0.00     0.224 C 
BRANCH   8   9
ATOM      9  O   UNL     1      39.403   8.058  46.668  1.00  0.00    -0.391 OA
ATOM     10  H   UNL     1      39.093   7.308  46.097  1.00  0.00     0.210 HD
ENDBRANCH   8   9
ENDBRANCH   1   8
BRANCH   2  11
ATOM     11  O   UNL     1      35.949   8.281  45.992  1.00  0.00    -0.385 OA
ATOM     12  H   UNL     1      36.711   8.081  46.596  1.00  0.00     0.211 HD
ENDBRANCH   2  11
BRANCH   3  13
ATOM     13  O   UNL     1      35.321  10.812  45.731  1.00  0.00    -0.387 OA
ATOM     14  H   UNL     1      34.346  10.676  45.605  1.00  0.00     0.211 HD
ENDBRANCH   3  13
BRANCH   4  15
ATOM     15  C   UNL     1      37.149  11.824  42.939  1.00  0.00     0.191 C 
BRANCH  15  16
ATOM     16  O   UNL     1      37.802  11.118  41.917  1.00  0.00    -0.394 OA
ATOM     17  H   UNL     1      37.118  10.562  41.462  1.00  0.00     0.210 HD
ENDBRANCH  15  16
ENDBRANCH   4  15
TORSDOF 7
ENDMDL
MODEL 2
REMARK VINA RESULT:    -4.850      1.465      1.957
REMARK INTER + INTRA:          -6.517
REMARK INTER:                  -6.169
REMARK INTRA:                  -0.349
REMARK UNBOUND:                -0.249
REMARK SMILES CO[C@@]1(CO)O[C@@H](CO)[C@H](O)[C@@H]1O
REMARK SMILES IDX 3 1 12 2 10 3 7 4 6 5 2 6 1 7 4 8 5 9 13 11 11 13 8 15 9 16
REMARK H PARENT 5 10 13 12 11 14 9 17
REMARK Flexibility Score: inf
ROOT
ATOM      1  C   UNL     1      37.776   9.473  44.506  1.00  0.00     0.221 C 
ATOM      2  C   UNL     1      36.364   8.868  44.688  1.00  0.00     0.207 C 
ATOM      3  C   UNL     1      35.555   9.974  45.342  1.00  0.00     0.180 C 
ATOM      4  C   UNL     1      36.451  11.213  45.217  1.00  0.00     0.179 C 
ATOM      5  O   UNL     1      37.619  10.877  44.499  1.00  0.00    -0.337 OA
ENDROOT
BRANCH   1   6
ATOM      6  O   UNL     1      38.318   9.122  43.233  1.00  0.00    -0.349 OA
ATOM      7  C   UNL     1      38.458  10.218  42.349  1.00  0.00     0.198 C 
ENDBRANCH   1   6
BRANCH   1   8
ATOM      8  C   UNL     1      38.752   9.131  45.668  1.00  0.00     0.224 C 
BRANCH   8   9
ATOM      9  O   UNL     1      39.165   7.796  45.562  1.00  0.00    -0.391 OA
ATOM     10  H   UNL     1      38.347   7.269  45.367  1.00  0.00     0.210 HD
ENDBRANCH   8   9
ENDBRANCH   1   8
BRANCH   2  11
ATOM     11  O   UNL     1      36.375   7.689  45.454  1.00  0.00    -0.385 OA
ATOM     12  H   UNL     1      36.957   7.866  46.238  1.00  0.00     0.211 HD
ENDBRANCH   2  11
BRANCH   3  13
ATOM     13  O   UNL     1      35.230   9.698  46.686  1.00  0.00    -0.387 OA
ATOM     14  H   UNL     1      35.761  10.304  47.266  1.00  0.00     0.211 HD
ENDBRANCH   3  13
BRANCH   4  15
ATOM     15  C   UNL     1      35.744  12.384  44.523  1.00  0.00     0.191 C 
BRANCH  15  16
ATOM     16  O   UNL     1      35.379  13.370  45.453  1.00  0.00    -0.394 OA
ATOM     17  H   UNL     1      35.644  14.246  45.071  1.00  0.00     0.210 HD
ENDBRANCH  15  16
ENDBRANCH   4  15
TORSDOF 7
ENDMDL
MODEL 3
REMARK VINA RESULT:    -4.814      1.225      1.582
REMARK INTER + INTRA:          -6.470
REMARK INTER:                  -6.251
REMARK INTRA:                  -0.219
REMARK UNBOUND:                -0.249
REMARK SMILES CO[C@@]1(CO)O[C@@H](CO)[C@H](O)[C@@H]1O
REMARK SMILES IDX 3 1 12 2 10 3 7 4 6 5 2 6 1 7 4 8 5 9 13 11 11 13 8 15 9 16
REMARK H PARENT 5 10 13 12 11 14 9 17
REMARK Flexibility Score: inf
ROOT
ATOM      1  C   UNL     1      37.106   9.347  44.833  1.00  0.00     0.221 C 
ATOM      2  C   UNL     1      36.001  10.374  44.489  1.00  0.00     0.207 C 
ATOM      3  C   UNL     1      36.743  11.544  43.869  1.00  0.00     0.180 C 
ATOM      4  C   UNL     1      38.156  10.998  43.624  1.00  0.00     0.179 C 
ATOM      5  O   UNL     1      38.204   9.636  43.992  1.00  0.00    -0.337 OA
ENDROOT
BRANCH   1   6
ATOM      6  O   UNL     1      36.686   8.023  44.508  1.00  0.00    -0.349 OA
ATOM      7  C   UNL     1      37.619   7.304  43.722  1.00  0.00     0.198 C 
ENDBRANCH   1   6
BRANCH   1   8
ATOM      8  C   UNL     1      37.616   9.453  46.299  1.00  0.00     0.224 C 
BRANCH   8   9
ATOM      9  O   UNL     1      38.888   8.873  46.401  1.00  0.00    -0.391 OA
ATOM     10  H   UNL     1      38.826   8.201  47.128  1.00  0.00     0.210 HD
ENDBRANCH   8   9
ENDBRANCH   1   8
BRANCH   2  11
ATOM     11  O   UNL     1      35.247  10.755  45.615  1.00  0.00    -0.385 OA
ATOM     12  H   UNL     1      34.434  10.186  45.617  1.00  0.00     0.211 HD
ENDBRANCH   2  11
BRANCH   3  13
ATOM     13  O   UNL     1      36.761  12.686  44.695  1.00  0.00    -0.387 OA
ATOM     14  H   UNL     1      36.707  12.389  45.640  1.00  0.00     0.211 HD
ENDBRANCH   3  13
BRANCH   4  15
ATOM     15  C   UNL     1      38.601  11.148  42.163  1.00  0.00     0.191 C 
BRANCH  15  16
ATOM     16  O   UNL     1      38.274  10.002  41.421  1.00  0.00    -0.394 OA
ATOM     17  H   UNL     1      38.901   9.963  40.653  1.00  0.00     0.210 HD
ENDBRANCH  15  16
ENDBRANCH   4  15
TORSDOF 7
ENDMDL
MODEL 4
REMARK VINA RESULT:    -4.681      1.538      3.607
REMARK INTER + INTRA:          -6.298
REMARK INTER:                  -5.984
REMARK INTRA:                  -0.314
REMARK UNBOUND:                -0.249
REMARK SMILES CO[C@@]1(CO)O[C@@H](CO)[C@H](O)[C@@H]1O
REMARK SMILES IDX 3 1 12 2 10 3 7 4 6 5 2 6 1 7 4 8 5 9 13 11 11 13 8 15 9 16
REMARK H PARENT 5 10 13 12 11 14 9 17
REMARK Flexibility Score: inf
ROOT
ATOM      1  C   UNL     1      37.278   9.495  45.079  1.00  0.00     0.221 C 
ATOM      2  C   UNL     1      38.683   9.196  45.653  1.00  0.00     0.207 C 
ATOM      3  C   UNL     1      39.145   7.955  44.910  1.00  0.00     0.180 C 
ATOM      4  C   UNL     1      38.128   7.807  43.770  1.00  0.00     0.179 C 
ATOM      5  O   UNL     1      37.222   8.889  43.804  1.00  0.00    -0.337 OA
ENDROOT
BRANCH   1   6
ATOM      6  O   UNL     1      37.105  10.896  44.868  1.00  0.00    -0.349 OA
ATOM      7  C   UNL     1      38.206  11.518  44.233  1.00  0.00     0.198 C 
ENDBRANCH   1   6
BRANCH   1   8
ATOM      8  C   UNL     1      36.121   8.886  45.923  1.00  0.00     0.224 C 
BRANCH   8   9
ATOM      9  O   UNL     1      35.544   9.882  46.722  1.00  0.00    -0.391 OA
ATOM     10  H   UNL     1      35.244   9.429  47.553  1.00  0.00     0.210 HD
ENDBRANCH   8   9
ENDBRANCH   1   8
BRANCH   2  11
ATOM     11  O   UNL     1      38.670   9.009  47.048  1.00  0.00    -0.385 OA
ATOM     12  H   UNL     1      38.241   8.129  47.211  1.00  0.00     0.211 HD
ENDBRANCH   2  11
BRANCH   3  13
ATOM     13  O   UNL     1      39.186   6.806  45.725  1.00  0.00    -0.387 OA
ATOM     14  H   UNL     1      39.243   7.097  46.672  1.00  0.00     0.211 HD
ENDBRANCH   3  13
BRANCH   4  15
ATOM     15  C   UNL     1      38.796   7.744  42.389  1.00  0.00     0.191 C 
BRANCH  15  16
ATOM     16  O   UNL     1      38.024   6.986  41.495  1.00  0.00    -0.394 OA
ATOM     17  H   UNL     1      37.885   7.541  40.684  1.00  0.00     0.210 HD
ENDBRANCH  15  16
ENDBRANCH   4  15
TORSDOF 7
ENDMDL
MODEL 5
REMARK VINA RESULT:    -4.650     14.438     15.559
REMARK INTER + INTRA:          -6.258
REMARK INTER:                  -5.863
REMARK INTRA:                  -0.395
REMARK UNBOUND:                -0.249
REMARK SMILES CO[C@@]1(CO)O[C@@H](CO)[C@H](O)[C@@H]1O
REMARK SMILES IDX 3 1 12 2 10 3 7 4 6 5 2 6 1 7 4 8 5 9 13 11 11 13 8 15 9 16
REMARK H PARENT 5 10 13 12 11 14 9 17
REMARK Flexibility Score: inf
ROOT
ATOM      1  C   UNL     1      23.296   4.408  40.325  1.00  0.00     0.221 C 
ATOM      2  C   UNL     1      22.653   4.994  39.045  1.00  0.00     0.207 C 
ATOM      3  C   UNL     1      23.782   5.738  38.355  1.00  0.00     0.180 C 
ATOM      4  C   UNL     1      25.040   5.285  39.110  1.00  0.00     0.179 C 
ATOM      5  O   UNL     1      24.685   4.324  40.080  1.00  0.00    -0.337 OA
ENDROOT
BRANCH   1   6
ATOM      6  O   UNL     1      22.844   3.074  40.553  1.00  0.00    -0.349 OA
ATOM      7  C   UNL     1      22.864   2.258  39.396  1.00  0.00     0.198 C 
ENDBRANCH   1   6
BRANCH   1   8
ATOM      8  C   UNL     1      23.109   5.309  41.580  1.00  0.00     0.224 C 
BRANCH   8   9
ATOM      9  O   UNL     1      21.770   5.276  41.991  1.00  0.00    -0.391 OA
ATOM     10  H   UNL     1      21.271   4.813  41.269  1.00  0.00     0.210 HD
ENDBRANCH   8   9
ENDBRANCH   1   8
BRANCH   2  11
ATOM     11  O   UNL     1      21.555   5.829  39.324  1.00  0.00    -0.385 OA
ATOM     12  H   UNL     1      21.795   6.350  40.134  1.00  0.00     0.211 HD
ENDBRANCH   2  11
BRANCH   3  13
ATOM     13  O   UNL     1      23.627   7.139  38.395  1.00  0.00    -0.387 OA
ATOM     14  H   UNL     1      23.368   7.450  37.489  1.00  0.00     0.211 HD
ENDBRANCH   3  13
BRANCH   4  15
ATOM     15  C   UNL     1      26.108   4.698  38.176  1.00  0.00     0.191 C 
BRANCH  15  16
ATOM     16  O   UNL     1      26.986   5.699  37.731  1.00  0.00    -0.394 OA
ATOM     17  H   UNL     1      26.765   6.526  38.232  1.00  0.00     0.210 HD
ENDBRANCH  15  16
ENDBRANCH   4  15
TORSDOF 7
ENDMDL
MODEL 6
REMARK VINA RESULT:    -4.600     14.540     15.946
REMARK INTER + INTRA:          -6.194
REMARK INTER:                  -6.007
REMARK INTRA:                  -0.187
REMARK UNBOUND:                -0.249
REMARK SMILES CO[C@@]1(CO)O[C@@H](CO)[C@H](O)[C@@H]1O
REMARK SMILES IDX 3 1 12 2 10 3 7 4 6 5 2 6 1 7 4 8 5 9 13 11 11 13 8 15 9 16
REMARK H PARENT 5 10 13 12 11 14 9 17
REMARK Flexibility Score: inf
ROOT
ATOM      1  C   UNL     1      21.352   5.292  43.039  1.00  0.00     0.221 C 
ATOM      2  C   UNL     1      21.308   6.609  43.848  1.00  0.00     0.207 C 
ATOM      3  C   UNL     1      22.762   7.023  43.985  1.00  0.00     0.180 C 
ATOM      4  C   UNL     1      23.504   6.101  43.008  1.00  0.00     0.179 C 
ATOM      5  O   UNL     1      22.570   5.294  42.323  1.00  0.00    -0.337 OA
ENDROOT
BRANCH   1   6
ATOM      6  O   UNL     1      20.311   5.261  42.063  1.00  0.00    -0.349 OA
ATOM      7  C   UNL     1      20.748   4.874  40.774  1.00  0.00     0.198 C 
ENDBRANCH   1   6
BRANCH   1   8
ATOM      8  C   UNL     1      21.351   4.017  43.930  1.00  0.00     0.224 C 
BRANCH   8   9
ATOM      9  O   UNL     1      22.142   3.023  43.337  1.00  0.00    -0.391 OA
ATOM     10  H   UNL     1      21.524   2.283  43.101  1.00  0.00     0.210 HD
ENDBRANCH   8   9
ENDBRANCH   1   8
BRANCH   2  11
ATOM     11  O   UNL     1      20.676   6.458  45.096  1.00  0.00    -0.385 OA
ATOM     12  H   UNL     1      21.367   6.635  45.786  1.00  0.00     0.211 HD
ENDBRANCH   2  11
BRANCH   3  13
ATOM     13  O   UNL     1      23.252   6.891  45.301  1.00  0.00    -0.387 OA
ATOM     14  H   UNL     1      24.237   6.773  45.256  1.00  0.00     0.211 HD
ENDBRANCH   3  13
BRANCH   4  15
ATOM     15  C   UNL     1      24.350   6.879  41.991  1.00  0.00     0.191 C 
BRANCH  15  16
ATOM     16  O   UNL     1      24.297   8.258  42.247  1.00  0.00    -0.394 OA
ATOM     17  H   UNL     1      23.339   8.518  42.253  1.00  0.00     0.210 HD
ENDBRANCH  15  16
ENDBRANCH   4  15
TORSDOF 7
ENDMDL
MODEL 7
REMARK VINA RESULT:    -4.552      1.905      3.781
REMARK INTER + INTRA:          -6.131
REMARK INTER:                  -5.779
REMARK INTRA:                  -0.352
REMARK UNBOUND:                -0.249
REMARK SMILES CO[C@@]1(CO)O[C@@H](CO)[C@H](O)[C@@H]1O
REMARK SMILES IDX 3 1 12 2 10 3 7 4 6 5 2 6 1 7 4 8 5 9 13 11 11 13 8 15 9 16
REMARK H PARENT 5 10 13 12 11 14 9 17
REMARK Flexibility Score: inf
ROOT
ATOM      1  C   UNL     1      37.005  11.876  44.258  1.00  0.00     0.221 C 
ATOM      2  C   UNL     1      37.864  10.715  44.811  1.00  0.00     0.207 C 
ATOM      3  C   UNL     1      38.307   9.946  43.580  1.00  0.00     0.180 C 
ATOM      4  C   UNL     1      37.936  10.870  42.412  1.00  0.00     0.179 C 
ATOM      5  O   UNL     1      37.405  12.076  42.918  1.00  0.00    -0.337 OA
ENDROOT
BRANCH   1   6
ATOM      6  O   UNL     1      37.289  13.092  44.950  1.00  0.00    -0.349 OA
ATOM      7  C   UNL     1      38.646  13.488  44.873  1.00  0.00     0.198 C 
ENDBRANCH   1   6
BRANCH   1   8
ATOM      8  C   UNL     1      35.481  11.564  44.235  1.00  0.00     0.224 C 
BRANCH   8   9
ATOM      9  O   UNL     1      34.993  11.487  45.546  1.00  0.00    -0.391 OA
ATOM     10  H   UNL     1      34.369  12.250  45.654  1.00  0.00     0.210 HD
ENDBRANCH   8   9
ENDBRANCH   1   8
BRANCH   2  11
ATOM     11  O   UNL     1      37.159   9.906  45.721  1.00  0.00    -0.385 OA
ATOM     12  H   UNL     1      36.819  10.510  46.432  1.00  0.00     0.211 HD
ENDBRANCH   2  11
BRANCH   3  13
ATOM     13  O   UNL     1      37.688   8.684  43.464  1.00  0.00    -0.387 OA
ATOM     14  H   UNL     1      38.314   7.997  43.812  1.00  0.00     0.211 HD
ENDBRANCH   3  13
BRANCH   4  15
ATOM     15  C   UNL     1      39.132  11.179  41.502  1.00  0.00     0.191 C 
BRANCH  15  16
ATOM     16  O   UNL     1      39.148  10.324  40.390  1.00  0.00    -0.394 OA
ATOM     17  H   UNL     1      38.479   9.611  40.558  1.00  0.00     0.210 HD
ENDBRANCH  15  16
ENDBRANCH   4  15
TORSDOF 7
ENDMDL
MODEL 8
REMARK VINA RESULT:    -4.414      2.344      4.319
REMARK INTER + INTRA:          -5.953
REMARK INTER:                  -5.500
REMARK INTRA:                  -0.454
REMARK UNBOUND:                -0.249
REMARK SMILES CO[C@@]1(CO)O[C@@H](CO)[C@H](O)[C@@H]1O
REMARK SMILES IDX 3 1 12 2 10 3 7 4 6 5 2 6 1 7 4 8 5 9 13 11 11 13 8 15 9 16
REMARK H PARENT 5 10 13 12 11 14 9 17
REMARK Flexibility Score: inf
ROOT
ATOM      1  C   UNL     1      36.933   6.261  44.096  1.00  0.00     0.221 C 
ATOM      2  C   UNL     1      38.175   6.411  43.187  1.00  0.00     0.207 C 
ATOM      3  C   UNL     1      38.565   7.873  43.308  1.00  0.00     0.180 C 
ATOM      4  C   UNL     1      37.725   8.383  44.487  1.00  0.00     0.179 C 
ATOM      5  O   UNL     1      36.988   7.313  45.037  1.00  0.00    -0.337 OA
ENDROOT
BRANCH   1   6
ATOM      6  O   UNL     1      36.995   5.047  44.843  1.00  0.00    -0.349 OA
ATOM      7  C   UNL     1      38.272   4.436  44.836  1.00  0.00     0.198 C 
ENDBRANCH   1   6
BRANCH   1   8
ATOM      8  C   UNL     1      35.585   6.405  43.332  1.00  0.00     0.224 C 
BRANCH   8   9
ATOM      9  O   UNL     1      35.258   5.190  42.714  1.00  0.00    -0.391 OA
ATOM     10  H   UNL     1      35.076   5.405  41.763  1.00  0.00     0.210 HD
ENDBRANCH   8   9
ENDBRANCH   1   8
BRANCH   2  11
ATOM     11  O   UNL     1      37.921   6.034  41.855  1.00  0.00    -0.385 OA
ATOM     12  H   UNL     1      38.608   5.359  41.617  1.00  0.00     0.211 HD
ENDBRANCH   2  11
BRANCH   3  13
ATOM     13  O   UNL     1      38.316   8.610  42.133  1.00  0.00    -0.387 OA
ATOM     14  H   UNL     1      37.340   8.589  41.952  1.00  0.00     0.211 HD
ENDBRANCH   3  13
BRANCH   4  15
ATOM     15  C   UNL     1      38.582   9.030  45.584  1.00  0.00     0.191 C 
BRANCH  15  16
ATOM     16  O   UNL     1      39.329   8.060  46.272  1.00  0.00    -0.394 OA
ATOM     17  H   UNL     1      39.519   7.328  45.630  1.00  0.00     0.210 HD
ENDBRANCH  15  16
ENDBRANCH   4  15
TORSDOF 7
ENDMDL
