MODEL 1
REMARK VINA RESULT:    -3.802      0.000      0.000
REMARK INTER + INTRA:          -7.307
REMARK INTER:                  -6.025
REMARK INTRA:                  -1.282
REMARK UNBOUND:                -1.282
REMARK SMILES CCCCCCCCCCCC(=O)[O-]
REMARK SMILES IDX 7 1 8 2 9 3 10 4 11 5 12 6 13 7 14 8 6 9 5 10 4 11 3 12 2 13
REMARK SMILES IDX 1 14
REMARK H PARENT
REMARK Flexibility Score: inf
ROOT
ATOM      1  C   UNL     1      37.212  -9.237  10.756  1.00  0.00     0.000 C 
ENDROOT
BRANCH   1   2
ATOM      2  C   UNL     1      36.890  -7.764  11.068  1.00  0.00     0.000 C 
BRANCH   2   3
ATOM      3  C   UNL     1      37.611  -7.249  12.326  1.00  0.00     0.000 C 
BRANCH   3   4
ATOM      4  C   UNL     1      36.644  -6.641  13.353  1.00  0.00     0.006 C 
BRANCH   4   5
ATOM      5  C   UNL     1      35.173  -6.934  13.028  1.00  0.00     0.053 C 
BRANCH   5   6
ATOM      6  C   UNL     1      34.624  -7.957  13.972  1.00  0.00     0.041 C 
ATOM      7  O   UNL     1      33.630  -7.682  14.694  1.00  0.00    -0.550 OA
ATOM      8  O   UNL     1      35.240  -9.196  14.091  1.00  0.00    -0.550 OA
ENDBRANCH   5   6
ENDBRANCH   4   5
ENDBRANCH   3   4
ENDBRANCH   2   3
ENDBRANCH   1   2
BRANCH   1   9
ATOM      9  C   UNL     1      38.438  -9.809  11.496  1.00  0.00     0.000 C 
BRANCH   9  10
ATOM     10  C   UNL     1      39.708  -9.970  10.637  1.00  0.00    -0.000 C 
BRANCH  10  11
ATOM     11  C   UNL     1      39.527  -9.662   9.139  1.00  0.00    -0.000 C 
BRANCH  11  12
ATOM     12  C   UNL     1      40.435  -8.520   8.652  1.00  0.00    -0.000 C 
BRANCH  12  13
ATOM     13  C   UNL     1      40.475  -7.340   9.637  1.00  0.00    -0.003 C 
ATOM     14  C   UNL     1      39.638  -6.149   9.169  1.00  0.00     0.004 C 
ENDBRANCH  12  13
ENDBRANCH  11  12
ENDBRANCH  10  11
ENDBRANCH   9  10
ENDBRANCH   1   9
TORSDOF 10
ENDMDL
MODEL 2
REMARK VINA RESULT:    -3.788      3.606      6.167
REMARK INTER + INTRA:          -7.284
REMARK INTER:                  -6.175
REMARK INTRA:                  -1.109
REMARK UNBOUND:                -1.282
REMARK SMILES CCCCCCCCCCCC(=O)[O-]
REMARK SMILES IDX 7 1 8 2 9 3 10 4 11 5 12 6 13 7 14 8 6 9 5 10 4 11 3 12 2 13
REMARK SMILES IDX 1 14
REMARK H PARENT
REMARK Flexibility Score: inf
ROOT
ATOM      1  C   UNL     1      38.950  -7.719  11.265  1.00  0.00     0.000 C 
ENDROOT
BRANCH   1   2
ATOM      2  C   UNL     1      37.854  -7.415  10.227  1.00  0.00     0.000 C 
BRANCH   2   3
ATOM      3  C   UNL     1      38.367  -6.574   9.046  1.00  0.00     0.000 C 
BRANCH   3   4
ATOM      4  C   UNL     1      39.899  -6.451   9.031  1.00  0.00     0.006 C 
BRANCH   4   5
ATOM      5  C   UNL     1      40.529  -7.045   7.764  1.00  0.00     0.053 C 
BRANCH   5   6
ATOM      6  C   UNL     1      41.541  -8.086   8.124  1.00  0.00     0.041 C 
ATOM      7  O   UNL     1      42.703  -8.033   7.642  1.00  0.00    -0.550 OA
ATOM      8  O   UNL     1      41.188  -9.144   8.952  1.00  0.00    -0.550 OA
ENDBRANCH   5   6
ENDBRANCH   4   5
ENDBRANCH   3   4
ENDBRANCH   2   3
ENDBRANCH   1   2
BRANCH   1   9
ATOM      9  C   UNL     1      38.812  -9.076  11.984  1.00  0.00     0.000 C 
BRANCH   9  10
ATOM     10  C   UNL     1      37.366  -9.580  12.164  1.00  0.00    -0.000 C 
BRANCH  10  11
ATOM     11  C   UNL     1      36.692  -9.172  13.487  1.00  0.00    -0.000 C 
BRANCH  11  12
ATOM     12  C   UNL     1      35.297  -8.558  13.280  1.00  0.00    -0.000 C 
BRANCH  12  13
ATOM     13  C   UNL     1      35.358  -7.060  12.944  1.00  0.00    -0.003 C 
ATOM     14  C   UNL     1      36.478  -6.331  13.687  1.00  0.00     0.004 C 
ENDBRANCH  12  13
ENDBRANCH  11  12
ENDBRANCH  10  11
ENDBRANCH   9  10
ENDBRANCH   1   9
TORSDOF 10
ENDMDL
MODEL 3
REMARK VINA RESULT:    -3.751      3.333      5.827
REMARK INTER + INTRA:          -7.225
REMARK INTER:                  -5.970
REMARK INTRA:                  -1.255
REMARK UNBOUND:                -1.282
REMARK SMILES CCCCCCCCCCCC(=O)[O-]
REMARK SMILES IDX 7 1 8 2 9 3 10 4 11 5 12 6 13 7 14 8 6 9 5 10 4 11 3 12 2 13
REMARK SMILES IDX 1 14
REMARK H PARENT
REMARK Flexibility Score: inf
ROOT
ATOM      1  C   UNL     1      37.104 -10.164  13.293  1.00  0.00     0.000 C 
ENDROOT
BRANCH   1   2
ATOM      2  C   UNL     1      38.018  -9.581  12.200  1.00  0.00     0.000 C 
BRANCH   2   3
ATOM      3  C   UNL     1      37.232  -8.914  11.057  1.00  0.00     0.000 C 
BRANCH   3   4
ATOM      4  C   UNL     1      37.956  -7.688  10.480  1.00  0.00     0.006 C 
BRANCH   4   5
ATOM      5  C   UNL     1      39.416  -7.589  10.945  1.00  0.00     0.053 C 
BRANCH   5   6
ATOM      6  C   UNL     1      40.276  -7.048   9.847  1.00  0.00     0.041 C 
ATOM      7  O   UNL     1      40.154  -5.851   9.479  1.00  0.00    -0.550 OA
ATOM      8  O   UNL     1      41.179  -7.879   9.197  1.00  0.00    -0.550 OA
ENDBRANCH   5   6
ENDBRANCH   4   5
ENDBRANCH   3   4
ENDBRANCH   2   3
ENDBRANCH   1   2
BRANCH   1   9
ATOM      9  C   UNL     1      35.592 -10.006  13.033  1.00  0.00     0.000 C 
BRANCH   9  10
ATOM     10  C   UNL     1      34.723  -9.837  14.295  1.00  0.00    -0.000 C 
BRANCH  10  11
ATOM     11  C   UNL     1      34.070  -8.451  14.458  1.00  0.00    -0.000 C 
BRANCH  11  12
ATOM     12  C   UNL     1      34.825  -7.345  13.702  1.00  0.00    -0.000 C 
BRANCH  12  13
ATOM     13  C   UNL     1      35.896  -6.665  14.570  1.00  0.00    -0.003 C 
ATOM     14  C   UNL     1      37.181  -6.364  13.800  1.00  0.00     0.004 C 
ENDBRANCH  12  13
ENDBRANCH  11  12
ENDBRANCH  10  11
ENDBRANCH   9  10
ENDBRANCH   1   9
TORSDOF 10
ENDMDL
MODEL 4
REMARK VINA RESULT:    -3.667      3.669      7.063
REMARK INTER + INTRA:          -7.093
REMARK INTER:                  -6.616
REMARK INTRA:                  -0.477
REMARK UNBOUND:                -1.282
REMARK SMILES CCCCCCCCCCCC(=O)[O-]
REMARK SMILES IDX 7 1 8 2 9 3 10 4 11 5 12 6 13 7 14 8 6 9 5 10 4 11 3 12 2 13
REMARK SMILES IDX 1 14
REMARK H PARENT
REMARK Flexibility Score: inf
ROOT
ATOM      1  C   UNL     1      36.754  -7.743  11.447  1.00  0.00     0.000 C 
ENDROOT
BRANCH   1   2
ATOM      2  C   UNL     1      37.865  -7.741  10.381  1.00  0.00     0.000 C 
BRANCH   2   3
ATOM      3  C   UNL     1      39.277  -7.734  10.991  1.00  0.00     0.000 C 
BRANCH   3   4
ATOM      4  C   UNL     1      40.289  -6.967  10.126  1.00  0.00     0.006 C 
BRANCH   4   5
ATOM      5  C   UNL     1      40.953  -7.854   9.064  1.00  0.00     0.053 C 
BRANCH   5   6
ATOM      6  C   UNL     1      40.617  -7.363   7.691  1.00  0.00     0.041 C 
ATOM      7  O   UNL     1      41.342  -7.679   6.711  1.00  0.00    -0.550 OA
ATOM      8  O   UNL     1      39.532  -6.517   7.500  1.00  0.00    -0.550 OA
ENDBRANCH   5   6
ENDBRANCH   4   5
ENDBRANCH   3   4
ENDBRANCH   2   3
ENDBRANCH   1   2
BRANCH   1   9
ATOM      9  C   UNL     1      37.246  -7.626  12.904  1.00  0.00     0.000 C 
BRANCH   9  10
ATOM     10  C   UNL     1      36.707  -6.410  13.684  1.00  0.00    -0.000 C 
BRANCH  10  11
ATOM     11  C   UNL     1      35.890  -6.752  14.943  1.00  0.00    -0.000 C 
BRANCH  11  12
ATOM     12  C   UNL     1      34.617  -7.557  14.627  1.00  0.00    -0.000 C 
BRANCH  12  13
ATOM     13  C   UNL     1      33.736  -7.773  15.868  1.00  0.00    -0.003 C 
ATOM     14  C   UNL     1      32.254  -7.919  15.524  1.00  0.00     0.004 C 
ENDBRANCH  12  13
ENDBRANCH  11  12
ENDBRANCH  10  11
ENDBRANCH   9  10
ENDBRANCH   1   9
TORSDOF 10
ENDMDL
MODEL 5
REMARK VINA RESULT:    -3.667      1.948      2.972
REMARK INTER + INTRA:          -7.093
REMARK INTER:                  -6.699
REMARK INTRA:                  -0.393
REMARK UNBOUND:                -1.282
REMARK SMILES CCCCCCCCCCCC(=O)[O-]
REMARK SMILES IDX 7 1 8 2 9 3 10 4 11 5 12 6 13 7 14 8 6 9 5 10 4 11 3 12 2 13
REMARK SMILES IDX 1 14
REMARK H PARENT
REMARK Flexibility Score: inf
ROOT
ATOM      1  C   UNL     1      39.951  -6.993  10.317  1.00  0.00     0.000 C 
ENDROOT
BRANCH   1   2
ATOM      2  C   UNL     1      39.142  -7.766  11.374  1.00  0.00     0.000 C 
BRANCH   2   3
ATOM      3  C   UNL     1      37.638  -7.442  11.330  1.00  0.00     0.000 C 
BRANCH   3   4
ATOM      4  C   UNL     1      37.058  -7.143  12.721  1.00  0.00     0.006 C 
BRANCH   4   5
ATOM      5  C   UNL     1      35.524  -7.140  12.735  1.00  0.00     0.053 C 
BRANCH   5   6
ATOM      6  C   UNL     1      35.016  -7.237  14.139  1.00  0.00     0.041 C 
ATOM      7  O   UNL     1      33.896  -7.765  14.372  1.00  0.00    -0.550 OA
ATOM      8  O   UNL     1      35.754  -6.702  15.186  1.00  0.00    -0.550 OA
ENDBRANCH   5   6
ENDBRANCH   4   5
ENDBRANCH   3   4
ENDBRANCH   2   3
ENDBRANCH   1   2
BRANCH   1   9
ATOM      9  C   UNL     1      39.209  -6.728   8.991  1.00  0.00     0.000 C 
BRANCH   9  10
ATOM     10  C   UNL     1      40.034  -6.985   7.714  1.00  0.00    -0.000 C 
BRANCH  10  11
ATOM     11  C   UNL     1      41.195  -7.984   7.876  1.00  0.00    -0.000 C 
BRANCH  11  12
ATOM     12  C   UNL     1      42.224  -7.890   6.737  1.00  0.00    -0.000 C 
BRANCH  12  13
ATOM     13  C   UNL     1      43.656  -7.681   7.255  1.00  0.00    -0.003 C 
ATOM     14  C   UNL     1      44.256  -8.947   7.867  1.00  0.00     0.004 C 
ENDBRANCH  12  13
ENDBRANCH  11  12
ENDBRANCH  10  11
ENDBRANCH   9  10
ENDBRANCH   1   9
TORSDOF 10
ENDMDL
MODEL 6
REMARK VINA RESULT:    -3.650      1.317      2.364
REMARK INTER + INTRA:          -7.066
REMARK INTER:                  -5.648
REMARK INTRA:                  -1.418
REMARK UNBOUND:                -1.282
REMARK SMILES CCCCCCCCCCCC(=O)[O-]
REMARK SMILES IDX 7 1 8 2 9 3 10 4 11 5 12 6 13 7 14 8 6 9 5 10 4 11 3 12 2 13
REMARK SMILES IDX 1 14
REMARK H PARENT
REMARK Flexibility Score: inf
ROOT
ATOM      1  C   UNL     1      38.803 -10.424   9.074  1.00  0.00     0.000 C 
ENDROOT
BRANCH   1   2
ATOM      2  C   UNL     1      37.974  -9.654  10.119  1.00  0.00     0.000 C 
BRANCH   2   3
ATOM      3  C   UNL     1      38.815  -9.184  11.319  1.00  0.00     0.000 C 
BRANCH   3   4
ATOM      4  C   UNL     1      38.202  -7.965  12.026  1.00  0.00     0.006 C 
BRANCH   4   5
ATOM      5  C   UNL     1      36.824  -7.586  11.467  1.00  0.00     0.053 C 
BRANCH   5   6
ATOM      6  C   UNL     1      35.783  -7.684  12.537  1.00  0.00     0.041 C 
ATOM      7  O   UNL     1      35.540  -8.791  13.085  1.00  0.00    -0.550 OA
ATOM      8  O   UNL     1      35.046  -6.563  12.896  1.00  0.00    -0.550 OA
ENDBRANCH   5   6
ENDBRANCH   4   5
ENDBRANCH   3   4
ENDBRANCH   2   3
ENDBRANCH   1   2
BRANCH   1   9
ATOM      9  C   UNL     1      40.326 -10.414   9.312  1.00  0.00     0.000 C 
BRANCH   9  10
ATOM     10  C   UNL     1      41.175  -9.928   8.120  1.00  0.00    -0.000 C 
BRANCH  10  11
ATOM     11  C   UNL     1      41.748  -8.507   8.263  1.00  0.00    -0.000 C 
BRANCH  11  12
ATOM     12  C   UNL     1      40.777  -7.421   7.769  1.00  0.00    -0.000 C 
BRANCH  12  13
ATOM     13  C   UNL     1      40.095  -6.673   8.926  1.00  0.00    -0.003 C 
ATOM     14  C   UNL     1      38.641  -6.312   8.623  1.00  0.00     0.004 C 
ENDBRANCH  12  13
ENDBRANCH  11  12
ENDBRANCH  10  11
ENDBRANCH   9  10
ENDBRANCH   1   9
TORSDOF 10
ENDMDL
MODEL 7
REMARK VINA RESULT:    -3.633      4.559      6.438
REMARK INTER + INTRA:          -7.038
REMARK INTER:                  -6.556
REMARK INTRA:                  -0.482
REMARK UNBOUND:                -1.282
REMARK SMILES CCCCCCCCCCCC(=O)[O-]
REMARK SMILES IDX 7 1 8 2 9 3 10 4 11 5 12 6 13 7 14 8 6 9 5 10 4 11 3 12 2 13
REMARK SMILES IDX 1 14
REMARK H PARENT
REMARK Flexibility Score: inf
ROOT
ATOM      1  C   UNL     1      41.514  -7.428   6.167  1.00  0.00     0.000 C 
ENDROOT
BRANCH   1   2
ATOM      2  C   UNL     1      40.854  -7.507   7.556  1.00  0.00     0.000 C 
BRANCH   2   3
ATOM      3  C   UNL     1      39.606  -6.614   7.675  1.00  0.00     0.000 C 
BRANCH   3   4
ATOM      4  C   UNL     1      39.293  -6.230   9.130  1.00  0.00     0.006 C 
BRANCH   4   5
ATOM      5  C   UNL     1      39.946  -7.177  10.146  1.00  0.00     0.053 C 
BRANCH   5   6
ATOM      6  C   UNL     1      38.904  -7.799  11.021  1.00  0.00     0.041 C 
ATOM      7  O   UNL     1      39.194  -8.787  11.746  1.00  0.00    -0.550 OA
ATOM      8  O   UNL     1      37.600  -7.320  11.002  1.00  0.00    -0.550 OA
ENDBRANCH   5   6
ENDBRANCH   4   5
ENDBRANCH   3   4
ENDBRANCH   2   3
ENDBRANCH   1   2
BRANCH   1   9
ATOM      9  C   UNL     1      40.712  -6.647   5.106  1.00  0.00     0.000 C 
BRANCH   9  10
ATOM     10  C   UNL     1      40.966  -7.073   3.646  1.00  0.00    -0.000 C 
BRANCH  10  11
ATOM     11  C   UNL     1      40.919  -5.930   2.615  1.00  0.00    -0.000 C 
BRANCH  11  12
ATOM     12  C   UNL     1      40.358  -4.623   3.200  1.00  0.00    -0.000 C 
BRANCH  12  13
ATOM     13  C   UNL     1      39.260  -4.009   2.318  1.00  0.00    -0.003 C 
ATOM     14  C   UNL     1      39.000  -2.536   2.635  1.00  0.00     0.004 C 
ENDBRANCH  12  13
ENDBRANCH  11  12
ENDBRANCH  10  11
ENDBRANCH   9  10
ENDBRANCH   1   9
TORSDOF 10
ENDMDL
MODEL 8
REMARK VINA RESULT:    -3.563      2.945      6.073
REMARK INTER + INTRA:          -6.928
REMARK INTER:                  -5.777
REMARK INTRA:                  -1.150
REMARK UNBOUND:                -1.282
REMARK SMILES CCCCCCCCCCCC(=O)[O-]
REMARK SMILES IDX 7 1 8 2 9 3 10 4 11 5 12 6 13 7 14 8 6 9 5 10 4 11 3 12 2 13
REMARK SMILES IDX 1 14
REMARK H PARENT
REMARK Flexibility Score: inf
ROOT
ATOM      1  C   UNL     1      37.550  -9.132  10.671  1.00  0.00     0.000 C 
ENDROOT
BRANCH   1   2
ATOM      2  C   UNL     1      38.776  -9.730  11.385  1.00  0.00     0.000 C 
BRANCH   2   3
ATOM      3  C   UNL     1      39.818 -10.298  10.406  1.00  0.00     0.000 C 
BRANCH   3   4
ATOM      4  C   UNL     1      39.700  -9.690   9.000  1.00  0.00     0.006 C 
BRANCH   4   5
ATOM      5  C   UNL     1      40.781  -8.638   8.717  1.00  0.00     0.053 C 
BRANCH   5   6
ATOM      6  C   UNL     1      40.255  -7.264   8.989  1.00  0.00     0.041 C 
ATOM      7  O   UNL     1      39.654  -6.626   8.085  1.00  0.00    -0.550 OA
ATOM      8  O   UNL     1      40.470  -6.667  10.224  1.00  0.00    -0.550 OA
ENDBRANCH   5   6
ENDBRANCH   4   5
ENDBRANCH   3   4
ENDBRANCH   2   3
ENDBRANCH   1   2
BRANCH   1   9
ATOM      9  C   UNL     1      37.179  -7.698  11.099  1.00  0.00     0.000 C 
BRANCH   9  10
ATOM     10  C   UNL     1      37.738  -7.255  12.466  1.00  0.00    -0.000 C 
BRANCH  10  11
ATOM     11  C   UNL     1      36.772  -6.420  13.327  1.00  0.00    -0.000 C 
BRANCH  11  12
ATOM     12  C   UNL     1      36.055  -7.257  14.399  1.00  0.00    -0.000 C 
BRANCH  12  13
ATOM     13  C   UNL     1      34.811  -7.973  13.850  1.00  0.00    -0.003 C 
ATOM     14  C   UNL     1      35.009  -9.482  13.707  1.00  0.00     0.004 C 
ENDBRANCH  12  13
ENDBRANCH  11  12
ENDBRANCH  10  11
ENDBRANCH   9  10
ENDBRANCH   1   9
TORSDOF 10
ENDMDL
MODEL 9
REMARK VINA RESULT:    -3.534      1.687      2.947
REMARK INTER + INTRA:          -6.882
REMARK INTER:                  -5.855
REMARK INTRA:                  -1.027
REMARK UNBOUND:                -1.282
REMARK SMILES CCCCCCCCCCCC(=O)[O-]
REMARK SMILES IDX 7 1 8 2 9 3 10 4 11 5 12 6 13 7 14 8 6 9 5 10 4 11 3 12 2 13
REMARK SMILES IDX 1 14
REMARK H PARENT
REMARK Flexibility Score: inf
ROOT
ATOM      1  C   UNL     1      39.460  -7.359  10.900  1.00  0.00     0.000 C 
ENDROOT
BRANCH   1   2
ATOM      2  C   UNL     1      38.092  -7.854  10.396  1.00  0.00     0.000 C 
BRANCH   2   3
ATOM      3  C   UNL     1      37.667  -9.187  11.035  1.00  0.00     0.000 C 
BRANCH   3   4
ATOM      4  C   UNL     1      36.453  -9.034  11.966  1.00  0.00     0.006 C 
BRANCH   4   5
ATOM      5  C   UNL     1      36.805  -8.340  13.288  1.00  0.00     0.053 C 
BRANCH   5   6
ATOM      6  C   UNL     1      36.039  -7.063  13.426  1.00  0.00     0.041 C 
ATOM      7  O   UNL     1      35.093  -6.803  12.636  1.00  0.00    -0.550 OA
ATOM      8  O   UNL     1      36.399  -6.136  14.396  1.00  0.00    -0.550 OA
ENDBRANCH   5   6
ENDBRANCH   4   5
ENDBRANCH   3   4
ENDBRANCH   2   3
ENDBRANCH   1   2
BRANCH   1   9
ATOM      9  C   UNL     1      40.313  -6.615   9.853  1.00  0.00     0.000 C 
BRANCH   9  10
ATOM     10  C   UNL     1      39.781  -6.677   8.408  1.00  0.00    -0.000 C 
BRANCH  10  11
ATOM     11  C   UNL     1      40.683  -7.427   7.411  1.00  0.00    -0.000 C 
BRANCH  11  12
ATOM     12  C   UNL     1      41.864  -8.137   8.095  1.00  0.00    -0.000 C 
BRANCH  12  13
ATOM     13  C   UNL     1      41.766  -9.667   7.999  1.00  0.00    -0.003 C 
ATOM     14  C   UNL     1      40.822 -10.267   9.041  1.00  0.00     0.004 C 
ENDBRANCH  12  13
ENDBRANCH  11  12
ENDBRANCH  10  11
ENDBRANCH   9  10
ENDBRANCH   1   9
TORSDOF 10
ENDMDL
