MODEL 1
REMARK VINA RESULT:    -3.522      0.000      0.000
REMARK INTER + INTRA:         -15.953
REMARK INTER:                  -9.288
REMARK INTRA:                  -6.664
REMARK UNBOUND:                -6.664
REMARK SMILES CCCCCCCCCCCCCCCCCCCCCCCCCCCCCC(=O)[O-]
REMARK SMILES IDX 16 1 17 2 18 3 19 4 20 5 21 6 22 7 23 8 24 9 25 10 26 11
REMARK SMILES IDX 27 12 28 13 29 14 30 15 31 16 32 17 15 18 14 19 13 20 12 21
REMARK SMILES IDX 11 22 10 23 9 24 8 25 7 26 6 27 5 28 4 29 3 30 2 31 1 32
REMARK H PARENT
REMARK Flexibility Score: inf
ROOT
ATOM      1  C   UNL     1       7.513 -20.943 -39.942  1.00  0.00     0.000 C 
ENDROOT
BRANCH   1   2
ATOM      2  C   UNL     1       7.452 -22.323 -39.252  1.00  0.00     0.000 C 
BRANCH   2   3
ATOM      3  C   UNL     1       8.359 -23.384 -39.911  1.00  0.00     0.000 C 
BRANCH   3   4
ATOM      4  C   UNL     1       8.824 -24.461 -38.913  1.00  0.00     0.000 C 
BRANCH   4   5
ATOM      5  C   UNL     1       8.355 -24.171 -37.477  1.00  0.00     0.000 C 
BRANCH   5   6
ATOM      6  C   UNL     1       9.435 -24.501 -36.435  1.00  0.00     0.000 C 
BRANCH   6   7
ATOM      7  C   UNL     1       9.433 -23.482 -35.289  1.00  0.00     0.000 C 
BRANCH   7   8
ATOM      8  C   UNL     1       8.217 -22.550 -35.389  1.00  0.00     0.000 C 
BRANCH   8   9
ATOM      9  C   UNL     1       8.573 -21.069 -35.185  1.00  0.00     0.000 C 
BRANCH   9  10
ATOM     10  C   UNL     1       8.109 -20.150 -36.335  1.00  0.00     0.000 C 
BRANCH  10  11
ATOM     11  C   UNL     1       6.771 -19.453 -36.026  1.00  0.00     0.000 C 
BRANCH  11  12
ATOM     12  C   UNL     1       5.733 -19.655 -37.149  1.00  0.00     0.000 C 
BRANCH  12  13
ATOM     13  C   UNL     1       5.335 -18.356 -37.869  1.00  0.00     0.006 C 
BRANCH  13  14
ATOM     14  C   UNL     1       5.167 -17.167 -36.914  1.00  0.00     0.053 C 
BRANCH  14  15
ATOM     15  C   UNL     1       6.168 -16.099 -37.224  1.00  0.00     0.041 C 
ATOM     16  O   UNL     1       6.581 -15.936 -38.403  1.00  0.00    -0.550 OA
ATOM     17  O   UNL     1       6.608 -15.247 -36.218  1.00  0.00    -0.550 OA
ENDBRANCH  14  15
ENDBRANCH  13  14
ENDBRANCH  12  13
ENDBRANCH  11  12
ENDBRANCH  10  11
ENDBRANCH   9  10
ENDBRANCH   8   9
ENDBRANCH   7   8
ENDBRANCH   6   7
ENDBRANCH   5   6
ENDBRANCH   4   5
ENDBRANCH   3   4
ENDBRANCH   2   3
ENDBRANCH   1   2
BRANCH   1  18
ATOM     18  C   UNL     1       8.719 -20.740 -40.883  1.00  0.00     0.000 C 
BRANCH  18  19
ATOM     19  C   UNL     1       9.400 -19.369 -40.726  1.00  0.00     0.000 C 
BRANCH  19  20
ATOM     20  C   UNL     1       8.740 -18.522 -39.622  1.00  0.00     0.000 C 
BRANCH  20  21
ATOM     21  C   UNL     1       9.757 -17.915 -38.639  1.00  0.00     0.000 C 
BRANCH  21  22
ATOM     22  C   UNL     1      11.123 -18.631 -38.584  1.00  0.00     0.000 C 
BRANCH  22  23
ATOM     23  C   UNL     1      11.547 -19.152 -37.194  1.00  0.00     0.000 C 
BRANCH  23  24
ATOM     24  C   UNL     1      11.823 -20.665 -37.123  1.00  0.00    -0.000 C 
BRANCH  24  25
ATOM     25  C   UNL     1      10.948 -21.476 -38.094  1.00  0.00    -0.000 C 
BRANCH  25  26
ATOM     26  C   UNL     1      11.776 -22.302 -39.093  1.00  0.00    -0.000 C 
BRANCH  26  27
ATOM     27  C   UNL     1      12.426 -23.542 -38.451  1.00  0.00    -0.000 C 
BRANCH  27  28
ATOM     28  C   UNL     1      13.942 -23.604 -38.697  1.00  0.00    -0.000 C 
BRANCH  28  29
ATOM     29  C   UNL     1      14.751 -22.847 -37.628  1.00  0.00    -0.000 C 
BRANCH  29  30
ATOM     30  C   UNL     1      15.351 -21.533 -38.175  1.00  0.00    -0.000 C 
BRANCH  30  31
ATOM     31  C   UNL     1      15.146 -21.342 -39.688  1.00  0.00    -0.003 C 
ATOM     32  C   UNL     1      14.515 -19.998 -40.044  1.00  0.00     0.004 C 
ENDBRANCH  30  31
ENDBRANCH  29  30
ENDBRANCH  28  29
ENDBRANCH  27  28
ENDBRANCH  26  27
ENDBRANCH  25  26
ENDBRANCH  24  25
ENDBRANCH  23  24
ENDBRANCH  22  23
ENDBRANCH  21  22
ENDBRANCH  20  21
ENDBRANCH  19  20
ENDBRANCH  18  19
ENDBRANCH   1  18
TORSDOF 28
ENDMDL
MODEL 2
REMARK VINA RESULT:    -3.466      1.889      4.872
REMARK INTER + INTRA:         -15.805
REMARK INTER:                  -9.972
REMARK INTRA:                  -5.833
REMARK UNBOUND:                -6.664
REMARK SMILES CCCCCCCCCCCCCCCCCCCCCCCCCCCCCC(=O)[O-]
REMARK SMILES IDX 16 1 17 2 18 3 19 4 20 5 21 6 22 7 23 8 24 9 25 10 26 11
REMARK SMILES IDX 27 12 28 13 29 14 30 15 31 16 32 17 15 18 14 19 13 20 12 21
REMARK SMILES IDX 11 22 10 23 9 24 8 25 7 26 6 27 5 28 4 29 3 30 2 31 1 32
REMARK H PARENT
REMARK Flexibility Score: inf
ROOT
ATOM      1  C   UNL     1       8.357 -22.588 -35.231  1.00  0.00     0.000 C 
ENDROOT
BRANCH   1   2
ATOM      2  C   UNL     1       8.361 -21.053 -35.399  1.00  0.00     0.000 C 
BRANCH   2   3
ATOM      3  C   UNL     1       7.140 -20.512 -36.170  1.00  0.00     0.000 C 
BRANCH   3   4
ATOM      4  C   UNL     1       6.263 -21.639 -36.748  1.00  0.00     0.000 C 
BRANCH   4   5
ATOM      5  C   UNL     1       5.234 -21.117 -37.765  1.00  0.00     0.000 C 
BRANCH   5   6
ATOM      6  C   UNL     1       5.320 -19.594 -37.950  1.00  0.00     0.000 C 
BRANCH   6   7
ATOM      7  C   UNL     1       5.706 -19.229 -39.389  1.00  0.00     0.000 C 
BRANCH   7   8
ATOM      8  C   UNL     1       6.281 -17.807 -39.456  1.00  0.00     0.000 C 
BRANCH   8   9
ATOM      9  C   UNL     1       7.359 -17.541 -38.393  1.00  0.00     0.000 C 
BRANCH   9  10
ATOM     10  C   UNL     1       7.026 -16.369 -37.445  1.00  0.00     0.000 C 
BRANCH  10  11
ATOM     11  C   UNL     1       5.542 -15.965 -37.511  1.00  0.00     0.000 C 
BRANCH  11  12
ATOM     12  C   UNL     1       5.193 -14.852 -36.500  1.00  0.00     0.000 C 
BRANCH  12  13
ATOM     13  C   UNL     1       5.603 -15.174 -35.054  1.00  0.00     0.006 C 
BRANCH  13  14
ATOM     14  C   UNL     1       4.854 -16.381 -34.473  1.00  0.00     0.053 C 
BRANCH  14  15
ATOM     15  C   UNL     1       4.860 -16.332 -32.977  1.00  0.00     0.041 C 
ATOM     16  O   UNL     1       4.647 -15.246 -32.375  1.00  0.00    -0.550 OA
ATOM     17  O   UNL     1       5.050 -17.497 -32.246  1.00  0.00    -0.550 OA
ENDBRANCH  14  15
ENDBRANCH  13  14
ENDBRANCH  12  13
ENDBRANCH  11  12
ENDBRANCH  10  11
ENDBRANCH   9  10
ENDBRANCH   8   9
ENDBRANCH   7   8
ENDBRANCH   6   7
ENDBRANCH   5   6
ENDBRANCH   4   5
ENDBRANCH   3   4
ENDBRANCH   2   3
ENDBRANCH   1   2
BRANCH   1  18
ATOM     18  C   UNL     1       9.754 -23.243 -35.213  1.00  0.00     0.000 C 
BRANCH  18  19
ATOM     19  C   UNL     1       9.987 -24.232 -36.369  1.00  0.00     0.000 C 
BRANCH  19  20
ATOM     20  C   UNL     1       8.721 -24.426 -37.223  1.00  0.00     0.000 C 
BRANCH  20  21
ATOM     21  C   UNL     1       8.998 -24.365 -38.736  1.00  0.00     0.000 C 
BRANCH  21  22
ATOM     22  C   UNL     1       8.325 -23.190 -39.477  1.00  0.00     0.000 C 
BRANCH  22  23
ATOM     23  C   UNL     1       8.816 -21.782 -39.079  1.00  0.00     0.000 C 
BRANCH  23  24
ATOM     24  C   UNL     1       9.178 -20.862 -40.260  1.00  0.00    -0.000 C 
BRANCH  24  25
ATOM     25  C   UNL     1      10.003 -19.637 -39.829  1.00  0.00    -0.000 C 
BRANCH  25  26
ATOM     26  C   UNL     1      10.168 -19.538 -38.303  1.00  0.00    -0.000 C 
BRANCH  26  27
ATOM     27  C   UNL     1      11.460 -18.811 -37.886  1.00  0.00    -0.000 C 
BRANCH  27  28
ATOM     28  C   UNL     1      12.423 -19.725 -37.112  1.00  0.00    -0.000 C 
BRANCH  28  29
ATOM     29  C   UNL     1      12.039 -21.213 -37.207  1.00  0.00    -0.000 C 
BRANCH  29  30
ATOM     30  C   UNL     1      13.131 -22.052 -37.907  1.00  0.00    -0.000 C 
BRANCH  30  31
ATOM     31  C   UNL     1      12.574 -23.213 -38.750  1.00  0.00    -0.003 C 
ATOM     32  C   UNL     1      12.263 -22.812 -40.191  1.00  0.00     0.004 C 
ENDBRANCH  30  31
ENDBRANCH  29  30
ENDBRANCH  28  29
ENDBRANCH  27  28
ENDBRANCH  26  27
ENDBRANCH  25  26
ENDBRANCH  24  25
ENDBRANCH  23  24
ENDBRANCH  22  23
ENDBRANCH  21  22
ENDBRANCH  20  21
ENDBRANCH  19  20
ENDBRANCH  18  19
ENDBRANCH   1  18
TORSDOF 28
ENDMDL
MODEL 3
REMARK VINA RESULT:    -3.370      2.812      6.769
REMARK INTER + INTRA:         -15.550
REMARK INTER:                  -8.782
REMARK INTRA:                  -6.768
REMARK UNBOUND:                -6.664
REMARK SMILES CCCCCCCCCCCCCCCCCCCCCCCCCCCCCC(=O)[O-]
REMARK SMILES IDX 16 1 17 2 18 3 19 4 20 5 21 6 22 7 23 8 24 9 25 10 26 11
REMARK SMILES IDX 27 12 28 13 29 14 30 15 31 16 32 17 15 18 14 19 13 20 12 21
REMARK SMILES IDX 11 22 10 23 9 24 8 25 7 26 6 27 5 28 4 29 3 30 2 31 1 32
REMARK H PARENT
REMARK Flexibility Score: inf
ROOT
ATOM      1  C   UNL     1       9.386 -20.926 -35.248  1.00  0.00     0.000 C 
ENDROOT
BRANCH   1   2
ATOM      2  C   UNL     1      10.129 -22.245 -35.554  1.00  0.00     0.000 C 
BRANCH   2   3
ATOM      3  C   UNL     1       9.451 -23.491 -34.947  1.00  0.00     0.000 C 
BRANCH   3   4
ATOM      4  C   UNL     1       9.004 -24.500 -36.022  1.00  0.00     0.000 C 
BRANCH   4   5
ATOM      5  C   UNL     1       9.458 -24.091 -37.434  1.00  0.00     0.000 C 
BRANCH   5   6
ATOM      6  C   UNL     1       8.363 -24.323 -38.487  1.00  0.00     0.000 C 
BRANCH   6   7
ATOM      7  C   UNL     1       8.247 -23.128 -39.441  1.00  0.00     0.000 C 
BRANCH   7   8
ATOM      8  C   UNL     1       9.504 -22.250 -39.373  1.00  0.00     0.000 C 
BRANCH   8   9
ATOM      9  C   UNL     1      10.380 -22.348 -40.632  1.00  0.00     0.000 C 
BRANCH   9  10
ATOM     10  C   UNL     1      11.896 -22.337 -40.341  1.00  0.00     0.000 C 
BRANCH  10  11
ATOM     11  C   UNL     1      12.370 -23.627 -39.648  1.00  0.00     0.000 C 
BRANCH  11  12
ATOM     12  C   UNL     1      13.042 -23.347 -38.288  1.00  0.00     0.000 C 
BRANCH  12  13
ATOM     13  C   UNL     1      12.894 -21.894 -37.807  1.00  0.00     0.006 C 
BRANCH  13  14
ATOM     14  C   UNL     1      14.242 -21.201 -37.570  1.00  0.00     0.053 C 
BRANCH  14  15
ATOM     15  C   UNL     1      14.911 -20.894 -38.874  1.00  0.00     0.041 C 
ATOM     16  O   UNL     1      14.464 -19.981 -39.618  1.00  0.00    -0.550 OA
ATOM     17  O   UNL     1      16.058 -21.583 -39.244  1.00  0.00    -0.550 OA
ENDBRANCH  14  15
ENDBRANCH  13  14
ENDBRANCH  12  13
ENDBRANCH  11  12
ENDBRANCH  10  11
ENDBRANCH   9  10
ENDBRANCH   8   9
ENDBRANCH   7   8
ENDBRANCH   6   7
ENDBRANCH   5   6
ENDBRANCH   4   5
ENDBRANCH   3   4
ENDBRANCH   2   3
ENDBRANCH   1   2
BRANCH   1  18
ATOM     18  C   UNL     1       8.632 -20.313 -36.447  1.00  0.00     0.000 C 
BRANCH  18  19
ATOM     19  C   UNL     1       7.102 -20.313 -36.278  1.00  0.00     0.000 C 
BRANCH  19  20
ATOM     20  C   UNL     1       6.489 -21.692 -36.586  1.00  0.00     0.000 C 
BRANCH  20  21
ATOM     21  C   UNL     1       5.343 -21.627 -37.611  1.00  0.00     0.000 C 
BRANCH  21  22
ATOM     22  C   UNL     1       5.313 -20.352 -38.480  1.00  0.00     0.000 C 
BRANCH  22  23
ATOM     23  C   UNL     1       4.105 -19.418 -38.252  1.00  0.00     0.000 C 
BRANCH  23  24
ATOM     24  C   UNL     1       4.410 -18.146 -37.439  1.00  0.00    -0.000 C 
BRANCH  24  25
ATOM     25  C   UNL     1       5.321 -17.162 -38.192  1.00  0.00    -0.000 C 
BRANCH  25  26
ATOM     26  C   UNL     1       6.610 -16.835 -37.420  1.00  0.00    -0.000 C 
BRANCH  26  27
ATOM     27  C   UNL     1       7.874 -16.934 -38.294  1.00  0.00    -0.000 C 
BRANCH  27  28
ATOM     28  C   UNL     1       7.621 -17.697 -39.605  1.00  0.00    -0.000 C 
BRANCH  28  29
ATOM     29  C   UNL     1       8.587 -18.879 -39.802  1.00  0.00    -0.000 C 
BRANCH  29  30
ATOM     30  C   UNL     1       9.736 -18.536 -40.776  1.00  0.00    -0.000 C 
BRANCH  30  31
ATOM     31  C   UNL     1      11.137 -18.683 -40.158  1.00  0.00    -0.003 C 
ATOM     32  C   UNL     1      11.113 -18.791 -38.635  1.00  0.00     0.004 C 
ENDBRANCH  30  31
ENDBRANCH  29  30
ENDBRANCH  28  29
ENDBRANCH  27  28
ENDBRANCH  26  27
ENDBRANCH  25  26
ENDBRANCH  24  25
ENDBRANCH  23  24
ENDBRANCH  22  23
ENDBRANCH  21  22
ENDBRANCH  20  21
ENDBRANCH  19  20
ENDBRANCH  18  19
ENDBRANCH   1  18
TORSDOF 28
ENDMDL
MODEL 4
REMARK VINA RESULT:    -3.367      1.485      3.150
REMARK INTER + INTRA:         -15.544
REMARK INTER:                  -9.548
REMARK INTRA:                  -5.996
REMARK UNBOUND:                -6.664
REMARK SMILES CCCCCCCCCCCCCCCCCCCCCCCCCCCCCC(=O)[O-]
REMARK SMILES IDX 16 1 17 2 18 3 19 4 20 5 21 6 22 7 23 8 24 9 25 10 26 11
REMARK SMILES IDX 27 12 28 13 29 14 30 15 31 16 32 17 15 18 14 19 13 20 12 21
REMARK SMILES IDX 11 22 10 23 9 24 8 25 7 26 6 27 5 28 4 29 3 30 2 31 1 32
REMARK H PARENT
REMARK Flexibility Score: inf
ROOT
ATOM      1  C   UNL     1       8.615 -24.635 -37.862  1.00  0.00     0.000 C 
ENDROOT
BRANCH   1   2
ATOM      2  C   UNL     1       9.744 -24.162 -36.921  1.00  0.00     0.000 C 
BRANCH   2   3
ATOM      3  C   UNL     1       9.294 -23.989 -35.455  1.00  0.00     0.000 C 
BRANCH   3   4
ATOM      4  C   UNL     1       9.788 -22.664 -34.842  1.00  0.00     0.000 C 
BRANCH   4   5
ATOM      5  C   UNL     1       9.550 -21.463 -35.774  1.00  0.00     0.000 C 
BRANCH   5   6
ATOM      6  C   UNL     1       8.359 -20.603 -35.320  1.00  0.00     0.000 C 
BRANCH   6   7
ATOM      7  C   UNL     1       7.337 -20.427 -36.451  1.00  0.00     0.000 C 
BRANCH   7   8
ATOM      8  C   UNL     1       6.529 -21.716 -36.661  1.00  0.00     0.000 C 
BRANCH   8   9
ATOM      9  C   UNL     1       5.673 -21.691 -37.937  1.00  0.00     0.000 C 
BRANCH   9  10
ATOM     10  C   UNL     1       4.154 -21.642 -37.670  1.00  0.00     0.000 C 
BRANCH  10  11
ATOM     11  C   UNL     1       3.489 -20.398 -38.287  1.00  0.00     0.000 C 
BRANCH  11  12
ATOM     12  C   UNL     1       4.503 -19.268 -38.563  1.00  0.00     0.000 C 
BRANCH  12  13
ATOM     13  C   UNL     1       4.581 -18.215 -37.446  1.00  0.00     0.006 C 
BRANCH  13  14
ATOM     14  C   UNL     1       5.813 -17.308 -37.563  1.00  0.00     0.053 C 
BRANCH  14  15
ATOM     15  C   UNL     1       6.146 -16.701 -36.236  1.00  0.00     0.041 C 
ATOM     16  O   UNL     1       5.972 -17.357 -35.174  1.00  0.00    -0.550 OA
ATOM     17  O   UNL     1       6.697 -15.427 -36.173  1.00  0.00    -0.550 OA
ENDBRANCH  14  15
ENDBRANCH  13  14
ENDBRANCH  12  13
ENDBRANCH  11  12
ENDBRANCH  10  11
ENDBRANCH   9  10
ENDBRANCH   8   9
ENDBRANCH   7   8
ENDBRANCH   6   7
ENDBRANCH   5   6
ENDBRANCH   4   5
ENDBRANCH   3   4
ENDBRANCH   2   3
ENDBRANCH   1   2
BRANCH   1  18
ATOM     18  C   UNL     1       8.449 -23.799 -39.149  1.00  0.00     0.000 C 
BRANCH  18  19
ATOM     19  C   UNL     1       9.496 -22.680 -39.295  1.00  0.00     0.000 C 
BRANCH  19  20
ATOM     20  C   UNL     1       8.846 -21.324 -39.626  1.00  0.00     0.000 C 
BRANCH  20  21
ATOM     21  C   UNL     1       9.621 -20.527 -40.691  1.00  0.00     0.000 C 
BRANCH  21  22
ATOM     22  C   UNL     1      10.139 -19.148 -40.228  1.00  0.00     0.000 C 
BRANCH  22  23
ATOM     23  C   UNL     1       9.906 -18.814 -38.739  1.00  0.00     0.000 C 
BRANCH  23  24
ATOM     24  C   UNL     1      11.187 -18.657 -37.900  1.00  0.00    -0.000 C 
BRANCH  24  25
ATOM     25  C   UNL     1      12.465 -18.669 -38.756  1.00  0.00    -0.000 C 
BRANCH  25  26
ATOM     26  C   UNL     1      13.604 -19.480 -38.114  1.00  0.00    -0.000 C 
BRANCH  26  27
ATOM     27  C   UNL     1      13.094 -20.568 -37.152  1.00  0.00    -0.000 C 
BRANCH  27  28
ATOM     28  C   UNL     1      12.553 -21.801 -37.895  1.00  0.00    -0.000 C 
BRANCH  28  29
ATOM     29  C   UNL     1      13.629 -22.507 -38.740  1.00  0.00    -0.000 C 
BRANCH  29  30
ATOM     30  C   UNL     1      13.121 -22.851 -40.158  1.00  0.00    -0.000 C 
BRANCH  30  31
ATOM     31  C   UNL     1      13.089 -21.645 -41.113  1.00  0.00    -0.003 C 
ATOM     32  C   UNL     1      14.466 -21.028 -41.347  1.00  0.00     0.004 C 
ENDBRANCH  30  31
ENDBRANCH  29  30
ENDBRANCH  28  29
ENDBRANCH  27  28
ENDBRANCH  26  27
ENDBRANCH  25  26
ENDBRANCH  24  25
ENDBRANCH  23  24
ENDBRANCH  22  23
ENDBRANCH  21  22
ENDBRANCH  20  21
ENDBRANCH  19  20
ENDBRANCH  18  19
ENDBRANCH   1  18
TORSDOF 28
ENDMDL
MODEL 5
REMARK VINA RESULT:    -3.360      3.166      7.464
REMARK INTER + INTRA:         -15.524
REMARK INTER:                  -9.420
REMARK INTRA:                  -6.104
REMARK UNBOUND:                -6.664
REMARK SMILES CCCCCCCCCCCCCCCCCCCCCCCCCCCCCC(=O)[O-]
REMARK SMILES IDX 16 1 17 2 18 3 19 4 20 5 21 6 22 7 23 8 24 9 25 10 26 11
REMARK SMILES IDX 27 12 28 13 29 14 30 15 31 16 32 17 15 18 14 19 13 20 12 21
REMARK SMILES IDX 11 22 10 23 9 24 8 25 7 26 6 27 5 28 4 29 3 30 2 31 1 32
REMARK H PARENT
REMARK Flexibility Score: inf
ROOT
ATOM      1  C   UNL     1       9.768 -23.056 -34.827  1.00  0.00     0.000 C 
ENDROOT
BRANCH   1   2
ATOM      2  C   UNL     1      10.194 -23.740 -36.144  1.00  0.00     0.000 C 
BRANCH   2   3
ATOM      3  C   UNL     1       9.019 -24.363 -36.926  1.00  0.00     0.000 C 
BRANCH   3   4
ATOM      4  C   UNL     1       8.967 -23.885 -38.389  1.00  0.00     0.000 C 
BRANCH   4   5
ATOM      5  C   UNL     1       9.623 -22.506 -38.579  1.00  0.00     0.000 C 
BRANCH   5   6
ATOM      6  C   UNL     1       8.813 -21.601 -39.520  1.00  0.00     0.000 C 
BRANCH   6   7
ATOM      7  C   UNL     1       9.119 -20.120 -39.269  1.00  0.00     0.000 C 
BRANCH   7   8
ATOM      8  C   UNL     1      10.526 -19.762 -39.769  1.00  0.00     0.000 C 
BRANCH   8   9
ATOM      9  C   UNL     1      11.246 -18.744 -38.870  1.00  0.00     0.000 C 
BRANCH   9  10
ATOM     10  C   UNL     1      11.020 -18.973 -37.361  1.00  0.00     0.000 C 
BRANCH  10  11
ATOM     11  C   UNL     1      11.946 -20.062 -36.787  1.00  0.00     0.000 C 
BRANCH  11  12
ATOM     12  C   UNL     1      13.403 -19.906 -37.272  1.00  0.00     0.000 C 
BRANCH  12  13
ATOM     13  C   UNL     1      14.166 -21.235 -37.387  1.00  0.00     0.006 C 
BRANCH  13  14
ATOM     14  C   UNL     1      13.342 -22.344 -38.054  1.00  0.00     0.053 C 
BRANCH  14  15
ATOM     15  C   UNL     1      14.153 -23.048 -39.096  1.00  0.00     0.041 C 
ATOM     16  O   UNL     1      14.238 -22.578 -40.261  1.00  0.00    -0.550 OA
ATOM     17  O   UNL     1      14.858 -24.199 -38.767  1.00  0.00    -0.550 OA
ENDBRANCH  14  15
ENDBRANCH  13  14
ENDBRANCH  12  13
ENDBRANCH  11  12
ENDBRANCH  10  11
ENDBRANCH   9  10
ENDBRANCH   8   9
ENDBRANCH   7   8
ENDBRANCH   6   7
ENDBRANCH   5   6
ENDBRANCH   4   5
ENDBRANCH   3   4
ENDBRANCH   2   3
ENDBRANCH   1   2
BRANCH   1  18
ATOM     18  C   UNL     1       8.398 -22.348 -34.877  1.00  0.00     0.000 C 
BRANCH  18  19
ATOM     19  C   UNL     1       8.472 -20.896 -35.381  1.00  0.00     0.000 C 
BRANCH  19  20
ATOM     20  C   UNL     1       7.222 -20.503 -36.189  1.00  0.00     0.000 C 
BRANCH  20  21
ATOM     21  C   UNL     1       6.397 -21.717 -36.652  1.00  0.00     0.000 C 
BRANCH  21  22
ATOM     22  C   UNL     1       5.353 -21.419 -37.749  1.00  0.00     0.000 C 
BRANCH  22  23
ATOM     23  C   UNL     1       5.491 -20.048 -38.446  1.00  0.00     0.000 C 
BRANCH  23  24
ATOM     24  C   UNL     1       4.281 -19.110 -38.280  1.00  0.00    -0.000 C 
BRANCH  24  25
ATOM     25  C   UNL     1       4.493 -18.053 -37.184  1.00  0.00    -0.000 C 
BRANCH  25  26
ATOM     26  C   UNL     1       5.884 -17.398 -37.250  1.00  0.00    -0.000 C 
BRANCH  26  27
ATOM     27  C   UNL     1       5.847 -15.972 -37.829  1.00  0.00    -0.000 C 
BRANCH  27  28
ATOM     28  C   UNL     1       6.279 -15.925 -39.303  1.00  0.00    -0.000 C 
BRANCH  28  29
ATOM     29  C   UNL     1       7.456 -16.870 -39.609  1.00  0.00    -0.000 C 
BRANCH  29  30
ATOM     30  C   UNL     1       7.514 -17.261 -41.102  1.00  0.00    -0.000 C 
BRANCH  30  31
ATOM     31  C   UNL     1       6.650 -18.485 -41.456  1.00  0.00    -0.003 C 
ATOM     32  C   UNL     1       5.311 -18.112 -42.088  1.00  0.00     0.004 C 
ENDBRANCH  30  31
ENDBRANCH  29  30
ENDBRANCH  28  29
ENDBRANCH  27  28
ENDBRANCH  26  27
ENDBRANCH  25  26
ENDBRANCH  24  25
ENDBRANCH  23  24
ENDBRANCH  22  23
ENDBRANCH  21  22
ENDBRANCH  20  21
ENDBRANCH  19  20
ENDBRANCH  18  19
ENDBRANCH   1  18
TORSDOF 28
ENDMDL
MODEL 6
REMARK VINA RESULT:    -3.285      1.951      4.808
REMARK INTER + INTRA:         -15.326
REMARK INTER:                 -10.506
REMARK INTRA:                  -4.820
REMARK UNBOUND:                -6.664
REMARK SMILES CCCCCCCCCCCCCCCCCCCCCCCCCCCCCC(=O)[O-]
REMARK SMILES IDX 16 1 17 2 18 3 19 4 20 5 21 6 22 7 23 8 24 9 25 10 26 11
REMARK SMILES IDX 27 12 28 13 29 14 30 15 31 16 32 17 15 18 14 19 13 20 12 21
REMARK SMILES IDX 11 22 10 23 9 24 8 25 7 26 6 27 5 28 4 29 3 30 2 31 1 32
REMARK H PARENT
REMARK Flexibility Score: inf
ROOT
ATOM      1  C   UNL     1       9.701 -21.512 -35.238  1.00  0.00     0.000 C 
ENDROOT
BRANCH   1   2
ATOM      2  C   UNL     1       8.301 -20.860 -35.247  1.00  0.00     0.000 C 
BRANCH   2   3
ATOM      3  C   UNL     1       7.636 -20.844 -36.639  1.00  0.00     0.000 C 
BRANCH   3   4
ATOM      4  C   UNL     1       6.353 -21.694 -36.688  1.00  0.00     0.000 C 
BRANCH   4   5
ATOM      5  C   UNL     1       5.625 -21.579 -38.038  1.00  0.00     0.000 C 
BRANCH   5   6
ATOM      6  C   UNL     1       4.491 -20.541 -38.001  1.00  0.00     0.000 C 
BRANCH   6   7
ATOM      7  C   UNL     1       4.820 -19.325 -38.875  1.00  0.00     0.000 C 
BRANCH   7   8
ATOM      8  C   UNL     1       5.589 -18.267 -38.071  1.00  0.00     0.000 C 
BRANCH   8   9
ATOM      9  C   UNL     1       4.921 -17.924 -36.730  1.00  0.00     0.000 C 
BRANCH   9  10
ATOM     10  C   UNL     1       5.918 -17.720 -35.570  1.00  0.00     0.000 C 
BRANCH  10  11
ATOM     11  C   UNL     1       5.231 -17.211 -34.289  1.00  0.00     0.000 C 
BRANCH  11  12
ATOM     12  C   UNL     1       5.402 -15.690 -34.097  1.00  0.00     0.000 C 
BRANCH  12  13
ATOM     13  C   UNL     1       4.216 -14.860 -34.616  1.00  0.00     0.006 C 
BRANCH  13  14
ATOM     14  C   UNL     1       4.484 -14.221 -35.984  1.00  0.00     0.053 C 
BRANCH  14  15
ATOM     15  C   UNL     1       3.294 -14.375 -36.878  1.00  0.00     0.041 C 
ATOM     16  O   UNL     1       3.091 -13.555 -37.814  1.00  0.00    -0.550 OA
ATOM     17  O   UNL     1       2.435 -15.453 -36.711  1.00  0.00    -0.550 OA
ENDBRANCH  14  15
ENDBRANCH  13  14
ENDBRANCH  12  13
ENDBRANCH  11  12
ENDBRANCH  10  11
ENDBRANCH   9  10
ENDBRANCH   8   9
ENDBRANCH   7   8
ENDBRANCH   6   7
ENDBRANCH   5   6
ENDBRANCH   4   5
ENDBRANCH   3   4
ENDBRANCH   2   3
ENDBRANCH   1   2
BRANCH   1  18
ATOM     18  C   UNL     1       9.719 -23.005 -34.851  1.00  0.00     0.000 C 
BRANCH  18  19
ATOM     19  C   UNL     1      10.170 -23.933 -35.994  1.00  0.00     0.000 C 
BRANCH  19  20
ATOM     20  C   UNL     1       8.978 -24.442 -36.825  1.00  0.00     0.000 C 
BRANCH  20  21
ATOM     21  C   UNL     1       8.945 -23.861 -38.250  1.00  0.00     0.000 C 
BRANCH  21  22
ATOM     22  C   UNL     1      10.095 -22.887 -38.588  1.00  0.00     0.000 C 
BRANCH  22  23
ATOM     23  C   UNL     1      10.975 -23.286 -39.791  1.00  0.00     0.000 C 
BRANCH  23  24
ATOM     24  C   UNL     1      12.246 -24.077 -39.433  1.00  0.00    -0.000 C 
BRANCH  24  25
ATOM     25  C   UNL     1      12.942 -23.545 -38.169  1.00  0.00    -0.000 C 
BRANCH  25  26
ATOM     26  C   UNL     1      14.156 -22.656 -38.488  1.00  0.00    -0.000 C 
BRANCH  26  27
ATOM     27  C   UNL     1      14.242 -21.413 -37.583  1.00  0.00    -0.000 C 
BRANCH  27  28
ATOM     28  C   UNL     1      12.877 -20.734 -37.388  1.00  0.00    -0.000 C 
BRANCH  28  29
ATOM     29  C   UNL     1      12.402 -19.978 -38.643  1.00  0.00    -0.000 C 
BRANCH  29  30
ATOM     30  C   UNL     1      11.811 -18.594 -38.299  1.00  0.00    -0.000 C 
BRANCH  30  31
ATOM     31  C   UNL     1      10.353 -18.648 -37.808  1.00  0.00    -0.003 C 
ATOM     32  C   UNL     1       9.396 -17.840 -38.681  1.00  0.00     0.004 C 
ENDBRANCH  30  31
ENDBRANCH  29  30
ENDBRANCH  28  29
ENDBRANCH  27  28
ENDBRANCH  26  27
ENDBRANCH  25  26
ENDBRANCH  24  25
ENDBRANCH  23  24
ENDBRANCH  22  23
ENDBRANCH  21  22
ENDBRANCH  20  21
ENDBRANCH  19  20
ENDBRANCH  18  19
ENDBRANCH   1  18
TORSDOF 28
ENDMDL
MODEL 7
REMARK VINA RESULT:    -3.283      1.733      4.131
REMARK INTER + INTRA:         -15.322
REMARK INTER:                  -9.426
REMARK INTRA:                  -5.896
REMARK UNBOUND:                -6.664
REMARK SMILES CCCCCCCCCCCCCCCCCCCCCCCCCCCCCC(=O)[O-]
REMARK SMILES IDX 16 1 17 2 18 3 19 4 20 5 21 6 22 7 23 8 24 9 25 10 26 11
REMARK SMILES IDX 27 12 28 13 29 14 30 15 31 16 32 17 15 18 14 19 13 20 12 21
REMARK SMILES IDX 11 22 10 23 9 24 8 25 7 26 6 27 5 28 4 29 3 30 2 31 1 32
REMARK H PARENT
REMARK Flexibility Score: inf
ROOT
ATOM      1  C   UNL     1       9.224 -24.227 -36.650  1.00  0.00     0.000 C 
ENDROOT
BRANCH   1   2
ATOM      2  C   UNL     1       9.765 -23.886 -35.244  1.00  0.00     0.000 C 
BRANCH   2   3
ATOM      3  C   UNL     1       9.650 -22.390 -34.884  1.00  0.00     0.000 C 
BRANCH   3   4
ATOM      4  C   UNL     1       8.187 -21.911 -34.825  1.00  0.00     0.000 C 
BRANCH   4   5
ATOM      5  C   UNL     1       7.943 -20.667 -35.697  1.00  0.00     0.000 C 
BRANCH   5   6
ATOM      6  C   UNL     1       7.016 -20.963 -36.886  1.00  0.00     0.000 C 
BRANCH   6   7
ATOM      7  C   UNL     1       6.226 -19.716 -37.300  1.00  0.00     0.000 C 
BRANCH   7   8
ATOM      8  C   UNL     1       6.777 -18.464 -36.602  1.00  0.00     0.000 C 
BRANCH   8   9
ATOM      9  C   UNL     1       7.114 -17.327 -37.579  1.00  0.00     0.000 C 
BRANCH   9  10
ATOM     10  C   UNL     1       5.953 -16.948 -38.523  1.00  0.00     0.000 C 
BRANCH  10  11
ATOM     11  C   UNL     1       5.017 -15.892 -37.908  1.00  0.00     0.000 C 
BRANCH  11  12
ATOM     12  C   UNL     1       3.691 -16.503 -37.410  1.00  0.00     0.000 C 
BRANCH  12  13
ATOM     13  C   UNL     1       3.585 -16.597 -35.879  1.00  0.00     0.006 C 
BRANCH  13  14
ATOM     14  C   UNL     1       4.374 -15.499 -35.155  1.00  0.00     0.053 C 
BRANCH  14  15
ATOM     15  C   UNL     1       4.974 -16.029 -33.890  1.00  0.00     0.041 C 
ATOM     16  O   UNL     1       5.274 -17.249 -33.792  1.00  0.00    -0.550 OA
ATOM     17  O   UNL     1       5.249 -15.167 -32.837  1.00  0.00    -0.550 OA
ENDBRANCH  14  15
ENDBRANCH  13  14
ENDBRANCH  12  13
ENDBRANCH  11  12
ENDBRANCH  10  11
ENDBRANCH   9  10
ENDBRANCH   8   9
ENDBRANCH   7   8
ENDBRANCH   6   7
ENDBRANCH   5   6
ENDBRANCH   4   5
ENDBRANCH   3   4
ENDBRANCH   2   3
ENDBRANCH   1   2
BRANCH   1  18
ATOM     18  C   UNL     1       9.846 -23.409 -37.801  1.00  0.00     0.000 C 
BRANCH  18  19
ATOM     19  C   UNL     1       9.992 -24.203 -39.112  1.00  0.00     0.000 C 
BRANCH  19  20
ATOM     20  C   UNL     1       9.644 -23.348 -40.343  1.00  0.00     0.000 C 
BRANCH  20  21
ATOM     21  C   UNL     1       8.730 -22.155 -40.011  1.00  0.00     0.000 C 
BRANCH  21  22
ATOM     22  C   UNL     1       9.064 -20.846 -40.757  1.00  0.00     0.000 C 
BRANCH  22  23
ATOM     23  C   UNL     1       8.780 -19.544 -39.978  1.00  0.00     0.000 C 
BRANCH  23  24
ATOM     24  C   UNL     1       9.910 -18.498 -40.027  1.00  0.00    -0.000 C 
BRANCH  24  25
ATOM     25  C   UNL     1      10.483 -18.175 -38.636  1.00  0.00    -0.000 C 
BRANCH  25  26
ATOM     26  C   UNL     1      10.398 -19.367 -37.667  1.00  0.00    -0.000 C 
BRANCH  26  27
ATOM     27  C   UNL     1      11.601 -19.447 -36.710  1.00  0.00    -0.000 C 
BRANCH  27  28
ATOM     28  C   UNL     1      12.868 -19.974 -37.403  1.00  0.00    -0.000 C 
BRANCH  28  29
ATOM     29  C   UNL     1      12.901 -21.511 -37.496  1.00  0.00    -0.000 C 
BRANCH  29  30
ATOM     30  C   UNL     1      13.078 -22.001 -38.950  1.00  0.00    -0.000 C 
BRANCH  30  31
ATOM     31  C   UNL     1      12.718 -20.944 -40.008  1.00  0.00    -0.003 C 
ATOM     32  C   UNL     1      12.748 -21.488 -41.435  1.00  0.00     0.004 C 
ENDBRANCH  30  31
ENDBRANCH  29  30
ENDBRANCH  28  29
ENDBRANCH  27  28
ENDBRANCH  26  27
ENDBRANCH  25  26
ENDBRANCH  24  25
ENDBRANCH  23  24
ENDBRANCH  22  23
ENDBRANCH  21  22
ENDBRANCH  20  21
ENDBRANCH  19  20
ENDBRANCH  18  19
ENDBRANCH   1  18
TORSDOF 28
ENDMDL
MODEL 8
REMARK VINA RESULT:    -3.272      1.756      4.926
REMARK INTER + INTRA:         -15.293
REMARK INTER:                  -8.895
REMARK INTRA:                  -6.398
REMARK UNBOUND:                -6.664
REMARK SMILES CCCCCCCCCCCCCCCCCCCCCCCCCCCCCC(=O)[O-]
REMARK SMILES IDX 16 1 17 2 18 3 19 4 20 5 21 6 22 7 23 8 24 9 25 10 26 11
REMARK SMILES IDX 27 12 28 13 29 14 30 15 31 16 32 17 15 18 14 19 13 20 12 21
REMARK SMILES IDX 11 22 10 23 9 24 8 25 7 26 6 27 5 28 4 29 3 30 2 31 1 32
REMARK H PARENT
REMARK Flexibility Score: inf
ROOT
ATOM      1  C   UNL     1       8.335 -21.977 -35.080  1.00  0.00     0.000 C 
ENDROOT
BRANCH   1   2
ATOM      2  C   UNL     1       8.617 -20.535 -35.554  1.00  0.00     0.000 C 
BRANCH   2   3
ATOM      3  C   UNL     1       7.363 -19.797 -36.068  1.00  0.00     0.000 C 
BRANCH   3   4
ATOM      4  C   UNL     1       6.368 -20.745 -36.764  1.00  0.00     0.000 C 
BRANCH   4   5
ATOM      5  C   UNL     1       5.833 -20.165 -38.085  1.00  0.00     0.000 C 
BRANCH   5   6
ATOM      6  C   UNL     1       4.308 -19.981 -38.064  1.00  0.00     0.000 C 
BRANCH   6   7
ATOM      7  C   UNL     1       3.918 -18.529 -38.369  1.00  0.00     0.000 C 
BRANCH   7   8
ATOM      8  C   UNL     1       3.324 -17.851 -37.126  1.00  0.00     0.000 C 
BRANCH   8   9
ATOM      9  C   UNL     1       4.350 -17.014 -36.345  1.00  0.00     0.000 C 
BRANCH   9  10
ATOM     10  C   UNL     1       5.247 -16.133 -37.240  1.00  0.00     0.000 C 
BRANCH  10  11
ATOM     11  C   UNL     1       6.746 -16.389 -37.001  1.00  0.00     0.000 C 
BRANCH  11  12
ATOM     12  C   UNL     1       7.494 -16.750 -38.301  1.00  0.00     0.000 C 
BRANCH  12  13
ATOM     13  C   UNL     1       6.687 -16.471 -39.580  1.00  0.00     0.006 C 
BRANCH  13  14
ATOM     14  C   UNL     1       7.088 -17.378 -40.751  1.00  0.00     0.053 C 
BRANCH  14  15
ATOM     15  C   UNL     1       7.975 -16.642 -41.706  1.00  0.00     0.041 C 
ATOM     16  O   UNL     1       9.173 -16.395 -41.401  1.00  0.00    -0.550 OA
ATOM     17  O   UNL     1       7.494 -16.270 -42.955  1.00  0.00    -0.550 OA
ENDBRANCH  14  15
ENDBRANCH  13  14
ENDBRANCH  12  13
ENDBRANCH  11  12
ENDBRANCH  10  11
ENDBRANCH   9  10
ENDBRANCH   8   9
ENDBRANCH   7   8
ENDBRANCH   6   7
ENDBRANCH   5   6
ENDBRANCH   4   5
ENDBRANCH   3   4
ENDBRANCH   2   3
ENDBRANCH   1   2
BRANCH   1  18
ATOM     18  C   UNL     1       9.589 -22.856 -34.895  1.00  0.00     0.000 C 
BRANCH  18  19
ATOM     19  C   UNL     1       9.904 -23.745 -36.111  1.00  0.00     0.000 C 
BRANCH  19  20
ATOM     20  C   UNL     1       8.626 -24.205 -36.834  1.00  0.00     0.000 C 
BRANCH  20  21
ATOM     21  C   UNL     1       8.546 -23.712 -38.290  1.00  0.00     0.000 C 
BRANCH  21  22
ATOM     22  C   UNL     1       9.473 -22.526 -38.632  1.00  0.00     0.000 C 
BRANCH  22  23
ATOM     23  C   UNL     1       8.947 -21.559 -39.713  1.00  0.00     0.000 C 
BRANCH  23  24
ATOM     24  C   UNL     1       9.055 -20.065 -39.357  1.00  0.00    -0.000 C 
BRANCH  24  25
ATOM     25  C   UNL     1      10.347 -19.418 -39.884  1.00  0.00    -0.000 C 
BRANCH  25  26
ATOM     26  C   UNL     1      10.878 -18.310 -38.958  1.00  0.00    -0.000 C 
BRANCH  26  27
ATOM     27  C   UNL     1      11.123 -18.799 -37.519  1.00  0.00    -0.000 C 
BRANCH  27  28
ATOM     28  C   UNL     1      12.462 -19.539 -37.371  1.00  0.00    -0.000 C 
BRANCH  28  29
ATOM     29  C   UNL     1      12.285 -21.049 -37.125  1.00  0.00    -0.000 C 
BRANCH  29  30
ATOM     30  C   UNL     1      13.065 -21.901 -38.151  1.00  0.00    -0.000 C 
BRANCH  30  31
ATOM     31  C   UNL     1      13.678 -21.079 -39.299  1.00  0.00    -0.003 C 
ATOM     32  C   UNL     1      15.193 -21.236 -39.407  1.00  0.00     0.004 C 
ENDBRANCH  30  31
ENDBRANCH  29  30
ENDBRANCH  28  29
ENDBRANCH  27  28
ENDBRANCH  26  27
ENDBRANCH  25  26
ENDBRANCH  24  25
ENDBRANCH  23  24
ENDBRANCH  22  23
ENDBRANCH  21  22
ENDBRANCH  20  21
ENDBRANCH  19  20
ENDBRANCH  18  19
ENDBRANCH   1  18
TORSDOF 28
ENDMDL
MODEL 9
REMARK VINA RESULT:    -3.256      1.474      4.349
REMARK INTER + INTRA:         -15.249
REMARK INTER:                  -8.829
REMARK INTRA:                  -6.420
REMARK UNBOUND:                -6.664
REMARK SMILES CCCCCCCCCCCCCCCCCCCCCCCCCCCCCC(=O)[O-]
REMARK SMILES IDX 16 1 17 2 18 3 19 4 20 5 21 6 22 7 23 8 24 9 25 10 26 11
REMARK SMILES IDX 27 12 28 13 29 14 30 15 31 16 32 17 15 18 14 19 13 20 12 21
REMARK SMILES IDX 11 22 10 23 9 24 8 25 7 26 6 27 5 28 4 29 3 30 2 31 1 32
REMARK H PARENT
REMARK Flexibility Score: inf
ROOT
ATOM      1  C   UNL     1       8.247 -21.986 -35.172  1.00  0.00     0.000 C 
ENDROOT
BRANCH   1   2
ATOM      2  C   UNL     1       8.170 -20.504 -35.598  1.00  0.00     0.000 C 
BRANCH   2   3
ATOM      3  C   UNL     1       6.887 -20.151 -36.379  1.00  0.00     0.000 C 
BRANCH   3   4
ATOM      4  C   UNL     1       6.195 -21.396 -36.966  1.00  0.00     0.000 C 
BRANCH   4   5
ATOM      5  C   UNL     1       5.708 -21.170 -38.407  1.00  0.00     0.000 C 
BRANCH   5   6
ATOM      6  C   UNL     1       6.394 -22.114 -39.408  1.00  0.00     0.000 C 
BRANCH   6   7
ATOM      7  C   UNL     1       7.891 -21.803 -39.530  1.00  0.00     0.000 C 
BRANCH   7   8
ATOM      8  C   UNL     1       8.143 -20.761 -40.630  1.00  0.00     0.000 C 
BRANCH   8   9
ATOM      9  C   UNL     1       9.257 -19.764 -40.274  1.00  0.00     0.000 C 
BRANCH   9  10
ATOM     10  C   UNL     1       9.697 -19.820 -38.796  1.00  0.00     0.000 C 
BRANCH  10  11
ATOM     11  C   UNL     1       9.930 -18.421 -38.199  1.00  0.00     0.000 C 
BRANCH  11  12
ATOM     12  C   UNL     1       9.081 -17.338 -38.897  1.00  0.00     0.000 C 
BRANCH  12  13
ATOM     13  C   UNL     1       7.768 -17.010 -38.167  1.00  0.00     0.006 C 
BRANCH  13  14
ATOM     14  C   UNL     1       6.522 -17.355 -38.992  1.00  0.00     0.053 C 
BRANCH  14  15
ATOM     15  C   UNL     1       5.585 -16.190 -39.042  1.00  0.00     0.041 C 
ATOM     16  O   UNL     1       5.382 -15.583 -40.128  1.00  0.00    -0.550 OA
ATOM     17  O   UNL     1       4.896 -15.803 -37.900  1.00  0.00    -0.550 OA
ENDBRANCH  14  15
ENDBRANCH  13  14
ENDBRANCH  12  13
ENDBRANCH  11  12
ENDBRANCH  10  11
ENDBRANCH   9  10
ENDBRANCH   8   9
ENDBRANCH   7   8
ENDBRANCH   6   7
ENDBRANCH   5   6
ENDBRANCH   4   5
ENDBRANCH   3   4
ENDBRANCH   2   3
ENDBRANCH   1   2
BRANCH   1  18
ATOM     18  C   UNL     1       9.670 -22.503 -34.873  1.00  0.00     0.000 C 
BRANCH  18  19
ATOM     19  C   UNL     1       9.986 -23.857 -35.533  1.00  0.00     0.000 C 
BRANCH  19  20
ATOM     20  C   UNL     1       9.202 -24.055 -36.843  1.00  0.00     0.000 C 
BRANCH  20  21
ATOM     21  C   UNL     1      10.111 -24.318 -38.057  1.00  0.00     0.000 C 
BRANCH  21  22
ATOM     22  C   UNL     1      11.177 -23.234 -38.322  1.00  0.00     0.000 C 
BRANCH  22  23
ATOM     23  C   UNL     1      11.385 -22.852 -39.803  1.00  0.00     0.000 C 
BRANCH  23  24
ATOM     24  C   UNL     1      12.742 -23.272 -40.399  1.00  0.00    -0.000 C 
BRANCH  24  25
ATOM     25  C   UNL     1      13.482 -22.106 -41.076  1.00  0.00    -0.000 C 
BRANCH  25  26
ATOM     26  C   UNL     1      12.563 -20.906 -41.364  1.00  0.00    -0.000 C 
BRANCH  26  27
ATOM     27  C   UNL     1      13.087 -19.592 -40.757  1.00  0.00    -0.000 C 
BRANCH  27  28
ATOM     28  C   UNL     1      14.051 -19.831 -39.584  1.00  0.00    -0.000 C 
BRANCH  28  29
ATOM     29  C   UNL     1      13.368 -19.684 -38.212  1.00  0.00    -0.000 C 
BRANCH  29  30
ATOM     30  C   UNL     1      13.834 -20.766 -37.212  1.00  0.00    -0.000 C 
BRANCH  30  31
ATOM     31  C   UNL     1      15.030 -21.596 -37.711  1.00  0.00    -0.003 C 
ATOM     32  C   UNL     1      14.823 -23.101 -37.556  1.00  0.00     0.004 C 
ENDBRANCH  30  31
ENDBRANCH  29  30
ENDBRANCH  28  29
ENDBRANCH  27  28
ENDBRANCH  26  27
ENDBRANCH  25  26
ENDBRANCH  24  25
ENDBRANCH  23  24
ENDBRANCH  22  23
ENDBRANCH  21  22
ENDBRANCH  20  21
ENDBRANCH  19  20
ENDBRANCH  18  19
ENDBRANCH   1  18
TORSDOF 28
ENDMDL
