MODEL 1
REMARK VINA RESULT:    -3.163      0.000      0.000
REMARK INTER + INTRA:          -3.831
REMARK INTER:                  -3.717
REMARK INTRA:                  -0.114
REMARK UNBOUND:                -0.114
REMARK SMILES O=C([O-])CCC(=O)[O-]
REMARK SMILES IDX 4 1 2 2 1 3 3 4 5 5 6 6 7 7 8 8
REMARK H PARENT
REMARK Flexibility Score: inf
ROOT
ATOM      1  C   UNL     1     162.893 157.915 165.261  1.00  0.00     0.059 C 
ENDROOT
BRANCH   1   2
ATOM      2  C   UNL     1     162.560 156.965 166.366  1.00  0.00     0.042 C 
ATOM      3  O   UNL     1     162.946 157.199 167.542  1.00  0.00    -0.550 OA
ATOM      4  O   UNL     1     161.864 155.795 166.091  1.00  0.00    -0.550 OA
ENDBRANCH   1   2
BRANCH   1   5
ATOM      5  C   UNL     1     162.197 159.260 165.482  1.00  0.00     0.059 C 
BRANCH   5   6
ATOM      6  C   UNL     1     160.755 159.172 165.096  1.00  0.00     0.042 C 
ATOM      7  O   UNL     1     159.917 159.971 165.592  1.00  0.00    -0.550 OA
ATOM      8  O   UNL     1     160.343 158.242 164.151  1.00  0.00    -0.550 OA
ENDBRANCH   5   6
ENDBRANCH   1   5
TORSDOF 3
ENDMDL
MODEL 2
REMARK VINA RESULT:    -3.150      1.510      3.605
REMARK INTER + INTRA:          -3.816
REMARK INTER:                  -3.697
REMARK INTRA:                  -0.118
REMARK UNBOUND:                -0.114
REMARK SMILES O=C([O-])CCC(=O)[O-]
REMARK SMILES IDX 4 1 2 2 1 3 3 4 5 5 6 6 7 7 8 8
REMARK H PARENT
REMARK Flexibility Score: inf
ROOT
ATOM      1  C   UNL     1     162.934 158.247 164.869  1.00  0.00     0.059 C 
ENDROOT
BRANCH   1   2
ATOM      2  C   UNL     1     162.284 159.438 165.498  1.00  0.00     0.042 C 
ATOM      3  O   UNL     1     162.909 160.125 166.349  1.00  0.00    -0.550 OA
ATOM      4  O   UNL     1     160.972 159.763 165.181  1.00  0.00    -0.550 OA
ENDBRANCH   1   2
BRANCH   1   5
ATOM      5  C   UNL     1     162.309 156.955 165.398  1.00  0.00     0.059 C 
BRANCH   5   6
ATOM      6  C   UNL     1     163.063 156.459 166.591  1.00  0.00     0.042 C 
ATOM      7  O   UNL     1     162.694 156.781 167.752  1.00  0.00    -0.550 OA
ATOM      8  O   UNL     1     164.142 155.602 166.425  1.00  0.00    -0.550 OA
ENDBRANCH   5   6
ENDBRANCH   1   5
TORSDOF 3
ENDMDL
MODEL 3
REMARK VINA RESULT:    -3.140      0.165      3.494
REMARK INTER + INTRA:          -3.804
REMARK INTER:                  -3.695
REMARK INTRA:                  -0.110
REMARK UNBOUND:                -0.114
REMARK SMILES O=C([O-])CCC(=O)[O-]
REMARK SMILES IDX 4 1 2 2 1 3 3 4 5 5 6 6 7 7 8 8
REMARK H PARENT
REMARK Flexibility Score: inf
ROOT
ATOM      1  C   UNL     1     162.088 159.256 165.297  1.00  0.00     0.059 C 
ENDROOT
BRANCH   1   2
ATOM      2  C   UNL     1     160.626 159.123 165.010  1.00  0.00     0.042 C 
ATOM      3  O   UNL     1     160.218 158.266 164.183  1.00  0.00    -0.550 OA
ATOM      4  O   UNL     1     159.718 159.978 165.620  1.00  0.00    -0.550 OA
ENDBRANCH   1   2
BRANCH   1   5
ATOM      5  C   UNL     1     162.793 157.910 165.117  1.00  0.00     0.059 C 
BRANCH   5   6
ATOM      6  C   UNL     1     162.547 157.028 166.300  1.00  0.00     0.042 C 
ATOM      7  O   UNL     1     162.920 157.388 167.447  1.00  0.00    -0.550 OA
ATOM      8  O   UNL     1     161.862 155.831 166.143  1.00  0.00    -0.550 OA
ENDBRANCH   5   6
ENDBRANCH   1   5
TORSDOF 3
ENDMDL
MODEL 4
REMARK VINA RESULT:    -3.078      1.522      3.912
REMARK INTER + INTRA:          -3.732
REMARK INTER:                  -3.695
REMARK INTRA:                  -0.037
REMARK UNBOUND:                -0.114
REMARK SMILES O=C([O-])CCC(=O)[O-]
REMARK SMILES IDX 4 1 2 2 1 3 3 4 5 5 6 6 7 7 8 8
REMARK H PARENT
REMARK Flexibility Score: inf
ROOT
ATOM      1  C   UNL     1     160.523 158.588 164.647  1.00  0.00     0.059 C 
ENDROOT
BRANCH   1   2
ATOM      2  C   UNL     1     159.311 159.458 164.743  1.00  0.00     0.042 C 
ATOM      3  O   UNL     1     159.042 160.054 165.819  1.00  0.00    -0.550 OA
ATOM      4  O   UNL     1     158.450 159.575 163.660  1.00  0.00    -0.550 OA
ENDBRANCH   1   2
BRANCH   1   5
ATOM      5  C   UNL     1     161.723 159.265 165.312  1.00  0.00     0.059 C 
BRANCH   5   6
ATOM      6  C   UNL     1     162.746 158.248 165.706  1.00  0.00     0.042 C 
ATOM      7  O   UNL     1     163.608 157.860 164.874  1.00  0.00    -0.550 OA
ATOM      8  O   UNL     1     162.779 157.763 167.007  1.00  0.00    -0.550 OA
ENDBRANCH   5   6
ENDBRANCH   1   5
TORSDOF 3
ENDMDL
MODEL 5
REMARK VINA RESULT:    -3.074      1.350      1.579
REMARK INTER + INTRA:          -3.727
REMARK INTER:                  -3.607
REMARK INTRA:                  -0.120
REMARK UNBOUND:                -0.114
REMARK SMILES O=C([O-])CCC(=O)[O-]
REMARK SMILES IDX 4 1 2 2 1 3 3 4 5 5 6 6 7 7 8 8
REMARK H PARENT
REMARK Flexibility Score: inf
ROOT
ATOM      1  C   UNL     1     161.801 156.102 165.627  1.00  0.00     0.059 C 
ENDROOT
BRANCH   1   2
ATOM      2  C   UNL     1     162.921 156.274 166.603  1.00  0.00     0.042 C 
ATOM      3  O   UNL     1     162.785 157.036 167.596  1.00  0.00    -0.550 OA
ATOM      4  O   UNL     1     164.133 155.630 166.391  1.00  0.00    -0.550 OA
ENDBRANCH   1   2
BRANCH   1   5
ATOM      5  C   UNL     1     161.871 157.174 164.538  1.00  0.00     0.059 C 
BRANCH   5   6
ATOM      6  C   UNL     1     160.900 158.275 164.824  1.00  0.00     0.042 C 
ATOM      7  O   UNL     1     161.301 159.358 165.326  1.00  0.00    -0.550 OA
ATOM      8  O   UNL     1     159.561 158.125 164.491  1.00  0.00    -0.550 OA
ENDBRANCH   5   6
ENDBRANCH   1   5
TORSDOF 3
ENDMDL
MODEL 6
REMARK VINA RESULT:    -3.072      1.306      3.779
REMARK INTER + INTRA:          -3.725
REMARK INTER:                  -3.610
REMARK INTRA:                  -0.115
REMARK UNBOUND:                -0.114
REMARK SMILES O=C([O-])CCC(=O)[O-]
REMARK SMILES IDX 4 1 2 2 1 3 3 4 5 5 6 6 7 7 8 8
REMARK H PARENT
REMARK Flexibility Score: inf
ROOT
ATOM      1  C   UNL     1     161.884 157.374 164.522  1.00  0.00     0.059 C 
ENDROOT
BRANCH   1   2
ATOM      2  C   UNL     1     160.993 158.527 164.856  1.00  0.00     0.042 C 
ATOM      3  O   UNL     1     159.748 158.435 164.690  1.00  0.00    -0.550 OA
ATOM      4  O   UNL     1     161.539 159.722 165.306  1.00  0.00    -0.550 OA
ENDBRANCH   1   2
BRANCH   1   5
ATOM      5  C   UNL     1     161.784 156.290 165.597  1.00  0.00     0.059 C 
BRANCH   5   6
ATOM      6  C   UNL     1     162.913 156.411 166.570  1.00  0.00     0.042 C 
ATOM      7  O   UNL     1     162.813 157.176 167.565  1.00  0.00    -0.550 OA
ATOM      8  O   UNL     1     164.057 155.642 166.405  1.00  0.00    -0.550 OA
ENDBRANCH   5   6
ENDBRANCH   1   5
TORSDOF 3
ENDMDL
MODEL 7
REMARK VINA RESULT:    -2.914      1.986      3.425
REMARK INTER + INTRA:          -3.539
REMARK INTER:                  -3.459
REMARK INTRA:                  -0.080
REMARK UNBOUND:                -0.114
REMARK SMILES O=C([O-])CCC(=O)[O-]
REMARK SMILES IDX 4 1 2 2 1 3 3 4 5 5 6 6 7 7 8 8
REMARK H PARENT
REMARK Flexibility Score: inf
ROOT
ATOM      1  C   UNL     1     161.609 158.514 165.016  1.00  0.00     0.059 C 
ENDROOT
BRANCH   1   2
ATOM      2  C   UNL     1     162.786 159.396 165.282  1.00  0.00     0.042 C 
ATOM      3  O   UNL     1     163.737 159.450 164.457  1.00  0.00    -0.550 OA
ATOM      4  O   UNL     1     162.858 160.123 166.462  1.00  0.00    -0.550 OA
ENDBRANCH   1   2
BRANCH   1   5
ATOM      5  C   UNL     1     162.058 157.199 164.375  1.00  0.00     0.059 C 
BRANCH   5   6
ATOM      6  C   UNL     1     161.848 156.058 165.318  1.00  0.00     0.042 C 
ATOM      7  O   UNL     1     162.222 156.150 166.517  1.00  0.00    -0.550 OA
ATOM      8  O   UNL     1     161.194 154.911 164.888  1.00  0.00    -0.550 OA
ENDBRANCH   5   6
ENDBRANCH   1   5
TORSDOF 3
ENDMDL
MODEL 8
REMARK VINA RESULT:    -2.910      2.123      2.308
REMARK INTER + INTRA:          -3.534
REMARK INTER:                  -3.415
REMARK INTRA:                  -0.119
REMARK UNBOUND:                -0.114
REMARK SMILES O=C([O-])CCC(=O)[O-]
REMARK SMILES IDX 4 1 2 2 1 3 3 4 5 5 6 6 7 7 8 8
REMARK H PARENT
REMARK Flexibility Score: inf
ROOT
ATOM      1  C   UNL     1     162.587 156.643 165.897  1.00  0.00     0.059 C 
ENDROOT
BRANCH   1   2
ATOM      2  C   UNL     1     163.908 155.953 165.771  1.00  0.00     0.042 C 
ATOM      3  O   UNL     1     164.405 155.352 166.760  1.00  0.00    -0.550 OA
ATOM      4  O   UNL     1     164.615 156.015 164.578  1.00  0.00    -0.550 OA
ENDBRANCH   1   2
BRANCH   1   5
ATOM      5  C   UNL     1     162.770 158.050 166.471  1.00  0.00     0.059 C 
BRANCH   5   6
ATOM      6  C   UNL     1     162.582 159.080 165.403  1.00  0.00     0.042 C 
ATOM      7  O   UNL     1     161.478 159.674 165.283  1.00  0.00    -0.550 OA
ATOM      8  O   UNL     1     163.639 159.419 164.570  1.00  0.00    -0.550 OA
ENDBRANCH   5   6
ENDBRANCH   1   5
TORSDOF 3
ENDMDL
MODEL 9
REMARK VINA RESULT:    -2.848     15.315     15.793
REMARK INTER + INTRA:          -3.461
REMARK INTER:                  -3.350
REMARK INTRA:                  -0.111
REMARK UNBOUND:                -0.114
REMARK SMILES O=C([O-])CCC(=O)[O-]
REMARK SMILES IDX 4 1 2 2 1 3 3 4 5 5 6 6 7 7 8 8
REMARK H PARENT
REMARK Flexibility Score: inf
ROOT
ATOM      1  C   UNL     1     159.469 157.275 150.823  1.00  0.00     0.059 C 
ENDROOT
BRANCH   1   2
ATOM      2  C   UNL     1     160.378 158.329 150.275  1.00  0.00     0.042 C 
ATOM      3  O   UNL     1     161.618 158.122 150.206  1.00  0.00    -0.550 OA
ATOM      4  O   UNL     1     159.862 159.557 149.884  1.00  0.00    -0.550 OA
ENDBRANCH   1   2
BRANCH   1   5
ATOM      5  C   UNL     1     158.292 157.036 149.875  1.00  0.00     0.059 C 
BRANCH   5   6
ATOM      6  C   UNL     1     157.011 157.472 150.512  1.00  0.00     0.042 C 
ATOM      7  O   UNL     1     156.909 158.626 151.006  1.00  0.00    -0.550 OA
ATOM      8  O   UNL     1     155.913 156.623 150.516  1.00  0.00    -0.550 OA
ENDBRANCH   5   6
ENDBRANCH   1   5
TORSDOF 3
ENDMDL
