MODEL 1
REMARK VINA RESULT:    -3.218      0.000      0.000
REMARK INTER + INTRA:          -7.820
REMARK INTER:                  -5.664
REMARK INTRA:                  -2.156
REMARK UNBOUND:                -2.156
REMARK SMILES CCCCCCCCCCCCCCC(=O)[O-]
REMARK SMILES IDX 9 1 10 2 11 3 12 4 13 5 14 6 15 7 16 8 17 9 8 10 7 11 6 12
REMARK SMILES IDX 5 13 4 14 3 15 2 16 1 17
REMARK H PARENT
REMARK Flexibility Score: inf
ROOT
ATOM      1  C   UNL     1      26.847  -4.048 -29.086  1.00  0.00     0.000 C 
ENDROOT
BRANCH   1   2
ATOM      2  C   UNL     1      25.361  -3.635 -29.047  1.00  0.00     0.000 C 
BRANCH   2   3
ATOM      3  C   UNL     1      24.695  -3.490 -30.426  1.00  0.00     0.000 C 
BRANCH   3   4
ATOM      4  C   UNL     1      23.806  -4.693 -30.788  1.00  0.00     0.000 C 
BRANCH   4   5
ATOM      5  C   UNL     1      24.271  -5.407 -32.066  1.00  0.00     0.006 C 
BRANCH   5   6
ATOM      6  C   UNL     1      24.651  -4.426 -33.184  1.00  0.00     0.053 C 
BRANCH   6   7
ATOM      7  C   UNL     1      25.994  -4.768 -33.746  1.00  0.00     0.041 C 
ATOM      8  O   UNL     1      26.084  -5.459 -34.795  1.00  0.00    -0.550 OA
ATOM      9  O   UNL     1      27.147  -4.367 -33.084  1.00  0.00    -0.550 OA
ENDBRANCH   6   7
ENDBRANCH   5   6
ENDBRANCH   4   5
ENDBRANCH   3   4
ENDBRANCH   2   3
ENDBRANCH   1   2
BRANCH   1  10
ATOM     10  C   UNL     1      27.136  -5.386 -29.793  1.00  0.00     0.000 C 
BRANCH  10  11
ATOM     11  C   UNL     1      27.714  -6.493 -28.887  1.00  0.00    -0.000 C 
BRANCH  11  12
ATOM     12  C   UNL     1      26.983  -7.846 -28.967  1.00  0.00    -0.000 C 
BRANCH  12  13
ATOM     13  C   UNL     1      25.471  -7.750 -29.248  1.00  0.00    -0.000 C 
BRANCH  13  14
ATOM     14  C   UNL     1      24.593  -7.921 -27.989  1.00  0.00    -0.000 C 
BRANCH  14  15
ATOM     15  C   UNL     1      24.216  -6.574 -27.348  1.00  0.00    -0.000 C 
BRANCH  15  16
ATOM     16  C   UNL     1      24.710  -6.452 -25.899  1.00  0.00    -0.003 C 
ATOM     17  C   UNL     1      25.853  -5.449 -25.747  1.00  0.00     0.004 C 
ENDBRANCH  15  16
ENDBRANCH  14  15
ENDBRANCH  13  14
ENDBRANCH  12  13
ENDBRANCH  11  12
ENDBRANCH  10  11
ENDBRANCH   1  10
TORSDOF 13
ENDMDL
MODEL 2
REMARK VINA RESULT:    -3.211      1.131      2.578
REMARK INTER + INTRA:          -7.808
REMARK INTER:                  -5.616
REMARK INTRA:                  -2.192
REMARK UNBOUND:                -2.156
REMARK SMILES CCCCCCCCCCCCCCC(=O)[O-]
REMARK SMILES IDX 9 1 10 2 11 3 12 4 13 5 14 6 15 7 16 8 17 9 8 10 7 11 6 12
REMARK SMILES IDX 5 13 4 14 3 15 2 16 1 17
REMARK H PARENT
REMARK Flexibility Score: inf
ROOT
ATOM      1  C   UNL     1      26.133  -3.330 -28.041  1.00  0.00     0.000 C 
ENDROOT
BRANCH   1   2
ATOM      2  C   UNL     1      24.746  -2.829 -28.494  1.00  0.00     0.000 C 
BRANCH   2   3
ATOM      3  C   UNL     1      24.317  -3.297 -29.896  1.00  0.00     0.000 C 
BRANCH   3   4
ATOM      4  C   UNL     1      23.796  -4.745 -29.907  1.00  0.00     0.000 C 
BRANCH   4   5
ATOM      5  C   UNL     1      23.980  -5.428 -31.271  1.00  0.00     0.006 C 
BRANCH   5   6
ATOM      6  C   UNL     1      25.335  -5.103 -31.914  1.00  0.00     0.053 C 
BRANCH   6   7
ATOM      7  C   UNL     1      25.149  -4.666 -33.332  1.00  0.00     0.041 C 
ATOM      8  O   UNL     1      24.250  -3.835 -33.626  1.00  0.00    -0.550 OA
ATOM      9  O   UNL     1      25.935  -5.214 -34.337  1.00  0.00    -0.550 OA
ENDBRANCH   6   7
ENDBRANCH   5   6
ENDBRANCH   4   5
ENDBRANCH   3   4
ENDBRANCH   2   3
ENDBRANCH   1   2
BRANCH   1  10
ATOM     10  C   UNL     1      26.110  -4.506 -27.045  1.00  0.00     0.000 C 
BRANCH  10  11
ATOM     11  C   UNL     1      24.793  -4.673 -26.260  1.00  0.00    -0.000 C 
BRANCH  11  12
ATOM     12  C   UNL     1      24.062  -6.008 -26.494  1.00  0.00    -0.000 C 
BRANCH  12  13
ATOM     13  C   UNL     1      24.980  -7.200 -26.826  1.00  0.00    -0.000 C 
BRANCH  13  14
ATOM     14  C   UNL     1      24.610  -7.921 -28.140  1.00  0.00    -0.000 C 
BRANCH  14  15
ATOM     15  C   UNL     1      25.752  -7.885 -29.171  1.00  0.00    -0.000 C 
BRANCH  15  16
ATOM     16  C   UNL     1      27.136  -7.783 -28.514  1.00  0.00    -0.003 C 
ATOM     17  C   UNL     1      28.048  -6.774 -29.212  1.00  0.00     0.004 C 
ENDBRANCH  15  16
ENDBRANCH  14  15
ENDBRANCH  13  14
ENDBRANCH  12  13
ENDBRANCH  11  12
ENDBRANCH  10  11
ENDBRANCH   1  10
TORSDOF 13
ENDMDL
MODEL 3
REMARK VINA RESULT:    -3.149      1.472      2.926
REMARK INTER + INTRA:          -7.697
REMARK INTER:                  -5.326
REMARK INTRA:                  -2.371
REMARK UNBOUND:                -2.156
REMARK SMILES CCCCCCCCCCCCCCC(=O)[O-]
REMARK SMILES IDX 9 1 10 2 11 3 12 4 13 5 14 6 15 7 16 8 17 9 8 10 7 11 6 12
REMARK SMILES IDX 5 13 4 14 3 15 2 16 1 17
REMARK H PARENT
REMARK Flexibility Score: inf
ROOT
ATOM      1  C   UNL     1      24.759  -7.052 -27.051  1.00  0.00     0.000 C 
ENDROOT
BRANCH   1   2
ATOM      2  C   UNL     1      24.052  -5.681 -27.025  1.00  0.00     0.000 C 
BRANCH   2   3
ATOM      3  C   UNL     1      24.687  -4.609 -27.928  1.00  0.00     0.000 C 
BRANCH   3   4
ATOM      4  C   UNL     1      23.942  -4.440 -29.264  1.00  0.00     0.000 C 
BRANCH   4   5
ATOM      5  C   UNL     1      24.856  -4.651 -30.481  1.00  0.00     0.006 C 
BRANCH   5   6
ATOM      6  C   UNL     1      24.221  -5.554 -31.546  1.00  0.00     0.053 C 
BRANCH   6   7
ATOM      7  C   UNL     1      24.371  -4.947 -32.904  1.00  0.00     0.041 C 
ATOM      8  O   UNL     1      25.416  -5.151 -33.577  1.00  0.00    -0.550 OA
ATOM      9  O   UNL     1      23.381  -4.114 -33.407  1.00  0.00    -0.550 OA
ENDBRANCH   6   7
ENDBRANCH   5   6
ENDBRANCH   4   5
ENDBRANCH   3   4
ENDBRANCH   2   3
ENDBRANCH   1   2
BRANCH   1  10
ATOM     10  C   UNL     1      24.580  -7.856 -28.354  1.00  0.00     0.000 C 
BRANCH  10  11
ATOM     11  C   UNL     1      25.861  -8.030 -29.195  1.00  0.00    -0.000 C 
BRANCH  11  12
ATOM     12  C   UNL     1      27.166  -7.633 -28.482  1.00  0.00    -0.000 C 
BRANCH  12  13
ATOM     13  C   UNL     1      27.920  -6.450 -29.121  1.00  0.00    -0.000 C 
BRANCH  13  14
ATOM     14  C   UNL     1      28.351  -5.367 -28.108  1.00  0.00    -0.000 C 
BRANCH  14  15
ATOM     15  C   UNL     1      28.306  -5.870 -26.655  1.00  0.00    -0.000 C 
BRANCH  15  16
ATOM     16  C   UNL     1      27.582  -4.893 -25.716  1.00  0.00    -0.003 C 
ATOM     17  C   UNL     1      27.059  -5.570 -24.449  1.00  0.00     0.004 C 
ENDBRANCH  15  16
ENDBRANCH  14  15
ENDBRANCH  13  14
ENDBRANCH  12  13
ENDBRANCH  11  12
ENDBRANCH  10  11
ENDBRANCH   1  10
TORSDOF 13
ENDMDL
MODEL 4
REMARK VINA RESULT:    -3.087      1.220      1.770
REMARK INTER + INTRA:          -7.590
REMARK INTER:                  -5.374
REMARK INTRA:                  -2.215
REMARK UNBOUND:                -2.156
REMARK SMILES CCCCCCCCCCCCCCC(=O)[O-]
REMARK SMILES IDX 9 1 10 2 11 3 12 4 13 5 14 6 15 7 16 8 17 9 8 10 7 11 6 12
REMARK SMILES IDX 5 13 4 14 3 15 2 16 1 17
REMARK H PARENT
REMARK Flexibility Score: inf
ROOT
ATOM      1  C   UNL     1      27.760  -5.047 -27.266  1.00  0.00     0.000 C 
ENDROOT
BRANCH   1   2
ATOM      2  C   UNL     1      27.340  -4.176 -28.468  1.00  0.00     0.000 C 
BRANCH   2   3
ATOM      3  C   UNL     1      25.822  -3.967 -28.616  1.00  0.00     0.000 C 
BRANCH   3   4
ATOM      4  C   UNL     1      25.393  -3.733 -30.075  1.00  0.00     0.000 C 
BRANCH   4   5
ATOM      5  C   UNL     1      26.063  -4.712 -31.051  1.00  0.00     0.006 C 
BRANCH   5   6
ATOM      6  C   UNL     1      26.337  -4.081 -32.423  1.00  0.00     0.053 C 
BRANCH   6   7
ATOM      7  C   UNL     1      25.416  -4.652 -33.454  1.00  0.00     0.041 C 
ATOM      8  O   UNL     1      24.170  -4.625 -33.275  1.00  0.00    -0.550 OA
ATOM      9  O   UNL     1      25.936  -5.258 -34.590  1.00  0.00    -0.550 OA
ENDBRANCH   6   7
ENDBRANCH   5   6
ENDBRANCH   4   5
ENDBRANCH   3   4
ENDBRANCH   2   3
ENDBRANCH   1   2
BRANCH   1  10
ATOM     10  C   UNL     1      28.397  -6.401 -27.630  1.00  0.00     0.000 C 
BRANCH  10  11
ATOM     11  C   UNL     1      27.901  -7.023 -28.952  1.00  0.00    -0.000 C 
BRANCH  11  12
ATOM     12  C   UNL     1      26.826  -8.115 -28.794  1.00  0.00    -0.000 C 
BRANCH  12  13
ATOM     13  C   UNL     1      25.405  -7.691 -29.214  1.00  0.00    -0.000 C 
BRANCH  13  14
ATOM     14  C   UNL     1      24.427  -7.536 -28.029  1.00  0.00    -0.000 C 
BRANCH  14  15
ATOM     15  C   UNL     1      25.073  -7.904 -26.682  1.00  0.00    -0.000 C 
BRANCH  15  16
ATOM     16  C   UNL     1      24.941  -6.782 -25.640  1.00  0.00    -0.003 C 
ATOM     17  C   UNL     1      23.939  -5.706 -26.056  1.00  0.00     0.004 C 
ENDBRANCH  15  16
ENDBRANCH  14  15
ENDBRANCH  13  14
ENDBRANCH  12  13
ENDBRANCH  11  12
ENDBRANCH  10  11
ENDBRANCH   1  10
TORSDOF 13
ENDMDL
MODEL 5
REMARK VINA RESULT:    -3.005     13.387     15.469
REMARK INTER + INTRA:          -7.445
REMARK INTER:                  -5.362
REMARK INTRA:                  -2.083
REMARK UNBOUND:                -2.156
REMARK SMILES CCCCCCCCCCCCCCC(=O)[O-]
REMARK SMILES IDX 9 1 10 2 11 3 12 4 13 5 14 6 15 7 16 8 17 9 8 10 7 11 6 12
REMARK SMILES IDX 5 13 4 14 3 15 2 16 1 17
REMARK H PARENT
REMARK Flexibility Score: inf
ROOT
ATOM      1  C   UNL     1      33.434   6.178 -29.136  1.00  0.00     0.000 C 
ENDROOT
BRANCH   1   2
ATOM      2  C   UNL     1      32.107   6.239 -29.920  1.00  0.00     0.000 C 
BRANCH   2   3
ATOM      3  C   UNL     1      32.034   7.353 -30.980  1.00  0.00     0.000 C 
BRANCH   3   4
ATOM      4  C   UNL     1      33.191   8.360 -30.865  1.00  0.00     0.000 C 
BRANCH   4   5
ATOM      5  C   UNL     1      32.703   9.791 -30.593  1.00  0.00     0.006 C 
BRANCH   5   6
ATOM      6  C   UNL     1      31.509   9.833 -29.630  1.00  0.00     0.053 C 
BRANCH   6   7
ATOM      7  C   UNL     1      31.951  10.263 -28.268  1.00  0.00     0.041 C 
ATOM      8  O   UNL     1      33.085   9.930 -27.834  1.00  0.00    -0.550 OA
ATOM      9  O   UNL     1      31.090  10.989 -27.455  1.00  0.00    -0.550 OA
ENDBRANCH   6   7
ENDBRANCH   5   6
ENDBRANCH   4   5
ENDBRANCH   3   4
ENDBRANCH   2   3
ENDBRANCH   1   2
BRANCH   1  10
ATOM     10  C   UNL     1      34.131   4.804 -29.135  1.00  0.00     0.000 C 
BRANCH  10  11
ATOM     11  C   UNL     1      35.489   4.760 -29.865  1.00  0.00    -0.000 C 
BRANCH  11  12
ATOM     12  C   UNL     1      35.817   6.009 -30.704  1.00  0.00    -0.000 C 
BRANCH  12  13
ATOM     13  C   UNL     1      35.973   5.753 -32.215  1.00  0.00    -0.000 C 
BRANCH  13  14
ATOM     14  C   UNL     1      34.630   5.605 -32.963  1.00  0.00    -0.000 C 
BRANCH  14  15
ATOM     15  C   UNL     1      34.338   4.148 -33.362  1.00  0.00    -0.000 C 
BRANCH  15  16
ATOM     16  C   UNL     1      33.212   3.523 -32.525  1.00  0.00    -0.003 C 
ATOM     17  C   UNL     1      31.822   3.966 -32.981  1.00  0.00     0.004 C 
ENDBRANCH  15  16
ENDBRANCH  14  15
ENDBRANCH  13  14
ENDBRANCH  12  13
ENDBRANCH  11  12
ENDBRANCH  10  11
ENDBRANCH   1  10
TORSDOF 13
ENDMDL
MODEL 6
REMARK VINA RESULT:    -2.970     14.236     16.352
REMARK INTER + INTRA:          -7.383
REMARK INTER:                  -6.071
REMARK INTRA:                  -1.312
REMARK UNBOUND:                -2.156
REMARK SMILES CCCCCCCCCCCCCCC(=O)[O-]
REMARK SMILES IDX 9 1 10 2 11 3 12 4 13 5 14 6 15 7 16 8 17 9 8 10 7 11 6 12
REMARK SMILES IDX 5 13 4 14 3 15 2 16 1 17
REMARK H PARENT
REMARK Flexibility Score: inf
ROOT
ATOM      1  C   UNL     1      33.484   7.231 -30.020  1.00  0.00     0.000 C 
ENDROOT
BRANCH   1   2
ATOM      2  C   UNL     1      32.368   8.152 -29.487  1.00  0.00     0.000 C 
BRANCH   2   3
ATOM      3  C   UNL     1      32.728   9.648 -29.447  1.00  0.00     0.000 C 
BRANCH   3   4
ATOM      4  C   UNL     1      33.009  10.155 -28.021  1.00  0.00     0.000 C 
BRANCH   4   5
ATOM      5  C   UNL     1      32.691   9.102 -26.948  1.00  0.00     0.006 C 
BRANCH   5   6
ATOM      6  C   UNL     1      32.241   9.730 -25.622  1.00  0.00     0.053 C 
BRANCH   6   7
ATOM      7  C   UNL     1      33.388  10.422 -24.956  1.00  0.00     0.041 C 
ATOM      8  O   UNL     1      34.317   9.750 -24.435  1.00  0.00    -0.550 OA
ATOM      9  O   UNL     1      33.406  11.807 -24.865  1.00  0.00    -0.550 OA
ENDBRANCH   6   7
ENDBRANCH   5   6
ENDBRANCH   4   5
ENDBRANCH   3   4
ENDBRANCH   2   3
ENDBRANCH   1   2
BRANCH   1  10
ATOM     10  C   UNL     1      34.141   7.692 -31.335  1.00  0.00     0.000 C 
BRANCH  10  11
ATOM     11  C   UNL     1      35.613   7.267 -31.515  1.00  0.00    -0.000 C 
BRANCH  11  12
ATOM     12  C   UNL     1      35.817   5.819 -31.996  1.00  0.00    -0.000 C 
BRANCH  12  13
ATOM     13  C   UNL     1      35.072   5.456 -33.296  1.00  0.00    -0.000 C 
BRANCH  13  14
ATOM     14  C   UNL     1      34.282   4.132 -33.211  1.00  0.00    -0.000 C 
BRANCH  14  15
ATOM     15  C   UNL     1      32.995   4.267 -32.379  1.00  0.00    -0.000 C 
BRANCH  15  16
ATOM     16  C   UNL     1      32.881   3.188 -31.291  1.00  0.00    -0.003 C 
ATOM     17  C   UNL     1      33.733   3.498 -30.061  1.00  0.00     0.004 C 
ENDBRANCH  15  16
ENDBRANCH  14  15
ENDBRANCH  13  14
ENDBRANCH  12  13
ENDBRANCH  11  12
ENDBRANCH  10  11
ENDBRANCH   1  10
TORSDOF 13
ENDMDL
MODEL 7
REMARK VINA RESULT:    -2.967     14.248     16.166
REMARK INTER + INTRA:          -7.377
REMARK INTER:                  -6.001
REMARK INTRA:                  -1.376
REMARK UNBOUND:                -2.156
REMARK SMILES CCCCCCCCCCCCCCC(=O)[O-]
REMARK SMILES IDX 9 1 10 2 11 3 12 4 13 5 14 6 15 7 16 8 17 9 8 10 7 11 6 12
REMARK SMILES IDX 5 13 4 14 3 15 2 16 1 17
REMARK H PARENT
REMARK Flexibility Score: inf
ROOT
ATOM      1  C   UNL     1      32.712   8.191 -28.119  1.00  0.00     0.000 C 
ENDROOT
BRANCH   1   2
ATOM      2  C   UNL     1      33.144   7.283 -29.289  1.00  0.00     0.000 C 
BRANCH   2   3
ATOM      3  C   UNL     1      32.990   7.911 -30.686  1.00  0.00     0.000 C 
BRANCH   3   4
ATOM      4  C   UNL     1      34.330   8.040 -31.432  1.00  0.00     0.000 C 
BRANCH   4   5
ATOM      5  C   UNL     1      35.254   6.835 -31.197  1.00  0.00     0.006 C 
BRANCH   5   6
ATOM      6  C   UNL     1      35.451   5.989 -32.462  1.00  0.00     0.053 C 
BRANCH   6   7
ATOM      7  C   UNL     1      34.659   4.724 -32.373  1.00  0.00     0.041 C 
ATOM      8  O   UNL     1      34.374   4.080 -33.418  1.00  0.00    -0.550 OA
ATOM      9  O   UNL     1      34.192   4.280 -31.143  1.00  0.00    -0.550 OA
ENDBRANCH   6   7
ENDBRANCH   5   6
ENDBRANCH   4   5
ENDBRANCH   3   4
ENDBRANCH   2   3
ENDBRANCH   1   2
BRANCH   1  10
ATOM     10  C   UNL     1      32.581   9.687 -28.466  1.00  0.00     0.000 C 
BRANCH  10  11
ATOM     11  C   UNL     1      33.476  10.631 -27.636  1.00  0.00    -0.000 C 
BRANCH  11  12
ATOM     12  C   UNL     1      32.759  11.359 -26.484  1.00  0.00    -0.000 C 
BRANCH  12  13
ATOM     13  C   UNL     1      33.495  11.315 -25.131  1.00  0.00    -0.000 C 
BRANCH  13  14
ATOM     14  C   UNL     1      33.507   9.917 -24.475  1.00  0.00    -0.000 C 
BRANCH  14  15
ATOM     15  C   UNL     1      32.142   9.213 -24.567  1.00  0.00    -0.000 C 
BRANCH  15  16
ATOM     16  C   UNL     1      32.258   7.685 -24.457  1.00  0.00    -0.003 C 
ATOM     17  C   UNL     1      33.707   7.200 -24.490  1.00  0.00     0.004 C 
ENDBRANCH  15  16
ENDBRANCH  14  15
ENDBRANCH  13  14
ENDBRANCH  12  13
ENDBRANCH  11  12
ENDBRANCH  10  11
ENDBRANCH   1  10
TORSDOF 13
ENDMDL
MODEL 8
REMARK VINA RESULT:    -2.963      1.483      3.246
REMARK INTER + INTRA:          -7.371
REMARK INTER:                  -5.562
REMARK INTRA:                  -1.809
REMARK UNBOUND:                -2.156
REMARK SMILES CCCCCCCCCCCCCCC(=O)[O-]
REMARK SMILES IDX 9 1 10 2 11 3 12 4 13 5 14 6 15 7 16 8 17 9 8 10 7 11 6 12
REMARK SMILES IDX 5 13 4 14 3 15 2 16 1 17
REMARK H PARENT
REMARK Flexibility Score: inf
ROOT
ATOM      1  C   UNL     1      24.020  -6.370 -27.797  1.00  0.00     0.000 C 
ENDROOT
BRANCH   1   2
ATOM      2  C   UNL     1      24.120  -5.356 -28.954  1.00  0.00     0.000 C 
BRANCH   2   3
ATOM      3  C   UNL     1      23.745  -5.916 -30.338  1.00  0.00     0.000 C 
BRANCH   3   4
ATOM      4  C   UNL     1      24.733  -5.492 -31.439  1.00  0.00     0.000 C 
BRANCH   4   5
ATOM      5  C   UNL     1      24.054  -4.700 -32.568  1.00  0.00     0.006 C 
BRANCH   5   6
ATOM      6  C   UNL     1      25.028  -3.768 -33.301  1.00  0.00     0.053 C 
BRANCH   6   7
ATOM      7  C   UNL     1      24.883  -3.921 -34.782  1.00  0.00     0.041 C 
ATOM      8  O   UNL     1      25.849  -4.338 -35.474  1.00  0.00    -0.550 OA
ATOM      9  O   UNL     1      23.698  -3.555 -35.406  1.00  0.00    -0.550 OA
ENDBRANCH   6   7
ENDBRANCH   5   6
ENDBRANCH   4   5
ENDBRANCH   3   4
ENDBRANCH   2   3
ENDBRANCH   1   2
BRANCH   1  10
ATOM     10  C   UNL     1      24.592  -7.768 -28.100  1.00  0.00     0.000 C 
BRANCH  10  11
ATOM     11  C   UNL     1      26.102  -7.929 -27.829  1.00  0.00    -0.000 C 
BRANCH  11  12
ATOM     12  C   UNL     1      26.998  -7.862 -29.080  1.00  0.00    -0.000 C 
BRANCH  12  13
ATOM     13  C   UNL     1      28.142  -6.833 -29.004  1.00  0.00    -0.000 C 
BRANCH  13  14
ATOM     14  C   UNL     1      27.841  -5.513 -29.747  1.00  0.00    -0.000 C 
BRANCH  14  15
ATOM     15  C   UNL     1      27.571  -4.345 -28.784  1.00  0.00    -0.000 C 
BRANCH  15  16
ATOM     16  C   UNL     1      27.644  -2.978 -29.481  1.00  0.00    -0.003 C 
ATOM     17  C   UNL     1      26.275  -2.474 -29.937  1.00  0.00     0.004 C 
ENDBRANCH  15  16
ENDBRANCH  14  15
ENDBRANCH  13  14
ENDBRANCH  12  13
ENDBRANCH  11  12
ENDBRANCH  10  11
ENDBRANCH   1  10
TORSDOF 13
ENDMDL
MODEL 9
REMARK VINA RESULT:    -2.946     10.519     12.626
REMARK INTER + INTRA:          -7.341
REMARK INTER:                  -5.687
REMARK INTRA:                  -1.653
REMARK UNBOUND:                -2.156
REMARK SMILES CCCCCCCCCCCCCCC(=O)[O-]
REMARK SMILES IDX 9 1 10 2 11 3 12 4 13 5 14 6 15 7 16 8 17 9 8 10 7 11 6 12
REMARK SMILES IDX 5 13 4 14 3 15 2 16 1 17
REMARK H PARENT
REMARK Flexibility Score: inf
ROOT
ATOM      1  C   UNL     1      31.223   0.252 -34.919  1.00  0.00     0.000 C 
ENDROOT
BRANCH   1   2
ATOM      2  C   UNL     1      31.328   1.721 -35.375  1.00  0.00     0.000 C 
BRANCH   2   3
ATOM      3  C   UNL     1      31.662   2.722 -34.254  1.00  0.00     0.000 C 
BRANCH   3   4
ATOM      4  C   UNL     1      32.875   2.289 -33.411  1.00  0.00     0.000 C 
BRANCH   4   5
ATOM      5  C   UNL     1      34.004   3.331 -33.422  1.00  0.00     0.006 C 
BRANCH   5   6
ATOM      6  C   UNL     1      33.539   4.708 -32.933  1.00  0.00     0.053 C 
BRANCH   6   7
ATOM      7  C   UNL     1      34.680   5.674 -32.928  1.00  0.00     0.041 C 
ATOM      8  O   UNL     1      35.713   5.438 -33.609  1.00  0.00    -0.550 OA
ATOM      9  O   UNL     1      34.625   6.812 -32.133  1.00  0.00    -0.550 OA
ENDBRANCH   6   7
ENDBRANCH   5   6
ENDBRANCH   4   5
ENDBRANCH   3   4
ENDBRANCH   2   3
ENDBRANCH   1   2
BRANCH   1  10
ATOM     10  C   UNL     1      32.235  -0.710 -35.572  1.00  0.00     0.000 C 
BRANCH  10  11
ATOM     11  C   UNL     1      33.376  -0.027 -36.353  1.00  0.00    -0.000 C 
BRANCH  11  12
ATOM     12  C   UNL     1      33.211  -0.035 -37.885  1.00  0.00    -0.000 C 
BRANCH  12  13
ATOM     13  C   UNL     1      32.793  -1.392 -38.484  1.00  0.00    -0.000 C 
BRANCH  13  14
ATOM     14  C   UNL     1      31.337  -1.425 -38.995  1.00  0.00    -0.000 C 
BRANCH  14  15
ATOM     15  C   UNL     1      30.684  -0.032 -38.998  1.00  0.00    -0.000 C 
BRANCH  15  16
ATOM     16  C   UNL     1      29.379   0.008 -38.188  1.00  0.00    -0.003 C 
ATOM     17  C   UNL     1      29.060  -1.327 -37.516  1.00  0.00     0.004 C 
ENDBRANCH  15  16
ENDBRANCH  14  15
ENDBRANCH  13  14
ENDBRANCH  12  13
ENDBRANCH  11  12
ENDBRANCH  10  11
ENDBRANCH   1  10
TORSDOF 13
ENDMDL
