MODEL 1
REMARK VINA RESULT:    -7.320      0.000      0.000
REMARK INTER + INTRA:          -9.331
REMARK INTER:                  -9.031
REMARK INTRA:                  -0.300
REMARK UNBOUND:                -0.300
REMARK SMILES O=c1c(O)c(-c2cc(O)c(O)c(O)c2)oc2cc(O)cc(O)c12
REMARK SMILES IDX 5 1 3 2 2 3 1 4 23 5 21 6 20 7 18 8 17 9 16 10 15 11 6 12
REMARK SMILES IDX 7 13 8 14 14 15 10 16 12 17 9 18 11 20 13 22 4 24 22 26
REMARK SMILES IDX 19 28
REMARK H PARENT 9 19 11 21 13 23 4 25 22 27 19 29
REMARK Flexibility Score: inf
ROOT
ATOM      1  C   UNL     1     -17.193  -5.212  20.163  1.00  0.00     0.180 A 
ATOM      2  C   UNL     1     -18.345  -4.511  20.559  1.00  0.00     0.208 A 
ATOM      3  C   UNL     1     -19.044  -4.938  21.698  1.00  0.00     0.238 A 
ATOM      4  O   UNL     1     -20.044  -4.274  22.078  1.00  0.00    -0.285 OA
ATOM      5  C   UNL     1     -18.594  -6.072  22.418  1.00  0.00     0.111 A 
ATOM      6  C   UNL     1     -19.248  -6.617  23.563  1.00  0.00     0.134 A 
ATOM      7  C   UNL     1     -18.642  -7.660  24.273  1.00  0.00     0.093 A 
ATOM      8  C   UNL     1     -17.440  -8.221  23.843  1.00  0.00     0.123 A 
ATOM      9  C   UNL     1     -16.822  -7.734  22.691  1.00  0.00     0.094 A 
ATOM     10  C   UNL     1     -17.384  -6.671  21.982  1.00  0.00     0.146 A 
ATOM     11  O   UNL     1     -16.759  -6.230  20.897  1.00  0.00    -0.452 OA
ENDROOT
BRANCH   1  12
ATOM     12  C   UNL     1     -16.416  -4.836  18.959  1.00  0.00     0.029 A 
ATOM     13  C   UNL     1     -16.922  -5.139  17.689  1.00  0.00     0.062 A 
ATOM     14  C   UNL     1     -16.219  -4.778  16.536  1.00  0.00     0.162 A 
ATOM     15  C   UNL     1     -15.209  -4.126  19.062  1.00  0.00     0.062 A 
ATOM     16  C   UNL     1     -14.998  -4.087  16.637  1.00  0.00     0.200 A 
ATOM     17  C   UNL     1     -14.495  -3.752  17.918  1.00  0.00     0.162 A 
BRANCH  14  18
ATOM     18  O   UNL     1     -16.754  -5.116  15.293  1.00  0.00    -0.504 OA
ATOM     19  H   UNL     1     -17.016  -6.066  15.057  1.00  0.00     0.293 HD
ENDBRANCH  14  18
BRANCH  16  20
ATOM     20  O   UNL     1     -14.323  -3.752  15.461  1.00  0.00    -0.502 OA
ATOM     21  H   UNL     1     -13.320  -3.794  15.350  1.00  0.00     0.293 HD
ENDBRANCH  16  20
BRANCH  17  22
ATOM     22  O   UNL     1     -13.302  -3.049  18.101  1.00  0.00    -0.504 OA
ATOM     23  H   UNL     1     -13.252  -2.066  18.325  1.00  0.00     0.293 HD
ENDBRANCH  17  22
ENDBRANCH   1  12
BRANCH   2  24
ATOM     24  O   UNL     1     -18.760  -3.382  19.847  1.00  0.00    -0.502 OA
ATOM     25  H   UNL     1     -19.401  -2.700  20.233  1.00  0.00     0.293 HD
ENDBRANCH   2  24
BRANCH   6  26
ATOM     26  O   UNL     1     -20.498  -6.192  24.025  1.00  0.00    -0.507 OA
ATOM     27  H   UNL     1     -20.764  -5.228  24.156  1.00  0.00     0.293 HD
ENDBRANCH   6  26
BRANCH   8  28
ATOM     28  O   UNL     1     -16.873  -9.268  24.565  1.00  0.00    -0.508 OA
ATOM     29  H   UNL     1     -17.296  -9.616  25.418  1.00  0.00     0.293 HD
ENDBRANCH   8  28
TORSDOF 7
ENDMDL
MODEL 2
REMARK VINA RESULT:    -7.311      3.664      5.851
REMARK INTER + INTRA:          -9.321
REMARK INTER:                  -8.964
REMARK INTRA:                  -0.357
REMARK UNBOUND:                -0.300
REMARK SMILES O=c1c(O)c(-c2cc(O)c(O)c(O)c2)oc2cc(O)cc(O)c12
REMARK SMILES IDX 5 1 3 2 2 3 1 4 23 5 21 6 20 7 18 8 17 9 16 10 15 11 6 12
REMARK SMILES IDX 7 13 8 14 14 15 10 16 12 17 9 18 11 20 13 22 4 24 22 26
REMARK SMILES IDX 19 28
REMARK H PARENT 9 19 11 21 13 23 4 25 22 27 19 29
REMARK Flexibility Score: inf
ROOT
ATOM      1  C   UNL     1     -18.443  -7.484  22.255  1.00  0.00     0.180 A 
ATOM      2  C   UNL     1     -17.641  -6.448  21.750  1.00  0.00     0.208 A 
ATOM      3  C   UNL     1     -16.918  -5.647  22.647  1.00  0.00     0.238 A 
ATOM      4  O   UNL     1     -16.158  -4.755  22.185  1.00  0.00    -0.285 OA
ATOM      5  C   UNL     1     -17.020  -5.880  24.040  1.00  0.00     0.111 A 
ATOM      6  C   UNL     1     -16.364  -5.105  25.042  1.00  0.00     0.134 A 
ATOM      7  C   UNL     1     -16.432  -5.507  26.381  1.00  0.00     0.093 A 
ATOM      8  C   UNL     1     -17.185  -6.617  26.762  1.00  0.00     0.123 A 
ATOM      9  C   UNL     1     -17.878  -7.348  25.797  1.00  0.00     0.094 A 
ATOM     10  C   UNL     1     -17.800  -6.993  24.449  1.00  0.00     0.146 A 
ATOM     11  O   UNL     1     -18.467  -7.721  23.561  1.00  0.00    -0.452 OA
ENDROOT
BRANCH   1  12
ATOM     12  C   UNL     1     -19.253  -8.356  21.372  1.00  0.00     0.029 A 
ATOM     13  C   UNL     1     -18.683  -9.519  20.840  1.00  0.00     0.062 A 
ATOM     14  C   UNL     1     -19.429 -10.370  20.020  1.00  0.00     0.162 A 
ATOM     15  C   UNL     1     -20.602  -8.074  21.104  1.00  0.00     0.062 A 
ATOM     16  C   UNL     1     -20.774 -10.076  19.732  1.00  0.00     0.200 A 
ATOM     17  C   UNL     1     -21.365  -8.916  20.289  1.00  0.00     0.162 A 
BRANCH  14  18
ATOM     18  O   UNL     1     -18.813 -11.509  19.499  1.00  0.00    -0.504 OA
ATOM     19  H   UNL     1     -19.341 -12.317  19.193  1.00  0.00     0.293 HD
ENDBRANCH  14  18
BRANCH  16  20
ATOM     20  O   UNL     1     -21.482 -10.948  18.901  1.00  0.00    -0.502 OA
ATOM     21  H   UNL     1     -21.508 -11.950  19.020  1.00  0.00     0.293 HD
ENDBRANCH  16  20
BRANCH  17  22
ATOM     22  O   UNL     1     -22.700  -8.568  20.068  1.00  0.00    -0.504 OA
ATOM     23  H   UNL     1     -23.278  -8.081  20.738  1.00  0.00     0.293 HD
ENDBRANCH  17  22
ENDBRANCH   1  12
BRANCH   2  24
ATOM     24  O   UNL     1     -17.537  -6.248  20.370  1.00  0.00    -0.502 OA
ATOM     25  H   UNL     1     -18.223  -6.603  19.715  1.00  0.00     0.293 HD
ENDBRANCH   2  24
BRANCH   6  26
ATOM     26  O   UNL     1     -15.662  -3.924  24.781  1.00  0.00    -0.507 OA
ATOM     27  H   UNL     1     -14.770  -3.879  24.311  1.00  0.00     0.293 HD
ENDBRANCH   6  26
BRANCH   8  28
ATOM     28  O   UNL     1     -17.243  -6.980  28.106  1.00  0.00    -0.508 OA
ATOM     29  H   UNL     1     -17.287  -7.951  28.392  1.00  0.00     0.293 HD
ENDBRANCH   8  28
TORSDOF 7
ENDMDL
MODEL 3
REMARK VINA RESULT:    -7.283      3.699      5.802
REMARK INTER + INTRA:          -9.285
REMARK INTER:                  -8.931
REMARK INTRA:                  -0.355
REMARK UNBOUND:                -0.300
REMARK SMILES O=c1c(O)c(-c2cc(O)c(O)c(O)c2)oc2cc(O)cc(O)c12
REMARK SMILES IDX 5 1 3 2 2 3 1 4 23 5 21 6 20 7 18 8 17 9 16 10 15 11 6 12
REMARK SMILES IDX 7 13 8 14 14 15 10 16 12 17 9 18 11 20 13 22 4 24 22 26
REMARK SMILES IDX 19 28
REMARK H PARENT 9 19 11 21 13 23 4 25 22 27 19 29
REMARK Flexibility Score: inf
ROOT
ATOM      1  C   UNL     1     -18.477  -7.540  22.302  1.00  0.00     0.180 A 
ATOM      2  C   UNL     1     -17.705  -6.486  21.784  1.00  0.00     0.208 A 
ATOM      3  C   UNL     1     -16.988  -5.668  22.671  1.00  0.00     0.238 A 
ATOM      4  O   UNL     1     -16.256  -4.760  22.198  1.00  0.00    -0.285 OA
ATOM      5  C   UNL     1     -17.066  -5.902  24.066  1.00  0.00     0.111 A 
ATOM      6  C   UNL     1     -16.414  -5.110  25.058  1.00  0.00     0.134 A 
ATOM      7  C   UNL     1     -16.455  -5.512  26.398  1.00  0.00     0.093 A 
ATOM      8  C   UNL     1     -17.177  -6.639  26.791  1.00  0.00     0.123 A 
ATOM      9  C   UNL     1     -17.867  -7.387  25.836  1.00  0.00     0.094 A 
ATOM     10  C   UNL     1     -17.815  -7.031  24.487  1.00  0.00     0.146 A 
ATOM     11  O   UNL     1     -18.477  -7.775  23.609  1.00  0.00    -0.452 OA
ENDROOT
BRANCH   1  12
ATOM     12  C   UNL     1     -19.279  -8.431  21.431  1.00  0.00     0.029 A 
ATOM     13  C   UNL     1     -20.607  -8.096  21.137  1.00  0.00     0.062 A 
ATOM     14  C   UNL     1     -21.380  -8.908  20.302  1.00  0.00     0.162 A 
ATOM     15  C   UNL     1     -18.718  -9.575  20.843  1.00  0.00     0.062 A 
ATOM     16  C   UNL     1     -20.826 -10.068  19.731  1.00  0.00     0.200 A 
ATOM     17  C   UNL     1     -19.475 -10.397  20.001  1.00  0.00     0.162 A 
BRANCH  14  18
ATOM     18  O   UNL     1     -22.703  -8.543  20.052  1.00  0.00    -0.504 OA
ATOM     19  H   UNL     1     -22.944  -7.723  19.508  1.00  0.00     0.293 HD
ENDBRANCH  14  18
BRANCH  16  20
ATOM     20  O   UNL     1     -21.635 -10.857  18.909  1.00  0.00    -0.502 OA
ATOM     21  H   UNL     1     -22.376 -10.494  18.326  1.00  0.00     0.293 HD
ENDBRANCH  16  20
BRANCH  17  22
ATOM     22  O   UNL     1     -18.847 -11.519  19.454  1.00  0.00    -0.504 OA
ATOM     23  H   UNL     1     -17.888 -11.535  19.140  1.00  0.00     0.293 HD
ENDBRANCH  17  22
ENDBRANCH   1  12
BRANCH   2  24
ATOM     24  O   UNL     1     -17.625  -6.286  20.403  1.00  0.00    -0.502 OA
ATOM     25  H   UNL     1     -17.014  -6.831  19.808  1.00  0.00     0.293 HD
ENDBRANCH   2  24
BRANCH   6  26
ATOM     26  O   UNL     1     -15.742  -3.915  24.786  1.00  0.00    -0.507 OA
ATOM     27  H   UNL     1     -15.717  -3.462  23.884  1.00  0.00     0.293 HD
ENDBRANCH   6  26
BRANCH   8  28
ATOM     28  O   UNL     1     -17.209  -7.001  28.135  1.00  0.00    -0.508 OA
ATOM     29  H   UNL     1     -17.552  -7.907  28.433  1.00  0.00     0.293 HD
ENDBRANCH   8  28
TORSDOF 7
ENDMDL
MODEL 4
REMARK VINA RESULT:    -7.263      0.079      1.767
REMARK INTER + INTRA:          -9.262
REMARK INTER:                  -8.918
REMARK INTRA:                  -0.343
REMARK UNBOUND:                -0.300
REMARK SMILES O=c1c(O)c(-c2cc(O)c(O)c(O)c2)oc2cc(O)cc(O)c12
REMARK SMILES IDX 5 1 3 2 2 3 1 4 23 5 21 6 20 7 18 8 17 9 16 10 15 11 6 12
REMARK SMILES IDX 7 13 8 14 14 15 10 16 12 17 9 18 11 20 13 22 4 24 22 26
REMARK SMILES IDX 19 28
REMARK H PARENT 9 19 11 21 13 23 4 25 22 27 19 29
REMARK Flexibility Score: inf
ROOT
ATOM      1  C   UNL     1     -17.252  -5.147  20.128  1.00  0.00     0.180 A 
ATOM      2  C   UNL     1     -18.393  -4.448  20.558  1.00  0.00     0.208 A 
ATOM      3  C   UNL     1     -19.069  -4.889  21.706  1.00  0.00     0.238 A 
ATOM      4  O   UNL     1     -20.057  -4.227  22.117  1.00  0.00    -0.285 OA
ATOM      5  C   UNL     1     -18.606  -6.033  22.401  1.00  0.00     0.111 A 
ATOM      6  C   UNL     1     -19.236  -6.591  23.552  1.00  0.00     0.134 A 
ATOM      7  C   UNL     1     -18.618  -7.646  24.235  1.00  0.00     0.093 A 
ATOM      8  C   UNL     1     -17.427  -8.203  23.772  1.00  0.00     0.123 A 
ATOM      9  C   UNL     1     -16.833  -7.703  22.612  1.00  0.00     0.094 A 
ATOM     10  C   UNL     1     -17.407  -6.629  21.930  1.00  0.00     0.146 A 
ATOM     11  O   UNL     1     -16.805  -6.175  20.838  1.00  0.00    -0.452 OA
ENDROOT
BRANCH   1  12
ATOM     12  C   UNL     1     -16.501  -4.756  18.912  1.00  0.00     0.029 A 
ATOM     13  C   UNL     1     -15.287  -4.068  19.043  1.00  0.00     0.062 A 
ATOM     14  C   UNL     1     -14.548  -3.705  17.914  1.00  0.00     0.162 A 
ATOM     15  C   UNL     1     -16.948  -5.113  17.631  1.00  0.00     0.062 A 
ATOM     16  C   UNL     1     -15.007  -4.041  16.627  1.00  0.00     0.200 A 
ATOM     17  C   UNL     1     -16.218  -4.761  16.490  1.00  0.00     0.162 A 
BRANCH  14  18
ATOM     18  O   UNL     1     -13.353  -3.006  18.093  1.00  0.00    -0.504 OA
ATOM     19  H   UNL     1     -12.927  -2.889  19.004  1.00  0.00     0.293 HD
ENDBRANCH  14  18
BRANCH  16  20
ATOM     20  O   UNL     1     -14.242  -3.652  15.525  1.00  0.00    -0.502 OA
ATOM     21  H   UNL     1     -13.840  -4.294  14.858  1.00  0.00     0.293 HD
ENDBRANCH  16  20
BRANCH  17  22
ATOM     22  O   UNL     1     -16.729  -5.151  15.249  1.00  0.00    -0.504 OA
ATOM     23  H   UNL     1     -17.520  -4.713  14.799  1.00  0.00     0.293 HD
ENDBRANCH  17  22
ENDBRANCH   1  12
BRANCH   2  24
ATOM     24  O   UNL     1     -18.821  -3.309  19.870  1.00  0.00    -0.502 OA
ATOM     25  H   UNL     1     -19.680  -2.824  20.100  1.00  0.00     0.293 HD
ENDBRANCH   2  24
BRANCH   6  26
ATOM     26  O   UNL     1     -20.474  -6.170  24.047  1.00  0.00    -0.507 OA
ATOM     27  H   UNL     1     -20.622  -5.771  24.962  1.00  0.00     0.293 HD
ENDBRANCH   6  26
BRANCH   8  28
ATOM     28  O   UNL     1     -16.847  -9.262  24.467  1.00  0.00    -0.508 OA
ATOM     29  H   UNL     1     -16.702 -10.166  24.033  1.00  0.00     0.293 HD
ENDBRANCH   8  28
TORSDOF 7
ENDMDL
MODEL 5
REMARK VINA RESULT:    -7.073      2.419      3.324
REMARK INTER + INTRA:          -9.027
REMARK INTER:                  -8.739
REMARK INTRA:                  -0.288
REMARK UNBOUND:                -0.300
REMARK SMILES O=c1c(O)c(-c2cc(O)c(O)c(O)c2)oc2cc(O)cc(O)c12
REMARK SMILES IDX 5 1 3 2 2 3 1 4 23 5 21 6 20 7 18 8 17 9 16 10 15 11 6 12
REMARK SMILES IDX 7 13 8 14 14 15 10 16 12 17 9 18 11 20 13 22 4 24 22 26
REMARK SMILES IDX 19 28
REMARK H PARENT 9 19 11 21 13 23 4 25 22 27 19 29
REMARK Flexibility Score: inf
ROOT
ATOM      1  C   UNL     1     -17.650  -5.535  21.363  1.00  0.00     0.180 A 
ATOM      2  C   UNL     1     -18.742  -6.068  22.069  1.00  0.00     0.208 A 
ATOM      3  C   UNL     1     -18.617  -6.295  23.448  1.00  0.00     0.238 A 
ATOM      4  O   UNL     1     -19.615  -6.722  24.084  1.00  0.00    -0.285 OA
ATOM      5  C   UNL     1     -17.395  -6.001  24.102  1.00  0.00     0.111 A 
ATOM      6  C   UNL     1     -17.144  -6.228  25.488  1.00  0.00     0.134 A 
ATOM      7  C   UNL     1     -15.945  -5.778  26.055  1.00  0.00     0.093 A 
ATOM      8  C   UNL     1     -14.964  -5.169  25.275  1.00  0.00     0.123 A 
ATOM      9  C   UNL     1     -15.175  -4.995  23.906  1.00  0.00     0.094 A 
ATOM     10  C   UNL     1     -16.375  -5.400  23.319  1.00  0.00     0.146 A 
ATOM     11  O   UNL     1     -16.542  -5.207  22.017  1.00  0.00    -0.452 OA
ENDROOT
BRANCH   1  12
ATOM     12  C   UNL     1     -17.699  -5.290  19.902  1.00  0.00     0.029 A 
ATOM     13  C   UNL     1     -17.699  -3.974  19.423  1.00  0.00     0.062 A 
ATOM     14  C   UNL     1     -17.724  -3.715  18.050  1.00  0.00     0.162 A 
ATOM     15  C   UNL     1     -17.685  -6.351  18.984  1.00  0.00     0.062 A 
ATOM     16  C   UNL     1     -17.734  -4.777  17.128  1.00  0.00     0.200 A 
ATOM     17  C   UNL     1     -17.707  -6.110  17.606  1.00  0.00     0.162 A 
BRANCH  14  18
ATOM     18  O   UNL     1     -17.740  -2.388  17.620  1.00  0.00    -0.504 OA
ATOM     19  H   UNL     1     -17.324  -2.099  16.742  1.00  0.00     0.293 HD
ENDBRANCH  14  18
BRANCH  16  20
ATOM     20  O   UNL     1     -17.769  -4.475  15.765  1.00  0.00    -0.502 OA
ATOM     21  H   UNL     1     -17.490  -3.587  15.373  1.00  0.00     0.293 HD
ENDBRANCH  16  20
BRANCH  17  22
ATOM     22  O   UNL     1     -17.693  -7.218  16.754  1.00  0.00    -0.504 OA
ATOM     23  H   UNL     1     -17.553  -7.163  15.755  1.00  0.00     0.293 HD
ENDBRANCH  17  22
ENDBRANCH   1  12
BRANCH   2  24
ATOM     24  O   UNL     1     -19.945  -6.331  21.408  1.00  0.00    -0.502 OA
ATOM     25  H   UNL     1     -19.997  -6.480  20.407  1.00  0.00     0.293 HD
ENDBRANCH   2  24
BRANCH   6  26
ATOM     26  O   UNL     1     -18.018  -6.910  26.339  1.00  0.00    -0.507 OA
ATOM     27  H   UNL     1     -18.859  -6.517  26.734  1.00  0.00     0.293 HD
ENDBRANCH   6  26
BRANCH   8  28
ATOM     28  O   UNL     1     -13.776  -4.747  25.869  1.00  0.00    -0.508 OA
ATOM     29  H   UNL     1     -13.761  -4.000  26.553  1.00  0.00     0.293 HD
ENDBRANCH   8  28
TORSDOF 7
ENDMDL
MODEL 6
REMARK VINA RESULT:    -7.062      2.419      3.082
REMARK INTER + INTRA:          -9.013
REMARK INTER:                  -8.720
REMARK INTRA:                  -0.293
REMARK UNBOUND:                -0.300
REMARK SMILES O=c1c(O)c(-c2cc(O)c(O)c(O)c2)oc2cc(O)cc(O)c12
REMARK SMILES IDX 5 1 3 2 2 3 1 4 23 5 21 6 20 7 18 8 17 9 16 10 15 11 6 12
REMARK SMILES IDX 7 13 8 14 14 15 10 16 12 17 9 18 11 20 13 22 4 24 22 26
REMARK SMILES IDX 19 28
REMARK H PARENT 9 19 11 21 13 23 4 25 22 27 19 29
REMARK Flexibility Score: inf
ROOT
ATOM      1  C   UNL     1     -17.613  -5.449  21.339  1.00  0.00     0.180 A 
ATOM      2  C   UNL     1     -18.719  -5.961  22.038  1.00  0.00     0.208 A 
ATOM      3  C   UNL     1     -18.604  -6.197  23.416  1.00  0.00     0.238 A 
ATOM      4  O   UNL     1     -19.614  -6.604  24.047  1.00  0.00    -0.285 OA
ATOM      5  C   UNL     1     -17.378  -5.936  24.076  1.00  0.00     0.111 A 
ATOM      6  C   UNL     1     -17.136  -6.176  25.461  1.00  0.00     0.134 A 
ATOM      7  C   UNL     1     -15.929  -5.758  26.035  1.00  0.00     0.093 A 
ATOM      8  C   UNL     1     -14.931  -5.167  25.260  1.00  0.00     0.123 A 
ATOM      9  C   UNL     1     -15.134  -4.981  23.892  1.00  0.00     0.094 A 
ATOM     10  C   UNL     1     -16.341  -5.355  23.300  1.00  0.00     0.146 A 
ATOM     11  O   UNL     1     -16.499  -5.151  21.997  1.00  0.00    -0.452 OA
ENDROOT
BRANCH   1  12
ATOM     12  C   UNL     1     -17.652  -5.196  19.879  1.00  0.00     0.029 A 
ATOM     13  C   UNL     1     -17.615  -6.277  18.990  1.00  0.00     0.062 A 
ATOM     14  C   UNL     1     -17.669  -6.069  17.609  1.00  0.00     0.162 A 
ATOM     15  C   UNL     1     -17.786  -3.896  19.367  1.00  0.00     0.062 A 
ATOM     16  C   UNL     1     -17.780  -4.765  17.094  1.00  0.00     0.200 A 
ATOM     17  C   UNL     1     -17.847  -3.669  17.988  1.00  0.00     0.162 A 
BRANCH  14  18
ATOM     18  O   UNL     1     -17.612  -7.176  16.762  1.00  0.00    -0.504 OA
ATOM     19  H   UNL     1     -18.393  -7.811  16.649  1.00  0.00     0.293 HD
ENDBRANCH  14  18
BRANCH  16  20
ATOM     20  O   UNL     1     -17.823  -4.599  15.707  1.00  0.00    -0.502 OA
ATOM     21  H   UNL     1     -17.109  -4.130  15.169  1.00  0.00     0.293 HD
ENDBRANCH  16  20
BRANCH  17  22
ATOM     22  O   UNL     1     -17.979  -2.347  17.554  1.00  0.00    -0.504 OA
ATOM     23  H   UNL     1     -18.579  -2.057  16.795  1.00  0.00     0.293 HD
ENDBRANCH  17  22
ENDBRANCH   1  12
BRANCH   2  24
ATOM     24  O   UNL     1     -19.926  -6.192  21.372  1.00  0.00    -0.502 OA
ATOM     25  H   UNL     1     -20.579  -5.449  21.152  1.00  0.00     0.293 HD
ENDBRANCH   2  24
BRANCH   6  26
ATOM     26  O   UNL     1     -18.029  -6.842  26.306  1.00  0.00    -0.507 OA
ATOM     27  H   UNL     1     -18.682  -6.387  26.926  1.00  0.00     0.293 HD
ENDBRANCH   6  26
BRANCH   8  28
ATOM     28  O   UNL     1     -13.736  -4.777  25.860  1.00  0.00    -0.508 OA
ATOM     29  H   UNL     1     -12.902  -4.597  25.315  1.00  0.00     0.293 HD
ENDBRANCH   8  28
TORSDOF 7
ENDMDL
MODEL 7
REMARK VINA RESULT:    -6.986      1.493      2.757
REMARK INTER + INTRA:          -8.920
REMARK INTER:                  -8.713
REMARK INTRA:                  -0.207
REMARK UNBOUND:                -0.300
REMARK SMILES O=c1c(O)c(-c2cc(O)c(O)c(O)c2)oc2cc(O)cc(O)c12
REMARK SMILES IDX 5 1 3 2 2 3 1 4 23 5 21 6 20 7 18 8 17 9 16 10 15 11 6 12
REMARK SMILES IDX 7 13 8 14 14 15 10 16 12 17 9 18 11 20 13 22 4 24 22 26
REMARK SMILES IDX 19 28
REMARK H PARENT 9 19 11 21 13 23 4 25 22 27 19 29
REMARK Flexibility Score: inf
ROOT
ATOM      1  C   UNL     1     -16.104  -4.415  18.883  1.00  0.00     0.180 A 
ATOM      2  C   UNL     1     -17.311  -3.700  18.828  1.00  0.00     0.208 A 
ATOM      3  C   UNL     1     -18.227  -3.825  19.884  1.00  0.00     0.238 A 
ATOM      4  O   UNL     1     -19.282  -3.140  19.855  1.00  0.00    -0.285 OA
ATOM      5  C   UNL     1     -17.931  -4.679  20.975  1.00  0.00     0.111 A 
ATOM      6  C   UNL     1     -18.803  -4.914  22.080  1.00  0.00     0.134 A 
ATOM      7  C   UNL     1     -18.354  -5.675  23.165  1.00  0.00     0.093 A 
ATOM      8  C   UNL     1     -17.089  -6.263  23.157  1.00  0.00     0.123 A 
ATOM      9  C   UNL     1     -16.251  -6.089  22.056  1.00  0.00     0.094 A 
ATOM     10  C   UNL     1     -16.658  -5.305  20.974  1.00  0.00     0.146 A 
ATOM     11  O   UNL     1     -15.826  -5.156  19.950  1.00  0.00    -0.452 OA
ENDROOT
BRANCH   1  12
ATOM     12  C   UNL     1     -15.099  -4.352  17.796  1.00  0.00     0.029 A 
ATOM     13  C   UNL     1     -13.810  -3.882  18.075  1.00  0.00     0.062 A 
ATOM     14  C   UNL     1     -12.837  -3.829  17.073  1.00  0.00     0.162 A 
ATOM     15  C   UNL     1     -15.394  -4.809  16.502  1.00  0.00     0.062 A 
ATOM     16  C   UNL     1     -13.137  -4.266  15.770  1.00  0.00     0.200 A 
ATOM     17  C   UNL     1     -14.431  -4.768  15.488  1.00  0.00     0.162 A 
BRANCH  14  18
ATOM     18  O   UNL     1     -11.571  -3.338  17.394  1.00  0.00    -0.504 OA
ATOM     19  H   UNL     1     -11.384  -2.347  17.491  1.00  0.00     0.293 HD
ENDBRANCH  14  18
BRANCH  16  20
ATOM     20  O   UNL     1     -12.139  -4.188  14.796  1.00  0.00    -0.502 OA
ATOM     21  H   UNL     1     -11.179  -4.463  14.944  1.00  0.00     0.293 HD
ENDBRANCH  16  20
BRANCH  17  22
ATOM     22  O   UNL     1     -14.799  -5.240  14.225  1.00  0.00    -0.504 OA
ATOM     23  H   UNL     1     -14.977  -4.646  13.428  1.00  0.00     0.293 HD
ENDBRANCH  17  22
ENDBRANCH   1  12
BRANCH   2  24
ATOM     24  O   UNL     1     -17.574  -2.846  17.753  1.00  0.00    -0.502 OA
ATOM     25  H   UNL     1     -17.776  -3.189  16.821  1.00  0.00     0.293 HD
ENDBRANCH   2  24
BRANCH   6  26
ATOM     26  O   UNL     1     -20.121  -4.449  22.148  1.00  0.00    -0.507 OA
ATOM     27  H   UNL     1     -20.846  -4.681  21.486  1.00  0.00     0.293 HD
ENDBRANCH   6  26
BRANCH   8  28
ATOM     28  O   UNL     1     -16.680  -7.028  24.248  1.00  0.00    -0.508 OA
ATOM     29  H   UNL     1     -17.319  -7.645  24.734  1.00  0.00     0.293 HD
ENDBRANCH   8  28
TORSDOF 7
ENDMDL
MODEL 8
REMARK VINA RESULT:    -6.945      2.215      2.955
REMARK INTER + INTRA:          -8.869
REMARK INTER:                  -8.564
REMARK INTRA:                  -0.305
REMARK UNBOUND:                -0.300
REMARK SMILES O=c1c(O)c(-c2cc(O)c(O)c(O)c2)oc2cc(O)cc(O)c12
REMARK SMILES IDX 5 1 3 2 2 3 1 4 23 5 21 6 20 7 18 8 17 9 16 10 15 11 6 12
REMARK SMILES IDX 7 13 8 14 14 15 10 16 12 17 9 18 11 20 13 22 4 24 22 26
REMARK SMILES IDX 19 28
REMARK H PARENT 9 19 11 21 13 23 4 25 22 27 19 29
REMARK Flexibility Score: inf
ROOT
ATOM      1  C   UNL     1     -15.689  -5.045  19.985  1.00  0.00     0.180 A 
ATOM      2  C   UNL     1     -16.772  -5.937  20.050  1.00  0.00     0.208 A 
ATOM      3  C   UNL     1     -17.095  -6.528  21.282  1.00  0.00     0.238 A 
ATOM      4  O   UNL     1     -18.099  -7.284  21.345  1.00  0.00    -0.285 OA
ATOM      5  C   UNL     1     -16.319  -6.234  22.429  1.00  0.00     0.111 A 
ATOM      6  C   UNL     1     -16.530  -6.806  23.719  1.00  0.00     0.134 A 
ATOM      7  C   UNL     1     -15.785  -6.344  24.810  1.00  0.00     0.093 A 
ATOM      8  C   UNL     1     -14.794  -5.377  24.648  1.00  0.00     0.123 A 
ATOM      9  C   UNL     1     -14.539  -4.853  23.380  1.00  0.00     0.094 A 
ATOM     10  C   UNL     1     -15.289  -5.268  22.279  1.00  0.00     0.146 A 
ATOM     11  O   UNL     1     -15.023  -4.738  21.091  1.00  0.00    -0.452 OA
ENDROOT
BRANCH   1  12
ATOM     12  C   UNL     1     -15.275  -4.400  18.717  1.00  0.00     0.029 A 
ATOM     13  C   UNL     1     -15.494  -3.029  18.537  1.00  0.00     0.062 A 
ATOM     14  C   UNL     1     -15.095  -2.391  17.359  1.00  0.00     0.162 A 
ATOM     15  C   UNL     1     -14.611  -5.123  17.713  1.00  0.00     0.062 A 
ATOM     16  C   UNL     1     -14.451  -3.118  16.342  1.00  0.00     0.200 A 
ATOM     17  C   UNL     1     -14.200  -4.500  16.530  1.00  0.00     0.162 A 
BRANCH  14  18
ATOM     18  O   UNL     1     -15.350  -1.026  17.217  1.00  0.00    -0.504 OA
ATOM     19  H   UNL     1     -15.962  -0.662  16.497  1.00  0.00     0.293 HD
ENDBRANCH  14  18
BRANCH  16  20
ATOM     20  O   UNL     1     -14.076  -2.445  15.177  1.00  0.00    -0.502 OA
ATOM     21  H   UNL     1     -14.624  -1.717  14.740  1.00  0.00     0.293 HD
ENDBRANCH  16  20
BRANCH  17  22
ATOM     22  O   UNL     1     -13.547  -5.285  15.577  1.00  0.00    -0.504 OA
ATOM     23  H   UNL     1     -13.979  -6.052  15.081  1.00  0.00     0.293 HD
ENDBRANCH  17  22
ENDBRANCH   1  12
BRANCH   2  24
ATOM     24  O   UNL     1     -17.538  -6.198  18.910  1.00  0.00    -0.502 OA
ATOM     25  H   UNL     1     -17.706  -5.501  18.195  1.00  0.00     0.293 HD
ENDBRANCH   2  24
BRANCH   6  26
ATOM     26  O   UNL     1     -17.432  -7.844  23.975  1.00  0.00    -0.507 OA
ATOM     27  H   UNL     1     -17.348  -8.781  23.610  1.00  0.00     0.293 HD
ENDBRANCH   6  26
BRANCH   8  28
ATOM     28  O   UNL     1     -14.061  -4.950  25.753  1.00  0.00    -0.508 OA
ATOM     29  H   UNL     1     -14.058  -3.980  26.046  1.00  0.00     0.293 HD
ENDBRANCH   8  28
TORSDOF 7
ENDMDL
MODEL 9
REMARK VINA RESULT:    -6.825      2.289      3.200
REMARK INTER + INTRA:          -8.721
REMARK INTER:                  -8.385
REMARK INTRA:                  -0.335
REMARK UNBOUND:                -0.300
REMARK SMILES O=c1c(O)c(-c2cc(O)c(O)c(O)c2)oc2cc(O)cc(O)c12
REMARK SMILES IDX 5 1 3 2 2 3 1 4 23 5 21 6 20 7 18 8 17 9 16 10 15 11 6 12
REMARK SMILES IDX 7 13 8 14 14 15 10 16 12 17 9 18 11 20 13 22 4 24 22 26
REMARK SMILES IDX 19 28
REMARK H PARENT 9 19 11 21 13 23 4 25 22 27 19 29
REMARK Flexibility Score: inf
ROOT
ATOM      1  C   UNL     1     -17.203  -6.235  20.732  1.00  0.00     0.180 A 
ATOM      2  C   UNL     1     -17.245  -6.062  22.126  1.00  0.00     0.208 A 
ATOM      3  C   UNL     1     -17.710  -7.113  22.930  1.00  0.00     0.238 A 
ATOM      4  O   UNL     1     -17.694  -6.972  24.180  1.00  0.00    -0.285 OA
ATOM      5  C   UNL     1     -18.145  -8.320  22.329  1.00  0.00     0.111 A 
ATOM      6  C   UNL     1     -18.673  -9.436  23.043  1.00  0.00     0.134 A 
ATOM      7  C   UNL     1     -18.949 -10.627  22.359  1.00  0.00     0.093 A 
ATOM      8  C   UNL     1     -18.777 -10.720  20.979  1.00  0.00     0.123 A 
ATOM      9  C   UNL     1     -18.317  -9.615  20.262  1.00  0.00     0.094 A 
ATOM     10  C   UNL     1     -18.000  -8.426  20.921  1.00  0.00     0.146 A 
ATOM     11  O   UNL     1     -17.554  -7.401  20.204  1.00  0.00    -0.452 OA
ENDROOT
BRANCH   1  12
ATOM     12  C   UNL     1     -16.746  -5.162  19.818  1.00  0.00     0.029 A 
ATOM     13  C   UNL     1     -15.376  -4.990  19.587  1.00  0.00     0.062 A 
ATOM     14  C   UNL     1     -14.918  -3.999  18.715  1.00  0.00     0.162 A 
ATOM     15  C   UNL     1     -17.662  -4.351  19.129  1.00  0.00     0.062 A 
ATOM     16  C   UNL     1     -15.833  -3.169  18.041  1.00  0.00     0.200 A 
ATOM     17  C   UNL     1     -17.222  -3.357  18.248  1.00  0.00     0.162 A 
BRANCH  14  18
ATOM     18  O   UNL     1     -13.543  -3.853  18.529  1.00  0.00    -0.504 OA
ATOM     19  H   UNL     1     -12.894  -4.617  18.677  1.00  0.00     0.293 HD
ENDBRANCH  14  18
BRANCH  16  20
ATOM     20  O   UNL     1     -15.334  -2.186  17.184  1.00  0.00    -0.502 OA
ATOM     21  H   UNL     1     -14.604  -1.533  17.433  1.00  0.00     0.293 HD
ENDBRANCH  16  20
BRANCH  17  22
ATOM     22  O   UNL     1     -18.192  -2.589  17.600  1.00  0.00    -0.504 OA
ATOM     23  H   UNL     1     -18.013  -1.691  17.175  1.00  0.00     0.293 HD
ENDBRANCH  17  22
ENDBRANCH   1  12
BRANCH   2  24
ATOM     24  O   UNL     1     -16.791  -4.870  22.700  1.00  0.00    -0.502 OA
ATOM     25  H   UNL     1     -17.374  -4.298  23.300  1.00  0.00     0.293 HD
ENDBRANCH   2  24
BRANCH   6  26
ATOM     26  O   UNL     1     -18.970  -9.420  24.410  1.00  0.00    -0.507 OA
ATOM     27  H   UNL     1     -18.386  -9.004  25.119  1.00  0.00     0.293 HD
ENDBRANCH   6  26
BRANCH   8  28
ATOM     28  O   UNL     1     -19.077 -11.914  20.328  1.00  0.00    -0.508 OA
ATOM     29  H   UNL     1     -18.383 -12.644  20.211  1.00  0.00     0.293 HD
ENDBRANCH   8  28
TORSDOF 7
ENDMDL
