MODEL 1
REMARK VINA RESULT:    -4.592      0.000      0.000
REMARK INTER + INTRA:          -4.879
REMARK INTER:                  -4.861
REMARK INTRA:                  -0.018
REMARK UNBOUND:                -0.018
REMARK SMILES O=C([O-])c1cccnc1
REMARK SMILES IDX 4 1 5 2 9 3 6 4 8 5 7 6 2 7 1 8 3 9
REMARK H PARENT
REMARK Flexibility Score: inf
ROOT
ATOM      1  C   UNL     1      -7.675   0.014  -3.589  1.00  0.00     0.016 A 
ATOM      2  C   UNL     1      -8.282  -1.234  -3.374  1.00  0.00     0.013 A 
ATOM      3  C   UNL     1      -7.173   0.302  -4.871  1.00  0.00     0.120 A 
ATOM      4  C   UNL     1      -8.377  -2.156  -4.419  1.00  0.00     0.021 A 
ATOM      5  N   UNL     1      -7.278  -0.615  -5.871  1.00  0.00    -0.264 NA
ATOM      6  C   UNL     1      -7.864  -1.824  -5.673  1.00  0.00     0.111 A 
ENDROOT
BRANCH   1   7
ATOM      7  C   UNL     1      -7.568   0.998  -2.491  1.00  0.00     0.073 C 
ATOM      8  O   UNL     1      -7.003   0.691  -1.409  1.00  0.00    -0.545 OA
ATOM      9  O   UNL     1      -8.090   2.279  -2.641  1.00  0.00    -0.545 OA
ENDBRANCH   1   7
TORSDOF 1
ENDMDL
MODEL 2
REMARK VINA RESULT:    -4.467      0.943      1.603
REMARK INTER + INTRA:          -4.747
REMARK INTER:                  -4.729
REMARK INTRA:                  -0.019
REMARK UNBOUND:                -0.018
REMARK SMILES O=C([O-])c1cccnc1
REMARK SMILES IDX 4 1 5 2 9 3 6 4 8 5 7 6 2 7 1 8 3 9
REMARK H PARENT
REMARK Flexibility Score: inf
ROOT
ATOM      1  C   UNL     1      -7.750  -0.006  -3.568  1.00  0.00     0.016 A 
ATOM      2  C   UNL     1      -7.408   0.282  -4.900  1.00  0.00     0.013 A 
ATOM      3  C   UNL     1      -8.241  -1.289  -3.266  1.00  0.00     0.120 A 
ATOM      4  C   UNL     1      -7.559  -0.693  -5.889  1.00  0.00     0.021 A 
ATOM      5  N   UNL     1      -8.379  -2.220  -4.249  1.00  0.00    -0.264 NA
ATOM      6  C   UNL     1      -8.052  -1.951  -5.540  1.00  0.00     0.111 A 
ENDROOT
BRANCH   1   7
ATOM      7  C   UNL     1      -7.595   1.017  -2.513  1.00  0.00     0.073 C 
ATOM      8  O   UNL     1      -6.960   0.757  -1.457  1.00  0.00    -0.545 OA
ATOM      9  O   UNL     1      -8.148   2.283  -2.673  1.00  0.00    -0.545 OA
ENDBRANCH   1   7
TORSDOF 1
ENDMDL
MODEL 3
REMARK VINA RESULT:    -4.335     11.894     12.680
REMARK INTER + INTRA:          -4.607
REMARK INTER:                  -4.584
REMARK INTRA:                  -0.022
REMARK UNBOUND:                -0.018
REMARK SMILES O=C([O-])c1cccnc1
REMARK SMILES IDX 4 1 5 2 9 3 6 4 8 5 7 6 2 7 1 8 3 9
REMARK H PARENT
REMARK Flexibility Score: inf
ROOT
ATOM      1  C   UNL     1      -2.501  -7.097   4.485  1.00  0.00     0.016 A 
ATOM      2  C   UNL     1      -1.545  -7.058   5.513  1.00  0.00     0.013 A 
ATOM      3  C   UNL     1      -3.862  -7.038   4.834  1.00  0.00     0.120 A 
ATOM      4  C   UNL     1      -1.953  -6.963   6.845  1.00  0.00     0.021 A 
ATOM      5  N   UNL     1      -4.232  -6.945   6.140  1.00  0.00    -0.264 NA
ATOM      6  C   UNL     1      -3.315  -6.907   7.141  1.00  0.00     0.111 A 
ENDROOT
BRANCH   1   7
ATOM      7  C   UNL     1      -2.082  -7.199   3.070  1.00  0.00     0.073 C 
ATOM      8  O   UNL     1      -2.877  -7.638   2.197  1.00  0.00    -0.545 OA
ATOM      9  O   UNL     1      -0.804  -6.809   2.685  1.00  0.00    -0.545 OA
ENDBRANCH   1   7
TORSDOF 1
ENDMDL
MODEL 4
REMARK VINA RESULT:    -4.296      2.685      3.708
REMARK INTER + INTRA:          -4.566
REMARK INTER:                  -4.544
REMARK INTRA:                  -0.022
REMARK UNBOUND:                -0.018
REMARK SMILES O=C([O-])c1cccnc1
REMARK SMILES IDX 4 1 5 2 9 3 6 4 8 5 7 6 2 7 1 8 3 9
REMARK H PARENT
REMARK Flexibility Score: inf
ROOT
ATOM      1  C   UNL     1      -7.912  -0.039  -3.720  1.00  0.00     0.016 A 
ATOM      2  C   UNL     1      -8.154   0.906  -4.731  1.00  0.00     0.013 A 
ATOM      3  C   UNL     1      -7.422   0.415  -2.483  1.00  0.00     0.120 A 
ATOM      4  C   UNL     1      -7.908   2.260  -4.497  1.00  0.00     0.021 A 
ATOM      5  N   UNL     1      -7.191   1.741  -2.281  1.00  0.00    -0.264 NA
ATOM      6  C   UNL     1      -7.422   2.662  -3.252  1.00  0.00     0.111 A 
ENDROOT
BRANCH   1   7
ATOM      7  C   UNL     1      -8.168  -1.476  -3.956  1.00  0.00     0.073 C 
ATOM      8  O   UNL     1      -8.507  -2.231  -3.006  1.00  0.00    -0.545 OA
ATOM      9  O   UNL     1      -8.039  -2.014  -5.232  1.00  0.00    -0.545 OA
ENDBRANCH   1   7
TORSDOF 1
ENDMDL
MODEL 5
REMARK VINA RESULT:    -4.047     11.105     11.795
REMARK INTER + INTRA:          -4.302
REMARK INTER:                  -4.279
REMARK INTRA:                  -0.023
REMARK UNBOUND:                -0.018
REMARK SMILES O=C([O-])c1cccnc1
REMARK SMILES IDX 4 1 5 2 9 3 6 4 8 5 7 6 2 7 1 8 3 9
REMARK H PARENT
REMARK Flexibility Score: inf
ROOT
ATOM      1  C   UNL     1      -3.767  -7.250   4.372  1.00  0.00     0.016 A 
ATOM      2  C   UNL     1      -2.711  -6.925   5.240  1.00  0.00     0.013 A 
ATOM      3  C   UNL     1      -3.474  -7.472   3.015  1.00  0.00     0.120 A 
ATOM      4  C   UNL     1      -1.407  -6.828   4.750  1.00  0.00     0.021 A 
ATOM      5  N   UNL     1      -2.194  -7.370   2.564  1.00  0.00    -0.264 NA
ATOM      6  C   UNL     1      -1.166  -7.056   3.395  1.00  0.00     0.111 A 
ENDROOT
BRANCH   1   7
ATOM      7  C   UNL     1      -5.152  -7.355   4.879  1.00  0.00     0.073 C 
ATOM      8  O   UNL     1      -5.373  -7.553   6.103  1.00  0.00    -0.545 OA
ATOM      9  O   UNL     1      -6.231  -7.236   4.009  1.00  0.00    -0.545 OA
ENDBRANCH   1   7
TORSDOF 1
ENDMDL
MODEL 6
REMARK VINA RESULT:    -4.011      2.455      3.478
REMARK INTER + INTRA:          -4.264
REMARK INTER:                  -4.242
REMARK INTRA:                  -0.022
REMARK UNBOUND:                -0.018
REMARK SMILES O=C([O-])c1cccnc1
REMARK SMILES IDX 4 1 5 2 9 3 6 4 8 5 7 6 2 7 1 8 3 9
REMARK H PARENT
REMARK Flexibility Score: inf
ROOT
ATOM      1  C   UNL     1      -8.048  -0.032  -3.901  1.00  0.00     0.016 A 
ATOM      2  C   UNL     1      -7.525   0.582  -2.750  1.00  0.00     0.013 A 
ATOM      3  C   UNL     1      -8.435   0.786  -4.977  1.00  0.00     0.120 A 
ATOM      4  C   UNL     1      -7.399   1.971  -2.693  1.00  0.00     0.021 A 
ATOM      5  N   UNL     1      -8.302   2.137  -4.895  1.00  0.00    -0.264 NA
ATOM      6  C   UNL     1      -7.797   2.740  -3.787  1.00  0.00     0.111 A 
ENDROOT
BRANCH   1   7
ATOM      7  C   UNL     1      -8.187  -1.502  -3.973  1.00  0.00     0.073 C 
ATOM      8  O   UNL     1      -8.413  -2.176  -2.933  1.00  0.00    -0.545 OA
ATOM      9  O   UNL     1      -8.072  -2.161  -5.192  1.00  0.00    -0.545 OA
ENDBRANCH   1   7
TORSDOF 1
ENDMDL
MODEL 7
REMARK VINA RESULT:    -3.942     11.428     11.666
REMARK INTER + INTRA:          -4.191
REMARK INTER:                  -4.169
REMARK INTRA:                  -0.021
REMARK UNBOUND:                -0.018
REMARK SMILES O=C([O-])c1cccnc1
REMARK SMILES IDX 4 1 5 2 9 3 6 4 8 5 7 6 2 7 1 8 3 9
REMARK H PARENT
REMARK Flexibility Score: inf
ROOT
ATOM      1  C   UNL     1      -3.009  -7.373   3.709  1.00  0.00     0.016 A 
ATOM      2  C   UNL     1      -3.489  -8.309   2.778  1.00  0.00     0.013 A 
ATOM      3  C   UNL     1      -3.879  -6.927   4.720  1.00  0.00     0.120 A 
ATOM      4  C   UNL     1      -4.802  -8.776   2.868  1.00  0.00     0.021 A 
ATOM      5  N   UNL     1      -5.154  -7.398   4.784  1.00  0.00    -0.264 NA
ATOM      6  C   UNL     1      -5.628  -8.303   3.889  1.00  0.00     0.111 A 
ENDROOT
BRANCH   1   7
ATOM      7  C   UNL     1      -1.621  -6.871   3.624  1.00  0.00     0.073 C 
ATOM      8  O   UNL     1      -0.977  -6.588   4.669  1.00  0.00    -0.545 OA
ATOM      9  O   UNL     1      -1.006  -6.706   2.387  1.00  0.00    -0.545 OA
ENDBRANCH   1   7
TORSDOF 1
ENDMDL
MODEL 8
REMARK VINA RESULT:    -3.750     13.163     14.002
REMARK INTER + INTRA:          -3.987
REMARK INTER:                  -3.968
REMARK INTRA:                  -0.020
REMARK UNBOUND:                -0.018
REMARK SMILES O=C([O-])c1cccnc1
REMARK SMILES IDX 4 1 5 2 9 3 6 4 8 5 7 6 2 7 1 8 3 9
REMARK H PARENT
REMARK Flexibility Score: inf
ROOT
ATOM      1  C   UNL     1       3.266   8.051  -6.335  1.00  0.00     0.016 A 
ATOM      2  C   UNL     1       4.042   8.269  -7.485  1.00  0.00     0.013 A 
ATOM      3  C   UNL     1       1.981   7.501  -6.489  1.00  0.00     0.120 A 
ATOM      4  C   UNL     1       3.536   7.940  -8.744  1.00  0.00     0.021 A 
ATOM      5  N   UNL     1       1.511   7.191  -7.728  1.00  0.00    -0.264 NA
ATOM      6  C   UNL     1       2.255   7.397  -8.846  1.00  0.00     0.111 A 
ENDROOT
BRANCH   1   7
ATOM      7  C   UNL     1       3.790   8.395  -4.996  1.00  0.00     0.073 C 
ATOM      8  O   UNL     1       3.639   7.606  -4.027  1.00  0.00    -0.545 OA
ATOM      9  O   UNL     1       4.461   9.596  -4.790  1.00  0.00    -0.545 OA
ENDBRANCH   1   7
TORSDOF 1
ENDMDL
MODEL 9
REMARK VINA RESULT:    -1.994      2.542      3.160
REMARK INTER + INTRA:          -2.129
REMARK INTER:                  -2.112
REMARK INTRA:                  -0.017
REMARK UNBOUND:                -0.018
REMARK SMILES O=C([O-])c1cccnc1
REMARK SMILES IDX 4 1 5 2 9 3 6 4 8 5 7 6 2 7 1 8 3 9
REMARK H PARENT
REMARK Flexibility Score: inf
ROOT
ATOM      1  C   UNL     1      -8.801   2.378  -3.973  1.00  0.00     0.016 A 
ATOM      2  C   UNL     1      -9.689   1.340  -3.644  1.00  0.00     0.013 A 
ATOM      3  C   UNL     1      -7.435   2.073  -4.104  1.00  0.00     0.120 A 
ATOM      4  C   UNL     1      -9.210   0.042  -3.456  1.00  0.00     0.021 A 
ATOM      5  N   UNL     1      -6.995   0.800  -3.915  1.00  0.00    -0.264 NA
ATOM      6  C   UNL     1      -7.845  -0.211  -3.598  1.00  0.00     0.111 A 
ENDROOT
BRANCH   1   7
ATOM      7  C   UNL     1      -9.296   3.756  -4.173  1.00  0.00     0.073 C 
ATOM      8  O   UNL     1      -8.974   4.676  -3.375  1.00  0.00    -0.545 OA
ATOM      9  O   UNL     1     -10.125   4.057  -5.249  1.00  0.00    -0.545 OA
ENDBRANCH   1   7
TORSDOF 1
ENDMDL
