MODEL 1
REMARK VINA RESULT:    -3.172      0.000      0.000
REMARK INTER + INTRA:          -8.472
REMARK INTER:                  -6.139
REMARK INTRA:                  -2.333
REMARK UNBOUND:                -2.333
REMARK SMILES CCCCCCCCCCCCCCCC(=O)OCC
REMARK SMILES IDX 10 1 9 2 8 3 7 4 6 5 5 6 4 7 3 8 2 9 1 10 11 11 12 12 13 13
REMARK SMILES IDX 14 14 15 15 16 16 17 17 18 18 19 19 20 20
REMARK H PARENT
REMARK Flexibility Score: inf
ROOT
ATOM      1  C   UNL     1     213.614 208.838 217.682  1.00  0.00     0.000 C 
ENDROOT
BRANCH   1   2
ATOM      2  C   UNL     1     212.544 208.027 218.436  1.00  0.00     0.000 C 
BRANCH   2   3
ATOM      3  C   UNL     1     213.090 206.881 219.312  1.00  0.00     0.000 C 
BRANCH   3   4
ATOM      4  C   UNL     1     214.503 207.107 219.885  1.00  0.00    -0.000 C 
BRANCH   4   5
ATOM      5  C   UNL     1     214.542 207.670 221.317  1.00  0.00    -0.000 C 
BRANCH   5   6
ATOM      6  C   UNL     1     214.566 209.205 221.356  1.00  0.00    -0.000 C 
BRANCH   6   7
ATOM      7  C   UNL     1     213.195 209.766 221.763  1.00  0.00    -0.000 C 
BRANCH   7   8
ATOM      8  C   UNL     1     212.401 208.783 222.648  1.00  0.00    -0.000 C 
BRANCH   8   9
ATOM      9  C   UNL     1     210.886 209.050 222.661  1.00  0.00    -0.003 C 
ATOM     10  C   UNL     1     210.319 209.362 221.277  1.00  0.00     0.004 C 
ENDBRANCH   8   9
ENDBRANCH   7   8
ENDBRANCH   6   7
ENDBRANCH   5   6
ENDBRANCH   4   5
ENDBRANCH   3   4
ENDBRANCH   2   3
ENDBRANCH   1   2
BRANCH   1  11
ATOM     11  C   UNL     1     213.144 210.259 217.326  1.00  0.00     0.000 C 
BRANCH  11  12
ATOM     12  C   UNL     1     213.558 211.299 218.380  1.00  0.00     0.000 C 
BRANCH  12  13
ATOM     13  C   UNL     1     212.356 211.907 219.120  1.00  0.00     0.001 C 
BRANCH  13  14
ATOM     14  C   UNL     1     211.036 211.426 218.504  1.00  0.00     0.012 C 
BRANCH  14  15
ATOM     15  C   UNL     1     209.904 212.420 218.782  1.00  0.00     0.123 C 
BRANCH  15  16
ATOM     16  C   UNL     1     208.660 212.006 218.063  1.00  0.00     0.305 C 
ATOM     17  O   UNL     1     208.431 212.447 216.903  1.00  0.00    -0.252 OA
BRANCH  16  18
ATOM     18  O   UNL     1     207.738 211.174 218.708  1.00  0.00    -0.466 OA
BRANCH  18  19
ATOM     19  C   UNL     1     206.341 211.178 218.423  1.00  0.00     0.229 C 
ATOM     20  C   UNL     1     205.794 209.755 218.394  1.00  0.00     0.049 C 
ENDBRANCH  18  19
ENDBRANCH  16  18
ENDBRANCH  15  16
ENDBRANCH  14  15
ENDBRANCH  13  14
ENDBRANCH  12  13
ENDBRANCH  11  12
ENDBRANCH   1  11
TORSDOF 16
ENDMDL
MODEL 2
REMARK VINA RESULT:    -3.142      1.299      2.883
REMARK INTER + INTRA:          -8.414
REMARK INTER:                  -5.860
REMARK INTRA:                  -2.554
REMARK UNBOUND:                -2.333
REMARK SMILES CCCCCCCCCCCCCCCC(=O)OCC
REMARK SMILES IDX 10 1 9 2 8 3 7 4 6 5 5 6 4 7 3 8 2 9 1 10 11 11 12 12 13 13
REMARK SMILES IDX 14 14 15 15 16 16 17 17 18 18 19 19 20 20
REMARK H PARENT
REMARK Flexibility Score: inf
ROOT
ATOM      1  C   UNL     1     211.935 211.013 218.353  1.00  0.00     0.000 C 
ENDROOT
BRANCH   1   2
ATOM      2  C   UNL     1     213.277 210.429 217.874  1.00  0.00     0.000 C 
BRANCH   2   3
ATOM      3  C   UNL     1     213.263 208.914 217.582  1.00  0.00     0.000 C 
BRANCH   3   4
ATOM      4  C   UNL     1     212.416 208.065 218.552  1.00  0.00    -0.000 C 
BRANCH   4   5
ATOM      5  C   UNL     1     213.160 206.886 219.204  1.00  0.00    -0.000 C 
BRANCH   5   6
ATOM      6  C   UNL     1     214.564 207.262 219.696  1.00  0.00    -0.000 C 
BRANCH   6   7
ATOM      7  C   UNL     1     214.534 207.693 221.171  1.00  0.00    -0.000 C 
BRANCH   7   8
ATOM      8  C   UNL     1     214.408 209.222 221.329  1.00  0.00    -0.000 C 
BRANCH   8   9
ATOM      9  C   UNL     1     213.454 209.649 222.458  1.00  0.00    -0.003 C 
ATOM     10  C   UNL     1     212.131 208.886 222.446  1.00  0.00     0.004 C 
ENDBRANCH   8   9
ENDBRANCH   7   8
ENDBRANCH   6   7
ENDBRANCH   5   6
ENDBRANCH   4   5
ENDBRANCH   3   4
ENDBRANCH   2   3
ENDBRANCH   1   2
BRANCH   1  11
ATOM     11  C   UNL     1     212.053 211.754 219.695  1.00  0.00     0.000 C 
BRANCH  11  12
ATOM     12  C   UNL     1     210.763 211.676 220.528  1.00  0.00     0.000 C 
BRANCH  12  13
ATOM     13  C   UNL     1     209.797 210.591 220.028  1.00  0.00     0.001 C 
BRANCH  13  14
ATOM     14  C   UNL     1     208.401 210.782 220.635  1.00  0.00     0.012 C 
BRANCH  14  15
ATOM     15  C   UNL     1     207.378 209.861 219.962  1.00  0.00     0.123 C 
BRANCH  15  16
ATOM     16  C   UNL     1     206.539 210.634 218.995  1.00  0.00     0.305 C 
ATOM     17  O   UNL     1     205.730 210.027 218.241  1.00  0.00    -0.252 OA
BRANCH  16  18
ATOM     18  O   UNL     1     206.699 212.022 218.904  1.00  0.00    -0.466 OA
BRANCH  18  19
ATOM     19  C   UNL     1     206.956 212.704 217.678  1.00  0.00     0.229 C 
ATOM     20  C   UNL     1     208.383 212.440 217.205  1.00  0.00     0.049 C 
ENDBRANCH  18  19
ENDBRANCH  16  18
ENDBRANCH  15  16
ENDBRANCH  14  15
ENDBRANCH  13  14
ENDBRANCH  12  13
ENDBRANCH  11  12
ENDBRANCH   1  11
TORSDOF 16
ENDMDL
MODEL 3
REMARK VINA RESULT:    -3.126      1.530      3.781
REMARK INTER + INTRA:          -8.382
REMARK INTER:                  -5.854
REMARK INTRA:                  -2.528
REMARK UNBOUND:                -2.333
REMARK SMILES CCCCCCCCCCCCCCCC(=O)OCC
REMARK SMILES IDX 10 1 9 2 8 3 7 4 6 5 5 6 4 7 3 8 2 9 1 10 11 11 12 12 13 13
REMARK SMILES IDX 14 14 15 15 16 16 17 17 18 18 19 19 20 20
REMARK H PARENT
REMARK Flexibility Score: inf
ROOT
ATOM      1  C   UNL     1     211.933 211.796 221.024  1.00  0.00     0.000 C 
ENDROOT
BRANCH   1   2
ATOM      2  C   UNL     1     213.456 211.970 220.889  1.00  0.00     0.000 C 
BRANCH   2   3
ATOM      3  C   UNL     1     214.128 211.059 219.841  1.00  0.00     0.000 C 
BRANCH   3   4
ATOM      4  C   UNL     1     213.876 211.450 218.371  1.00  0.00    -0.000 C 
BRANCH   4   5
ATOM      5  C   UNL     1     213.120 210.400 217.538  1.00  0.00    -0.000 C 
BRANCH   5   6
ATOM      6  C   UNL     1     213.695 208.985 217.694  1.00  0.00    -0.000 C 
BRANCH   6   7
ATOM      7  C   UNL     1     212.640 208.020 218.256  1.00  0.00    -0.000 C 
BRANCH   7   8
ATOM      8  C   UNL     1     213.262 206.941 219.165  1.00  0.00    -0.000 C 
BRANCH   8   9
ATOM      9  C   UNL     1     214.467 207.440 219.981  1.00  0.00    -0.003 C 
ATOM     10  C   UNL     1     214.124 207.734 221.440  1.00  0.00     0.004 C 
ENDBRANCH   8   9
ENDBRANCH   7   8
ENDBRANCH   6   7
ENDBRANCH   5   6
ENDBRANCH   4   5
ENDBRANCH   3   4
ENDBRANCH   2   3
ENDBRANCH   1   2
BRANCH   1  11
ATOM     11  C   UNL     1     211.494 210.323 220.971  1.00  0.00     0.000 C 
BRANCH  11  12
ATOM     12  C   UNL     1     210.283 210.100 220.050  1.00  0.00     0.000 C 
BRANCH  12  13
ATOM     13  C   UNL     1     209.893 211.361 219.264  1.00  0.00     0.001 C 
BRANCH  13  14
ATOM     14  C   UNL     1     208.400 211.669 219.432  1.00  0.00     0.012 C 
BRANCH  14  15
ATOM     15  C   UNL     1     207.673 211.620 218.084  1.00  0.00     0.123 C 
BRANCH  15  16
ATOM     16  C   UNL     1     206.397 210.849 218.209  1.00  0.00     0.305 C 
ATOM     17  O   UNL     1     205.331 211.448 218.519  1.00  0.00    -0.252 OA
BRANCH  16  18
ATOM     18  O   UNL     1     206.414 209.461 218.031  1.00  0.00    -0.466 OA
BRANCH  18  19
ATOM     19  C   UNL     1     206.010 208.535 219.037  1.00  0.00     0.229 C 
ATOM     20  C   UNL     1     207.225 207.970 219.767  1.00  0.00     0.049 C 
ENDBRANCH  18  19
ENDBRANCH  16  18
ENDBRANCH  15  16
ENDBRANCH  14  15
ENDBRANCH  13  14
ENDBRANCH  12  13
ENDBRANCH  11  12
ENDBRANCH   1  11
TORSDOF 16
ENDMDL
MODEL 4
REMARK VINA RESULT:    -3.072      1.112      3.416
REMARK INTER + INTRA:          -8.278
REMARK INTER:                  -5.668
REMARK INTRA:                  -2.610
REMARK UNBOUND:                -2.333
REMARK SMILES CCCCCCCCCCCCCCCC(=O)OCC
REMARK SMILES IDX 10 1 9 2 8 3 7 4 6 5 5 6 4 7 3 8 2 9 1 10 11 11 12 12 13 13
REMARK SMILES IDX 14 14 15 15 16 16 17 17 18 18 19 19 20 20
REMARK H PARENT
REMARK Flexibility Score: inf
ROOT
ATOM      1  C   UNL     1     212.650 209.309 221.954  1.00  0.00     0.000 C 
ENDROOT
BRANCH   1   2
ATOM      2  C   UNL     1     214.177 209.499 221.991  1.00  0.00     0.000 C 
BRANCH   2   3
ATOM      3  C   UNL     1     214.983 208.473 221.168  1.00  0.00     0.000 C 
BRANCH   3   4
ATOM      4  C   UNL     1     214.197 207.222 220.725  1.00  0.00    -0.000 C 
BRANCH   4   5
ATOM      5  C   UNL     1     213.893 207.144 219.218  1.00  0.00    -0.000 C 
BRANCH   5   6
ATOM      6  C   UNL     1     212.474 207.612 218.869  1.00  0.00    -0.000 C 
BRANCH   6   7
ATOM      7  C   UNL     1     212.495 208.613 217.704  1.00  0.00    -0.000 C 
BRANCH   7   8
ATOM      8  C   UNL     1     213.837 209.368 217.607  1.00  0.00    -0.000 C 
BRANCH   8   9
ATOM      9  C   UNL     1     213.700 210.892 217.761  1.00  0.00    -0.003 C 
ATOM     10  C   UNL     1     214.451 211.444 218.971  1.00  0.00     0.004 C 
ENDBRANCH   8   9
ENDBRANCH   7   8
ENDBRANCH   6   7
ENDBRANCH   5   6
ENDBRANCH   4   5
ENDBRANCH   3   4
ENDBRANCH   2   3
ENDBRANCH   1   2
BRANCH   1  11
ATOM     11  C   UNL     1     211.899 210.592 221.558  1.00  0.00     0.000 C 
BRANCH  11  12
ATOM     12  C   UNL     1     210.401 210.348 221.310  1.00  0.00     0.000 C 
BRANCH  12  13
ATOM     13  C   UNL     1     210.038 210.347 219.818  1.00  0.00     0.001 C 
BRANCH  13  14
ATOM     14  C   UNL     1     210.399 211.688 219.167  1.00  0.00     0.012 C 
BRANCH  14  15
ATOM     15  C   UNL     1     209.434 212.024 218.026  1.00  0.00     0.123 C 
BRANCH  15  16
ATOM     16  C   UNL     1     208.031 212.100 218.537  1.00  0.00     0.305 C 
ATOM     17  O   UNL     1     207.738 212.924 219.447  1.00  0.00    -0.252 OA
BRANCH  16  18
ATOM     18  O   UNL     1     207.067 211.218 218.032  1.00  0.00    -0.466 OA
BRANCH  18  19
ATOM     19  C   UNL     1     206.392 210.251 218.833  1.00  0.00     0.229 C 
ATOM     20  C   UNL     1     206.149 208.971 218.039  1.00  0.00     0.049 C 
ENDBRANCH  18  19
ENDBRANCH  16  18
ENDBRANCH  15  16
ENDBRANCH  14  15
ENDBRANCH  13  14
ENDBRANCH  12  13
ENDBRANCH  11  12
ENDBRANCH   1  11
TORSDOF 16
ENDMDL
MODEL 5
REMARK VINA RESULT:    -3.048     13.997     18.348
REMARK INTER + INTRA:          -8.231
REMARK INTER:                  -5.602
REMARK INTRA:                  -2.629
REMARK UNBOUND:                -2.333
REMARK SMILES CCCCCCCCCCCCCCCC(=O)OCC
REMARK SMILES IDX 10 1 9 2 8 3 7 4 6 5 5 6 4 7 3 8 2 9 1 10 11 11 12 12 13 13
REMARK SMILES IDX 14 14 15 15 16 16 17 17 18 18 19 19 20 20
REMARK H PARENT
REMARK Flexibility Score: inf
ROOT
ATOM      1  C   UNL     1     194.876 197.619 218.645  1.00  0.00     0.000 C 
ENDROOT
BRANCH   1   2
ATOM      2  C   UNL     1     195.392 198.122 217.285  1.00  0.00     0.000 C 
BRANCH   2   3
ATOM      3  C   UNL     1     195.439 199.656 217.130  1.00  0.00     0.000 C 
BRANCH   3   4
ATOM      4  C   UNL     1     196.762 200.321 217.559  1.00  0.00    -0.000 C 
BRANCH   4   5
ATOM      5  C   UNL     1     196.661 201.239 218.790  1.00  0.00    -0.000 C 
BRANCH   5   6
ATOM      6  C   UNL     1     195.213 201.485 219.236  1.00  0.00    -0.000 C 
BRANCH   6   7
ATOM      7  C   UNL     1     194.946 200.857 220.612  1.00  0.00    -0.000 C 
BRANCH   7   8
ATOM      8  C   UNL     1     196.164 200.071 221.141  1.00  0.00    -0.000 C 
BRANCH   8   9
ATOM      9  C   UNL     1     195.803 199.005 222.189  1.00  0.00    -0.003 C 
ATOM     10  C   UNL     1     195.734 199.558 223.611  1.00  0.00     0.004 C 
ENDBRANCH   8   9
ENDBRANCH   7   8
ENDBRANCH   6   7
ENDBRANCH   5   6
ENDBRANCH   4   5
ENDBRANCH   3   4
ENDBRANCH   2   3
ENDBRANCH   1   2
BRANCH   1  11
ATOM     11  C   UNL     1     195.886 196.711 219.367  1.00  0.00     0.000 C 
BRANCH  11  12
ATOM     12  C   UNL     1     197.325 196.910 218.861  1.00  0.00     0.000 C 
BRANCH  12  13
ATOM     13  C   UNL     1     198.298 197.315 219.979  1.00  0.00     0.001 C 
BRANCH  13  14
ATOM     14  C   UNL     1     199.276 198.389 219.487  1.00  0.00     0.012 C 
BRANCH  14  15
ATOM     15  C   UNL     1     200.335 198.697 220.551  1.00  0.00     0.123 C 
BRANCH  15  16
ATOM     16  C   UNL     1     201.643 198.074 220.179  1.00  0.00     0.305 C 
ATOM     17  O   UNL     1     202.101 197.120 220.865  1.00  0.00    -0.252 OA
BRANCH  16  18
ATOM     18  O   UNL     1     202.369 198.593 219.100  1.00  0.00    -0.466 OA
BRANCH  18  19
ATOM     19  C   UNL     1     202.806 199.948 219.026  1.00  0.00     0.229 C 
ATOM     20  C   UNL     1     203.749 200.272 220.181  1.00  0.00     0.049 C 
ENDBRANCH  18  19
ENDBRANCH  16  18
ENDBRANCH  15  16
ENDBRANCH  14  15
ENDBRANCH  13  14
ENDBRANCH  12  13
ENDBRANCH  11  12
ENDBRANCH   1  11
TORSDOF 16
ENDMDL
MODEL 6
REMARK VINA RESULT:    -3.034      1.964      4.566
REMARK INTER + INTRA:          -8.204
REMARK INTER:                  -6.160
REMARK INTRA:                  -2.044
REMARK UNBOUND:                -2.333
REMARK SMILES CCCCCCCCCCCCCCCC(=O)OCC
REMARK SMILES IDX 10 1 9 2 8 3 7 4 6 5 5 6 4 7 3 8 2 9 1 10 11 11 12 12 13 13
REMARK SMILES IDX 14 14 15 15 16 16 17 17 18 18 19 19 20 20
REMARK H PARENT
REMARK Flexibility Score: inf
ROOT
ATOM      1  C   UNL     1     210.028 212.748 219.074  1.00  0.00     0.000 C 
ENDROOT
BRANCH   1   2
ATOM      2  C   UNL     1     210.795 211.622 219.791  1.00  0.00     0.000 C 
BRANCH   2   3
ATOM      3  C   UNL     1     209.992 210.324 220.015  1.00  0.00     0.000 C 
BRANCH   3   4
ATOM      4  C   UNL     1     210.690 209.261 220.887  1.00  0.00    -0.000 C 
BRANCH   4   5
ATOM      5  C   UNL     1     212.155 209.571 221.243  1.00  0.00    -0.000 C 
BRANCH   5   6
ATOM      6  C   UNL     1     213.112 208.425 220.888  1.00  0.00    -0.000 C 
BRANCH   6   7
ATOM      7  C   UNL     1     213.763 208.656 219.515  1.00  0.00    -0.000 C 
BRANCH   7   8
ATOM      8  C   UNL     1     212.934 208.046 218.366  1.00  0.00    -0.000 C 
BRANCH   8   9
ATOM      9  C   UNL     1     212.721 209.006 217.183  1.00  0.00    -0.003 C 
ATOM     10  C   UNL     1     213.200 210.428 217.468  1.00  0.00     0.004 C 
ENDBRANCH   8   9
ENDBRANCH   7   8
ENDBRANCH   6   7
ENDBRANCH   5   6
ENDBRANCH   4   5
ENDBRANCH   3   4
ENDBRANCH   2   3
ENDBRANCH   1   2
BRANCH   1  11
ATOM     11  C   UNL     1     209.059 212.221 218.003  1.00  0.00     0.000 C 
BRANCH  11  12
ATOM     12  C   UNL     1     207.757 213.036 217.932  1.00  0.00     0.000 C 
BRANCH  12  13
ATOM     13  C   UNL     1     206.501 212.168 218.109  1.00  0.00     0.001 C 
BRANCH  13  14
ATOM     14  C   UNL     1     206.866 210.678 218.123  1.00  0.00     0.012 C 
BRANCH  14  15
ATOM     15  C   UNL     1     205.706 209.833 218.659  1.00  0.00     0.123 C 
BRANCH  15  16
ATOM     16  C   UNL     1     206.014 208.376 218.516  1.00  0.00     0.305 C 
ATOM     17  O   UNL     1     206.043 207.852 217.369  1.00  0.00    -0.252 OA
BRANCH  16  18
ATOM     18  O   UNL     1     206.215 207.601 219.664  1.00  0.00    -0.466 OA
BRANCH  18  19
ATOM     19  C   UNL     1     207.215 207.887 220.640  1.00  0.00     0.229 C 
ATOM     20  C   UNL     1     206.576 208.197 221.989  1.00  0.00     0.049 C 
ENDBRANCH  18  19
ENDBRANCH  16  18
ENDBRANCH  15  16
ENDBRANCH  14  15
ENDBRANCH  13  14
ENDBRANCH  12  13
ENDBRANCH  11  12
ENDBRANCH   1  11
TORSDOF 16
ENDMDL
MODEL 7
REMARK VINA RESULT:    -3.027      1.751      3.355
REMARK INTER + INTRA:          -8.191
REMARK INTER:                  -5.792
REMARK INTRA:                  -2.399
REMARK UNBOUND:                -2.333
REMARK SMILES CCCCCCCCCCCCCCCC(=O)OCC
REMARK SMILES IDX 10 1 9 2 8 3 7 4 6 5 5 6 4 7 3 8 2 9 1 10 11 11 12 12 13 13
REMARK SMILES IDX 14 14 15 15 16 16 17 17 18 18 19 19 20 20
REMARK H PARENT
REMARK Flexibility Score: inf
ROOT
ATOM      1  C   UNL     1     211.954 210.864 218.939  1.00  0.00     0.000 C 
ENDROOT
BRANCH   1   2
ATOM      2  C   UNL     1     212.641 210.237 217.712  1.00  0.00     0.000 C 
BRANCH   2   3
ATOM      3  C   UNL     1     212.560 208.698 217.634  1.00  0.00     0.000 C 
BRANCH   3   4
ATOM      4  C   UNL     1     212.370 207.980 218.984  1.00  0.00    -0.000 C 
BRANCH   4   5
ATOM      5  C   UNL     1     213.281 206.759 219.206  1.00  0.00    -0.000 C 
BRANCH   5   6
ATOM      6  C   UNL     1     214.326 206.984 220.308  1.00  0.00    -0.000 C 
BRANCH   6   7
ATOM      7  C   UNL     1     214.732 208.464 220.388  1.00  0.00    -0.000 C 
BRANCH   7   8
ATOM      8  C   UNL     1     214.654 209.014 221.827  1.00  0.00    -0.000 C 
BRANCH   8   9
ATOM      9  C   UNL     1     213.308 209.679 222.161  1.00  0.00    -0.003 C 
ATOM     10  C   UNL     1     212.335 208.743 222.875  1.00  0.00     0.004 C 
ENDBRANCH   8   9
ENDBRANCH   7   8
ENDBRANCH   6   7
ENDBRANCH   5   6
ENDBRANCH   4   5
ENDBRANCH   3   4
ENDBRANCH   2   3
ENDBRANCH   1   2
BRANCH   1  11
ATOM     11  C   UNL     1     210.647 211.594 218.582  1.00  0.00     0.000 C 
BRANCH  11  12
ATOM     12  C   UNL     1     209.444 211.077 219.388  1.00  0.00     0.000 C 
BRANCH  12  13
ATOM     13  C   UNL     1     209.857 210.377 220.692  1.00  0.00     0.001 C 
BRANCH  13  14
ATOM     14  C   UNL     1     208.834 209.303 221.082  1.00  0.00     0.012 C 
BRANCH  14  15
ATOM     15  C   UNL     1     208.459 208.436 219.876  1.00  0.00     0.123 C 
BRANCH  15  16
ATOM     16  C   UNL     1     207.076 207.890 220.037  1.00  0.00     0.305 C 
ATOM     17  O   UNL     1     206.857 206.972 220.874  1.00  0.00    -0.252 OA
BRANCH  16  18
ATOM     18  O   UNL     1     206.048 208.372 219.218  1.00  0.00    -0.466 OA
BRANCH  18  19
ATOM     19  C   UNL     1     206.237 209.386 218.233  1.00  0.00     0.229 C 
ATOM     20  C   UNL     1     205.416 210.626 218.573  1.00  0.00     0.049 C 
ENDBRANCH  18  19
ENDBRANCH  16  18
ENDBRANCH  15  16
ENDBRANCH  14  15
ENDBRANCH  13  14
ENDBRANCH  12  13
ENDBRANCH  11  12
ENDBRANCH   1  11
TORSDOF 16
ENDMDL
MODEL 8
REMARK VINA RESULT:    -3.024     13.183     17.451
REMARK INTER + INTRA:          -8.185
REMARK INTER:                  -5.785
REMARK INTRA:                  -2.400
REMARK UNBOUND:                -2.333
REMARK SMILES CCCCCCCCCCCCCCCC(=O)OCC
REMARK SMILES IDX 10 1 9 2 8 3 7 4 6 5 5 6 4 7 3 8 2 9 1 10 11 11 12 12 13 13
REMARK SMILES IDX 14 14 15 15 16 16 17 17 18 18 19 19 20 20
REMARK H PARENT
REMARK Flexibility Score: inf
ROOT
ATOM      1  C   UNL     1     197.030 201.215 218.852  1.00  0.00     0.000 C 
ENDROOT
BRANCH   1   2
ATOM      2  C   UNL     1     195.826 200.627 219.612  1.00  0.00     0.000 C 
BRANCH   2   3
ATOM      3  C   UNL     1     194.875 199.761 218.761  1.00  0.00     0.000 C 
BRANCH   3   4
ATOM      4  C   UNL     1     195.379 199.432 217.341  1.00  0.00    -0.000 C 
BRANCH   4   5
ATOM      5  C   UNL     1     195.981 198.025 217.173  1.00  0.00    -0.000 C 
BRANCH   5   6
ATOM      6  C   UNL     1     195.743 197.124 218.392  1.00  0.00    -0.000 C 
BRANCH   6   7
ATOM      7  C   UNL     1     197.070 196.770 219.082  1.00  0.00    -0.000 C 
BRANCH   7   8
ATOM      8  C   UNL     1     198.294 197.241 218.269  1.00  0.00    -0.000 C 
BRANCH   8   9
ATOM      9  C   UNL     1     199.539 196.359 218.463  1.00  0.00    -0.003 C 
ATOM     10  C   UNL     1     200.456 196.336 217.242  1.00  0.00     0.004 C 
ENDBRANCH   8   9
ENDBRANCH   7   8
ENDBRANCH   6   7
ENDBRANCH   5   6
ENDBRANCH   4   5
ENDBRANCH   3   4
ENDBRANCH   2   3
ENDBRANCH   1   2
BRANCH   1  11
ATOM     11  C   UNL     1     198.378 200.848 219.496  1.00  0.00     0.000 C 
BRANCH  11  12
ATOM     12  C   UNL     1     198.211 200.122 220.841  1.00  0.00     0.000 C 
BRANCH  12  13
ATOM     13  C   UNL     1     199.399 199.206 221.174  1.00  0.00     0.001 C 
BRANCH  13  14
ATOM     14  C   UNL     1     200.544 199.414 220.175  1.00  0.00     0.012 C 
BRANCH  14  15
ATOM     15  C   UNL     1     201.877 198.931 220.757  1.00  0.00     0.123 C 
BRANCH  15  16
ATOM     16  C   UNL     1     202.988 199.180 219.788  1.00  0.00     0.305 C 
ATOM     17  O   UNL     1     202.900 198.746 218.608  1.00  0.00    -0.252 OA
BRANCH  16  18
ATOM     18  O   UNL     1     204.139 199.851 220.221  1.00  0.00    -0.466 OA
BRANCH  18  19
ATOM     19  C   UNL     1     204.273 201.270 220.207  1.00  0.00     0.229 C 
ATOM     20  C   UNL     1     203.989 201.850 221.589  1.00  0.00     0.049 C 
ENDBRANCH  18  19
ENDBRANCH  16  18
ENDBRANCH  15  16
ENDBRANCH  14  15
ENDBRANCH  13  14
ENDBRANCH  12  13
ENDBRANCH  11  12
ENDBRANCH   1  11
TORSDOF 16
ENDMDL
MODEL 9
REMARK VINA RESULT:    -2.954      2.729      6.295
REMARK INTER + INTRA:          -8.050
REMARK INTER:                  -5.303
REMARK INTRA:                  -2.746
REMARK UNBOUND:                -2.333
REMARK SMILES CCCCCCCCCCCCCCCC(=O)OCC
REMARK SMILES IDX 10 1 9 2 8 3 7 4 6 5 5 6 4 7 3 8 2 9 1 10 11 11 12 12 13 13
REMARK SMILES IDX 14 14 15 15 16 16 17 17 18 18 19 19 20 20
REMARK H PARENT
REMARK Flexibility Score: inf
ROOT
ATOM      1  C   UNL     1     208.682 212.384 217.675  1.00  0.00     0.000 C 
ENDROOT
BRANCH   1   2
ATOM      2  C   UNL     1     207.242 212.881 217.901  1.00  0.00     0.000 C 
BRANCH   2   3
ATOM      3  C   UNL     1     206.245 211.803 218.374  1.00  0.00     0.000 C 
BRANCH   3   4
ATOM      4  C   UNL     1     206.678 210.347 218.113  1.00  0.00    -0.000 C 
BRANCH   4   5
ATOM      5  C   UNL     1     205.758 209.274 218.723  1.00  0.00    -0.000 C 
BRANCH   5   6
ATOM      6  C   UNL     1     206.531 208.156 219.435  1.00  0.00    -0.000 C 
BRANCH   6   7
ATOM      7  C   UNL     1     207.898 208.659 219.925  1.00  0.00    -0.000 C 
BRANCH   7   8
ATOM      8  C   UNL     1     207.888 209.001 221.429  1.00  0.00    -0.000 C 
BRANCH   8   9
ATOM      9  C   UNL     1     207.982 210.509 221.719  1.00  0.00    -0.003 C 
ATOM     10  C   UNL     1     206.623 211.158 221.973  1.00  0.00     0.004 C 
ENDBRANCH   8   9
ENDBRANCH   7   8
ENDBRANCH   6   7
ENDBRANCH   5   6
ENDBRANCH   4   5
ENDBRANCH   3   4
ENDBRANCH   2   3
ENDBRANCH   1   2
BRANCH   1  11
ATOM     11  C   UNL     1     209.519 212.380 218.965  1.00  0.00     0.000 C 
BRANCH  11  12
ATOM     12  C   UNL     1     210.522 211.215 219.014  1.00  0.00     0.000 C 
BRANCH  12  13
ATOM     13  C   UNL     1     211.628 211.425 220.060  1.00  0.00     0.001 C 
BRANCH  13  14
ATOM     14  C   UNL     1     211.651 210.269 221.068  1.00  0.00     0.012 C 
BRANCH  14  15
ATOM     15  C   UNL     1     211.590 208.915 220.354  1.00  0.00     0.123 C 
BRANCH  15  16
ATOM     16  C   UNL     1     212.954 208.308 220.273  1.00  0.00     0.305 C 
ATOM     17  O   UNL     1     213.582 208.035 221.333  1.00  0.00    -0.252 OA
BRANCH  16  18
ATOM     18  O   UNL     1     213.538 208.097 219.019  1.00  0.00    -0.466 OA
BRANCH  18  19
ATOM     19  C   UNL     1     213.884 209.153 218.126  1.00  0.00     0.229 C 
ATOM     20  C   UNL     1     212.920 209.197 216.945  1.00  0.00     0.049 C 
ENDBRANCH  18  19
ENDBRANCH  16  18
ENDBRANCH  15  16
ENDBRANCH  14  15
ENDBRANCH  13  14
ENDBRANCH  12  13
ENDBRANCH  11  12
ENDBRANCH   1  11
TORSDOF 16
ENDMDL
