MODEL 1
REMARK VINA RESULT:    52.885      0.000      0.000
REMARK INTER + INTRA:          67.651
REMARK INTER:                  66.798
REMARK INTRA:                   0.854
REMARK UNBOUND:                 0.854
REMARK SMILES CC(C)[C@H](C)C=C[C@@H](C)[C@H]1CC[C@@H]2C3=CC=C4C[C@@H](O)CC[C@@]4(C)[C@@H]3CC[C@@]21C
REMARK SMILES IDX 8 1 9 2 7 3 6 4 4 5 5 6 2 7 1 8 3 9 10 10 11 11 28 12 12 13
REMARK SMILES IDX 13 14 27 15 29 16 14 17 26 18 25 19 15 20 23 21 16 22 17 23
REMARK SMILES IDX 22 24 24 25 18 26 21 27 19 28 20 29
REMARK H PARENT 20 30
REMARK Flexibility Score: inf
ROOT
ATOM      1  C   UNL     1     -30.799  24.926   7.028  1.00  0.00     0.012 C 
ATOM      2  C   UNL     1     -30.291  23.541   7.458  1.00  0.00     0.012 C 
ENDROOT
BRANCH   1   3
ATOM      3  C   UNL     1     -30.042  25.970   7.832  1.00  0.00    -0.028 C 
ATOM      4  C   UNL     1     -28.867  26.521   7.467  1.00  0.00    -0.028 C 
BRANCH   4   5
ATOM      5  C   UNL     1     -28.136  26.226   6.170  1.00  0.00     0.011 C 
ATOM      6  C   UNL     1     -28.827  25.031   5.488  1.00  0.00     0.012 C 
BRANCH   5   7
ATOM      7  C   UNL     1     -28.109  27.486   5.253  1.00  0.00    -0.011 C 
ATOM      8  C   UNL     1     -27.430  27.207   3.900  1.00  0.00     0.008 C 
ATOM      9  C   UNL     1     -27.378  28.656   5.941  1.00  0.00     0.008 C 
ENDBRANCH   5   7
ENDBRANCH   4   5
ENDBRANCH   1   3
BRANCH   1  10
ATOM     10  C   UNL     1     -32.340  25.092   7.244  1.00  0.00     0.002 C 
ATOM     11  C   UNL     1     -32.657  26.309   8.125  1.00  0.00     0.005 C 
ATOM     12  C   UNL     1     -33.246  25.258   5.977  1.00  0.00    -0.023 C 
ATOM     13  C   UNL     1     -34.095  26.710   7.839  1.00  0.00     0.009 C 
ATOM     14  C   UNL     1     -34.495  26.011   6.531  1.00  0.00     0.021 C 
ATOM     15  C   UNL     1     -33.622  23.861   5.353  1.00  0.00     0.008 C 
ATOM     16  C   UNL     1     -32.582  26.138   4.887  1.00  0.00     0.012 C 
ATOM     17  C   UNL     1     -35.680  25.071   6.607  1.00  0.00    -0.063 C 
ATOM     18  C   UNL     1     -34.978  23.812   4.593  1.00  0.00     0.009 C 
ATOM     19  C   UNL     1     -36.145  24.626   5.246  1.00  0.00     0.025 C 
ATOM     20  C   UNL     1     -35.909  24.262   7.656  1.00  0.00    -0.000 C 
ATOM     21  C   UNL     1     -37.556  23.920   5.292  1.00  0.00    -0.005 C 
ATOM     22  C   UNL     1     -36.891  23.168   7.574  1.00  0.00    -0.000 C 
ATOM     23  C   UNL     1     -37.660  22.979   6.487  1.00  0.00    -0.061 C 
ATOM     24  C   UNL     1     -38.674  24.989   5.490  1.00  0.00     0.014 C 
ATOM     25  C   UNL     1     -37.808  23.163   3.956  1.00  0.00     0.017 C 
ATOM     26  C   UNL     1     -38.972  22.259   6.659  1.00  0.00     0.063 C 
ATOM     27  C   UNL     1     -40.077  24.383   5.763  1.00  0.00     0.033 C 
ATOM     28  C   UNL     1     -40.078  23.312   6.877  1.00  0.00     0.118 C 
BRANCH  28  29
ATOM     29  O   UNL     1     -39.912  23.938   8.124  1.00  0.00    -0.393 OA
ATOM     30  H   UNL     1     -39.042  24.416   8.094  1.00  0.00     0.210 HD
ENDBRANCH  28  29
ENDBRANCH   1  10
TORSDOF 5
ENDMDL
