MODEL 1
REMARK VINA RESULT:    -2.710      0.000      0.000
REMARK INTER + INTRA:          -2.710
REMARK INTER:                  -2.710
REMARK INTRA:                   0.000
REMARK UNBOUND:                 0.000
REMARK SMILES CC(=O)[O-]
REMARK SMILES IDX 1 1 2 2 3 3 4 4
REMARK H PARENT
REMARK Flexibility Score: inf
ROOT
ATOM      1  C   UNL     1      18.168  -7.866  22.896  1.00  0.00     0.063 C 
ATOM      2  C   UNL     1      18.873  -7.863  21.582  1.00  0.00     0.038 C 
ATOM      3  O   UNL     1      19.952  -8.495  21.441  1.00  0.00    -0.550 OA
ATOM      4  O   UNL     1      18.312  -7.208  20.493  1.00  0.00    -0.550 OA
ENDROOT
TORSDOF 0
ENDMDL
MODEL 2
REMARK VINA RESULT:    -2.709      1.393      1.764
REMARK INTER + INTRA:          -2.709
REMARK INTER:                  -2.709
REMARK INTRA:                   0.000
REMARK UNBOUND:                 0.000
REMARK SMILES CC(=O)[O-]
REMARK SMILES IDX 1 1 2 2 3 3 4 4
REMARK H PARENT
REMARK Flexibility Score: inf
ROOT
ATOM      1  C   UNL     1      18.442  -7.015  20.528  1.00  0.00     0.063 C 
ATOM      2  C   UNL     1      18.877  -7.858  21.679  1.00  0.00     0.038 C 
ATOM      3  O   UNL     1      20.011  -8.403  21.671  1.00  0.00    -0.550 OA
ATOM      4  O   UNL     1      18.052  -8.002  22.787  1.00  0.00    -0.550 OA
ENDROOT
TORSDOF 0
ENDMDL
MODEL 3
REMARK VINA RESULT:    -2.707      0.158      1.624
REMARK INTER + INTRA:          -2.707
REMARK INTER:                  -2.707
REMARK INTRA:                   0.000
REMARK UNBOUND:                 0.000
REMARK SMILES CC(=O)[O-]
REMARK SMILES IDX 1 1 2 2 3 3 4 4
REMARK H PARENT
REMARK Flexibility Score: inf
ROOT
ATOM      1  C   UNL     1      18.125  -7.858  22.970  1.00  0.00     0.063 C 
ATOM      2  C   UNL     1      18.846  -7.875  21.664  1.00  0.00     0.038 C 
ATOM      3  O   UNL     1      18.333  -7.329  20.653  1.00  0.00    -0.550 OA
ATOM      4  O   UNL     1      20.108  -8.445  21.574  1.00  0.00    -0.550 OA
ENDROOT
TORSDOF 0
ENDMDL
MODEL 4
REMARK VINA RESULT:    -2.688      1.360      2.096
REMARK INTER + INTRA:          -2.688
REMARK INTER:                  -2.688
REMARK INTRA:                   0.000
REMARK UNBOUND:                 0.000
REMARK SMILES CC(=O)[O-]
REMARK SMILES IDX 1 1 2 2 3 3 4 4
REMARK H PARENT
REMARK Flexibility Score: inf
ROOT
ATOM      1  C   UNL     1      18.446  -6.896  20.563  1.00  0.00     0.063 C 
ATOM      2  C   UNL     1      18.881  -7.782  21.680  1.00  0.00     0.038 C 
ATOM      3  O   UNL     1      18.102  -8.019  22.639  1.00  0.00    -0.550 OA
ATOM      4  O   UNL     1      20.128  -8.392  21.639  1.00  0.00    -0.550 OA
ENDROOT
TORSDOF 0
ENDMDL
MODEL 5
REMARK VINA RESULT:    -2.620      1.720      2.365
REMARK INTER + INTRA:          -2.620
REMARK INTER:                  -2.620
REMARK INTRA:                   0.000
REMARK UNBOUND:                 0.000
REMARK SMILES CC(=O)[O-]
REMARK SMILES IDX 1 1 2 2 3 3 4 4
REMARK H PARENT
REMARK Flexibility Score: inf
ROOT
ATOM      1  C   UNL     1      18.525  -7.459  21.074  1.00  0.00     0.063 C 
ATOM      2  C   UNL     1      18.759  -7.950  22.463  1.00  0.00     0.038 C 
ATOM      3  O   UNL     1      17.793  -8.082  23.257  1.00  0.00    -0.550 OA
ATOM      4  O   UNL     1      20.038  -8.313  22.866  1.00  0.00    -0.550 OA
ENDROOT
TORSDOF 0
ENDMDL
MODEL 6
REMARK VINA RESULT:    -2.585      2.084      2.504
REMARK INTER + INTRA:          -2.585
REMARK INTER:                  -2.585
REMARK INTRA:                   0.000
REMARK UNBOUND:                 0.000
REMARK SMILES CC(=O)[O-]
REMARK SMILES IDX 1 1 2 2 3 3 4 4
REMARK H PARENT
REMARK Flexibility Score: inf
ROOT
ATOM      1  C   UNL     1      18.484  -7.566  21.115  1.00  0.00     0.063 C 
ATOM      2  C   UNL     1      18.295  -7.207  22.550  1.00  0.00     0.038 C 
ATOM      3  O   UNL     1      18.569  -6.046  22.952  1.00  0.00    -0.550 OA
ATOM      4  O   UNL     1      17.766  -8.136  23.436  1.00  0.00    -0.550 OA
ENDROOT
TORSDOF 0
ENDMDL
MODEL 7
REMARK VINA RESULT:    -2.581      2.126      2.357
REMARK INTER + INTRA:          -2.581
REMARK INTER:                  -2.581
REMARK INTRA:                   0.000
REMARK UNBOUND:                 0.000
REMARK SMILES CC(=O)[O-]
REMARK SMILES IDX 1 1 2 2 3 3 4 4
REMARK H PARENT
REMARK Flexibility Score: inf
ROOT
ATOM      1  C   UNL     1      18.531  -7.640  21.213  1.00  0.00     0.063 C 
ATOM      2  C   UNL     1      18.268  -7.334  22.649  1.00  0.00     0.038 C 
ATOM      3  O   UNL     1      17.725  -8.195  23.389  1.00  0.00    -0.550 OA
ATOM      4  O   UNL     1      18.672  -6.119  23.187  1.00  0.00    -0.550 OA
ENDROOT
TORSDOF 0
ENDMDL
MODEL 8
REMARK VINA RESULT:    -2.565      2.059      2.168
REMARK INTER + INTRA:          -2.565
REMARK INTER:                  -2.565
REMARK INTRA:                   0.000
REMARK UNBOUND:                 0.000
REMARK SMILES CC(=O)[O-]
REMARK SMILES IDX 1 1 2 2 3 3 4 4
REMARK H PARENT
REMARK Flexibility Score: inf
ROOT
ATOM      1  C   UNL     1      18.630  -5.617  22.209  1.00  0.00     0.063 C 
ATOM      2  C   UNL     1      18.423  -7.077  22.430  1.00  0.00     0.038 C 
ATOM      3  O   UNL     1      17.815  -7.482  23.455  1.00  0.00    -0.550 OA
ATOM      4  O   UNL     1      18.854  -7.993  21.478  1.00  0.00    -0.550 OA
ENDROOT
TORSDOF 0
ENDMDL
MODEL 9
REMARK VINA RESULT:    -2.351     24.950     25.436
REMARK INTER + INTRA:          -2.351
REMARK INTER:                  -2.351
REMARK INTRA:                   0.000
REMARK UNBOUND:                 0.000
REMARK SMILES CC(=O)[O-]
REMARK SMILES IDX 1 1 2 2 3 3 4 4
REMARK H PARENT
REMARK Flexibility Score: inf
ROOT
ATOM      1  C   UNL     1       8.534  10.097   7.519  1.00  0.00     0.063 C 
ATOM      2  C   UNL     1       8.402   9.428   6.192  1.00  0.00     0.038 C 
ATOM      3  O   UNL     1       7.973   8.247   6.120  1.00  0.00    -0.550 OA
ATOM      4  O   UNL     1       8.702  10.125   5.028  1.00  0.00    -0.550 OA
ENDROOT
TORSDOF 0
ENDMDL
