MODEL 1
REMARK VINA RESULT:    -4.760      0.000      0.000
REMARK INTER + INTRA:          -7.333
REMARK INTER:                  -7.264
REMARK INTRA:                  -0.069
REMARK UNBOUND:                -0.069
REMARK SMILES CC1=CCC[C@H](C)C(=O)C[C@H](C(C)C)C(=O)C1
REMARK SMILES IDX 8 1 9 2 6 3 7 4 5 5 4 6 3 7 2 8 1 9 10 11 11 12 15 13 16 14
REMARK SMILES IDX 17 15 12 17 13 18 14 19
REMARK H PARENT
REMARK Flexibility Score: 70.00
ROOT
ATOM      1  C   UNL     1      13.044 -18.966 -30.701  1.00  0.00     0.136 C 
ATOM      2  O   UNL     1      13.231 -20.138 -30.995  1.00  0.00    -0.299 OA
ENDROOT
BRANCH   1   3
ATOM      3  C   UNL     1      12.654 -18.014 -31.819  1.00  0.00     0.053 C 
ATOM      4  C   UNL     1      13.822 -17.389 -32.600  1.00  0.00     0.016 C 
BRANCH   3   5
ATOM      5  C   UNL     1      11.515 -18.593 -32.695  1.00  0.00     0.015 C 
BRANCH   5   6
ATOM      6  C   UNL     1      10.038 -18.437 -32.254  1.00  0.00     0.028 C 
BRANCH   6   7
ATOM      7  C   UNL     1       9.587 -17.131 -31.644  1.00  0.00    -0.028 C 
ATOM      8  C   UNL     1       9.482 -16.856 -30.326  1.00  0.00    -0.070 CG0
ATOM      9  C   UNL     1       9.361 -15.407 -29.923  1.00  0.00     0.039 C 
ATOM     10  G   UNL     1       9.580 -17.914 -29.248  1.00  0.00     0.000 G0
ENDBRANCH   6   7
ENDBRANCH   5   6
ENDBRANCH   3   5
ENDBRANCH   1   3
BRANCH   1  11
ATOM     11  C   UNL     1      13.127 -18.563 -29.245  1.00  0.00     0.087 C 
BRANCH  11  12
ATOM     12  C   UNL     1      12.197 -17.365 -28.884  1.00  0.00     0.066 C 
BRANCH  12  13
ATOM     13  C   UNL     1      10.804 -17.764 -28.374  1.00  0.00     0.140 C 
ATOM     14  O   UNL     1      10.644 -17.892 -27.167  1.00  0.00    -0.299 OA
BRANCH  13  15
ATOM     15  C   UNL     1       9.576 -17.918 -29.252  1.00  0.00     0.106 CG0
ATOM     16  G   UNL     1       9.502 -16.861 -30.333  1.00  0.00     0.000 G0
ENDBRANCH  13  15
ENDBRANCH  12  13
BRANCH  12  17
ATOM     17  C   UNL     1      12.887 -16.345 -27.916  1.00  0.00    -0.006 C 
ATOM     18  C   UNL     1      13.698 -17.013 -26.797  1.00  0.00     0.008 C 
ATOM     19  C   UNL     1      13.756 -15.315 -28.660  1.00  0.00     0.008 C 
ENDBRANCH  12  17
ENDBRANCH  11  12
ENDBRANCH   1  11
TORSDOF 1
ENDMDL
MODEL 2
REMARK VINA RESULT:    -4.603      1.890      2.287
REMARK INTER + INTRA:          -7.093
REMARK INTER:                  -7.089
REMARK INTRA:                  -0.004
REMARK UNBOUND:                -0.069
REMARK SMILES CC1=CCC[C@H](C)C(=O)C[C@H](C(C)C)C(=O)C1
REMARK SMILES IDX 8 1 9 2 6 3 7 4 5 5 4 6 3 7 2 8 1 9 10 11 11 12 15 13 16 14
REMARK SMILES IDX 17 15 12 17 13 18 14 19
REMARK H PARENT
REMARK Flexibility Score: 70.00
ROOT
ATOM      1  C   UNL     1      13.879 -16.564 -31.507  1.00  0.00     0.136 C 
ATOM      2  O   UNL     1      14.641 -15.744 -32.000  1.00  0.00    -0.299 OA
ENDROOT
BRANCH   1   3
ATOM      3  C   UNL     1      12.947 -17.312 -32.446  1.00  0.00     0.053 C 
ATOM      4  C   UNL     1      12.733 -16.667 -33.826  1.00  0.00     0.016 C 
BRANCH   3   5
ATOM      5  C   UNL     1      13.255 -18.830 -32.473  1.00  0.00     0.015 C 
BRANCH   5   6
ATOM      6  C   UNL     1      12.564 -19.781 -31.463  1.00  0.00     0.028 C 
BRANCH   6   7
ATOM      7  C   UNL     1      11.130 -19.518 -31.066  1.00  0.00    -0.028 C 
ATOM      8  C   UNL     1      10.713 -18.834 -29.979  1.00  0.00    -0.070 CG0
ATOM      9  C   UNL     1       9.275 -18.380 -29.951  1.00  0.00     0.039 C 
ATOM     10  G   UNL     1      11.636 -18.425 -28.852  1.00  0.00     0.000 G0
ENDBRANCH   6   7
ENDBRANCH   5   6
ENDBRANCH   3   5
ENDBRANCH   1   3
BRANCH   1  11
ATOM     11  C   UNL     1      13.976 -16.841 -30.023  1.00  0.00     0.087 C 
BRANCH  11  12
ATOM     12  C   UNL     1      12.919 -16.062 -29.182  1.00  0.00     0.066 C 
BRANCH  12  13
ATOM     13  C   UNL     1      11.753 -16.918 -28.663  1.00  0.00     0.140 C 
ATOM     14  O   UNL     1      10.805 -16.349 -28.141  1.00  0.00    -0.299 OA
BRANCH  13  15
ATOM     15  C   UNL     1      11.644 -18.421 -28.838  1.00  0.00     0.106 CG0
ATOM     16  G   UNL     1      10.738 -18.806 -29.988  1.00  0.00     0.000 G0
ENDBRANCH  13  15
ENDBRANCH  12  13
BRANCH  12  17
ATOM     17  C   UNL     1      13.572 -15.229 -28.027  1.00  0.00    -0.006 C 
ATOM     18  C   UNL     1      14.031 -16.085 -26.838  1.00  0.00     0.008 C 
ATOM     19  C   UNL     1      14.727 -14.339 -28.517  1.00  0.00     0.008 C 
ENDBRANCH  12  17
ENDBRANCH  11  12
ENDBRANCH   1  11
TORSDOF 1
ENDMDL
MODEL 3
REMARK VINA RESULT:    -4.581      1.806      4.227
REMARK INTER + INTRA:          -7.060
REMARK INTER:                  -7.294
REMARK INTRA:                   0.234
REMARK UNBOUND:                -0.069
REMARK SMILES CC1=CCC[C@H](C)C(=O)C[C@H](C(C)C)C(=O)C1
REMARK SMILES IDX 8 1 9 2 6 3 7 4 5 5 4 6 3 7 2 8 1 9 10 11 11 12 15 13 16 14
REMARK SMILES IDX 17 15 12 17 13 18 14 19
REMARK H PARENT
REMARK Flexibility Score: 70.00
ROOT
ATOM      1  C   UNL     1      13.388 -16.194 -28.930  1.00  0.00     0.136 C 
ATOM      2  O   UNL     1      14.130 -15.223 -28.880  1.00  0.00    -0.299 OA
ENDROOT
BRANCH   1   3
ATOM      3  C   UNL     1      13.134 -16.953 -27.638  1.00  0.00     0.053 C 
ATOM      4  C   UNL     1      14.165 -16.730 -26.520  1.00  0.00     0.016 C 
BRANCH   3   5
ATOM      5  C   UNL     1      11.653 -16.849 -27.194  1.00  0.00     0.015 C 
BRANCH   5   6
ATOM      6  C   UNL     1      10.657 -17.985 -27.539  1.00  0.00     0.028 C 
BRANCH   6   7
ATOM      7  C   UNL     1      10.024 -18.019 -28.911  1.00  0.00    -0.028 C 
ATOM      8  C   UNL     1      10.438 -18.754 -29.965  1.00  0.00    -0.070 CG0
ATOM      9  C   UNL     1       9.479 -18.921 -31.117  1.00  0.00     0.039 C 
ATOM     10  G   UNL     1      11.762 -19.488 -29.997  1.00  0.00     0.000 G0
ENDBRANCH   6   7
ENDBRANCH   5   6
ENDBRANCH   3   5
ENDBRANCH   1   3
BRANCH   1  11
ATOM     11  C   UNL     1      12.712 -16.520 -30.244  1.00  0.00     0.087 C 
BRANCH  11  12
ATOM     12  C   UNL     1      13.439 -17.639 -31.050  1.00  0.00     0.066 C 
BRANCH  12  13
ATOM     13  C   UNL     1      12.702 -18.987 -31.087  1.00  0.00     0.140 C 
ATOM     14  O   UNL     1      12.934 -19.748 -32.016  1.00  0.00    -0.299 OA
BRANCH  13  15
ATOM     15  C   UNL     1      11.772 -19.490 -29.998  1.00  0.00     0.106 CG0
ATOM     16  G   UNL     1      10.457 -18.742 -29.970  1.00  0.00     0.000 G0
ENDBRANCH  13  15
ENDBRANCH  12  13
BRANCH  12  17
ATOM     17  C   UNL     1      13.843 -17.171 -32.489  1.00  0.00    -0.006 C 
ATOM     18  C   UNL     1      12.649 -16.732 -33.348  1.00  0.00     0.008 C 
ATOM     19  C   UNL     1      14.921 -16.073 -32.475  1.00  0.00     0.008 C 
ENDBRANCH  12  17
ENDBRANCH  11  12
ENDBRANCH   1  11
TORSDOF 1
ENDMDL
MODEL 4
REMARK VINA RESULT:    -4.543      1.521      2.191
REMARK INTER + INTRA:          -7.002
REMARK INTER:                  -7.359
REMARK INTRA:                   0.357
REMARK UNBOUND:                -0.069
REMARK SMILES CC1=CCC[C@H](C)C(=O)C[C@H](C(C)C)C(=O)C1
REMARK SMILES IDX 8 1 9 2 6 3 7 4 5 5 4 6 3 7 2 8 1 9 10 11 11 12 15 13 16 14
REMARK SMILES IDX 17 15 12 17 13 18 14 19
REMARK H PARENT
REMARK Flexibility Score: 70.00
ROOT
ATOM      1  C   UNL     1      13.350 -19.206 -29.631  1.00  0.00     0.136 C 
ATOM      2  O   UNL     1      14.414 -19.255 -29.030  1.00  0.00    -0.299 OA
ENDROOT
BRANCH   1   3
ATOM      3  C   UNL     1      13.355 -19.595 -31.100  1.00  0.00     0.053 C 
ATOM      4  C   UNL     1      12.226 -20.541 -31.543  1.00  0.00     0.016 C 
BRANCH   3   5
ATOM      5  C   UNL     1      13.578 -18.367 -32.019  1.00  0.00     0.015 C 
BRANCH   5   6
ATOM      6  C   UNL     1      12.799 -17.053 -31.763  1.00  0.00     0.028 C 
BRANCH   6   7
ATOM      7  C   UNL     1      11.508 -16.806 -32.508  1.00  0.00    -0.028 C 
ATOM      8  C   UNL     1      10.259 -16.901 -32.001  1.00  0.00    -0.070 CG0
ATOM      9  C   UNL     1       9.137 -16.277 -32.791  1.00  0.00     0.039 C 
ATOM     10  G   UNL     1       9.958 -17.511 -30.649  1.00  0.00     0.000 G0
ENDBRANCH   6   7
ENDBRANCH   5   6
ENDBRANCH   3   5
ENDBRANCH   1   3
BRANCH   1  11
ATOM     11  C   UNL     1      12.099 -18.850 -28.860  1.00  0.00     0.087 C 
BRANCH  11  12
ATOM     12  C   UNL     1      11.868 -17.313 -28.738  1.00  0.00     0.066 C 
BRANCH  12  13
ATOM     13  C   UNL     1      10.638 -16.786 -29.493  1.00  0.00     0.140 C 
ATOM     14  O   UNL     1      10.222 -15.669 -29.215  1.00  0.00    -0.299 OA
BRANCH  13  15
ATOM     15  C   UNL     1       9.953 -17.511 -30.637  1.00  0.00     0.106 CG0
ATOM     16  G   UNL     1      10.266 -16.894 -31.983  1.00  0.00     0.000 G0
ENDBRANCH  13  15
ENDBRANCH  12  13
BRANCH  12  17
ATOM     17  C   UNL     1      11.872 -16.826 -27.248  1.00  0.00    -0.006 C 
ATOM     18  C   UNL     1      11.149 -17.781 -26.289  1.00  0.00     0.008 C 
ATOM     19  C   UNL     1      13.289 -16.522 -26.728  1.00  0.00     0.008 C 
ENDBRANCH  12  17
ENDBRANCH  11  12
ENDBRANCH   1  11
TORSDOF 1
ENDMDL
MODEL 5
REMARK VINA RESULT:    -4.435      1.848      4.299
REMARK INTER + INTRA:          -6.837
REMARK INTER:                  -6.725
REMARK INTRA:                  -0.112
REMARK UNBOUND:                -0.069
REMARK SMILES CC1=CCC[C@H](C)C(=O)C[C@H](C(C)C)C(=O)C1
REMARK SMILES IDX 8 1 9 2 6 3 7 4 5 5 4 6 3 7 2 8 1 9 10 11 11 12 15 13 16 14
REMARK SMILES IDX 17 15 12 17 13 18 14 19
REMARK H PARENT
REMARK Flexibility Score: 70.00
ROOT
ATOM      1  C   UNL     1      12.542 -16.194 -28.770  1.00  0.00     0.136 C 
ATOM      2  O   UNL     1      13.443 -15.750 -29.467  1.00  0.00    -0.299 OA
ENDROOT
BRANCH   1   3
ATOM      3  C   UNL     1      12.934 -17.002 -27.544  1.00  0.00     0.053 C 
ATOM      4  C   UNL     1      11.809 -17.261 -26.528  1.00  0.00     0.016 C 
BRANCH   3   5
ATOM      5  C   UNL     1      13.775 -18.247 -27.923  1.00  0.00     0.015 C 
BRANCH   5   6
ATOM      6  C   UNL     1      13.135 -19.398 -28.739  1.00  0.00     0.028 C 
BRANCH   6   7
ATOM      7  C   UNL     1      13.212 -19.362 -30.248  1.00  0.00    -0.028 C 
ATOM      8  C   UNL     1      12.172 -19.238 -31.100  1.00  0.00    -0.070 CG0
ATOM      9  C   UNL     1      12.482 -18.868 -32.529  1.00  0.00     0.039 C 
ATOM     10  G   UNL     1      10.726 -19.354 -30.667  1.00  0.00     0.000 G0
ENDBRANCH   6   7
ENDBRANCH   5   6
ENDBRANCH   3   5
ENDBRANCH   1   3
BRANCH   1  11
ATOM     11  C   UNL     1      11.114 -15.838 -29.120  1.00  0.00     0.087 C 
BRANCH  11  12
ATOM     12  C   UNL     1      10.536 -16.693 -30.290  1.00  0.00     0.066 C 
BRANCH  12  13
ATOM     13  C   UNL     1      10.205 -18.147 -29.919  1.00  0.00     0.140 C 
ATOM     14  O   UNL     1       9.408 -18.346 -29.011  1.00  0.00    -0.299 OA
BRANCH  13  15
ATOM     15  C   UNL     1      10.720 -19.365 -30.663  1.00  0.00     0.106 CG0
ATOM     16  G   UNL     1      12.165 -19.215 -31.088  1.00  0.00     0.000 G0
ENDBRANCH  13  15
ENDBRANCH  12  13
BRANCH  12  17
ATOM     17  C   UNL     1       9.325 -15.996 -30.997  1.00  0.00    -0.006 C 
ATOM     18  C   UNL     1       8.911 -14.671 -30.341  1.00  0.00     0.008 C 
ATOM     19  C   UNL     1       9.556 -15.792 -32.505  1.00  0.00     0.008 C 
ENDBRANCH  12  17
ENDBRANCH  11  12
ENDBRANCH   1  11
TORSDOF 1
ENDMDL
MODEL 6
REMARK VINA RESULT:    -4.295      2.033      3.762
REMARK INTER + INTRA:          -6.624
REMARK INTER:                  -6.724
REMARK INTRA:                   0.100
REMARK UNBOUND:                -0.069
REMARK SMILES CC1=CCC[C@H](C)C(=O)C[C@H](C(C)C)C(=O)C1
REMARK SMILES IDX 8 1 9 2 6 3 7 4 5 5 4 6 3 7 2 8 1 9 10 11 11 12 15 13 16 14
REMARK SMILES IDX 17 15 12 17 13 18 14 19
REMARK H PARENT
REMARK Flexibility Score: 70.00
ROOT
ATOM      1  C   UNL     1      10.232 -17.254 -29.620  1.00  0.00     0.136 C 
ATOM      2  O   UNL     1       9.676 -17.988 -28.814  1.00  0.00    -0.299 OA
ENDROOT
BRANCH   1   3
ATOM      3  C   UNL     1       9.701 -17.244 -31.044  1.00  0.00     0.053 C 
ATOM      4  C   UNL     1      10.207 -16.098 -31.936  1.00  0.00     0.016 C 
BRANCH   3   5
ATOM      5  C   UNL     1       9.761 -18.651 -31.689  1.00  0.00     0.015 C 
BRANCH   5   6
ATOM      6  C   UNL     1      11.130 -19.293 -32.029  1.00  0.00     0.028 C 
BRANCH   6   7
ATOM      7  C   UNL     1      11.825 -20.138 -30.987  1.00  0.00    -0.028 C 
ATOM      8  C   UNL     1      12.989 -19.848 -30.366  1.00  0.00    -0.070 CG0
ATOM      9  C   UNL     1      13.328 -20.629 -29.121  1.00  0.00     0.039 C 
ATOM     10  G   UNL     1      13.904 -18.725 -30.803  1.00  0.00     0.000 G0
ENDBRANCH   6   7
ENDBRANCH   5   6
ENDBRANCH   3   5
ENDBRANCH   1   3
BRANCH   1  11
ATOM     11  C   UNL     1      11.342 -16.351 -29.130  1.00  0.00     0.087 C 
BRANCH  11  12
ATOM     12  C   UNL     1      12.717 -17.076 -29.008  1.00  0.00     0.066 C 
BRANCH  12  13
ATOM     13  C   UNL     1      13.414 -17.360 -30.348  1.00  0.00     0.140 C 
ATOM     14  O   UNL     1      13.664 -16.414 -31.082  1.00  0.00    -0.299 OA
BRANCH  13  15
ATOM     15  C   UNL     1      13.906 -18.725 -30.791  1.00  0.00     0.106 CG0
ATOM     16  G   UNL     1      12.982 -19.843 -30.355  1.00  0.00     0.000 G0
ENDBRANCH  13  15
ENDBRANCH  12  13
BRANCH  12  17
ATOM     17  C   UNL     1      13.683 -16.359 -28.005  1.00  0.00    -0.006 C 
ATOM     18  C   UNL     1      13.860 -14.861 -28.288  1.00  0.00     0.008 C 
ATOM     19  C   UNL     1      13.281 -16.578 -26.536  1.00  0.00     0.008 C 
ENDBRANCH  12  17
ENDBRANCH  11  12
ENDBRANCH   1  11
TORSDOF 1
ENDMDL
MODEL 7
REMARK VINA RESULT:    -4.164      2.072      3.052
REMARK INTER + INTRA:          -6.423
REMARK INTER:                  -7.469
REMARK INTRA:                   1.046
REMARK UNBOUND:                -0.069
REMARK SMILES CC1=CCC[C@H](C)C(=O)C[C@H](C(C)C)C(=O)C1
REMARK SMILES IDX 8 1 9 2 6 3 7 4 5 5 4 6 3 7 2 8 1 9 10 11 11 12 15 13 16 14
REMARK SMILES IDX 17 15 12 17 13 18 14 19
REMARK H PARENT
REMARK Flexibility Score: 70.00
ROOT
ATOM      1  C   UNL     1      13.267 -16.952 -31.591  1.00  0.00     0.136 C 
ATOM      2  O   UNL     1      13.910 -17.898 -32.024  1.00  0.00    -0.299 OA
ENDROOT
BRANCH   1   3
ATOM      3  C   UNL     1      11.846 -16.775 -32.101  1.00  0.00     0.053 C 
ATOM      4  C   UNL     1      11.600 -17.211 -33.555  1.00  0.00     0.016 C 
BRANCH   3   5
ATOM      5  C   UNL     1      10.802 -17.288 -31.077  1.00  0.00     0.015 C 
BRANCH   5   6
ATOM      6  C   UNL     1      10.508 -18.805 -30.960  1.00  0.00     0.028 C 
BRANCH   6   7
ATOM      7  C   UNL     1      11.644 -19.753 -30.648  1.00  0.00    -0.028 C 
ATOM      8  C   UNL     1      12.362 -19.793 -29.505  1.00  0.00    -0.070 CG0
ATOM      9  C   UNL     1      13.198 -21.022 -29.250  1.00  0.00     0.039 C 
ATOM     10  G   UNL     1      12.289 -18.719 -28.442  1.00  0.00     0.000 G0
ENDBRANCH   6   7
ENDBRANCH   5   6
ENDBRANCH   3   5
ENDBRANCH   1   3
BRANCH   1  11
ATOM     11  C   UNL     1      13.891 -16.081 -30.523  1.00  0.00     0.087 C 
BRANCH  11  12
ATOM     12  C   UNL     1      13.261 -16.290 -29.112  1.00  0.00     0.066 C 
BRANCH  12  13
ATOM     13  C   UNL     1      13.417 -17.709 -28.544  1.00  0.00     0.140 C 
ATOM     14  O   UNL     1      14.498 -18.027 -28.069  1.00  0.00    -0.299 OA
BRANCH  13  15
ATOM     15  C   UNL     1      12.292 -18.722 -28.438  1.00  0.00     0.106 CG0
ATOM     16  G   UNL     1      12.379 -19.796 -29.502  1.00  0.00     0.000 G0
ENDBRANCH  13  15
ENDBRANCH  12  13
BRANCH  12  17
ATOM     17  C   UNL     1      13.734 -15.209 -28.082  1.00  0.00    -0.006 C 
ATOM     18  C   UNL     1      14.119 -15.792 -26.715  1.00  0.00     0.008 C 
ATOM     19  C   UNL     1      14.875 -14.331 -28.625  1.00  0.00     0.008 C 
ENDBRANCH  12  17
ENDBRANCH  11  12
ENDBRANCH   1  11
TORSDOF 1
ENDMDL
MODEL 8
REMARK VINA RESULT:    -4.102      2.194      4.212
REMARK INTER + INTRA:          -6.329
REMARK INTER:                  -6.570
REMARK INTRA:                   0.242
REMARK UNBOUND:                -0.069
REMARK SMILES CC1=CCC[C@H](C)C(=O)C[C@H](C(C)C)C(=O)C1
REMARK SMILES IDX 8 1 9 2 6 3 7 4 5 5 4 6 3 7 2 8 1 9 10 11 11 12 15 13 16 14
REMARK SMILES IDX 17 15 12 17 13 18 14 19
REMARK H PARENT
REMARK Flexibility Score: 70.00
ROOT
ATOM      1  C   UNL     1      12.066 -16.613 -29.254  1.00  0.00     0.136 C 
ATOM      2  O   UNL     1      12.193 -15.771 -28.377  1.00  0.00    -0.299 OA
ENDROOT
BRANCH   1   3
ATOM      3  C   UNL     1      13.333 -17.196 -29.858  1.00  0.00     0.053 C 
ATOM      4  C   UNL     1      13.422 -18.732 -29.868  1.00  0.00     0.016 C 
BRANCH   3   5
ATOM      5  C   UNL     1      13.697 -16.511 -31.199  1.00  0.00     0.015 C 
BRANCH   5   6
ATOM      6  C   UNL     1      13.676 -17.324 -32.519  1.00  0.00     0.028 C 
BRANCH   6   7
ATOM      7  C   UNL     1      12.786 -16.866 -33.651  1.00  0.00    -0.028 C 
ATOM      8  C   UNL     1      11.512 -17.252 -33.875  1.00  0.00    -0.070 CG0
ATOM      9  C   UNL     1      10.690 -16.425 -34.831  1.00  0.00     0.039 C 
ATOM     10  G   UNL     1      10.853 -18.402 -33.143  1.00  0.00     0.000 G0
ENDBRANCH   6   7
ENDBRANCH   5   6
ENDBRANCH   3   5
ENDBRANCH   1   3
BRANCH   1  11
ATOM     11  C   UNL     1      10.672 -17.078 -29.614  1.00  0.00     0.087 C 
BRANCH  11  12
ATOM     12  C   UNL     1      10.284 -16.773 -31.093  1.00  0.00     0.066 C 
BRANCH  12  13
ATOM     13  C   UNL     1      10.014 -18.015 -31.956  1.00  0.00     0.140 C 
ATOM     14  O   UNL     1       9.010 -18.674 -31.724  1.00  0.00    -0.299 OA
BRANCH  13  15
ATOM     15  C   UNL     1      10.855 -18.437 -33.147  1.00  0.00     0.106 CG0
ATOM     16  G   UNL     1      11.486 -17.257 -33.855  1.00  0.00     0.000 G0
ENDBRANCH  13  15
ENDBRANCH  12  13
BRANCH  12  17
ATOM     17  C   UNL     1       9.112 -15.740 -31.201  1.00  0.00    -0.006 C 
ATOM     18  C   UNL     1       8.931 -14.883 -29.940  1.00  0.00     0.008 C 
ATOM     19  C   UNL     1       9.228 -14.838 -32.443  1.00  0.00     0.008 C 
ENDBRANCH  12  17
ENDBRANCH  11  12
ENDBRANCH   1  11
TORSDOF 1
ENDMDL
MODEL 9
REMARK VINA RESULT:    -4.008      1.853      3.439
REMARK INTER + INTRA:          -6.186
REMARK INTER:                  -7.375
REMARK INTRA:                   1.189
REMARK UNBOUND:                -0.069
REMARK SMILES CC1=CCC[C@H](C)C(=O)C[C@H](C(C)C)C(=O)C1
REMARK SMILES IDX 8 1 9 2 6 3 7 4 5 5 4 6 3 7 2 8 1 9 10 11 11 12 15 13 16 14
REMARK SMILES IDX 17 15 12 17 13 18 14 19
REMARK H PARENT
REMARK Flexibility Score: 70.00
ROOT
ATOM      1  C   UNL     1      13.404 -17.370 -28.421  1.00  0.00     0.136 C 
ATOM      2  O   UNL     1      14.456 -17.963 -28.228  1.00  0.00    -0.299 OA
ENDROOT
BRANCH   1   3
ATOM      3  C   UNL     1      13.478 -16.005 -29.085  1.00  0.00     0.053 C 
ATOM      4  C   UNL     1      14.071 -14.876 -28.225  1.00  0.00     0.016 C 
BRANCH   3   5
ATOM      5  C   UNL     1      14.042 -16.097 -30.525  1.00  0.00     0.015 C 
BRANCH   5   6
ATOM      6  C   UNL     1      13.562 -17.221 -31.478  1.00  0.00     0.028 C 
BRANCH   6   7
ATOM      7  C   UNL     1      12.382 -16.962 -32.385  1.00  0.00    -0.028 C 
ATOM      8  C   UNL     1      11.091 -16.843 -32.007  1.00  0.00    -0.070 CG0
ATOM      9  C   UNL     1      10.127 -16.239 -32.997  1.00  0.00     0.039 C 
ATOM     10  G   UNL     1      10.599 -17.190 -30.618  1.00  0.00     0.000 G0
ENDBRANCH   6   7
ENDBRANCH   5   6
ENDBRANCH   3   5
ENDBRANCH   1   3
BRANCH   1  11
ATOM     11  C   UNL     1      12.107 -18.065 -28.070  1.00  0.00     0.087 C 
BRANCH  11  12
ATOM     12  C   UNL     1      11.690 -19.150 -29.110  1.00  0.00     0.066 C 
BRANCH  12  13
ATOM     13  C   UNL     1      10.778 -18.641 -30.238  1.00  0.00     0.140 C 
ATOM     14  O   UNL     1      10.088 -19.455 -30.836  1.00  0.00    -0.299 OA
BRANCH  13  15
ATOM     15  C   UNL     1      10.596 -17.180 -30.605  1.00  0.00     0.106 CG0
ATOM     16  G   UNL     1      11.078 -16.871 -32.006  1.00  0.00     0.000 G0
ENDBRANCH  13  15
ENDBRANCH  12  13
BRANCH  12  17
ATOM     17  C   UNL     1      12.920 -19.933 -29.682  1.00  0.00    -0.006 C 
ATOM     18  C   UNL     1      13.491 -20.973 -28.709  1.00  0.00     0.008 C 
ATOM     19  C   UNL     1      12.626 -20.586 -31.045  1.00  0.00     0.008 C 
ENDBRANCH  12  17
ENDBRANCH  11  12
ENDBRANCH   1  11
TORSDOF 1
ENDMDL
