MODEL 1
REMARK VINA RESULT:    -4.984      0.000      0.000
REMARK INTER + INTRA:          -7.176
REMARK INTER:                  -6.732
REMARK INTRA:                  -0.444
REMARK UNBOUND:                -0.444
REMARK SMILES CC(=O)CCC=C(C)CCC=C(C)C
REMARK SMILES IDX 7 1 6 2 8 3 9 4 10 5 11 6 13 7 12 8 14 9 5 10 4 11 2 12 3 13
REMARK SMILES IDX 1 14
REMARK H PARENT
REMARK Flexibility Score: inf
ROOT
ATOM      1  C   UNL     1      74.268  34.298  52.836  1.00  0.00    -0.077 C 
ATOM      2  C   UNL     1      73.830  33.442  53.788  1.00  0.00    -0.028 C 
ATOM      3  C   UNL     1      73.377  35.377  52.263  1.00  0.00     0.039 C 
ENDROOT
BRANCH   1   4
ATOM      4  C   UNL     1      75.683  34.160  52.313  1.00  0.00     0.034 C 
BRANCH   4   5
ATOM      5  C   UNL     1      76.298  35.520  51.956  1.00  0.00     0.032 C 
BRANCH   5   6
ATOM      6  C   UNL     1      77.320  35.398  50.849  1.00  0.00    -0.028 C 
ATOM      7  C   UNL     1      79.551  35.331  49.824  1.00  0.00     0.039 C 
ATOM      8  C   UNL     1      78.658  35.411  51.035  1.00  0.00    -0.080 C 
ATOM      9  C   UNL     1      79.275  35.483  52.412  1.00  0.00     0.039 C 
ENDBRANCH   5   6
ENDBRANCH   4   5
ENDBRANCH   1   4
BRANCH   2  10
ATOM     10  C   UNL     1      72.459  33.489  54.414  1.00  0.00     0.035 C 
BRANCH  10  11
ATOM     11  C   UNL     1      72.469  34.352  55.679  1.00  0.00     0.079 C 
BRANCH  11  12
ATOM     12  C   UNL     1      71.549  33.775  56.723  1.00  0.00     0.130 C 
ATOM     13  O   UNL     1      70.418  34.224  56.841  1.00  0.00    -0.300 OA
ATOM     14  C   UNL     1      71.994  32.669  57.633  1.00  0.00     0.087 C 
ENDBRANCH  11  12
ENDBRANCH  10  11
ENDBRANCH   2  10
TORSDOF 6
ENDMDL
MODEL 2
REMARK VINA RESULT:    -4.842      3.191      7.107
REMARK INTER + INTRA:          -6.985
REMARK INTER:                  -6.336
REMARK INTRA:                  -0.649
REMARK UNBOUND:                -0.444
REMARK SMILES CC(=O)CCC=C(C)CCC=C(C)C
REMARK SMILES IDX 7 1 6 2 8 3 9 4 10 5 11 6 13 7 12 8 14 9 5 10 4 11 2 12 3 13
REMARK SMILES IDX 1 14
REMARK H PARENT
REMARK Flexibility Score: inf
ROOT
ATOM      1  C   UNL     1      76.023  34.715  52.062  1.00  0.00    -0.077 C 
ATOM      2  C   UNL     1      77.280  34.455  51.633  1.00  0.00    -0.028 C 
ATOM      3  C   UNL     1      75.461  36.118  52.082  1.00  0.00     0.039 C 
ENDROOT
BRANCH   1   4
ATOM      4  C   UNL     1      75.161  33.570  52.554  1.00  0.00     0.034 C 
BRANCH   4   5
ATOM      5  C   UNL     1      73.667  33.924  52.524  1.00  0.00     0.032 C 
BRANCH   5   6
ATOM      6  C   UNL     1      72.958  33.458  53.774  1.00  0.00    -0.028 C 
ATOM      7  C   UNL     1      72.188  33.540  56.105  1.00  0.00     0.039 C 
ATOM      8  C   UNL     1      72.891  34.162  54.926  1.00  0.00    -0.080 C 
ATOM      9  C   UNL     1      73.479  35.547  55.054  1.00  0.00     0.039 C 
ENDBRANCH   5   6
ENDBRANCH   4   5
ENDBRANCH   1   4
BRANCH   2  10
ATOM     10  C   UNL     1      78.229  35.495  51.092  1.00  0.00     0.035 C 
BRANCH  10  11
ATOM     11  C   UNL     1      79.552  34.852  50.663  1.00  0.00     0.079 C 
BRANCH  11  12
ATOM     12  C   UNL     1      80.271  34.271  51.853  1.00  0.00     0.130 C 
ATOM     13  O   UNL     1      80.563  34.997  52.792  1.00  0.00    -0.300 OA
ATOM     14  C   UNL     1      80.649  32.820  51.906  1.00  0.00     0.087 C 
ENDBRANCH  11  12
ENDBRANCH  10  11
ENDBRANCH   2  10
TORSDOF 6
ENDMDL
MODEL 3
REMARK VINA RESULT:    -4.833      3.092      7.412
REMARK INTER + INTRA:          -6.973
REMARK INTER:                  -6.507
REMARK INTRA:                  -0.465
REMARK UNBOUND:                -0.444
REMARK SMILES CC(=O)CCC=C(C)CCC=C(C)C
REMARK SMILES IDX 7 1 6 2 8 3 9 4 10 5 11 6 13 7 12 8 14 9 5 10 4 11 2 12 3 13
REMARK SMILES IDX 1 14
REMARK H PARENT
REMARK Flexibility Score: inf
ROOT
ATOM      1  C   UNL     1      74.392  34.830  53.191  1.00  0.00    -0.077 C 
ATOM      2  C   UNL     1      75.463  34.784  52.366  1.00  0.00    -0.028 C 
ATOM      3  C   UNL     1      74.088  36.044  54.038  1.00  0.00     0.039 C 
ENDROOT
BRANCH   1   4
ATOM      4  C   UNL     1      73.481  33.623  53.285  1.00  0.00     0.034 C 
BRANCH   4   5
ATOM      5  C   UNL     1      72.344  33.839  54.295  1.00  0.00     0.032 C 
BRANCH   5   6
ATOM      6  C   UNL     1      72.612  33.125  55.599  1.00  0.00    -0.028 C 
ATOM      7  C   UNL     1      72.310  32.544  57.967  1.00  0.00     0.039 C 
ATOM      8  C   UNL     1      71.887  33.290  56.728  1.00  0.00    -0.080 C 
ATOM      9  C   UNL     1      70.668  34.179  56.773  1.00  0.00     0.039 C 
ENDBRANCH   5   6
ENDBRANCH   4   5
ENDBRANCH   1   4
BRANCH   2  10
ATOM     10  C   UNL     1      76.428  35.923  52.157  1.00  0.00     0.035 C 
BRANCH  10  11
ATOM     11  C   UNL     1      77.085  35.832  50.775  1.00  0.00     0.079 C 
BRANCH  11  12
ATOM     12  C   UNL     1      78.531  35.429  50.899  1.00  0.00     0.130 C 
ATOM     13  O   UNL     1      79.133  35.042  49.908  1.00  0.00    -0.300 OA
ATOM     14  C   UNL     1      79.247  35.477  52.216  1.00  0.00     0.087 C 
ENDBRANCH  11  12
ENDBRANCH  10  11
ENDBRANCH   2  10
TORSDOF 6
ENDMDL
MODEL 4
REMARK VINA RESULT:    -4.664      1.649      2.589
REMARK INTER + INTRA:          -6.744
REMARK INTER:                  -6.249
REMARK INTRA:                  -0.495
REMARK UNBOUND:                -0.444
REMARK SMILES CC(=O)CCC=C(C)CCC=C(C)C
REMARK SMILES IDX 7 1 6 2 8 3 9 4 10 5 11 6 13 7 12 8 14 9 5 10 4 11 2 12 3 13
REMARK SMILES IDX 1 14
REMARK H PARENT
REMARK Flexibility Score: inf
ROOT
ATOM      1  C   UNL     1      76.242  35.019  51.952  1.00  0.00    -0.077 C 
ATOM      2  C   UNL     1      75.013  35.456  52.313  1.00  0.00    -0.028 C 
ATOM      3  C   UNL     1      76.626  33.559  52.036  1.00  0.00     0.039 C 
ENDROOT
BRANCH   1   4
ATOM      4  C   UNL     1      77.269  36.022  51.469  1.00  0.00     0.034 C 
BRANCH   4   5
ATOM      5  C   UNL     1      78.705  35.530  51.703  1.00  0.00     0.032 C 
BRANCH   5   6
ATOM      6  C   UNL     1      79.348  35.055  50.421  1.00  0.00    -0.028 C 
ATOM      7  C   UNL     1      80.791  33.680  48.985  1.00  0.00     0.039 C 
ATOM      8  C   UNL     1      80.188  34.000  50.329  1.00  0.00    -0.080 C 
ATOM      9  C   UNL     1      80.518  33.133  51.519  1.00  0.00     0.039 C 
ENDBRANCH   5   6
ENDBRANCH   4   5
ENDBRANCH   1   4
BRANCH   2  10
ATOM     10  C   UNL     1      73.892  34.562  52.780  1.00  0.00     0.035 C 
BRANCH  10  11
ATOM     11  C   UNL     1      73.506  34.885  54.227  1.00  0.00     0.079 C 
BRANCH  11  12
ATOM     12  C   UNL     1      72.722  33.751  54.834  1.00  0.00     0.130 C 
ATOM     13  O   UNL     1      72.707  32.664  54.274  1.00  0.00    -0.300 OA
ATOM     14  C   UNL     1      71.948  33.929  56.106  1.00  0.00     0.087 C 
ENDBRANCH  11  12
ENDBRANCH  10  11
ENDBRANCH   2  10
TORSDOF 6
ENDMDL
MODEL 5
REMARK VINA RESULT:    -4.603      3.163      7.214
REMARK INTER + INTRA:          -6.661
REMARK INTER:                  -5.843
REMARK INTRA:                  -0.818
REMARK UNBOUND:                -0.444
REMARK SMILES CC(=O)CCC=C(C)CCC=C(C)C
REMARK SMILES IDX 7 1 6 2 8 3 9 4 10 5 11 6 13 7 12 8 14 9 5 10 4 11 2 12 3 13
REMARK SMILES IDX 1 14
REMARK H PARENT
REMARK Flexibility Score: inf
ROOT
ATOM      1  C   UNL     1      76.588  35.207  51.924  1.00  0.00    -0.077 C 
ATOM      2  C   UNL     1      77.443  35.913  51.149  1.00  0.00    -0.028 C 
ATOM      3  C   UNL     1      76.628  33.698  51.987  1.00  0.00     0.039 C 
ENDROOT
BRANCH   1   4
ATOM      4  C   UNL     1      75.546  35.949  52.738  1.00  0.00     0.034 C 
BRANCH   4   5
ATOM      5  C   UNL     1      74.179  35.252  52.690  1.00  0.00     0.032 C 
BRANCH   5   6
ATOM      6  C   UNL     1      73.506  35.248  54.043  1.00  0.00    -0.028 C 
ATOM      7  C   UNL     1      72.346  34.307  55.993  1.00  0.00     0.039 C 
ATOM      8  C   UNL     1      73.040  34.142  54.665  1.00  0.00    -0.080 C 
ATOM      9  C   UNL     1      73.211  32.761  54.080  1.00  0.00     0.039 C 
ENDBRANCH   5   6
ENDBRANCH   4   5
ENDBRANCH   1   4
BRANCH   2  10
ATOM     10  C   UNL     1      78.542  35.303  50.317  1.00  0.00     0.035 C 
BRANCH  10  11
ATOM     11  C   UNL     1      79.918  35.647  50.897  1.00  0.00     0.079 C 
BRANCH  11  12
ATOM     12  C   UNL     1      80.330  34.627  51.927  1.00  0.00     0.130 C 
ATOM     13  O   UNL     1      80.666  35.002  53.041  1.00  0.00    -0.300 OA
ATOM     14  C   UNL     1      80.352  33.161  51.611  1.00  0.00     0.087 C 
ENDBRANCH  11  12
ENDBRANCH  10  11
ENDBRANCH   2  10
TORSDOF 6
ENDMDL
MODEL 6
REMARK VINA RESULT:    -4.159     16.075     18.059
REMARK INTER + INTRA:          -6.062
REMARK INTER:                  -5.386
REMARK INTRA:                  -0.676
REMARK UNBOUND:                -0.444
REMARK SMILES CC(=O)CCC=C(C)CCC=C(C)C
REMARK SMILES IDX 7 1 6 2 8 3 9 4 10 5 11 6 13 7 12 8 14 9 5 10 4 11 2 12 3 13
REMARK SMILES IDX 1 14
REMARK H PARENT
REMARK Flexibility Score: inf
ROOT
ATOM      1  C   UNL     1      87.650  30.867  65.205  1.00  0.00    -0.077 C 
ATOM      2  C   UNL     1      87.800  29.834  64.344  1.00  0.00    -0.028 C 
ATOM      3  C   UNL     1      87.735  30.677  66.702  1.00  0.00     0.039 C 
ENDROOT
BRANCH   1   4
ATOM      4  C   UNL     1      87.370  32.251  64.655  1.00  0.00     0.034 C 
BRANCH   4   5
ATOM      5  C   UNL     1      85.920  32.686  64.910  1.00  0.00     0.032 C 
BRANCH   5   6
ATOM      6  C   UNL     1      84.932  31.658  64.411  1.00  0.00    -0.028 C 
ATOM      7  C   UNL     1      83.063  30.068  64.530  1.00  0.00     0.039 C 
ATOM      8  C   UNL     1      83.938  31.124  65.155  1.00  0.00    -0.080 C 
ATOM      9  C   UNL     1      83.674  31.566  66.574  1.00  0.00     0.039 C 
ENDBRANCH   5   6
ENDBRANCH   4   5
ENDBRANCH   1   4
BRANCH   2  10
ATOM     10  C   UNL     1      88.111  28.417  64.757  1.00  0.00     0.035 C 
BRANCH  10  11
ATOM     11  C   UNL     1      88.122  27.487  63.540  1.00  0.00     0.079 C 
BRANCH  11  12
ATOM     12  C   UNL     1      88.047  26.046  63.972  1.00  0.00     0.130 C 
ATOM     13  O   UNL     1      88.006  25.778  65.164  1.00  0.00    -0.300 OA
ATOM     14  C   UNL     1      88.035  24.929  62.971  1.00  0.00     0.087 C 
ENDBRANCH  11  12
ENDBRANCH  10  11
ENDBRANCH   2  10
TORSDOF 6
ENDMDL
MODEL 7
REMARK VINA RESULT:    -4.111      1.452      2.384
REMARK INTER + INTRA:          -5.997
REMARK INTER:                  -5.517
REMARK INTRA:                  -0.480
REMARK UNBOUND:                -0.444
REMARK SMILES CC(=O)CCC=C(C)CCC=C(C)C
REMARK SMILES IDX 7 1 6 2 8 3 9 4 10 5 11 6 13 7 12 8 14 9 5 10 4 11 2 12 3 13
REMARK SMILES IDX 1 14
REMARK H PARENT
REMARK Flexibility Score: inf
ROOT
ATOM      1  C   UNL     1      75.632  34.620  52.094  1.00  0.00    -0.077 C 
ATOM      2  C   UNL     1      74.661  33.759  52.477  1.00  0.00    -0.028 C 
ATOM      3  C   UNL     1      75.355  36.089  51.876  1.00  0.00     0.039 C 
ENDROOT
BRANCH   1   4
ATOM      4  C   UNL     1      77.033  34.093  51.858  1.00  0.00     0.034 C 
BRANCH   4   5
ATOM      5  C   UNL     1      77.950  35.160  51.242  1.00  0.00     0.032 C 
BRANCH   5   6
ATOM      6  C   UNL     1      79.126  35.471  52.138  1.00  0.00    -0.028 C 
ATOM      7  C   UNL     1      81.281  35.098  53.257  1.00  0.00     0.039 C 
ATOM      8  C   UNL     1      80.210  34.676  52.285  1.00  0.00    -0.080 C 
ATOM      9  C   UNL     1      80.380  33.400  51.496  1.00  0.00     0.039 C 
ENDBRANCH   5   6
ENDBRANCH   4   5
ENDBRANCH   1   4
BRANCH   2  10
ATOM     10  C   UNL     1      73.237  34.155  52.774  1.00  0.00     0.035 C 
BRANCH  10  11
ATOM     11  C   UNL     1      72.739  33.476  54.054  1.00  0.00     0.079 C 
BRANCH  11  12
ATOM     12  C   UNL     1      72.819  34.422  55.224  1.00  0.00     0.130 C 
ATOM     13  O   UNL     1      72.372  34.075  56.308  1.00  0.00    -0.300 OA
ATOM     14  C   UNL     1      73.424  35.787  55.086  1.00  0.00     0.087 C 
ENDBRANCH  11  12
ENDBRANCH  10  11
ENDBRANCH   2  10
TORSDOF 6
ENDMDL
MODEL 8
REMARK VINA RESULT:    -3.729      3.725      7.162
REMARK INTER + INTRA:          -5.480
REMARK INTER:                  -4.630
REMARK INTRA:                  -0.851
REMARK UNBOUND:                -0.444
REMARK SMILES CC(=O)CCC=C(C)CCC=C(C)C
REMARK SMILES IDX 7 1 6 2 8 3 9 4 10 5 11 6 13 7 12 8 14 9 5 10 4 11 2 12 3 13
REMARK SMILES IDX 1 14
REMARK H PARENT
REMARK Flexibility Score: inf
ROOT
ATOM      1  C   UNL     1      78.685  35.756  52.034  1.00  0.00    -0.077 C 
ATOM      2  C   UNL     1      78.860  35.144  50.839  1.00  0.00    -0.028 C 
ATOM      3  C   UNL     1      79.848  36.063  52.950  1.00  0.00     0.039 C 
ENDROOT
BRANCH   1   4
ATOM      4  C   UNL     1      77.284  36.125  52.476  1.00  0.00     0.034 C 
BRANCH   4   5
ATOM      5  C   UNL     1      76.218  35.580  51.515  1.00  0.00     0.032 C 
BRANCH   5   6
ATOM      6  C   UNL     1      74.924  35.272  52.232  1.00  0.00    -0.028 C 
ATOM      7  C   UNL     1      73.246  33.900  53.387  1.00  0.00     0.039 C 
ATOM      8  C   UNL     1      74.598  34.064  52.743  1.00  0.00    -0.080 C 
ATOM      9  C   UNL     1      75.551  32.894  52.702  1.00  0.00     0.039 C 
ENDBRANCH   5   6
ENDBRANCH   4   5
ENDBRANCH   1   4
BRANCH   2  10
ATOM     10  C   UNL     1      80.199  34.752  50.268  1.00  0.00     0.035 C 
BRANCH  10  11
ATOM     11  C   UNL     1      80.385  33.232  50.312  1.00  0.00     0.079 C 
BRANCH  11  12
ATOM     12  C   UNL     1      80.510  32.752  51.735  1.00  0.00     0.130 C 
ATOM     13  O   UNL     1      81.466  33.111  52.407  1.00  0.00    -0.300 OA
ATOM     14  C   UNL     1      79.494  31.831  52.342  1.00  0.00     0.087 C 
ENDBRANCH  11  12
ENDBRANCH  10  11
ENDBRANCH   2  10
TORSDOF 6
ENDMDL
MODEL 9
REMARK VINA RESULT:    -3.397     16.335     18.340
REMARK INTER + INTRA:          -5.032
REMARK INTER:                  -4.555
REMARK INTRA:                  -0.477
REMARK UNBOUND:                -0.444
REMARK SMILES CC(=O)CCC=C(C)CCC=C(C)C
REMARK SMILES IDX 7 1 6 2 8 3 9 4 10 5 11 6 13 7 12 8 14 9 5 10 4 11 2 12 3 13
REMARK SMILES IDX 1 14
REMARK H PARENT
REMARK Flexibility Score: inf
ROOT
ATOM      1  C   UNL     1      87.059  28.945  64.850  1.00  0.00    -0.077 C 
ATOM      2  C   UNL     1      88.034  28.061  64.538  1.00  0.00    -0.028 C 
ATOM      3  C   UNL     1      85.596  28.572  64.793  1.00  0.00     0.039 C 
ENDROOT
BRANCH   1   4
ATOM      4  C   UNL     1      87.443  30.356  65.247  1.00  0.00     0.034 C 
BRANCH   4   5
ATOM      5  C   UNL     1      86.268  31.334  65.097  1.00  0.00     0.032 C 
BRANCH   5   6
ATOM      6  C   UNL     1      85.609  31.623  66.426  1.00  0.00    -0.028 C 
ATOM      7  C   UNL     1      83.766  31.973  68.012  1.00  0.00     0.039 C 
ATOM      8  C   UNL     1      84.275  31.612  66.640  1.00  0.00    -0.080 C 
ATOM      9  C   UNL     1      83.293  31.235  65.556  1.00  0.00     0.039 C 
ENDBRANCH   5   6
ENDBRANCH   4   5
ENDBRANCH   1   4
BRANCH   2  10
ATOM     10  C   UNL     1      87.792  26.622  64.158  1.00  0.00     0.035 C 
BRANCH  10  11
ATOM     11  C   UNL     1      88.125  26.387  62.681  1.00  0.00     0.079 C 
BRANCH  11  12
ATOM     12  C   UNL     1      87.894  24.946  62.307  1.00  0.00     0.130 C 
ATOM     13  O   UNL     1      87.875  24.093  63.183  1.00  0.00    -0.300 OA
ATOM     14  C   UNL     1      87.698  24.530  60.879  1.00  0.00     0.087 C 
ENDBRANCH  11  12
ENDBRANCH  10  11
ENDBRANCH   2  10
TORSDOF 6
ENDMDL
