MODEL 1
REMARK VINA RESULT:    -5.373      0.000      0.000
REMARK INTER + INTRA:         -11.244
REMARK INTER:                  -9.456
REMARK INTRA:                  -1.787
REMARK UNBOUND:                -1.787
REMARK SMILES CCCCCCCCCCCCCCC(=O)[O-]
REMARK SMILES IDX 9 1 10 2 11 3 12 4 13 5 14 6 15 7 16 8 17 9 8 10 7 11 6 12
REMARK SMILES IDX 5 13 4 14 3 15 2 16 1 17
REMARK H PARENT
REMARK Flexibility Score: inf
ROOT
ATOM      1  C   UNL     1      14.139  23.104  17.514  1.00  0.00     0.000 C 
ENDROOT
BRANCH   1   2
ATOM      2  C   UNL     1      14.867  22.545  16.281  1.00  0.00     0.000 C 
BRANCH   2   3
ATOM      3  C   UNL     1      13.907  22.229  15.121  1.00  0.00     0.000 C 
BRANCH   3   4
ATOM      4  C   UNL     1      14.567  21.376  14.025  1.00  0.00     0.000 C 
BRANCH   4   5
ATOM      5  C   UNL     1      15.672  22.133  13.268  1.00  0.00     0.006 C 
BRANCH   5   6
ATOM      6  C   UNL     1      15.750  21.717  11.794  1.00  0.00     0.053 C 
BRANCH   6   7
ATOM      7  C   UNL     1      17.009  20.960  11.498  1.00  0.00     0.041 C 
ATOM      8  O   UNL     1      17.584  21.096  10.387  1.00  0.00    -0.550 OA
ATOM      9  O   UNL     1      17.527  20.079  12.438  1.00  0.00    -0.550 OA
ENDBRANCH   6   7
ENDBRANCH   5   6
ENDBRANCH   4   5
ENDBRANCH   3   4
ENDBRANCH   2   3
ENDBRANCH   1   2
BRANCH   1  10
ATOM     10  C   UNL     1      14.269  22.194  18.745  1.00  0.00     0.000 C 
BRANCH  10  11
ATOM     11  C   UNL     1      13.927  20.740  18.389  1.00  0.00    -0.000 C 
BRANCH  11  12
ATOM     12  C   UNL     1      14.914  19.727  18.996  1.00  0.00    -0.000 C 
BRANCH  12  13
ATOM     13  C   UNL     1      16.189  20.345  19.604  1.00  0.00    -0.000 C 
BRANCH  13  14
ATOM     14  C   UNL     1      17.481  20.097  18.801  1.00  0.00    -0.000 C 
BRANCH  14  15
ATOM     15  C   UNL     1      17.660  20.993  17.559  1.00  0.00    -0.000 C 
BRANCH  15  16
ATOM     16  C   UNL     1      17.936  20.235  16.249  1.00  0.00    -0.003 C 
ATOM     17  C   UNL     1      16.821  19.256  15.882  1.00  0.00     0.004 C 
ENDBRANCH  15  16
ENDBRANCH  14  15
ENDBRANCH  13  14
ENDBRANCH  12  13
ENDBRANCH  11  12
ENDBRANCH  10  11
ENDBRANCH   1  10
TORSDOF 13
ENDMDL
MODEL 2
REMARK VINA RESULT:    -5.323      2.788      6.655
REMARK INTER + INTRA:         -11.156
REMARK INTER:                  -9.615
REMARK INTRA:                  -1.540
REMARK UNBOUND:                -1.787
REMARK SMILES CCCCCCCCCCCCCCC(=O)[O-]
REMARK SMILES IDX 9 1 10 2 11 3 12 4 13 5 14 6 15 7 16 8 17 9 8 10 7 11 6 12
REMARK SMILES IDX 5 13 4 14 3 15 2 16 1 17
REMARK H PARENT
REMARK Flexibility Score: inf
ROOT
ATOM      1  C   UNL     1      19.403  19.159  15.005  1.00  0.00     0.000 C 
ENDROOT
BRANCH   1   2
ATOM      2  C   UNL     1      19.511  18.478  16.380  1.00  0.00     0.000 C 
BRANCH   2   3
ATOM      3  C   UNL     1      18.406  17.434  16.610  1.00  0.00     0.000 C 
BRANCH   3   4
ATOM      4  C   UNL     1      17.647  17.658  17.928  1.00  0.00     0.000 C 
BRANCH   4   5
ATOM      5  C   UNL     1      16.146  17.918  17.712  1.00  0.00     0.006 C 
BRANCH   5   6
ATOM      6  C   UNL     1      15.856  19.388  17.382  1.00  0.00     0.053 C 
BRANCH   6   7
ATOM      7  C   UNL     1      16.644  20.317  18.255  1.00  0.00     0.041 C 
ATOM      8  O   UNL     1      16.378  20.412  19.481  1.00  0.00    -0.550 OA
ATOM      9  O   UNL     1      17.649  21.103  17.705  1.00  0.00    -0.550 OA
ENDBRANCH   6   7
ENDBRANCH   5   6
ENDBRANCH   4   5
ENDBRANCH   3   4
ENDBRANCH   2   3
ENDBRANCH   1   2
BRANCH   1  10
ATOM     10  C   UNL     1      17.977  19.125  14.436  1.00  0.00     0.000 C 
BRANCH  10  11
ATOM     11  C   UNL     1      18.000  18.901  12.917  1.00  0.00    -0.000 C 
BRANCH  11  12
ATOM     12  C   UNL     1      18.202  20.205  12.123  1.00  0.00    -0.000 C 
BRANCH  12  13
ATOM     13  C   UNL     1      17.192  20.434  10.980  1.00  0.00    -0.000 C 
BRANCH  13  14
ATOM     14  C   UNL     1      16.133  21.520  11.254  1.00  0.00    -0.000 C 
BRANCH  14  15
ATOM     15  C   UNL     1      15.339  21.340  12.564  1.00  0.00    -0.000 C 
BRANCH  15  16
ATOM     16  C   UNL     1      15.369  22.554  13.509  1.00  0.00    -0.003 C 
ATOM     17  C   UNL     1      15.466  22.160  14.983  1.00  0.00     0.004 C 
ENDBRANCH  15  16
ENDBRANCH  14  15
ENDBRANCH  13  14
ENDBRANCH  12  13
ENDBRANCH  11  12
ENDBRANCH  10  11
ENDBRANCH   1  10
TORSDOF 13
ENDMDL
MODEL 3
REMARK VINA RESULT:    -5.255      2.725      5.723
REMARK INTER + INTRA:         -11.036
REMARK INTER:                  -9.253
REMARK INTRA:                  -1.783
REMARK UNBOUND:                -1.787
REMARK SMILES CCCCCCCCCCCCCCC(=O)[O-]
REMARK SMILES IDX 9 1 10 2 11 3 12 4 13 5 14 6 15 7 16 8 17 9 8 10 7 11 6 12
REMARK SMILES IDX 5 13 4 14 3 15 2 16 1 17
REMARK H PARENT
REMARK Flexibility Score: inf
ROOT
ATOM      1  C   UNL     1      14.635  21.243  13.535  1.00  0.00     0.000 C 
ENDROOT
BRANCH   1   2
ATOM      2  C   UNL     1      14.185  21.872  14.864  1.00  0.00     0.000 C 
BRANCH   2   3
ATOM      3  C   UNL     1      15.369  22.362  15.716  1.00  0.00     0.000 C 
BRANCH   3   4
ATOM      4  C   UNL     1      14.917  23.033  17.024  1.00  0.00     0.000 C 
BRANCH   4   5
ATOM      5  C   UNL     1      13.960  22.150  17.843  1.00  0.00     0.006 C 
BRANCH   5   6
ATOM      6  C   UNL     1      14.630  21.587  19.103  1.00  0.00     0.053 C 
BRANCH   6   7
ATOM      7  C   UNL     1      15.412  20.343  18.806  1.00  0.00     0.041 C 
ATOM      8  O   UNL     1      16.614  20.250  19.166  1.00  0.00    -0.550 OA
ATOM      9  O   UNL     1      14.820  19.303  18.103  1.00  0.00    -0.550 OA
ENDBRANCH   6   7
ENDBRANCH   5   6
ENDBRANCH   4   5
ENDBRANCH   3   4
ENDBRANCH   2   3
ENDBRANCH   1   2
BRANCH   1  10
ATOM     10  C   UNL     1      15.706  22.076  12.815  1.00  0.00     0.000 C 
BRANCH  10  11
ATOM     11  C   UNL     1      15.987  21.514  11.414  1.00  0.00    -0.000 C 
BRANCH  11  12
ATOM     12  C   UNL     1      16.912  20.284  11.436  1.00  0.00    -0.000 C 
BRANCH  12  13
ATOM     13  C   UNL     1      18.265  20.501  12.144  1.00  0.00    -0.000 C 
BRANCH  13  14
ATOM     14  C   UNL     1      18.569  19.513  13.288  1.00  0.00    -0.000 C 
BRANCH  14  15
ATOM     15  C   UNL     1      17.327  18.939  14.001  1.00  0.00    -0.000 C 
BRANCH  15  16
ATOM     16  C   UNL     1      17.202  19.318  15.486  1.00  0.00    -0.003 C 
ATOM     17  C   UNL     1      18.400  20.115  16.001  1.00  0.00     0.004 C 
ENDBRANCH  15  16
ENDBRANCH  14  15
ENDBRANCH  13  14
ENDBRANCH  12  13
ENDBRANCH  11  12
ENDBRANCH  10  11
ENDBRANCH   1  10
TORSDOF 13
ENDMDL
MODEL 4
REMARK VINA RESULT:    -5.244      2.640      5.642
REMARK INTER + INTRA:         -11.016
REMARK INTER:                  -9.517
REMARK INTRA:                  -1.500
REMARK UNBOUND:                -1.787
REMARK SMILES CCCCCCCCCCCCCCC(=O)[O-]
REMARK SMILES IDX 9 1 10 2 11 3 12 4 13 5 14 6 15 7 16 8 17 9 8 10 7 11 6 12
REMARK SMILES IDX 5 13 4 14 3 15 2 16 1 17
REMARK H PARENT
REMARK Flexibility Score: inf
ROOT
ATOM      1  C   UNL     1      15.615  22.398  16.346  1.00  0.00     0.000 C 
ENDROOT
BRANCH   1   2
ATOM      2  C   UNL     1      14.695  23.040  17.398  1.00  0.00     0.000 C 
BRANCH   2   3
ATOM      3  C   UNL     1      13.983  21.997  18.275  1.00  0.00     0.000 C 
BRANCH   3   4
ATOM      4  C   UNL     1      14.596  21.890  19.681  1.00  0.00     0.000 C 
BRANCH   4   5
ATOM      5  C   UNL     1      15.172  20.494  19.973  1.00  0.00     0.006 C 
BRANCH   5   6
ATOM      6  C   UNL     1      16.528  20.275  19.290  1.00  0.00     0.053 C 
BRANCH   6   7
ATOM      7  C   UNL     1      16.492  19.110  18.347  1.00  0.00     0.041 C 
ATOM      8  O   UNL     1      17.563  18.580  17.953  1.00  0.00    -0.550 OA
ATOM      9  O   UNL     1      15.274  18.634  17.878  1.00  0.00    -0.550 OA
ENDBRANCH   6   7
ENDBRANCH   5   6
ENDBRANCH   4   5
ENDBRANCH   3   4
ENDBRANCH   2   3
ENDBRANCH   1   2
BRANCH   1  10
ATOM     10  C   UNL     1      14.925  21.275  15.559  1.00  0.00     0.000 C 
BRANCH  10  11
ATOM     11  C   UNL     1      14.371  21.799  14.227  1.00  0.00    -0.000 C 
BRANCH  11  12
ATOM     12  C   UNL     1      15.465  22.366  13.305  1.00  0.00    -0.000 C 
BRANCH  12  13
ATOM     13  C   UNL     1      15.636  21.624  11.964  1.00  0.00    -0.000 C 
BRANCH  13  14
ATOM     14  C   UNL     1      17.096  21.429  11.508  1.00  0.00    -0.000 C 
BRANCH  14  15
ATOM     15  C   UNL     1      17.644  19.996  11.671  1.00  0.00    -0.000 C 
BRANCH  15  16
ATOM     16  C   UNL     1      18.401  19.740  12.986  1.00  0.00    -0.003 C 
ATOM     17  C   UNL     1      17.510  19.159  14.083  1.00  0.00     0.004 C 
ENDBRANCH  15  16
ENDBRANCH  14  15
ENDBRANCH  13  14
ENDBRANCH  12  13
ENDBRANCH  11  12
ENDBRANCH  10  11
ENDBRANCH   1  10
TORSDOF 13
ENDMDL
MODEL 5
REMARK VINA RESULT:    -5.210      1.374      4.419
REMARK INTER + INTRA:         -10.956
REMARK INTER:                  -9.285
REMARK INTRA:                  -1.672
REMARK UNBOUND:                -1.787
REMARK SMILES CCCCCCCCCCCCCCC(=O)[O-]
REMARK SMILES IDX 9 1 10 2 11 3 12 4 13 5 14 6 15 7 16 8 17 9 8 10 7 11 6 12
REMARK SMILES IDX 5 13 4 14 3 15 2 16 1 17
REMARK H PARENT
REMARK Flexibility Score: inf
ROOT
ATOM      1  C   UNL     1      14.497  20.995  18.789  1.00  0.00     0.000 C 
ENDROOT
BRANCH   1   2
ATOM      2  C   UNL     1      15.869  20.636  19.384  1.00  0.00     0.000 C 
BRANCH   2   3
ATOM      3  C   UNL     1      16.645  19.633  18.515  1.00  0.00     0.000 C 
BRANCH   3   4
ATOM      4  C   UNL     1      15.829  19.142  17.307  1.00  0.00     0.000 C 
BRANCH   4   5
ATOM      5  C   UNL     1      16.662  19.074  16.016  1.00  0.00     0.006 C 
BRANCH   5   6
ATOM      6  C   UNL     1      17.752  20.152  15.974  1.00  0.00     0.053 C 
BRANCH   6   7
ATOM      7  C   UNL     1      18.946  19.702  15.188  1.00  0.00     0.041 C 
ATOM      8  O   UNL     1      20.092  19.722  15.709  1.00  0.00    -0.550 OA
ATOM      9  O   UNL     1      18.796  19.294  13.869  1.00  0.00    -0.550 OA
ENDBRANCH   6   7
ENDBRANCH   5   6
ENDBRANCH   4   5
ENDBRANCH   3   4
ENDBRANCH   2   3
ENDBRANCH   1   2
BRANCH   1  10
ATOM     10  C   UNL     1      14.228  22.508  18.787  1.00  0.00     0.000 C 
BRANCH  10  11
ATOM     11  C   UNL     1      13.905  23.005  17.371  1.00  0.00    -0.000 C 
BRANCH  11  12
ATOM     12  C   UNL     1      14.979  22.613  16.340  1.00  0.00    -0.000 C 
BRANCH  12  13
ATOM     13  C   UNL     1      14.439  21.945  15.059  1.00  0.00    -0.000 C 
BRANCH  13  14
ATOM     14  C   UNL     1      15.180  22.326  13.762  1.00  0.00    -0.000 C 
BRANCH  14  15
ATOM     15  C   UNL     1      15.453  21.153  12.798  1.00  0.00    -0.000 C 
BRANCH  15  16
ATOM     16  C   UNL     1      15.951  21.567  11.403  1.00  0.00    -0.003 C 
ATOM     17  C   UNL     1      17.452  21.346  11.216  1.00  0.00     0.004 C 
ENDBRANCH  15  16
ENDBRANCH  14  15
ENDBRANCH  13  14
ENDBRANCH  12  13
ENDBRANCH  11  12
ENDBRANCH  10  11
ENDBRANCH   1  10
TORSDOF 13
ENDMDL
MODEL 6
REMARK VINA RESULT:    -5.189      3.258      5.866
REMARK INTER + INTRA:         -10.921
REMARK INTER:                  -9.232
REMARK INTRA:                  -1.689
REMARK UNBOUND:                -1.787
REMARK SMILES CCCCCCCCCCCCCCC(=O)[O-]
REMARK SMILES IDX 9 1 10 2 11 3 12 4 13 5 14 6 15 7 16 8 17 9 8 10 7 11 6 12
REMARK SMILES IDX 5 13 4 14 3 15 2 16 1 17
REMARK H PARENT
REMARK Flexibility Score: inf
ROOT
ATOM      1  C   UNL     1      15.949  21.891  12.159  1.00  0.00     0.000 C 
ENDROOT
BRANCH   1   2
ATOM      2  C   UNL     1      15.038  21.382  13.288  1.00  0.00     0.000 C 
BRANCH   2   3
ATOM      3  C   UNL     1      15.102  22.268  14.543  1.00  0.00     0.000 C 
BRANCH   3   4
ATOM      4  C   UNL     1      14.318  21.675  15.725  1.00  0.00     0.000 C 
BRANCH   4   5
ATOM      5  C   UNL     1      15.055  21.835  17.066  1.00  0.00     0.006 C 
BRANCH   5   6
ATOM      6  C   UNL     1      14.624  20.779  18.092  1.00  0.00     0.053 C 
BRANCH   6   7
ATOM      7  C   UNL     1      15.172  21.075  19.455  1.00  0.00     0.041 C 
ATOM      8  O   UNL     1      16.092  20.363  19.936  1.00  0.00    -0.550 OA
ATOM      9  O   UNL     1      14.642  22.116  20.206  1.00  0.00    -0.550 OA
ENDBRANCH   6   7
ENDBRANCH   5   6
ENDBRANCH   4   5
ENDBRANCH   3   4
ENDBRANCH   2   3
ENDBRANCH   1   2
BRANCH   1  10
ATOM     10  C   UNL     1      16.503  20.756  11.284  1.00  0.00     0.000 C 
BRANCH  10  11
ATOM     11  C   UNL     1      17.930  20.382  11.711  1.00  0.00    -0.000 C 
BRANCH  11  12
ATOM     12  C   UNL     1      17.969  19.194  12.689  1.00  0.00    -0.000 C 
BRANCH  12  13
ATOM     13  C   UNL     1      18.740  19.454  13.999  1.00  0.00    -0.000 C 
BRANCH  13  14
ATOM     14  C   UNL     1      17.871  19.914  15.187  1.00  0.00    -0.000 C 
BRANCH  14  15
ATOM     15  C   UNL     1      16.855  18.871  15.695  1.00  0.00    -0.000 C 
BRANCH  15  16
ATOM     16  C   UNL     1      17.159  18.299  17.090  1.00  0.00    -0.003 C 
ATOM     17  C   UNL     1      18.004  17.026  17.042  1.00  0.00     0.004 C 
ENDBRANCH  15  16
ENDBRANCH  14  15
ENDBRANCH  13  14
ENDBRANCH  12  13
ENDBRANCH  11  12
ENDBRANCH  10  11
ENDBRANCH   1  10
TORSDOF 13
ENDMDL
MODEL 7
REMARK VINA RESULT:    -5.174      1.236      2.682
REMARK INTER + INTRA:         -10.893
REMARK INTER:                  -9.262
REMARK INTRA:                  -1.632
REMARK UNBOUND:                -1.787
REMARK SMILES CCCCCCCCCCCCCCC(=O)[O-]
REMARK SMILES IDX 9 1 10 2 11 3 12 4 13 5 14 6 15 7 16 8 17 9 8 10 7 11 6 12
REMARK SMILES IDX 5 13 4 14 3 15 2 16 1 17
REMARK H PARENT
REMARK Flexibility Score: inf
ROOT
ATOM      1  C   UNL     1      15.038  22.244  15.177  1.00  0.00     0.000 C 
ENDROOT
BRANCH   1   2
ATOM      2  C   UNL     1      15.385  20.783  14.847  1.00  0.00     0.000 C 
BRANCH   2   3
ATOM      3  C   UNL     1      16.898  20.556  14.689  1.00  0.00     0.000 C 
BRANCH   3   4
ATOM      4  C   UNL     1      17.238  19.117  14.265  1.00  0.00     0.000 C 
BRANCH   4   5
ATOM      5  C   UNL     1      17.796  19.037  12.833  1.00  0.00     0.006 C 
BRANCH   5   6
ATOM      6  C   UNL     1      18.057  20.426  12.237  1.00  0.00     0.053 C 
BRANCH   6   7
ATOM      7  C   UNL     1      17.174  20.697  11.056  1.00  0.00     0.041 C 
ATOM      8  O   UNL     1      17.642  20.638   9.889  1.00  0.00    -0.550 OA
ATOM      9  O   UNL     1      15.845  21.048  11.250  1.00  0.00    -0.550 OA
ENDBRANCH   6   7
ENDBRANCH   5   6
ENDBRANCH   4   5
ENDBRANCH   3   4
ENDBRANCH   2   3
ENDBRANCH   1   2
BRANCH   1  10
ATOM     10  C   UNL     1      15.435  22.640  16.607  1.00  0.00     0.000 C 
BRANCH  10  11
ATOM     11  C   UNL     1      14.227  23.191  17.378  1.00  0.00    -0.000 C 
BRANCH  11  12
ATOM     12  C   UNL     1      13.992  22.468  18.717  1.00  0.00    -0.000 C 
BRANCH  12  13
ATOM     13  C   UNL     1      13.923  20.931  18.623  1.00  0.00    -0.000 C 
BRANCH  13  14
ATOM     14  C   UNL     1      14.680  20.176  19.735  1.00  0.00    -0.000 C 
BRANCH  14  15
ATOM     15  C   UNL     1      16.215  20.315  19.689  1.00  0.00    -0.000 C 
BRANCH  15  16
ATOM     16  C   UNL     1      16.884  19.691  18.452  1.00  0.00    -0.003 C 
ATOM     17  C   UNL     1      18.204  20.368  18.084  1.00  0.00     0.004 C 
ENDBRANCH  15  16
ENDBRANCH  14  15
ENDBRANCH  13  14
ENDBRANCH  12  13
ENDBRANCH  11  12
ENDBRANCH  10  11
ENDBRANCH   1  10
TORSDOF 13
ENDMDL
MODEL 8
REMARK VINA RESULT:    -5.141     15.177     17.451
REMARK INTER + INTRA:         -10.836
REMARK INTER:                  -8.884
REMARK INTRA:                  -1.952
REMARK UNBOUND:                -1.787
REMARK SMILES CCCCCCCCCCCCCCC(=O)[O-]
REMARK SMILES IDX 9 1 10 2 11 3 12 4 13 5 14 6 15 7 16 8 17 9 8 10 7 11 6 12
REMARK SMILES IDX 5 13 4 14 3 15 2 16 1 17
REMARK H PARENT
REMARK Flexibility Score: inf
ROOT
ATOM      1  C   UNL     1      29.530  19.790   9.942  1.00  0.00     0.000 C 
ENDROOT
BRANCH   1   2
ATOM      2  C   UNL     1      30.778  19.298  10.692  1.00  0.00     0.000 C 
BRANCH   2   3
ATOM      3  C   UNL     1      31.747  18.525   9.781  1.00  0.00     0.000 C 
BRANCH   3   4
ATOM      4  C   UNL     1      33.199  19.014   9.913  1.00  0.00     0.000 C 
BRANCH   4   5
ATOM      5  C   UNL     1      33.381  20.031  11.053  1.00  0.00     0.006 C 
BRANCH   5   6
ATOM      6  C   UNL     1      33.971  21.356  10.555  1.00  0.00     0.053 C 
BRANCH   6   7
ATOM      7  C   UNL     1      32.993  22.115   9.710  1.00  0.00     0.041 C 
ATOM      8  O   UNL     1      31.965  22.622  10.230  1.00  0.00    -0.550 OA
ATOM      9  O   UNL     1      33.201  22.231   8.342  1.00  0.00    -0.550 OA
ENDBRANCH   6   7
ENDBRANCH   5   6
ENDBRANCH   4   5
ENDBRANCH   3   4
ENDBRANCH   2   3
ENDBRANCH   1   2
BRANCH   1  10
ATOM     10  C   UNL     1      29.852  20.332   8.542  1.00  0.00     0.000 C 
BRANCH  10  11
ATOM     11  C   UNL     1      28.635  20.207   7.613  1.00  0.00    -0.000 C 
BRANCH  11  12
ATOM     12  C   UNL     1      27.835  18.912   7.846  1.00  0.00    -0.000 C 
BRANCH  12  13
ATOM     13  C   UNL     1      27.402  18.175   6.563  1.00  0.00    -0.000 C 
BRANCH  13  14
ATOM     14  C   UNL     1      28.542  17.863   5.573  1.00  0.00    -0.000 C 
BRANCH  14  15
ATOM     15  C   UNL     1      29.361  16.598   5.899  1.00  0.00    -0.000 C 
BRANCH  15  16
ATOM     16  C   UNL     1      30.778  16.866   6.435  1.00  0.00    -0.003 C 
ATOM     17  C   UNL     1      31.363  18.187   5.937  1.00  0.00     0.004 C 
ENDBRANCH  15  16
ENDBRANCH  14  15
ENDBRANCH  13  14
ENDBRANCH  12  13
ENDBRANCH  11  12
ENDBRANCH  10  11
ENDBRANCH   1  10
TORSDOF 13
ENDMDL
MODEL 9
REMARK VINA RESULT:    -5.070      1.173      1.974
REMARK INTER + INTRA:         -10.711
REMARK INTER:                  -9.026
REMARK INTRA:                  -1.685
REMARK UNBOUND:                -1.787
REMARK SMILES CCCCCCCCCCCCCCC(=O)[O-]
REMARK SMILES IDX 9 1 10 2 11 3 12 4 13 5 14 6 15 7 16 8 17 9 8 10 7 11 6 12
REMARK SMILES IDX 5 13 4 14 3 15 2 16 1 17
REMARK H PARENT
REMARK Flexibility Score: inf
ROOT
ATOM      1  C   UNL     1      14.088  21.351  18.651  1.00  0.00     0.000 C 
ENDROOT
BRANCH   1   2
ATOM      2  C   UNL     1      14.296  22.755  18.061  1.00  0.00     0.000 C 
BRANCH   2   3
ATOM      3  C   UNL     1      15.169  22.740  16.794  1.00  0.00     0.000 C 
BRANCH   3   4
ATOM      4  C   UNL     1      14.626  21.789  15.715  1.00  0.00     0.000 C 
BRANCH   4   5
ATOM      5  C   UNL     1      15.066  22.188  14.296  1.00  0.00     0.006 C 
BRANCH   5   6
ATOM      6  C   UNL     1      14.907  21.036  13.296  1.00  0.00     0.053 C 
BRANCH   6   7
ATOM      7  C   UNL     1      16.064  20.963  12.346  1.00  0.00     0.041 C 
ATOM      8  O   UNL     1      16.096  21.705  11.330  1.00  0.00    -0.550 OA
ATOM      9  O   UNL     1      17.088  20.051  12.567  1.00  0.00    -0.550 OA
ENDBRANCH   6   7
ENDBRANCH   5   6
ENDBRANCH   4   5
ENDBRANCH   3   4
ENDBRANCH   2   3
ENDBRANCH   1   2
BRANCH   1  10
ATOM     10  C   UNL     1      14.777  21.169  20.011  1.00  0.00     0.000 C 
BRANCH  10  11
ATOM     11  C   UNL     1      15.887  20.112  19.926  1.00  0.00    -0.000 C 
BRANCH  11  12
ATOM     12  C   UNL     1      15.457  18.854  19.148  1.00  0.00    -0.000 C 
BRANCH  12  13
ATOM     13  C   UNL     1      16.616  18.029  18.553  1.00  0.00    -0.000 C 
BRANCH  13  14
ATOM     14  C   UNL     1      16.477  17.696  17.055  1.00  0.00    -0.000 C 
BRANCH  14  15
ATOM     15  C   UNL     1      16.620  18.900  16.102  1.00  0.00    -0.000 C 
BRANCH  15  16
ATOM     16  C   UNL     1      18.033  19.506  16.034  1.00  0.00    -0.003 C 
ATOM     17  C   UNL     1      18.233  20.663  17.012  1.00  0.00     0.004 C 
ENDBRANCH  15  16
ENDBRANCH  14  15
ENDBRANCH  13  14
ENDBRANCH  12  13
ENDBRANCH  11  12
ENDBRANCH  10  11
ENDBRANCH   1  10
TORSDOF 13
ENDMDL
