MODEL 1
REMARK VINA RESULT:    -4.125      0.000      0.000
REMARK INTER + INTRA:          -5.314
REMARK INTER:                  -5.090
REMARK INTRA:                  -0.224
REMARK UNBOUND:                -0.224
REMARK SMILES CCCCC(=O)c1ccccc1
REMARK SMILES IDX 4 1 3 2 2 3 1 4 5 5 6 6 7 7 8 8 12 9 9 10 11 11 10 12
REMARK H PARENT
REMARK Flexibility Score: inf
ROOT
ATOM      1  C   UNL     1      30.057 169.157 158.846  1.00  0.00     0.081 C 
ENDROOT
BRANCH   1   2
ATOM      2  C   UNL     1      29.760 169.731 160.239  1.00  0.00     0.008 C 
BRANCH   2   3
ATOM      3  C   UNL     1      28.896 171.001 160.182  1.00  0.00    -0.003 C 
ATOM      4  C   UNL     1      29.523 172.176 160.932  1.00  0.00     0.004 C 
ENDBRANCH   2   3
ENDBRANCH   1   2
BRANCH   1   5
ATOM      5  C   UNL     1      31.427 168.536 158.807  1.00  0.00     0.162 C 
ATOM      6  O   UNL     1      31.843 167.957 159.848  1.00  0.00    -0.294 OA
BRANCH   5   7
ATOM      7  C   UNL     1      32.312 168.608 157.609  1.00  0.00     0.017 A 
ATOM      8  C   UNL     1      32.026 169.463 156.525  1.00  0.00     0.012 A 
ATOM      9  C   UNL     1      33.472 167.809 157.548  1.00  0.00     0.012 A 
ATOM     10  C   UNL     1      32.874 169.512 155.415  1.00  0.00     0.001 A 
ATOM     11  C   UNL     1      34.316 167.863 156.435  1.00  0.00     0.001 A 
ATOM     12  C   UNL     1      34.017 168.713 155.368  1.00  0.00     0.000 A 
ENDBRANCH   5   7
ENDBRANCH   1   5
TORSDOF 4
ENDMDL
MODEL 2
REMARK VINA RESULT:    -4.085      0.551      1.473
REMARK INTER + INTRA:          -5.264
REMARK INTER:                  -4.993
REMARK INTRA:                  -0.271
REMARK UNBOUND:                -0.224
REMARK SMILES CCCCC(=O)c1ccccc1
REMARK SMILES IDX 4 1 3 2 2 3 1 4 5 5 6 6 7 7 8 8 12 9 9 10 11 11 10 12
REMARK H PARENT
REMARK Flexibility Score: inf
ROOT
ATOM      1  C   UNL     1      30.283 168.580 158.964  1.00  0.00     0.081 C 
ENDROOT
BRANCH   1   2
ATOM      2  C   UNL     1      30.162 169.539 160.156  1.00  0.00     0.008 C 
BRANCH   2   3
ATOM      3  C   UNL     1      29.072 170.603 159.950  1.00  0.00    -0.003 C 
ATOM      4  C   UNL     1      29.292 171.848 160.809  1.00  0.00     0.004 C 
ENDBRANCH   2   3
ENDBRANCH   1   2
BRANCH   1   5
ATOM      5  C   UNL     1      31.726 168.256 158.684  1.00  0.00     0.162 C 
ATOM      6  O   UNL     1      32.402 167.726 159.607  1.00  0.00    -0.294 OA
BRANCH   5   7
ATOM      7  C   UNL     1      32.383 168.566 157.382  1.00  0.00     0.017 A 
ATOM      8  C   UNL     1      33.689 168.123 157.085  1.00  0.00     0.012 A 
ATOM      9  C   UNL     1      31.690 169.317 156.411  1.00  0.00     0.012 A 
ATOM     10  C   UNL     1      34.280 168.427 155.855  1.00  0.00     0.001 A 
ATOM     11  C   UNL     1      32.287 169.618 155.183  1.00  0.00     0.001 A 
ATOM     12  C   UNL     1      33.581 169.174 154.905  1.00  0.00     0.000 A 
ENDBRANCH   5   7
ENDBRANCH   1   5
TORSDOF 4
ENDMDL
MODEL 3
REMARK VINA RESULT:    -4.036      1.708      5.100
REMARK INTER + INTRA:          -5.204
REMARK INTER:                  -4.889
REMARK INTRA:                  -0.315
REMARK UNBOUND:                -0.224
REMARK SMILES CCCCC(=O)c1ccccc1
REMARK SMILES IDX 4 1 3 2 2 3 1 4 5 5 6 6 7 7 8 8 12 9 9 10 11 11 10 12
REMARK H PARENT
REMARK Flexibility Score: inf
ROOT
ATOM      1  C   UNL     1      32.906 169.488 156.378  1.00  0.00     0.081 C 
ENDROOT
BRANCH   1   2
ATOM      2  C   UNL     1      33.464 169.095 155.003  1.00  0.00     0.008 C 
BRANCH   2   3
ATOM      3  C   UNL     1      32.434 169.271 153.876  1.00  0.00    -0.003 C 
ATOM      4  C   UNL     1      31.327 170.262 154.237  1.00  0.00     0.004 C 
ENDBRANCH   2   3
ENDBRANCH   1   2
BRANCH   1   5
ATOM      5  C   UNL     1      32.733 168.273 157.250  1.00  0.00     0.162 C 
ATOM      6  O   UNL     1      33.191 167.175 156.830  1.00  0.00    -0.294 OA
BRANCH   5   7
ATOM      7  C   UNL     1      32.020 168.315 158.558  1.00  0.00     0.017 A 
ATOM      8  C   UNL     1      32.404 167.496 159.641  1.00  0.00     0.012 A 
ATOM      9  C   UNL     1      30.933 169.196 158.734  1.00  0.00     0.012 A 
ATOM     10  C   UNL     1      31.718 167.558 160.857  1.00  0.00     0.001 A 
ATOM     11  C   UNL     1      30.251 169.253 159.953  1.00  0.00     0.001 A 
ATOM     12  C   UNL     1      30.643 168.434 161.014  1.00  0.00     0.000 A 
ENDBRANCH   5   7
ENDBRANCH   1   5
TORSDOF 4
ENDMDL
MODEL 4
REMARK VINA RESULT:    -3.945     19.687     21.333
REMARK INTER + INTRA:          -5.092
REMARK INTER:                  -4.302
REMARK INTRA:                  -0.790
REMARK UNBOUND:                -0.224
REMARK SMILES CCCCC(=O)c1ccccc1
REMARK SMILES IDX 4 1 3 2 2 3 1 4 5 5 6 6 7 7 8 8 12 9 9 10 11 11 10 12
REMARK H PARENT
REMARK Flexibility Score: inf
ROOT
ATOM      1  C   UNL     1      41.234 183.819 171.838  1.00  0.00     0.081 C 
ENDROOT
BRANCH   1   2
ATOM      2  C   UNL     1      40.776 184.649 173.046  1.00  0.00     0.008 C 
BRANCH   2   3
ATOM      3  C   UNL     1      40.158 185.996 172.637  1.00  0.00    -0.003 C 
ATOM      4  C   UNL     1      38.709 186.145 173.097  1.00  0.00     0.004 C 
ENDBRANCH   2   3
ENDBRANCH   1   2
BRANCH   1   5
ATOM      5  C   UNL     1      40.234 182.739 171.524  1.00  0.00     0.162 C 
ATOM      6  O   UNL     1      40.636 181.543 171.525  1.00  0.00    -0.294 OA
BRANCH   5   7
ATOM      7  C   UNL     1      38.812 183.031 171.184  1.00  0.00     0.017 A 
ATOM      8  C   UNL     1      37.751 182.642 172.029  1.00  0.00     0.012 A 
ATOM      9  C   UNL     1      38.505 183.719 169.992  1.00  0.00     0.012 A 
ATOM     10  C   UNL     1      36.427 182.932 171.686  1.00  0.00     0.001 A 
ATOM     11  C   UNL     1      37.179 184.005 169.656  1.00  0.00     0.001 A 
ATOM     12  C   UNL     1      36.140 183.611 170.501  1.00  0.00     0.000 A 
ENDBRANCH   5   7
ENDBRANCH   1   5
TORSDOF 4
ENDMDL
MODEL 5
REMARK VINA RESULT:    -3.945      1.715      2.596
REMARK INTER + INTRA:          -5.091
REMARK INTER:                  -4.502
REMARK INTRA:                  -0.590
REMARK UNBOUND:                -0.224
REMARK SMILES CCCCC(=O)c1ccccc1
REMARK SMILES IDX 4 1 3 2 2 3 1 4 5 5 6 6 7 7 8 8 12 9 9 10 11 11 10 12
REMARK H PARENT
REMARK Flexibility Score: inf
ROOT
ATOM      1  C   UNL     1      29.881 169.021 158.317  1.00  0.00     0.081 C 
ENDROOT
BRANCH   1   2
ATOM      2  C   UNL     1      30.677 169.253 159.609  1.00  0.00     0.008 C 
BRANCH   2   3
ATOM      3  C   UNL     1      30.744 167.998 160.494  1.00  0.00    -0.003 C 
ATOM      4  C   UNL     1      32.172 167.643 160.907  1.00  0.00     0.004 C 
ENDBRANCH   2   3
ENDBRANCH   1   2
BRANCH   1   5
ATOM      5  C   UNL     1      30.572 168.012 157.439  1.00  0.00     0.162 C 
ATOM      6  O   UNL     1      30.013 166.893 157.273  1.00  0.00    -0.294 OA
BRANCH   5   7
ATOM      7  C   UNL     1      31.890 168.273 156.795  1.00  0.00     0.017 A 
ATOM      8  C   UNL     1      33.079 167.678 157.268  1.00  0.00     0.012 A 
ATOM      9  C   UNL     1      31.965 169.131 155.679  1.00  0.00     0.012 A 
ATOM     10  C   UNL     1      34.302 167.940 156.643  1.00  0.00     0.001 A 
ATOM     11  C   UNL     1      33.192 169.388 155.058  1.00  0.00     0.001 A 
ATOM     12  C   UNL     1      34.359 168.793 155.540  1.00  0.00     0.000 A 
ENDBRANCH   5   7
ENDBRANCH   1   5
TORSDOF 4
ENDMDL
MODEL 6
REMARK VINA RESULT:    -3.901      1.909      5.342
REMARK INTER + INTRA:          -5.037
REMARK INTER:                  -4.526
REMARK INTRA:                  -0.511
REMARK UNBOUND:                -0.224
REMARK SMILES CCCCC(=O)c1ccccc1
REMARK SMILES IDX 4 1 3 2 2 3 1 4 5 5 6 6 7 7 8 8 12 9 9 10 11 11 10 12
REMARK H PARENT
REMARK Flexibility Score: inf
ROOT
ATOM      1  C   UNL     1      32.360 169.622 155.361  1.00  0.00     0.081 C 
ENDROOT
BRANCH   1   2
ATOM      2  C   UNL     1      33.649 168.816 155.150  1.00  0.00     0.008 C 
BRANCH   2   3
ATOM      3  C   UNL     1      34.330 168.434 156.475  1.00  0.00    -0.003 C 
ATOM      4  C   UNL     1      34.320 166.928 156.731  1.00  0.00     0.004 C 
ENDBRANCH   2   3
ENDBRANCH   1   2
BRANCH   1   5
ATOM      5  C   UNL     1      31.254 168.736 155.868  1.00  0.00     0.162 C 
ATOM      6  O   UNL     1      30.900 167.763 155.147  1.00  0.00    -0.294 OA
BRANCH   5   7
ATOM      7  C   UNL     1      30.549 168.985 157.157  1.00  0.00     0.017 A 
ATOM      8  C   UNL     1      31.243 169.049 158.384  1.00  0.00     0.012 A 
ATOM      9  C   UNL     1      29.151 169.167 157.166  1.00  0.00     0.012 A 
ATOM     10  C   UNL     1      30.556 169.286 159.578  1.00  0.00     0.001 A 
ATOM     11  C   UNL     1      28.470 169.403 158.364  1.00  0.00     0.001 A 
ATOM     12  C   UNL     1      29.172 169.462 159.569  1.00  0.00     0.000 A 
ENDBRANCH   5   7
ENDBRANCH   1   5
TORSDOF 4
ENDMDL
MODEL 7
REMARK VINA RESULT:    -3.782      2.190      2.935
REMARK INTER + INTRA:          -4.890
REMARK INTER:                  -4.612
REMARK INTRA:                  -0.278
REMARK UNBOUND:                -0.224
REMARK SMILES CCCCC(=O)c1ccccc1
REMARK SMILES IDX 4 1 3 2 2 3 1 4 5 5 6 6 7 7 8 8 12 9 9 10 11 11 10 12
REMARK H PARENT
REMARK Flexibility Score: inf
ROOT
ATOM      1  C   UNL     1      31.540 167.195 159.170  1.00  0.00     0.081 C 
ENDROOT
BRANCH   1   2
ATOM      2  C   UNL     1      32.459 167.150 160.400  1.00  0.00     0.008 C 
BRANCH   2   3
ATOM      3  C   UNL     1      31.679 166.980 161.713  1.00  0.00    -0.003 C 
ATOM      4  C   UNL     1      32.082 168.002 162.776  1.00  0.00     0.004 C 
ENDBRANCH   2   3
ENDBRANCH   1   2
BRANCH   1   5
ATOM      5  C   UNL     1      31.606 168.543 158.504  1.00  0.00     0.162 C 
ATOM      6  O   UNL     1      31.053 169.516 159.086  1.00  0.00    -0.294 OA
BRANCH   5   7
ATOM      7  C   UNL     1      32.263 168.759 157.184  1.00  0.00     0.017 A 
ATOM      8  C   UNL     1      33.611 168.408 156.959  1.00  0.00     0.012 A 
ATOM      9  C   UNL     1      31.528 169.322 156.121  1.00  0.00     0.012 A 
ATOM     10  C   UNL     1      34.201 168.620 155.709  1.00  0.00     0.001 A 
ATOM     11  C   UNL     1      32.124 169.532 154.874  1.00  0.00     0.001 A 
ATOM     12  C   UNL     1      33.460 169.182 154.668  1.00  0.00     0.000 A 
ENDBRANCH   5   7
ENDBRANCH   1   5
TORSDOF 4
ENDMDL
MODEL 8
REMARK VINA RESULT:    -3.752     20.072     21.248
REMARK INTER + INTRA:          -4.853
REMARK INTER:                  -4.232
REMARK INTRA:                  -0.621
REMARK UNBOUND:                -0.224
REMARK SMILES CCCCC(=O)c1ccccc1
REMARK SMILES IDX 4 1 3 2 2 3 1 4 5 5 6 6 7 7 8 8 12 9 9 10 11 11 10 12
REMARK H PARENT
REMARK Flexibility Score: inf
ROOT
ATOM      1  C   UNL     1      37.451 183.632 170.899  1.00  0.00     0.081 C 
ENDROOT
BRANCH   1   2
ATOM      2  C   UNL     1      36.976 182.647 171.977  1.00  0.00     0.008 C 
BRANCH   2   3
ATOM      3  C   UNL     1      36.287 183.351 173.156  1.00  0.00    -0.003 C 
ATOM      4  C   UNL     1      37.273 184.089 174.062  1.00  0.00     0.004 C 
ENDBRANCH   2   3
ENDBRANCH   1   2
BRANCH   1   5
ATOM      5  C   UNL     1      38.863 183.322 170.479  1.00  0.00     0.162 C 
ATOM      6  O   UNL     1      39.101 183.212 169.245  1.00  0.00    -0.294 OA
BRANCH   5   7
ATOM      7  C   UNL     1      39.967 183.111 171.458  1.00  0.00     0.017 A 
ATOM      8  C   UNL     1      40.441 184.156 172.279  1.00  0.00     0.012 A 
ATOM      9  C   UNL     1      40.558 181.837 171.581  1.00  0.00     0.012 A 
ATOM     10  C   UNL     1      41.477 183.928 173.190  1.00  0.00     0.001 A 
ATOM     11  C   UNL     1      41.594 181.617 172.494  1.00  0.00     0.001 A 
ATOM     12  C   UNL     1      42.054 182.662 173.298  1.00  0.00     0.000 A 
ENDBRANCH   5   7
ENDBRANCH   1   5
TORSDOF 4
ENDMDL
MODEL 9
REMARK VINA RESULT:    -3.665      1.812      4.962
REMARK INTER + INTRA:          -4.747
REMARK INTER:                  -4.231
REMARK INTRA:                  -0.515
REMARK UNBOUND:                -0.224
REMARK SMILES CCCCC(=O)c1ccccc1
REMARK SMILES IDX 4 1 3 2 2 3 1 4 5 5 6 6 7 7 8 8 12 9 9 10 11 11 10 12
REMARK H PARENT
REMARK Flexibility Score: inf
ROOT
ATOM      1  C   UNL     1      31.603 169.176 155.899  1.00  0.00     0.081 C 
ENDROOT
BRANCH   1   2
ATOM      2  C   UNL     1      32.899 168.761 155.189  1.00  0.00     0.008 C 
BRANCH   2   3
ATOM      3  C   UNL     1      34.112 168.751 156.133  1.00  0.00    -0.003 C 
ATOM      4  C   UNL     1      34.599 167.337 156.453  1.00  0.00     0.004 C 
ENDBRANCH   2   3
ENDBRANCH   1   2
BRANCH   1   5
ATOM      5  C   UNL     1      31.107 168.071 156.793  1.00  0.00     0.162 C 
ATOM      6  O   UNL     1      30.658 167.027 156.247  1.00  0.00    -0.294 OA
BRANCH   5   7
ATOM      7  C   UNL     1      31.099 168.180 158.280  1.00  0.00     0.017 A 
ATOM      8  C   UNL     1      30.152 168.971 158.962  1.00  0.00     0.012 A 
ATOM      9  C   UNL     1      32.055 167.472 159.037  1.00  0.00     0.012 A 
ATOM     10  C   UNL     1      30.167 169.053 160.358  1.00  0.00     0.001 A 
ATOM     11  C   UNL     1      32.064 167.558 160.433  1.00  0.00     0.001 A 
ATOM     12  C   UNL     1      31.121 168.348 161.093  1.00  0.00     0.000 A 
ENDBRANCH   5   7
ENDBRANCH   1   5
TORSDOF 4
ENDMDL
