MODEL 1
REMARK VINA RESULT:     2.143      0.000      0.000
REMARK INTER + INTRA:           2.709
REMARK INTER:                   2.393
REMARK INTRA:                   0.315
REMARK UNBOUND:                 0.315
REMARK SMILES CC1(C)CC[C@]2(C(=O)[O-])[C@H](C1)C1=CC[C@@H]3[C@@]4(C)CC[C@@H](O)C(C)(C)[C@H]4CC[C@]3(C)[C@@]1(C)C[C@@H]2O
REMARK SMILES IDX 6 1 5 2 10 3 33 4 4 5 11 6 12 7 32 8 2 9 13 10 30 11 1 12
REMARK SMILES IDX 3 13 14 14 28 15 31 16 15 17 27 18 29 19 16 20 26 21 18 22
REMARK SMILES IDX 17 23 25 24 19 25 22 26 20 27 23 28 24 29 7 30 8 31 9 32
REMARK SMILES IDX 34 33 21 35
REMARK H PARENT 34 34 21 36
REMARK Flexibility Score: inf
ROOT
ATOM      1  C   UNL     1     101.105 116.369 122.984  1.00  0.00     0.042 C 
ATOM      2  C   UNL     1     100.960 116.875 124.472  1.00  0.00     0.017 C 
ATOM      3  C   UNL     1      99.776 116.656 122.197  1.00  0.00     0.030 C 
ATOM      4  C   UNL     1     101.468 114.849 122.963  1.00  0.00     0.127 C 
ATOM      5  C   UNL     1     100.000 118.069 124.600  1.00  0.00     0.007 C 
ATOM      6  C   UNL     1      98.523 116.574 123.092  1.00  0.00     0.015 C 
ATOM      7  C   UNL     1      99.678 115.883 120.868  1.00  0.00    -0.063 C 
ATOM      8  C   UNL     1     101.356 114.202 121.555  1.00  0.00     0.044 C 
ATOM      9  C   UNL     1      98.537 117.692 124.191  1.00  0.00    -0.035 C 
ATOM     10  C   UNL     1      99.557 116.634 119.765  1.00  0.00    -0.027 C 
ATOM     11  C   UNL     1      99.988 114.379 120.792  1.00  0.00    -0.003 C 
ATOM     12  C   UNL     1      97.765 117.191 125.432  1.00  0.00     0.011 C 
ATOM     13  C   UNL     1      97.821 118.953 123.662  1.00  0.00     0.011 C 
ATOM     14  C   UNL     1      99.914 116.194 118.394  1.00  0.00     0.032 C 
ATOM     15  C   UNL     1     100.080 113.797 119.263  1.00  0.00    -0.020 C 
ATOM     16  C   UNL     1      98.855 113.614 121.543  1.00  0.00     0.017 C 
ATOM     17  C   UNL     1     100.727 114.862 118.286  1.00  0.00     0.006 C 
ATOM     18  C   UNL     1      98.682 113.467 118.655  1.00  0.00     0.008 C 
ATOM     19  C   UNL     1     100.889 112.458 119.325  1.00  0.00     0.012 C 
ATOM     20  C   UNL     1     100.859 114.457 116.731  1.00  0.00    -0.025 C 
ATOM     21  C   UNL     1      98.718 113.004 117.185  1.00  0.00     0.005 C 
ATOM     22  C   UNL     1     102.010 113.425 116.477  1.00  0.00     0.010 C 
ATOM     23  C   UNL     1     101.303 115.752 115.960  1.00  0.00     0.012 C 
ATOM     24  C   UNL     1      99.470 113.923 116.170  1.00  0.00     0.003 C 
ATOM     25  C   UNL     1     102.078 112.884 115.040  1.00  0.00     0.033 C 
ATOM     26  C   UNL     1      99.541 113.265 114.714  1.00  0.00    -0.006 C 
ATOM     27  C   UNL     1     100.743 112.273 114.585  1.00  0.00     0.120 C 
ATOM     28  C   UNL     1      99.641 114.359 113.608  1.00  0.00     0.014 C 
ATOM     29  C   UNL     1      98.230 112.493 114.372  1.00  0.00     0.014 C 
ENDROOT
BRANCH   1  30
ATOM     30  C   UNL     1     102.265 117.123 122.326  1.00  0.00     0.051 C 
ATOM     31  O   UNL     1     102.681 116.807 121.176  1.00  0.00    -0.549 OA
ATOM     32  O   UNL     1     102.950 118.113 123.028  1.00  0.00    -0.549 OA
ENDBRANCH   1  30
BRANCH   4  33
ATOM     33  O   UNL     1     100.713 114.120 123.899  1.00  0.00    -0.392 OA
ATOM     34  H   UNL     1      99.763 114.383 123.783  1.00  0.00     0.210 HD
ENDBRANCH   4  33
BRANCH  27  35
ATOM     35  O   UNL     1     100.501 111.099 115.320  1.00  0.00    -0.393 OA
ATOM     36  H   UNL     1     101.175 110.430 115.034  1.00  0.00     0.210 HD
ENDBRANCH  27  35
TORSDOF 3
ENDMDL
