MODEL 1
REMARK VINA RESULT:    -6.483      0.000      0.000
REMARK INTER + INTRA:         -12.810
REMARK INTER:                 -10.652
REMARK INTRA:                  -2.159
REMARK UNBOUND:                -2.159
REMARK SMILES C[C@H]1O[C@@H](OC[C@H]2O[C@H](Oc3c(-c4ccc(O)c(O)c4)oc4cc(O)cc(O)c4c3=O)[C@@H](O)[C@H](O)[C@H]2O)[C@H](O)[C@@H](O)[C@@H]1O
REMARK SMILES IDX 7 1 36 2 34 3 32 4 9 5 8 6 6 7 5 8 4 9 1 10 2 11 42 12 3 13
REMARK SMILES IDX 40 14 38 15 43 16 41 18 39 20 37 22 35 24 10 26 11 27 12 28
REMARK SMILES IDX 30 29 21 30 29 31 31 32 22 33 27 34 23 35 26 36 24 37 13 38
REMARK SMILES IDX 20 39 14 40 18 41 15 42 16 43 19 44 17 46 28 48 25 50 33 52
REMARK H PARENT 43 17 41 19 39 21 37 23 35 25 19 45 17 47 28 49 25 51 33 53
REMARK Flexibility Score: inf
ROOT
ATOM      1  C   UNL     1      -8.120  31.639   6.341  1.00  0.00     0.180 C 
ATOM      2  C   UNL     1      -6.678  32.189   6.404  1.00  0.00     0.177 C 
ATOM      3  C   UNL     1      -6.621  33.714   6.129  1.00  0.00     0.180 C 
ATOM      4  C   UNL     1      -8.012  34.326   5.929  1.00  0.00     0.214 C 
ATOM      5  C   UNL     1      -9.046  33.780   6.977  1.00  0.00     0.339 C 
ATOM      6  O   UNL     1      -9.054  32.369   7.133  1.00  0.00    -0.332 OA
ENDROOT
BRANCH   1   7
ATOM      7  C   UNL     1      -8.201  30.138   6.680  1.00  0.00     0.198 C 
BRANCH   7   8
ATOM      8  O   UNL     1      -8.225  29.310   5.522  1.00  0.00    -0.347 OA
BRANCH   8   9
ATOM      9  C   UNL     1      -9.496  29.183   4.932  1.00  0.00     0.281 C 
ATOM     10  C   UNL     1     -12.711  28.456   6.530  1.00  0.00     0.041 C 
ATOM     11  C   UNL     1     -11.725  28.746   5.387  1.00  0.00     0.150 C 
ATOM     12  C   UNL     1     -11.854  27.694   4.263  1.00  0.00     0.174 C 
ATOM     13  O   UNL     1     -10.411  28.729   5.905  1.00  0.00    -0.344 OA
ATOM     14  C   UNL     1     -10.794  27.950   3.158  1.00  0.00     0.179 C 
ATOM     15  C   UNL     1      -9.408  28.148   3.803  1.00  0.00     0.202 C 
BRANCH  12  16
ATOM     16  O   UNL     1     -13.125  27.828   3.685  1.00  0.00    -0.388 OA
ATOM     17  H   UNL     1     -13.787  27.973   4.423  1.00  0.00     0.211 HD
ENDBRANCH  12  16
BRANCH  14  18
ATOM     18  O   UNL     1     -10.743  26.877   2.253  1.00  0.00    -0.387 OA
ATOM     19  H   UNL     1     -10.338  26.106   2.727  1.00  0.00     0.211 HD
ENDBRANCH  14  18
BRANCH  15  20
ATOM     20  O   UNL     1      -8.475  28.531   2.812  1.00  0.00    -0.385 OA
ATOM     21  H   UNL     1      -7.619  28.734   3.271  1.00  0.00     0.211 HD
ENDBRANCH  15  20
ENDBRANCH   8   9
ENDBRANCH   7   8
ENDBRANCH   1   7
BRANCH   2  22
ATOM     22  O   UNL     1      -6.085  31.921   7.652  1.00  0.00    -0.387 OA
ATOM     23  H   UNL     1      -5.990  30.942   7.716  1.00  0.00     0.211 HD
ENDBRANCH   2  22
BRANCH   3  24
ATOM     24  O   UNL     1      -5.892  33.977   4.966  1.00  0.00    -0.387 OA
ATOM     25  H   UNL     1      -6.556  34.230   4.260  1.00  0.00     0.211 HD
ENDBRANCH   3  24
BRANCH   5  26
ATOM     26  O   UNL     1     -10.387  34.189   6.672  1.00  0.00    -0.454 OA
BRANCH  26  27
ATOM     27  C   UNL     1     -11.031  35.164   7.433  1.00  0.00     0.214 A 
ATOM     28  C   UNL     1     -11.597  34.857   8.674  1.00  0.00     0.180 A 
ATOM     29  C   UNL     1     -11.029  36.504   7.010  1.00  0.00     0.239 A 
ATOM     30  O   UNL     1     -11.998  35.835   9.474  1.00  0.00    -0.452 OA
ATOM     31  C   UNL     1     -11.470  37.529   7.881  1.00  0.00     0.111 A 
ATOM     32  O   UNL     1     -10.610  36.797   5.854  1.00  0.00    -0.285 OA
ATOM     33  C   UNL     1     -11.936  37.121   9.153  1.00  0.00     0.146 A 
ATOM     34  C   UNL     1     -11.423  38.904   7.561  1.00  0.00     0.134 A 
ATOM     35  C   UNL     1     -12.313  38.084  10.086  1.00  0.00     0.094 A 
ATOM     36  C   UNL     1     -11.764  39.852   8.525  1.00  0.00     0.093 A 
ATOM     37  C   UNL     1     -12.175  39.440   9.802  1.00  0.00     0.123 A 
BRANCH  28  38
ATOM     38  C   UNL     1     -11.805  33.459   9.093  1.00  0.00     0.025 A 
ATOM     39  C   UNL     1     -11.169  33.002  10.257  1.00  0.00     0.062 A 
ATOM     40  C   UNL     1     -12.530  32.561   8.294  1.00  0.00     0.016 A 
ATOM     41  C   UNL     1     -11.272  31.666  10.639  1.00  0.00     0.158 A 
ATOM     42  C   UNL     1     -12.622  31.222   8.661  1.00  0.00     0.051 A 
ATOM     43  C   UNL     1     -12.007  30.771   9.837  1.00  0.00     0.157 A 
BRANCH  41  44
ATOM     44  O   UNL     1     -10.647  31.212  11.799  1.00  0.00    -0.504 OA
ATOM     45  H   UNL     1      -9.662  30.960  11.808  1.00  0.00     0.293 HD
ENDBRANCH  41  44
BRANCH  43  46
ATOM     46  O   UNL     1     -12.153  29.437  10.207  1.00  0.00    -0.504 OA
ATOM     47  H   UNL     1     -12.060  29.155  11.173  1.00  0.00     0.293 HD
ENDBRANCH  43  46
ENDBRANCH  28  38
BRANCH  34  48
ATOM     48  O   UNL     1     -11.032  39.317   6.292  1.00  0.00    -0.507 OA
ATOM     49  H   UNL     1     -11.351  38.852   5.473  1.00  0.00     0.293 HD
ENDBRANCH  34  48
BRANCH  37  50
ATOM     50  O   UNL     1     -12.412  40.390  10.804  1.00  0.00    -0.508 OA
ATOM     51  H   UNL     1     -12.375  40.156  11.801  1.00  0.00     0.293 HD
ENDBRANCH  37  50
ENDBRANCH  26  27
ENDBRANCH   5  26
BRANCH   4  52
ATOM     52  O   UNL     1      -7.913  35.732   5.949  1.00  0.00    -0.384 OA
ATOM     53  H   UNL     1      -7.380  35.988   5.154  1.00  0.00     0.211 HD
ENDBRANCH   4  52
TORSDOF 16
ENDMDL
MODEL 2
REMARK VINA RESULT:    -6.446      1.533      2.683
REMARK INTER + INTRA:         -12.749
REMARK INTER:                 -10.962
REMARK INTRA:                  -1.787
REMARK UNBOUND:                -2.159
REMARK SMILES C[C@H]1O[C@@H](OC[C@H]2O[C@H](Oc3c(-c4ccc(O)c(O)c4)oc4cc(O)cc(O)c4c3=O)[C@@H](O)[C@H](O)[C@H]2O)[C@H](O)[C@@H](O)[C@@H]1O
REMARK SMILES IDX 7 1 36 2 34 3 32 4 9 5 8 6 6 7 5 8 4 9 1 10 2 11 42 12 3 13
REMARK SMILES IDX 40 14 38 15 43 16 41 18 39 20 37 22 35 24 10 26 11 27 12 28
REMARK SMILES IDX 30 29 21 30 29 31 31 32 22 33 27 34 23 35 26 36 24 37 13 38
REMARK SMILES IDX 20 39 14 40 18 41 15 42 16 43 19 44 17 46 28 48 25 50 33 52
REMARK H PARENT 43 17 41 19 39 21 37 23 35 25 19 45 17 47 28 49 25 51 33 53
REMARK Flexibility Score: inf
ROOT
ATOM      1  C   UNL     1      -8.472  31.845   6.400  1.00  0.00     0.180 C 
ATOM      2  C   UNL     1      -7.005  32.331   6.383  1.00  0.00     0.177 C 
ATOM      3  C   UNL     1      -6.892  33.831   6.005  1.00  0.00     0.180 C 
ATOM      4  C   UNL     1      -8.261  34.491   5.807  1.00  0.00     0.214 C 
ATOM      5  C   UNL     1      -9.282  34.062   6.921  1.00  0.00     0.339 C 
ATOM      6  O   UNL     1      -9.346  32.667   7.170  1.00  0.00    -0.332 OA
ENDROOT
BRANCH   1   7
ATOM      7  C   UNL     1      -8.605  30.374   6.841  1.00  0.00     0.198 C 
BRANCH   7   8
ATOM      8  O   UNL     1      -8.890  29.496   5.757  1.00  0.00    -0.347 OA
BRANCH   8   9
ATOM      9  C   UNL     1      -7.755  28.859   5.220  1.00  0.00     0.281 C 
ATOM     10  C   UNL     1      -4.272  29.037   6.340  1.00  0.00     0.041 C 
ATOM     11  C   UNL     1      -5.465  28.620   5.463  1.00  0.00     0.150 C 
ATOM     12  C   UNL     1      -5.175  28.888   3.969  1.00  0.00     0.174 C 
ATOM     13  O   UNL     1      -6.603  29.354   5.865  1.00  0.00    -0.344 OA
ATOM     14  C   UNL     1      -6.419  28.543   3.106  1.00  0.00     0.179 C 
ATOM     15  C   UNL     1      -7.675  29.190   3.725  1.00  0.00     0.202 C 
BRANCH  12  16
ATOM     16  O   UNL     1      -4.125  28.048   3.571  1.00  0.00    -0.388 OA
ATOM     17  H   UNL     1      -3.730  28.423   2.730  1.00  0.00     0.211 HD
ENDBRANCH  12  16
BRANCH  14  18
ATOM     18  O   UNL     1      -6.257  28.996   1.788  1.00  0.00    -0.387 OA
ATOM     19  H   UNL     1      -7.086  29.478   1.533  1.00  0.00     0.211 HD
ENDBRANCH  14  18
BRANCH  15  20
ATOM     20  O   UNL     1      -8.824  28.750   3.027  1.00  0.00    -0.385 OA
ATOM     21  H   UNL     1      -8.951  29.355   2.251  1.00  0.00     0.211 HD
ENDBRANCH  15  20
ENDBRANCH   8   9
ENDBRANCH   7   8
ENDBRANCH   1   7
BRANCH   2  22
ATOM     22  O   UNL     1      -6.383  32.119   7.627  1.00  0.00    -0.387 OA
ATOM     23  H   UNL     1      -5.715  31.407   7.492  1.00  0.00     0.211 HD
ENDBRANCH   2  22
BRANCH   3  24
ATOM     24  O   UNL     1      -6.192  33.985   4.806  1.00  0.00    -0.387 OA
ATOM     25  H   UNL     1      -6.837  33.784   4.067  1.00  0.00     0.211 HD
ENDBRANCH   3  24
BRANCH   5  26
ATOM     26  O   UNL     1     -10.614  34.512   6.631  1.00  0.00    -0.454 OA
BRANCH  26  27
ATOM     27  C   UNL     1     -11.243  35.460   7.435  1.00  0.00     0.214 A 
ATOM     28  C   UNL     1     -11.807  35.106   8.665  1.00  0.00     0.180 A 
ATOM     29  C   UNL     1     -11.228  36.817   7.069  1.00  0.00     0.239 A 
ATOM     30  O   UNL     1     -12.194  36.054   9.508  1.00  0.00    -0.452 OA
ATOM     31  C   UNL     1     -11.654  37.808   7.985  1.00  0.00     0.111 A 
ATOM     32  O   UNL     1     -10.812  37.154   5.925  1.00  0.00    -0.285 OA
ATOM     33  C   UNL     1     -12.118  37.352   9.241  1.00  0.00     0.146 A 
ATOM     34  C   UNL     1     -11.593  39.195   7.723  1.00  0.00     0.134 A 
ATOM     35  C   UNL     1     -12.481  38.278  10.216  1.00  0.00     0.094 A 
ATOM     36  C   UNL     1     -11.919  40.105   8.729  1.00  0.00     0.093 A 
ATOM     37  C   UNL     1     -12.329  39.644   9.989  1.00  0.00     0.123 A 
BRANCH  28  38
ATOM     38  C   UNL     1     -12.028  33.694   9.025  1.00  0.00     0.025 A 
ATOM     39  C   UNL     1     -11.365  33.172  10.146  1.00  0.00     0.062 A 
ATOM     40  C   UNL     1     -12.795  32.848   8.209  1.00  0.00     0.016 A 
ATOM     41  C   UNL     1     -11.481  31.822  10.469  1.00  0.00     0.158 A 
ATOM     42  C   UNL     1     -12.901  31.495   8.517  1.00  0.00     0.051 A 
ATOM     43  C   UNL     1     -12.257  30.978   9.651  1.00  0.00     0.157 A 
BRANCH  41  44
ATOM     44  O   UNL     1     -10.828  31.303  11.585  1.00  0.00    -0.504 OA
ATOM     45  H   UNL     1     -10.819  30.304  11.780  1.00  0.00     0.293 HD
ENDBRANCH  41  44
BRANCH  43  46
ATOM     46  O   UNL     1     -12.417  29.631   9.963  1.00  0.00    -0.504 OA
ATOM     47  H   UNL     1     -13.082  29.338  10.665  1.00  0.00     0.293 HD
ENDBRANCH  43  46
ENDBRANCH  28  38
BRANCH  34  48
ATOM     48  O   UNL     1     -11.204  39.657   6.471  1.00  0.00    -0.507 OA
ATOM     49  H   UNL     1     -10.368  40.181   6.349  1.00  0.00     0.293 HD
ENDBRANCH  34  48
BRANCH  37  50
ATOM     50  O   UNL     1     -12.551  40.553  11.032  1.00  0.00    -0.508 OA
ATOM     51  H   UNL     1     -13.466  40.661  11.479  1.00  0.00     0.293 HD
ENDBRANCH  37  50
ENDBRANCH  26  27
ENDBRANCH   5  26
BRANCH   4  52
ATOM     52  O   UNL     1      -8.101  35.890   5.731  1.00  0.00    -0.384 OA
ATOM     53  H   UNL     1      -8.952  36.251   5.372  1.00  0.00     0.211 HD
ENDBRANCH   4  52
TORSDOF 16
ENDMDL
MODEL 3
REMARK VINA RESULT:    -6.422      2.331      5.332
REMARK INTER + INTRA:         -12.711
REMARK INTER:                 -11.251
REMARK INTRA:                  -1.459
REMARK UNBOUND:                -2.159
REMARK SMILES C[C@H]1O[C@@H](OC[C@H]2O[C@H](Oc3c(-c4ccc(O)c(O)c4)oc4cc(O)cc(O)c4c3=O)[C@@H](O)[C@H](O)[C@H]2O)[C@H](O)[C@@H](O)[C@@H]1O
REMARK SMILES IDX 7 1 36 2 34 3 32 4 9 5 8 6 6 7 5 8 4 9 1 10 2 11 42 12 3 13
REMARK SMILES IDX 40 14 38 15 43 16 41 18 39 20 37 22 35 24 10 26 11 27 12 28
REMARK SMILES IDX 30 29 21 30 29 31 31 32 22 33 27 34 23 35 26 36 24 37 13 38
REMARK SMILES IDX 20 39 14 40 18 41 15 42 16 43 19 44 17 46 28 48 25 50 33 52
REMARK H PARENT 43 17 41 19 39 21 37 23 35 25 19 45 17 47 28 49 25 51 33 53
REMARK Flexibility Score: inf
ROOT
ATOM      1  C   UNL     1      -8.377  28.361   5.530  1.00  0.00     0.180 C 
ATOM      2  C   UNL     1      -9.564  27.846   4.685  1.00  0.00     0.177 C 
ATOM      3  C   UNL     1     -10.918  28.427   5.166  1.00  0.00     0.180 C 
ATOM      4  C   UNL     1     -10.753  29.425   6.318  1.00  0.00     0.214 C 
ATOM      5  C   UNL     1      -9.550  30.403   6.074  1.00  0.00     0.339 C 
ATOM      6  O   UNL     1      -8.340  29.779   5.674  1.00  0.00    -0.332 OA
ENDROOT
BRANCH   1   7
ATOM      7  C   UNL     1      -7.016  27.847   5.020  1.00  0.00     0.198 C 
BRANCH   7   8
ATOM      8  O   UNL     1      -6.189  28.886   4.506  1.00  0.00    -0.347 OA
BRANCH   8   9
ATOM      9  C   UNL     1      -5.045  29.146   5.282  1.00  0.00     0.281 C 
ATOM     10  C   UNL     1      -3.187  26.875   7.476  1.00  0.00     0.041 C 
ATOM     11  C   UNL     1      -3.547  28.194   6.770  1.00  0.00     0.150 C 
ATOM     12  C   UNL     1      -3.661  29.353   7.785  1.00  0.00     0.174 C 
ATOM     13  O   UNL     1      -4.779  28.027   6.099  1.00  0.00    -0.344 OA
ATOM     14  C   UNL     1      -4.108  30.656   7.070  1.00  0.00     0.179 C 
ATOM     15  C   UNL     1      -5.327  30.363   6.172  1.00  0.00     0.202 C 
BRANCH  12  16
ATOM     16  O   UNL     1      -2.389  29.575   8.336  1.00  0.00    -0.388 OA
ATOM     17  H   UNL     1      -2.052  28.703   8.699  1.00  0.00     0.211 HD
ENDBRANCH  12  16
BRANCH  14  18
ATOM     18  O   UNL     1      -4.439  31.652   8.003  1.00  0.00    -0.387 OA
ATOM     19  H   UNL     1      -4.478  31.223   8.897  1.00  0.00     0.211 HD
ENDBRANCH  14  18
BRANCH  15  20
ATOM     20  O   UNL     1      -5.638  31.512   5.408  1.00  0.00    -0.385 OA
ATOM     21  H   UNL     1      -6.561  31.397   5.061  1.00  0.00     0.211 HD
ENDBRANCH  15  20
ENDBRANCH   8   9
ENDBRANCH   7   8
ENDBRANCH   1   7
BRANCH   2  22
ATOM     22  O   UNL     1      -9.388  28.150   3.322  1.00  0.00    -0.387 OA
ATOM     23  H   UNL     1      -9.870  27.458   2.813  1.00  0.00     0.211 HD
ENDBRANCH   2  22
BRANCH   3  24
ATOM     24  O   UNL     1     -11.753  27.408   5.631  1.00  0.00    -0.387 OA
ATOM     25  H   UNL     1     -12.479  27.848   6.163  1.00  0.00     0.211 HD
ENDBRANCH   3  24
BRANCH   5  26
ATOM     26  O   UNL     1      -9.263  31.202   7.231  1.00  0.00    -0.454 OA
BRANCH  26  27
ATOM     27  C   UNL     1      -9.533  32.569   7.246  1.00  0.00     0.214 A 
ATOM     28  C   UNL     1     -10.285  33.148   8.274  1.00  0.00     0.180 A 
ATOM     29  C   UNL     1      -8.962  33.411   6.276  1.00  0.00     0.239 A 
ATOM     30  O   UNL     1     -10.336  34.468   8.388  1.00  0.00    -0.452 OA
ATOM     31  C   UNL     1      -9.038  34.818   6.418  1.00  0.00     0.111 A 
ATOM     32  O   UNL     1      -8.359  32.910   5.286  1.00  0.00    -0.285 OA
ATOM     33  C   UNL     1      -9.741  35.303   7.546  1.00  0.00     0.146 A 
ATOM     34  C   UNL     1      -8.422  35.729   5.533  1.00  0.00     0.134 A 
ATOM     35  C   UNL     1      -9.789  36.674   7.787  1.00  0.00     0.094 A 
ATOM     36  C   UNL     1      -8.445  37.094   5.816  1.00  0.00     0.093 A 
ATOM     37  C   UNL     1      -9.099  37.563   6.966  1.00  0.00     0.123 A 
BRANCH  28  38
ATOM     38  C   UNL     1     -11.066  32.317   9.208  1.00  0.00     0.025 A 
ATOM     39  C   UNL     1     -10.506  31.993  10.452  1.00  0.00     0.062 A 
ATOM     40  C   UNL     1     -12.299  31.762   8.830  1.00  0.00     0.016 A 
ATOM     41  C   UNL     1     -11.176  31.141  11.328  1.00  0.00     0.158 A 
ATOM     42  C   UNL     1     -12.965  30.898   9.692  1.00  0.00     0.051 A 
ATOM     43  C   UNL     1     -12.417  30.592  10.946  1.00  0.00     0.157 A 
BRANCH  41  44
ATOM     44  O   UNL     1     -10.625  30.822  12.567  1.00  0.00    -0.504 OA
ATOM     45  H   UNL     1      -9.626  30.908  12.742  1.00  0.00     0.293 HD
ENDBRANCH  41  44
BRANCH  43  46
ATOM     46  O   UNL     1     -13.125  29.761  11.810  1.00  0.00    -0.504 OA
ATOM     47  H   UNL     1     -14.119  29.621  11.693  1.00  0.00     0.293 HD
ENDBRANCH  43  46
ENDBRANCH  28  38
BRANCH  34  48
ATOM     48  O   UNL     1      -7.786  35.272   4.384  1.00  0.00    -0.507 OA
ATOM     49  H   UNL     1      -7.859  34.324   4.093  1.00  0.00     0.293 HD
ENDBRANCH  34  48
BRANCH  37  50
ATOM     50  O   UNL     1      -9.031  38.920   7.310  1.00  0.00    -0.508 OA
ATOM     51  H   UNL     1      -9.283  39.665   6.654  1.00  0.00     0.293 HD
ENDBRANCH  37  50
ENDBRANCH  26  27
ENDBRANCH   5  26
BRANCH   4  52
ATOM     52  O   UNL     1     -11.970  30.106   6.528  1.00  0.00    -0.384 OA
ATOM     53  H   UNL     1     -11.883  30.575   7.397  1.00  0.00     0.211 HD
ENDBRANCH   4  52
TORSDOF 16
ENDMDL
MODEL 4
REMARK VINA RESULT:    -5.990      2.122      9.446
REMARK INTER + INTRA:         -12.000
REMARK INTER:                 -11.111
REMARK INTRA:                  -0.890
REMARK UNBOUND:                -2.159
REMARK SMILES C[C@H]1O[C@@H](OC[C@H]2O[C@H](Oc3c(-c4ccc(O)c(O)c4)oc4cc(O)cc(O)c4c3=O)[C@@H](O)[C@H](O)[C@H]2O)[C@H](O)[C@@H](O)[C@@H]1O
REMARK SMILES IDX 7 1 36 2 34 3 32 4 9 5 8 6 6 7 5 8 4 9 1 10 2 11 42 12 3 13
REMARK SMILES IDX 40 14 38 15 43 16 41 18 39 20 37 22 35 24 10 26 11 27 12 28
REMARK SMILES IDX 30 29 21 30 29 31 31 32 22 33 27 34 23 35 26 36 24 37 13 38
REMARK SMILES IDX 20 39 14 40 18 41 15 42 16 43 19 44 17 46 28 48 25 50 33 52
REMARK H PARENT 43 17 41 19 39 21 37 23 35 25 19 45 17 47 28 49 25 51 33 53
REMARK Flexibility Score: inf
ROOT
ATOM      1  C   UNL     1     -12.589  33.329   8.694  1.00  0.00     0.180 C 
ATOM      2  C   UNL     1     -12.579  32.775  10.136  1.00  0.00     0.177 C 
ATOM      3  C   UNL     1     -12.016  31.332  10.202  1.00  0.00     0.180 C 
ATOM      4  C   UNL     1     -11.540  30.824   8.837  1.00  0.00     0.214 C 
ATOM      5  C   UNL     1     -10.732  31.921   8.056  1.00  0.00     0.339 C 
ATOM      6  O   UNL     1     -11.343  33.201   8.014  1.00  0.00    -0.332 OA
ENDROOT
BRANCH   1   7
ATOM      7  C   UNL     1     -13.082  34.788   8.621  1.00  0.00     0.198 C 
BRANCH   7   8
ATOM      8  O   UNL     1     -12.022  35.735   8.714  1.00  0.00    -0.347 OA
BRANCH   8   9
ATOM      9  C   UNL     1     -12.433  37.073   8.570  1.00  0.00     0.281 C 
ATOM     10  C   UNL     1     -11.417  39.534   6.054  1.00  0.00     0.041 C 
ATOM     11  C   UNL     1     -12.148  38.981   7.289  1.00  0.00     0.150 C 
ATOM     12  C   UNL     1     -11.934  39.896   8.515  1.00  0.00     0.174 C 
ATOM     13  O   UNL     1     -11.653  37.689   7.569  1.00  0.00    -0.344 OA
ATOM     14  C   UNL     1     -12.606  39.282   9.773  1.00  0.00     0.179 C 
ATOM     15  C   UNL     1     -12.205  37.798   9.902  1.00  0.00     0.202 C 
BRANCH  12  16
ATOM     16  O   UNL     1     -12.552  41.128   8.252  1.00  0.00    -0.388 OA
ATOM     17  H   UNL     1     -11.897  41.704   7.757  1.00  0.00     0.211 HD
ENDBRANCH  12  16
BRANCH  14  18
ATOM     18  O   UNL     1     -12.227  39.974  10.933  1.00  0.00    -0.387 OA
ATOM     19  H   UNL     1     -12.672  39.534  11.703  1.00  0.00     0.211 HD
ENDBRANCH  14  18
BRANCH  15  20
ATOM     20  O   UNL     1     -12.935  37.201  10.956  1.00  0.00    -0.385 OA
ATOM     21  H   UNL     1     -13.608  36.598  10.547  1.00  0.00     0.211 HD
ENDBRANCH  15  20
ENDBRANCH   8   9
ENDBRANCH   7   8
ENDBRANCH   1   7
BRANCH   2  22
ATOM     22  O   UNL     1     -11.832  33.603  10.994  1.00  0.00    -0.387 OA
ATOM     23  H   UNL     1     -11.305  34.205  10.419  1.00  0.00     0.211 HD
ENDBRANCH   2  22
BRANCH   3  24
ATOM     24  O   UNL     1     -12.996  30.441  10.646  1.00  0.00    -0.387 OA
ATOM     25  H   UNL     1     -12.763  30.200  11.590  1.00  0.00     0.211 HD
ENDBRANCH   3  24
BRANCH   5  26
ATOM     26  O   UNL     1     -10.459  31.526   6.703  1.00  0.00    -0.454 OA
BRANCH  26  27
ATOM     27  C   UNL     1      -9.195  31.075   6.327  1.00  0.00     0.214 A 
ATOM     28  C   UNL     1      -8.150  31.972   6.084  1.00  0.00     0.180 A 
ATOM     29  C   UNL     1      -8.921  29.698   6.288  1.00  0.00     0.239 A 
ATOM     30  O   UNL     1      -6.911  31.517   5.952  1.00  0.00    -0.452 OA
ATOM     31  C   UNL     1      -7.590  29.239   6.138  1.00  0.00     0.111 A 
ATOM     32  O   UNL     1      -9.864  28.866   6.410  1.00  0.00    -0.285 OA
ATOM     33  C   UNL     1      -6.591  30.230   5.995  1.00  0.00     0.146 A 
ATOM     34  C   UNL     1      -7.223  27.875   6.171  1.00  0.00     0.134 A 
ATOM     35  C   UNL     1      -5.253  29.850   5.919  1.00  0.00     0.094 A 
ATOM     36  C   UNL     1      -5.875  27.519   6.138  1.00  0.00     0.093 A 
ATOM     37  C   UNL     1      -4.887  28.512   6.048  1.00  0.00     0.123 A 
BRANCH  28  38
ATOM     38  C   UNL     1      -8.404  33.414   5.920  1.00  0.00     0.025 A 
ATOM     39  C   UNL     1      -9.733  33.862   5.863  1.00  0.00     0.062 A 
ATOM     40  C   UNL     1      -7.352  34.319   5.712  1.00  0.00     0.016 A 
ATOM     41  C   UNL     1     -10.014  35.206   5.624  1.00  0.00     0.158 A 
ATOM     42  C   UNL     1      -7.627  35.658   5.456  1.00  0.00     0.051 A 
ATOM     43  C   UNL     1      -8.954  36.111   5.423  1.00  0.00     0.157 A 
BRANCH  41  44
ATOM     44  O   UNL     1     -11.333  35.654   5.573  1.00  0.00    -0.504 OA
ATOM     45  H   UNL     1     -11.623  36.380   4.923  1.00  0.00     0.293 HD
ENDBRANCH  41  44
BRANCH  43  46
ATOM     46  O   UNL     1      -9.201  37.464   5.211  1.00  0.00    -0.504 OA
ATOM     47  H   UNL     1      -8.444  38.104   5.014  1.00  0.00     0.293 HD
ENDBRANCH  43  46
ENDBRANCH  28  38
BRANCH  34  48
ATOM     48  O   UNL     1      -8.198  26.886   6.243  1.00  0.00    -0.507 OA
ATOM     49  H   UNL     1      -8.478  26.374   5.438  1.00  0.00     0.293 HD
ENDBRANCH  34  48
BRANCH  37  50
ATOM     50  O   UNL     1      -3.532  28.164   6.125  1.00  0.00    -0.508 OA
ATOM     51  H   UNL     1      -2.856  28.432   5.404  1.00  0.00     0.293 HD
ENDBRANCH  37  50
ENDBRANCH  26  27
ENDBRANCH   5  26
BRANCH   4  52
ATOM     52  O   UNL     1     -10.807  29.632   9.008  1.00  0.00    -0.384 OA
ATOM     53  H   UNL     1     -10.003  29.712   8.435  1.00  0.00     0.211 HD
ENDBRANCH   4  52
TORSDOF 16
ENDMDL
MODEL 5
REMARK VINA RESULT:    -5.780     15.242     19.362
REMARK INTER + INTRA:         -11.655
REMARK INTER:                  -9.136
REMARK INTRA:                  -2.519
REMARK UNBOUND:                -2.159
REMARK SMILES C[C@H]1O[C@@H](OC[C@H]2O[C@H](Oc3c(-c4ccc(O)c(O)c4)oc4cc(O)cc(O)c4c3=O)[C@@H](O)[C@H](O)[C@H]2O)[C@H](O)[C@@H](O)[C@@H]1O
REMARK SMILES IDX 7 1 36 2 34 3 32 4 9 5 8 6 6 7 5 8 4 9 1 10 2 11 42 12 3 13
REMARK SMILES IDX 40 14 38 15 43 16 41 18 39 20 37 22 35 24 10 26 11 27 12 28
REMARK SMILES IDX 30 29 21 30 29 31 31 32 22 33 27 34 23 35 26 36 24 37 13 38
REMARK SMILES IDX 20 39 14 40 18 41 15 42 16 43 19 44 17 46 28 48 25 50 33 52
REMARK H PARENT 43 17 41 19 39 21 37 23 35 25 19 45 17 47 28 49 25 51 33 53
REMARK Flexibility Score: inf
ROOT
ATOM      1  C   UNL     1       1.083  46.107   3.558  1.00  0.00     0.180 C 
ATOM      2  C   UNL     1       0.652  46.328   5.026  1.00  0.00     0.177 C 
ATOM      3  C   UNL     1      -0.360  45.255   5.504  1.00  0.00     0.180 C 
ATOM      4  C   UNL     1      -0.640  44.193   4.434  1.00  0.00     0.214 C 
ATOM      5  C   UNL     1       0.677  43.730   3.715  1.00  0.00     0.339 C 
ATOM      6  O   UNL     1       1.524  44.781   3.277  1.00  0.00    -0.332 OA
ENDROOT
BRANCH   1   7
ATOM      7  C   UNL     1       2.142  47.125   3.090  1.00  0.00     0.198 C 
BRANCH   7   8
ATOM      8  O   UNL     1       3.398  46.956   3.740  1.00  0.00    -0.347 OA
BRANCH   8   9
ATOM      9  C   UNL     1       4.451  46.610   2.874  1.00  0.00     0.281 C 
ATOM     10  C   UNL     1       4.295  45.542  -0.626  1.00  0.00     0.041 C 
ATOM     11  C   UNL     1       4.937  45.893   0.726  1.00  0.00     0.150 C 
ATOM     12  C   UNL     1       5.872  44.761   1.206  1.00  0.00     0.174 C 
ATOM     13  O   UNL     1       3.912  46.097   1.676  1.00  0.00    -0.344 OA
ATOM     14  C   UNL     1       6.445  45.091   2.611  1.00  0.00     0.179 C 
ATOM     15  C   UNL     1       5.301  45.526   3.549  1.00  0.00     0.202 C 
BRANCH  12  16
ATOM     16  O   UNL     1       6.948  44.674   0.309  1.00  0.00    -0.388 OA
ATOM     17  H   UNL     1       7.756  44.376   0.823  1.00  0.00     0.211 HD
ENDBRANCH  12  16
BRANCH  14  18
ATOM     18  O   UNL     1       7.105  43.979   3.159  1.00  0.00    -0.387 OA
ATOM     19  H   UNL     1       6.580  43.677   3.945  1.00  0.00     0.211 HD
ENDBRANCH  14  18
BRANCH  15  20
ATOM     20  O   UNL     1       5.840  45.971   4.778  1.00  0.00    -0.385 OA
ATOM     21  H   UNL     1       5.817  46.964   4.771  1.00  0.00     0.211 HD
ENDBRANCH  15  20
ENDBRANCH   8   9
ENDBRANCH   7   8
ENDBRANCH   1   7
BRANCH   2  22
ATOM     22  O   UNL     1       1.764  46.332   5.888  1.00  0.00    -0.387 OA
ATOM     23  H   UNL     1       2.470  45.809   5.443  1.00  0.00     0.211 HD
ENDBRANCH   2  22
BRANCH   3  24
ATOM     24  O   UNL     1      -1.588  45.843   5.820  1.00  0.00    -0.387 OA
ATOM     25  H   UNL     1      -1.753  46.553   5.134  1.00  0.00     0.211 HD
ENDBRANCH   3  24
BRANCH   5  26
ATOM     26  O   UNL     1       0.404  42.892   2.582  1.00  0.00    -0.454 OA
BRANCH  26  27
ATOM     27  C   UNL     1       1.434  42.442   1.757  1.00  0.00     0.214 A 
ATOM     28  C   UNL     1       1.509  42.831   0.416  1.00  0.00     0.180 A 
ATOM     29  C   UNL     1       2.479  41.669   2.291  1.00  0.00     0.239 A 
ATOM     30  O   UNL     1       2.608  42.578  -0.282  1.00  0.00    -0.452 OA
ATOM     31  C   UNL     1       3.638  41.407   1.522  1.00  0.00     0.111 A 
ATOM     32  O   UNL     1       2.391  41.225   3.470  1.00  0.00    -0.285 OA
ATOM     33  C   UNL     1       3.656  41.927   0.207  1.00  0.00     0.146 A 
ATOM     34  C   UNL     1       4.763  40.709   2.014  1.00  0.00     0.134 A 
ATOM     35  C   UNL     1       4.797  41.771  -0.577  1.00  0.00     0.094 A 
ATOM     36  C   UNL     1       5.911  40.603   1.229  1.00  0.00     0.093 A 
ATOM     37  C   UNL     1       5.939  41.168  -0.056  1.00  0.00     0.123 A 
BRANCH  28  38
ATOM     38  C   UNL     1       0.366  43.474  -0.258  1.00  0.00     0.025 A 
ATOM     39  C   UNL     1      -0.913  42.921  -0.091  1.00  0.00     0.062 A 
ATOM     40  C   UNL     1       0.553  44.551  -1.138  1.00  0.00     0.016 A 
ATOM     41  C   UNL     1      -2.004  43.449  -0.778  1.00  0.00     0.158 A 
ATOM     42  C   UNL     1      -0.529  45.071  -1.840  1.00  0.00     0.051 A 
ATOM     43  C   UNL     1      -1.812  44.534  -1.656  1.00  0.00     0.157 A 
BRANCH  41  44
ATOM     44  O   UNL     1      -3.276  42.905  -0.610  1.00  0.00    -0.504 OA
ATOM     45  H   UNL     1      -3.426  42.066  -0.055  1.00  0.00     0.293 HD
ENDBRANCH  41  44
BRANCH  43  46
ATOM     46  O   UNL     1      -2.886  45.102  -2.334  1.00  0.00    -0.504 OA
ATOM     47  H   UNL     1      -3.463  45.805  -1.893  1.00  0.00     0.293 HD
ENDBRANCH  43  46
ENDBRANCH  28  38
BRANCH  34  48
ATOM     48  O   UNL     1       4.736  40.134   3.280  1.00  0.00    -0.507 OA
ATOM     49  H   UNL     1       5.181  39.264   3.464  1.00  0.00     0.293 HD
ENDBRANCH  34  48
BRANCH  37  50
ATOM     50  O   UNL     1       7.125  41.157  -0.802  1.00  0.00    -0.508 OA
ATOM     51  H   UNL     1       7.992  40.744  -0.447  1.00  0.00     0.293 HD
ENDBRANCH  37  50
ENDBRANCH  26  27
ENDBRANCH   5  26
BRANCH   4  52
ATOM     52  O   UNL     1      -1.347  43.119   5.012  1.00  0.00    -0.384 OA
ATOM     53  H   UNL     1      -2.264  43.153   4.638  1.00  0.00     0.211 HD
ENDBRANCH   4  52
TORSDOF 16
ENDMDL
MODEL 6
REMARK VINA RESULT:    -5.619      1.708      8.610
REMARK INTER + INTRA:         -11.390
REMARK INTER:                 -10.620
REMARK INTRA:                  -0.770
REMARK UNBOUND:                -2.159
REMARK SMILES C[C@H]1O[C@@H](OC[C@H]2O[C@H](Oc3c(-c4ccc(O)c(O)c4)oc4cc(O)cc(O)c4c3=O)[C@@H](O)[C@H](O)[C@H]2O)[C@H](O)[C@@H](O)[C@@H]1O
REMARK SMILES IDX 7 1 36 2 34 3 32 4 9 5 8 6 6 7 5 8 4 9 1 10 2 11 42 12 3 13
REMARK SMILES IDX 40 14 38 15 43 16 41 18 39 20 37 22 35 24 10 26 11 27 12 28
REMARK SMILES IDX 30 29 21 30 29 31 31 32 22 33 27 34 23 35 26 36 24 37 13 38
REMARK SMILES IDX 20 39 14 40 18 41 15 42 16 43 19 44 17 46 28 48 25 50 33 52
REMARK H PARENT 43 17 41 19 39 21 37 23 35 25 19 45 17 47 28 49 25 51 33 53
REMARK Flexibility Score: inf
ROOT
ATOM      1  C   UNL     1     -10.781  35.222   6.953  1.00  0.00     0.180 C 
ATOM      2  C   UNL     1     -10.231  36.018   5.748  1.00  0.00     0.177 C 
ATOM      3  C   UNL     1      -8.780  35.604   5.390  1.00  0.00     0.180 C 
ATOM      4  C   UNL     1      -8.262  34.459   6.267  1.00  0.00     0.214 C 
ATOM      5  C   UNL     1      -9.345  33.340   6.464  1.00  0.00     0.339 C 
ATOM      6  O   UNL     1     -10.633  33.809   6.831  1.00  0.00    -0.332 OA
ENDROOT
BRANCH   1   7
ATOM      7  C   UNL     1     -12.246  35.572   7.278  1.00  0.00     0.198 C 
BRANCH   7   8
ATOM      8  O   UNL     1     -12.404  36.144   8.572  1.00  0.00    -0.347 OA
BRANCH   8   9
ATOM      9  C   UNL     1     -12.844  37.481   8.560  1.00  0.00     0.281 C 
ATOM     10  C   UNL     1     -12.227  40.083   6.057  1.00  0.00     0.041 C 
ATOM     11  C   UNL     1     -12.766  39.457   7.354  1.00  0.00     0.150 C 
ATOM     12  C   UNL     1     -12.384  40.311   8.583  1.00  0.00     0.174 C 
ATOM     13  O   UNL     1     -12.223  38.159   7.491  1.00  0.00    -0.344 OA
ATOM     14  C   UNL     1     -12.860  39.622   9.890  1.00  0.00     0.179 C 
ATOM     15  C   UNL     1     -12.431  38.141   9.882  1.00  0.00     0.202 C 
BRANCH  12  16
ATOM     16  O   UNL     1     -13.045  41.545   8.478  1.00  0.00    -0.388 OA
ATOM     17  H   UNL     1     -12.386  42.268   8.696  1.00  0.00     0.211 HD
ENDBRANCH  12  16
BRANCH  14  18
ATOM     18  O   UNL     1     -12.323  40.261  11.019  1.00  0.00    -0.387 OA
ATOM     19  H   UNL     1     -11.931  39.560  11.601  1.00  0.00     0.211 HD
ENDBRANCH  14  18
BRANCH  15  20
ATOM     20  O   UNL     1     -12.994  37.479  10.998  1.00  0.00    -0.385 OA
ATOM     21  H   UNL     1     -12.392  37.635  11.771  1.00  0.00     0.211 HD
ENDBRANCH  15  20
ENDBRANCH   8   9
ENDBRANCH   7   8
ENDBRANCH   1   7
BRANCH   2  22
ATOM     22  O   UNL     1     -11.051  35.860   4.616  1.00  0.00    -0.387 OA
ATOM     23  H   UNL     1     -10.610  35.194   4.038  1.00  0.00     0.211 HD
ENDBRANCH   2  22
BRANCH   3  24
ATOM     24  O   UNL     1      -7.904  36.678   5.567  1.00  0.00    -0.387 OA
ATOM     25  H   UNL     1      -8.169  37.129   6.421  1.00  0.00     0.211 HD
ENDBRANCH   3  24
BRANCH   5  26
ATOM     26  O   UNL     1      -8.943  32.370   7.443  1.00  0.00    -0.454 OA
BRANCH  26  27
ATOM     27  C   UNL     1      -9.843  31.421   7.925  1.00  0.00     0.214 A 
ATOM     28  C   UNL     1      -9.886  30.128   7.391  1.00  0.00     0.180 A 
ATOM     29  C   UNL     1     -10.655  31.716   9.033  1.00  0.00     0.239 A 
ATOM     30  O   UNL     1     -10.583  29.185   8.010  1.00  0.00    -0.452 OA
ATOM     31  C   UNL     1     -11.394  30.691   9.670  1.00  0.00     0.111 A 
ATOM     32  O   UNL     1     -10.706  32.898   9.475  1.00  0.00    -0.285 OA
ATOM     33  C   UNL     1     -11.295  29.397   9.108  1.00  0.00     0.146 A 
ATOM     34  C   UNL     1     -12.168  30.892  10.835  1.00  0.00     0.134 A 
ATOM     35  C   UNL     1     -11.937  28.328   9.731  1.00  0.00     0.094 A 
ATOM     36  C   UNL     1     -12.765  29.801  11.465  1.00  0.00     0.093 A 
ATOM     37  C   UNL     1     -12.618  28.511  10.931  1.00  0.00     0.123 A 
BRANCH  28  38
ATOM     38  C   UNL     1      -9.211  29.804   6.121  1.00  0.00     0.025 A 
ATOM     39  C   UNL     1      -9.935  29.130   5.126  1.00  0.00     0.062 A 
ATOM     40  C   UNL     1      -7.843  30.059   5.939  1.00  0.00     0.016 A 
ATOM     41  C   UNL     1      -9.310  28.731   3.946  1.00  0.00     0.158 A 
ATOM     42  C   UNL     1      -7.209  29.648   4.772  1.00  0.00     0.051 A 
ATOM     43  C   UNL     1      -7.938  28.995   3.766  1.00  0.00     0.157 A 
BRANCH  41  44
ATOM     44  O   UNL     1     -10.028  28.067   2.954  1.00  0.00    -0.504 OA
ATOM     45  H   UNL     1      -9.663  27.233   2.501  1.00  0.00     0.293 HD
ENDBRANCH  41  44
BRANCH  43  46
ATOM     46  O   UNL     1      -7.291  28.636   2.588  1.00  0.00    -0.504 OA
ATOM     47  H   UNL     1      -6.686  29.289   2.110  1.00  0.00     0.293 HD
ENDBRANCH  43  46
ENDBRANCH  28  38
BRANCH  34  48
ATOM     48  O   UNL     1     -12.331  32.169  11.359  1.00  0.00    -0.507 OA
ATOM     49  H   UNL     1     -12.523  32.313  12.324  1.00  0.00     0.293 HD
ENDBRANCH  34  48
BRANCH  37  50
ATOM     50  O   UNL     1     -13.125  27.403  11.622  1.00  0.00    -0.508 OA
ATOM     51  H   UNL     1     -13.951  26.888  11.302  1.00  0.00     0.293 HD
ENDBRANCH  37  50
ENDBRANCH  26  27
ENDBRANCH   5  26
BRANCH   4  52
ATOM     52  O   UNL     1      -7.060  33.959   5.725  1.00  0.00    -0.384 OA
ATOM     53  H   UNL     1      -7.224  33.006   5.511  1.00  0.00     0.211 HD
ENDBRANCH   4  52
TORSDOF 16
ENDMDL
MODEL 7
REMARK VINA RESULT:    -4.687      1.453      2.081
REMARK INTER + INTRA:          -9.860
REMARK INTER:                  -8.189
REMARK INTRA:                  -1.672
REMARK UNBOUND:                -2.159
REMARK SMILES C[C@H]1O[C@@H](OC[C@H]2O[C@H](Oc3c(-c4ccc(O)c(O)c4)oc4cc(O)cc(O)c4c3=O)[C@@H](O)[C@H](O)[C@H]2O)[C@H](O)[C@@H](O)[C@@H]1O
REMARK SMILES IDX 7 1 36 2 34 3 32 4 9 5 8 6 6 7 5 8 4 9 1 10 2 11 42 12 3 13
REMARK SMILES IDX 40 14 38 15 43 16 41 18 39 20 37 22 35 24 10 26 11 27 12 28
REMARK SMILES IDX 30 29 21 30 29 31 31 32 22 33 27 34 23 35 26 36 24 37 13 38
REMARK SMILES IDX 20 39 14 40 18 41 15 42 16 43 19 44 17 46 28 48 25 50 33 52
REMARK H PARENT 43 17 41 19 39 21 37 23 35 25 19 45 17 47 28 49 25 51 33 53
REMARK Flexibility Score: inf
ROOT
ATOM      1  C   UNL     1      -8.164  31.467   5.191  1.00  0.00     0.180 C 
ATOM      2  C   UNL     1      -6.790  31.893   5.757  1.00  0.00     0.177 C 
ATOM      3  C   UNL     1      -6.785  33.372   6.223  1.00  0.00     0.180 C 
ATOM      4  C   UNL     1      -8.157  34.039   6.078  1.00  0.00     0.214 C 
ATOM      5  C   UNL     1      -9.317  33.095   6.556  1.00  0.00     0.339 C 
ATOM      6  O   UNL     1      -9.263  31.771   6.047  1.00  0.00    -0.332 OA
ENDROOT
BRANCH   1   7
ATOM      7  C   UNL     1      -8.205  29.981   4.788  1.00  0.00     0.198 C 
BRANCH   7   8
ATOM      8  O   UNL     1      -7.967  29.103   5.883  1.00  0.00    -0.347 OA
BRANCH   8   9
ATOM      9  C   UNL     1      -9.070  28.299   6.227  1.00  0.00     0.281 C 
ATOM     10  C   UNL     1     -12.632  28.903   5.624  1.00  0.00     0.041 C 
ATOM     11  C   UNL     1     -11.380  28.171   6.135  1.00  0.00     0.150 C 
ATOM     12  C   UNL     1     -11.521  27.809   7.630  1.00  0.00     0.174 C 
ATOM     13  O   UNL     1     -10.258  29.009   5.953  1.00  0.00    -0.344 OA
ATOM     14  C   UNL     1     -10.218  27.147   8.153  1.00  0.00     0.179 C 
ATOM     15  C   UNL     1      -9.001  27.994   7.728  1.00  0.00     0.202 C 
BRANCH  12  16
ATOM     16  O   UNL     1     -12.562  26.875   7.756  1.00  0.00    -0.388 OA
ATOM     17  H   UNL     1     -12.343  26.270   8.525  1.00  0.00     0.211 HD
ENDBRANCH  12  16
BRANCH  14  18
ATOM     18  O   UNL     1     -10.241  27.025   9.551  1.00  0.00    -0.387 OA
ATOM     19  H   UNL     1     -11.192  27.006   9.833  1.00  0.00     0.211 HD
ENDBRANCH  14  18
BRANCH  15  20
ATOM     20  O   UNL     1      -7.809  27.313   8.071  1.00  0.00    -0.385 OA
ATOM     21  H   UNL     1      -7.048  27.881   7.781  1.00  0.00     0.211 HD
ENDBRANCH  15  20
ENDBRANCH   8   9
ENDBRANCH   7   8
ENDBRANCH   1   7
BRANCH   2  22
ATOM     22  O   UNL     1      -6.403  31.068   6.828  1.00  0.00    -0.387 OA
ATOM     23  H   UNL     1      -5.938  30.293   6.436  1.00  0.00     0.211 HD
ENDBRANCH   2  22
BRANCH   3  24
ATOM     24  O   UNL     1      -5.887  34.125   5.462  1.00  0.00    -0.387 OA
ATOM     25  H   UNL     1      -5.763  34.997   5.939  1.00  0.00     0.211 HD
ENDBRANCH   3  24
BRANCH   5  26
ATOM     26  O   UNL     1     -10.611  33.629   6.236  1.00  0.00    -0.454 OA
BRANCH  26  27
ATOM     27  C   UNL     1     -11.098  34.765   6.880  1.00  0.00     0.214 A 
ATOM     28  C   UNL     1     -11.555  34.708   8.201  1.00  0.00     0.180 A 
ATOM     29  C   UNL     1     -11.041  36.016   6.243  1.00  0.00     0.239 A 
ATOM     30  O   UNL     1     -11.798  35.832   8.861  1.00  0.00    -0.452 OA
ATOM     31  C   UNL     1     -11.312  37.200   6.970  1.00  0.00     0.111 A 
ATOM     32  O   UNL     1     -10.723  36.085   5.023  1.00  0.00    -0.285 OA
ATOM     33  C   UNL     1     -11.674  37.040   8.328  1.00  0.00     0.146 A 
ATOM     34  C   UNL     1     -11.197  38.498   6.424  1.00  0.00     0.134 A 
ATOM     35  C   UNL     1     -11.881  38.167   9.120  1.00  0.00     0.094 A 
ATOM     36  C   UNL     1     -11.366  39.612   7.246  1.00  0.00     0.093 A 
ATOM     37  C   UNL     1     -11.672  39.444   8.605  1.00  0.00     0.123 A 
BRANCH  28  38
ATOM     38  C   UNL     1     -11.821  33.417   8.861  1.00  0.00     0.025 A 
ATOM     39  C   UNL     1     -11.122  33.104  10.037  1.00  0.00     0.062 A 
ATOM     40  C   UNL     1     -12.671  32.464   8.279  1.00  0.00     0.016 A 
ATOM     41  C   UNL     1     -11.283  31.860  10.643  1.00  0.00     0.158 A 
ATOM     42  C   UNL     1     -12.823  31.214   8.870  1.00  0.00     0.051 A 
ATOM     43  C   UNL     1     -12.142  30.910  10.058  1.00  0.00     0.157 A 
BRANCH  41  44
ATOM     44  O   UNL     1     -10.594  31.549  11.814  1.00  0.00    -0.504 OA
ATOM     45  H   UNL     1      -9.578  31.587  11.859  1.00  0.00     0.293 HD
ENDBRANCH  41  44
BRANCH  43  46
ATOM     46  O   UNL     1     -12.347  29.669  10.655  1.00  0.00    -0.504 OA
ATOM     47  H   UNL     1     -11.577  29.030  10.796  1.00  0.00     0.293 HD
ENDBRANCH  43  46
ENDBRANCH  28  38
BRANCH  34  48
ATOM     48  O   UNL     1     -10.910  38.670   5.075  1.00  0.00    -0.507 OA
ATOM     49  H   UNL     1      -9.991  38.889   4.764  1.00  0.00     0.293 HD
ENDBRANCH  34  48
BRANCH  37  50
ATOM     50  O   UNL     1     -11.734  40.557   9.454  1.00  0.00    -0.508 OA
ATOM     51  H   UNL     1     -11.022  41.294   9.444  1.00  0.00     0.293 HD
ENDBRANCH  37  50
ENDBRANCH  26  27
ENDBRANCH   5  26
BRANCH   4  52
ATOM     52  O   UNL     1      -8.153  35.275   6.755  1.00  0.00    -0.384 OA
ATOM     53  H   UNL     1      -7.565  35.161   7.545  1.00  0.00     0.211 HD
ENDBRANCH   4  52
TORSDOF 16
ENDMDL
MODEL 8
REMARK VINA RESULT:    -4.670      2.423      8.513
REMARK INTER + INTRA:          -9.832
REMARK INTER:                  -8.917
REMARK INTRA:                  -0.915
REMARK UNBOUND:                -2.159
REMARK SMILES C[C@H]1O[C@@H](OC[C@H]2O[C@H](Oc3c(-c4ccc(O)c(O)c4)oc4cc(O)cc(O)c4c3=O)[C@@H](O)[C@H](O)[C@H]2O)[C@H](O)[C@@H](O)[C@@H]1O
REMARK SMILES IDX 7 1 36 2 34 3 32 4 9 5 8 6 6 7 5 8 4 9 1 10 2 11 42 12 3 13
REMARK SMILES IDX 40 14 38 15 43 16 41 18 39 20 37 22 35 24 10 26 11 27 12 28
REMARK SMILES IDX 30 29 21 30 29 31 31 32 22 33 27 34 23 35 26 36 24 37 13 38
REMARK SMILES IDX 20 39 14 40 18 41 15 42 16 43 19 44 17 46 28 48 25 50 33 52
REMARK H PARENT 43 17 41 19 39 21 37 23 35 25 19 45 17 47 28 49 25 51 33 53
REMARK Flexibility Score: inf
ROOT
ATOM      1  C   UNL     1      -9.349  32.256   7.452  1.00  0.00     0.180 C 
ATOM      2  C   UNL     1      -8.255  33.128   6.796  1.00  0.00     0.177 C 
ATOM      3  C   UNL     1      -7.438  32.341   5.739  1.00  0.00     0.180 C 
ATOM      4  C   UNL     1      -7.952  30.911   5.544  1.00  0.00     0.214 C 
ATOM      5  C   UNL     1      -9.521  30.858   5.487  1.00  0.00     0.339 C 
ATOM      6  O   UNL     1     -10.183  31.574   6.519  1.00  0.00    -0.332 OA
ENDROOT
BRANCH   1   7
ATOM      7  C   UNL     1     -10.214  33.042   8.456  1.00  0.00     0.198 C 
BRANCH   7   8
ATOM      8  O   UNL     1     -11.468  33.441   7.912  1.00  0.00    -0.347 OA
BRANCH   8   9
ATOM      9  C   UNL     1     -11.708  34.827   7.974  1.00  0.00     0.281 C 
ATOM     10  C   UNL     1     -10.197  37.513   5.994  1.00  0.00     0.041 C 
ATOM     11  C   UNL     1     -11.092  36.865   7.063  1.00  0.00     0.150 C 
ATOM     12  C   UNL     1     -10.882  37.533   8.441  1.00  0.00     0.174 C 
ATOM     13  O   UNL     1     -10.777  35.491   7.148  1.00  0.00    -0.344 OA
ATOM     14  C   UNL     1     -11.727  36.813   9.526  1.00  0.00     0.179 C 
ATOM     15  C   UNL     1     -11.514  35.289   9.423  1.00  0.00     0.202 C 
BRANCH  12  16
ATOM     16  O   UNL     1     -11.328  38.860   8.354  1.00  0.00    -0.388 OA
ATOM     17  H   UNL     1     -11.800  39.085   9.210  1.00  0.00     0.211 HD
ENDBRANCH  12  16
BRANCH  14  18
ATOM     18  O   UNL     1     -11.374  37.252  10.811  1.00  0.00    -0.387 OA
ATOM     19  H   UNL     1     -11.945  36.766  11.461  1.00  0.00     0.211 HD
ENDBRANCH  14  18
BRANCH  15  20
ATOM     20  O   UNL     1     -12.397  34.628  10.308  1.00  0.00    -0.385 OA
ATOM     21  H   UNL     1     -12.331  33.655  10.123  1.00  0.00     0.211 HD
ENDBRANCH  15  20
ENDBRANCH   8   9
ENDBRANCH   7   8
ENDBRANCH   1   7
BRANCH   2  22
ATOM     22  O   UNL     1      -8.808  34.274   6.196  1.00  0.00    -0.387 OA
ATOM     23  H   UNL     1      -8.084  34.704   5.686  1.00  0.00     0.211 HD
ENDBRANCH   2  22
BRANCH   3  24
ATOM     24  O   UNL     1      -6.099  32.241   6.126  1.00  0.00    -0.387 OA
ATOM     25  H   UNL     1      -6.055  32.515   7.088  1.00  0.00     0.211 HD
ENDBRANCH   3  24
BRANCH   5  26
ATOM     26  O   UNL     1     -10.014  29.510   5.510  1.00  0.00    -0.454 OA
BRANCH  26  27
ATOM     27  C   UNL     1     -10.002  28.760   6.684  1.00  0.00     0.214 A 
ATOM     28  C   UNL     1      -8.917  27.938   7.006  1.00  0.00     0.180 A 
ATOM     29  C   UNL     1     -11.039  28.901   7.622  1.00  0.00     0.239 A 
ATOM     30  O   UNL     1      -8.825  27.416   8.222  1.00  0.00    -0.452 OA
ATOM     31  C   UNL     1     -10.919  28.327   8.911  1.00  0.00     0.111 A 
ATOM     32  O   UNL     1     -12.073  29.561   7.320  1.00  0.00    -0.285 OA
ATOM     33  C   UNL     1      -9.738  27.592   9.169  1.00  0.00     0.146 A 
ATOM     34  C   UNL     1     -11.879  28.491   9.934  1.00  0.00     0.134 A 
ATOM     35  C   UNL     1      -9.521  27.066  10.440  1.00  0.00     0.094 A 
ATOM     36  C   UNL     1     -11.622  27.993  11.211  1.00  0.00     0.093 A 
ATOM     37  C   UNL     1     -10.423  27.311  11.472  1.00  0.00     0.123 A 
BRANCH  28  38
ATOM     38  C   UNL     1      -7.895  27.595   6.001  1.00  0.00     0.025 A 
ATOM     39  C   UNL     1      -6.547  27.850   6.296  1.00  0.00     0.062 A 
ATOM     40  C   UNL     1      -8.255  27.128   4.727  1.00  0.00     0.016 A 
ATOM     41  C   UNL     1      -5.559  27.619   5.340  1.00  0.00     0.158 A 
ATOM     42  C   UNL     1      -7.276  26.912   3.763  1.00  0.00     0.051 A 
ATOM     43  C   UNL     1      -5.926  27.143   4.066  1.00  0.00     0.157 A 
BRANCH  41  44
ATOM     44  O   UNL     1      -4.220  27.865   5.634  1.00  0.00    -0.504 OA
ATOM     45  H   UNL     1      -3.881  28.805   5.823  1.00  0.00     0.293 HD
ENDBRANCH  41  44
BRANCH  43  46
ATOM     46  O   UNL     1      -4.961  26.875   3.100  1.00  0.00    -0.504 OA
ATOM     47  H   UNL     1      -3.997  26.723   3.360  1.00  0.00     0.293 HD
ENDBRANCH  43  46
ENDBRANCH  28  38
BRANCH  34  48
ATOM     48  O   UNL     1     -13.074  29.152   9.676  1.00  0.00    -0.507 OA
ATOM     49  H   UNL     1     -13.215  30.097   9.952  1.00  0.00     0.293 HD
ENDBRANCH  34  48
BRANCH  37  50
ATOM     50  O   UNL     1     -10.116  26.907  12.778  1.00  0.00    -0.508 OA
ATOM     51  H   UNL     1     -10.288  25.954  13.112  1.00  0.00     0.293 HD
ENDBRANCH  37  50
ENDBRANCH  26  27
ENDBRANCH   5  26
BRANCH   4  52
ATOM     52  O   UNL     1      -7.351  30.347   4.401  1.00  0.00    -0.384 OA
ATOM     53  H   UNL     1      -8.075  30.221   3.736  1.00  0.00     0.211 HD
ENDBRANCH   4  52
TORSDOF 16
ENDMDL
MODEL 9
REMARK VINA RESULT:    -4.634      2.406      4.541
REMARK INTER + INTRA:          -9.773
REMARK INTER:                  -8.965
REMARK INTRA:                  -0.808
REMARK UNBOUND:                -2.159
REMARK SMILES C[C@H]1O[C@@H](OC[C@H]2O[C@H](Oc3c(-c4ccc(O)c(O)c4)oc4cc(O)cc(O)c4c3=O)[C@@H](O)[C@H](O)[C@H]2O)[C@H](O)[C@@H](O)[C@@H]1O
REMARK SMILES IDX 7 1 36 2 34 3 32 4 9 5 8 6 6 7 5 8 4 9 1 10 2 11 42 12 3 13
REMARK SMILES IDX 40 14 38 15 43 16 41 18 39 20 37 22 35 24 10 26 11 27 12 28
REMARK SMILES IDX 30 29 21 30 29 31 31 32 22 33 27 34 23 35 26 36 24 37 13 38
REMARK SMILES IDX 20 39 14 40 18 41 15 42 16 43 19 44 17 46 28 48 25 50 33 52
REMARK H PARENT 43 17 41 19 39 21 37 23 35 25 19 45 17 47 28 49 25 51 33 53
REMARK Flexibility Score: inf
ROOT
ATOM      1  C   UNL     1      -9.502  29.412   6.380  1.00  0.00     0.180 C 
ATOM      2  C   UNL     1     -10.820  28.820   5.831  1.00  0.00     0.177 C 
ATOM      3  C   UNL     1     -12.053  29.285   6.648  1.00  0.00     0.180 C 
ATOM      4  C   UNL     1     -11.682  30.274   7.759  1.00  0.00     0.214 C 
ATOM      5  C   UNL     1     -10.649  31.347   7.263  1.00  0.00     0.339 C 
ATOM      6  O   UNL     1      -9.532  30.826   6.560  1.00  0.00    -0.332 OA
ENDROOT
BRANCH   1   7
ATOM      7  C   UNL     1      -8.275  29.014   5.537  1.00  0.00     0.198 C 
BRANCH   7   8
ATOM      8  O   UNL     1      -7.596  27.873   6.053  1.00  0.00    -0.347 OA
BRANCH   8   9
ATOM      9  C   UNL     1      -6.236  27.804   5.696  1.00  0.00     0.281 C 
ATOM     10  C   UNL     1      -3.404  29.693   7.046  1.00  0.00     0.041 C 
ATOM     11  C   UNL     1      -4.145  28.692   6.145  1.00  0.00     0.150 C 
ATOM     12  C   UNL     1      -3.817  28.939   4.656  1.00  0.00     0.174 C 
ATOM     13  O   UNL     1      -5.534  28.834   6.355  1.00  0.00    -0.344 OA
ATOM     14  C   UNL     1      -4.638  27.978   3.754  1.00  0.00     0.179 C 
ATOM     15  C   UNL     1      -6.120  28.006   4.180  1.00  0.00     0.202 C 
BRANCH  12  16
ATOM     16  O   UNL     1      -2.456  28.662   4.458  1.00  0.00    -0.388 OA
ATOM     17  H   UNL     1      -2.317  27.678   4.594  1.00  0.00     0.211 HD
ENDBRANCH  12  16
BRANCH  14  18
ATOM     18  O   UNL     1      -4.529  28.341   2.403  1.00  0.00    -0.387 OA
ATOM     19  H   UNL     1      -3.563  28.388   2.182  1.00  0.00     0.211 HD
ENDBRANCH  14  18
BRANCH  15  20
ATOM     20  O   UNL     1      -6.837  27.021   3.462  1.00  0.00    -0.385 OA
ATOM     21  H   UNL     1      -6.782  27.255   2.499  1.00  0.00     0.211 HD
ENDBRANCH  15  20
ENDBRANCH   8   9
ENDBRANCH   7   8
ENDBRANCH   1   7
BRANCH   2  22
ATOM     22  O   UNL     1     -11.005  29.158   4.478  1.00  0.00    -0.387 OA
ATOM     23  H   UNL     1     -11.370  28.358   4.033  1.00  0.00     0.211 HD
ENDBRANCH   2  22
BRANCH   3  24
ATOM     24  O   UNL     1     -12.673  28.196   7.265  1.00  0.00    -0.387 OA
ATOM     25  H   UNL     1     -13.633  28.448   7.398  1.00  0.00     0.211 HD
ENDBRANCH   3  24
BRANCH   5  26
ATOM     26  O   UNL     1     -10.145  32.147   8.343  1.00  0.00    -0.454 OA
BRANCH  26  27
ATOM     27  C   UNL     1     -10.737  33.366   8.671  1.00  0.00     0.214 A 
ATOM     28  C   UNL     1     -11.218  33.613   9.961  1.00  0.00     0.180 A 
ATOM     29  C   UNL     1     -10.765  34.411   7.733  1.00  0.00     0.239 A 
ATOM     30  O   UNL     1     -11.566  34.844  10.309  1.00  0.00    -0.452 OA
ATOM     31  C   UNL     1     -11.148  35.716   8.129  1.00  0.00     0.111 A 
ATOM     32  O   UNL     1     -10.425  34.191   6.537  1.00  0.00    -0.285 OA
ATOM     33  C   UNL     1     -11.526  35.881   9.482  1.00  0.00     0.146 A 
ATOM     34  C   UNL     1     -11.124  36.834   7.267  1.00  0.00     0.134 A 
ATOM     35  C   UNL     1     -11.841  37.152   9.956  1.00  0.00     0.094 A 
ATOM     36  C   UNL     1     -11.400  38.104   7.773  1.00  0.00     0.093 A 
ATOM     37  C   UNL     1     -11.724  38.267   9.129  1.00  0.00     0.123 A 
BRANCH  28  38
ATOM     38  C   UNL     1     -11.396  32.517  10.932  1.00  0.00     0.025 A 
ATOM     39  C   UNL     1     -10.284  32.084  11.671  1.00  0.00     0.062 A 
ATOM     40  C   UNL     1     -12.618  31.838  11.046  1.00  0.00     0.016 A 
ATOM     41  C   UNL     1     -10.391  30.997  12.535  1.00  0.00     0.158 A 
ATOM     42  C   UNL     1     -12.727  30.741  11.894  1.00  0.00     0.051 A 
ATOM     43  C   UNL     1     -11.623  30.323  12.651  1.00  0.00     0.157 A 
BRANCH  41  44
ATOM     44  O   UNL     1      -9.290  30.569  13.274  1.00  0.00    -0.504 OA
ATOM     45  H   UNL     1      -8.615  31.229  13.652  1.00  0.00     0.293 HD
ENDBRANCH  41  44
BRANCH  43  46
ATOM     46  O   UNL     1     -11.770  29.252  13.527  1.00  0.00    -0.504 OA
ATOM     47  H   UNL     1     -11.234  29.206  14.382  1.00  0.00     0.293 HD
ENDBRANCH  43  46
ENDBRANCH  28  38
BRANCH  34  48
ATOM     48  O   UNL     1     -10.820  36.677   5.920  1.00  0.00    -0.507 OA
ATOM     49  H   UNL     1     -10.180  37.283   5.458  1.00  0.00     0.293 HD
ENDBRANCH  34  48
BRANCH  37  50
ATOM     50  O   UNL     1     -11.894  39.552   9.661  1.00  0.00    -0.508 OA
ATOM     51  H   UNL     1     -11.113  40.204   9.778  1.00  0.00     0.293 HD
ENDBRANCH  37  50
ENDBRANCH  26  27
ENDBRANCH   5  26
BRANCH   4  52
ATOM     52  O   UNL     1     -12.856  30.854   8.281  1.00  0.00    -0.384 OA
ATOM     53  H   UNL     1     -13.611  30.474   7.765  1.00  0.00     0.211 HD
ENDBRANCH   4  52
TORSDOF 16
ENDMDL
