MODEL 1
REMARK VINA RESULT:    -3.746      0.000      0.000
REMARK INTER + INTRA:          -5.212
REMARK INTER:                  -5.060
REMARK INTRA:                  -0.152
REMARK UNBOUND:                -0.152
REMARK SMILES [NH3+]CCCC[C@@H]([NH3+])C(=O)[O-]
REMARK SMILES IDX 4 1 3 2 2 3 1 4 5 8 6 9 7 10 8 14 9 15 10 16
REMARK H PARENT 1 5 1 6 1 7 7 11 7 12 7 13
REMARK Flexibility Score: inf
ROOT
ATOM      1  C   UNL     1      14.253  30.872  13.886  1.00  0.00     0.012 C 
ENDROOT
BRANCH   1   2
ATOM      2  C   UNL     1      12.799  31.358  13.715  1.00  0.00     0.061 C 
BRANCH   2   3
ATOM      3  C   UNL     1      11.749  30.268  13.995  1.00  0.00     0.258 C 
BRANCH   3   4
ATOM      4  N   UNL     1      10.925  30.576  15.165  1.00  0.00    -0.358 N 
ATOM      5  H   UNL     1      11.120  29.894  15.932  1.00  0.00     0.344 HD
ATOM      6  H   UNL     1       9.910  30.557  14.912  1.00  0.00     0.344 HD
ATOM      7  H   UNL     1      11.168  31.534  15.508  1.00  0.00     0.344 HD
ENDBRANCH   3   4
ENDBRANCH   2   3
ENDBRANCH   1   2
BRANCH   1   8
ATOM      8  C   UNL     1      15.265  31.807  13.199  1.00  0.00     0.072 C 
BRANCH   8   9
ATOM      9  C   UNL     1      16.509  32.067  14.076  1.00  0.00     0.227 C 
BRANCH   9  10
ATOM     10  N   UNL     1      16.110  32.513  15.417  1.00  0.00    -0.350 N 
ATOM     11  H   UNL     1      15.214  33.052  15.375  1.00  0.00     0.345 HD
ATOM     12  H   UNL     1      16.858  33.121  15.824  1.00  0.00     0.345 HD
ATOM     13  H   UNL     1      15.987  31.685  16.044  1.00  0.00     0.345 HD
ENDBRANCH   9  10
BRANCH   9  14
ATOM     14  C   UNL     1      17.374  30.836  14.175  1.00  0.00     0.099 C 
ATOM     15  O   UNL     1      17.870  30.317  13.139  1.00  0.00    -0.544 OA
ATOM     16  O   UNL     1      17.635  30.270  15.416  1.00  0.00    -0.544 OA
ENDBRANCH   9  14
ENDBRANCH   8   9
ENDBRANCH   1   8
TORSDOF 7
ENDMDL
MODEL 2
REMARK VINA RESULT:    -3.731      2.957      4.530
REMARK INTER + INTRA:          -5.192
REMARK INTER:                  -4.713
REMARK INTRA:                  -0.479
REMARK UNBOUND:                -0.152
REMARK SMILES [NH3+]CCCC[C@@H]([NH3+])C(=O)[O-]
REMARK SMILES IDX 4 1 3 2 2 3 1 4 5 8 6 9 7 10 8 14 9 15 10 16
REMARK H PARENT 1 5 1 6 1 7 7 11 7 12 7 13
REMARK Flexibility Score: inf
ROOT
ATOM      1  C   UNL     1      18.612  32.376  12.745  1.00  0.00     0.012 C 
ENDROOT
BRANCH   1   2
ATOM      2  C   UNL     1      19.293  31.080  12.260  1.00  0.00     0.061 C 
BRANCH   2   3
ATOM      3  C   UNL     1      18.403  30.224  11.341  1.00  0.00     0.258 C 
BRANCH   3   4
ATOM      4  N   UNL     1      18.282  28.844  11.811  1.00  0.00    -0.358 N 
ATOM      5  H   UNL     1      17.535  28.774  12.538  1.00  0.00     0.344 HD
ATOM      6  H   UNL     1      19.194  28.508  12.197  1.00  0.00     0.344 HD
ATOM      7  H   UNL     1      18.013  28.233  11.005  1.00  0.00     0.344 HD
ENDBRANCH   3   4
ENDBRANCH   2   3
ENDBRANCH   1   2
BRANCH   1   8
ATOM      8  C   UNL     1      17.153  32.139  13.179  1.00  0.00     0.072 C 
BRANCH   8   9
ATOM      9  C   UNL     1      17.055  31.535  14.597  1.00  0.00     0.227 C 
BRANCH   9  10
ATOM     10  N   UNL     1      16.284  32.418  15.480  1.00  0.00    -0.350 N 
ATOM     11  H   UNL     1      15.391  32.713  15.020  1.00  0.00     0.345 HD
ATOM     12  H   UNL     1      16.848  33.269  15.709  1.00  0.00     0.345 HD
ATOM     13  H   UNL     1      16.064  31.923  16.375  1.00  0.00     0.345 HD
ENDBRANCH   9  10
BRANCH   9  14
ATOM     14  C   UNL     1      16.432  30.163  14.563  1.00  0.00     0.099 C 
ATOM     15  O   UNL     1      17.129  29.138  14.788  1.00  0.00    -0.544 OA
ATOM     16  O   UNL     1      15.077  30.023  14.290  1.00  0.00    -0.544 OA
ENDBRANCH   9  14
ENDBRANCH   8   9
ENDBRANCH   1   8
TORSDOF 7
ENDMDL
MODEL 3
REMARK VINA RESULT:    -3.731      2.443      3.060
REMARK INTER + INTRA:          -5.192
REMARK INTER:                  -4.663
REMARK INTRA:                  -0.529
REMARK UNBOUND:                -0.152
REMARK SMILES [NH3+]CCCC[C@@H]([NH3+])C(=O)[O-]
REMARK SMILES IDX 4 1 3 2 2 3 1 4 5 8 6 9 7 10 8 14 9 15 10 16
REMARK H PARENT 1 5 1 6 1 7 7 11 7 12 7 13
REMARK Flexibility Score: inf
ROOT
ATOM      1  C   UNL     1      16.960  28.804  14.692  1.00  0.00     0.012 C 
ENDROOT
BRANCH   1   2
ATOM      2  C   UNL     1      15.738  28.018  15.211  1.00  0.00     0.061 C 
BRANCH   2   3
ATOM      3  C   UNL     1      14.680  27.740  14.128  1.00  0.00     0.258 C 
BRANCH   3   4
ATOM      4  N   UNL     1      13.629  28.758  14.103  1.00  0.00    -0.358 N 
ATOM      5  H   UNL     1      13.162  28.771  13.168  1.00  0.00     0.344 HD
ATOM      6  H   UNL     1      14.027  29.700  14.322  1.00  0.00     0.344 HD
ATOM      7  H   UNL     1      12.910  28.522  14.825  1.00  0.00     0.344 HD
ENDBRANCH   3   4
ENDBRANCH   2   3
ENDBRANCH   1   2
BRANCH   1   8
ATOM      8  C   UNL     1      17.099  30.179  15.369  1.00  0.00     0.072 C 
BRANCH   8   9
ATOM      9  C   UNL     1      16.070  31.200  14.836  1.00  0.00     0.227 C 
BRANCH   9  10
ATOM     10  N   UNL     1      16.236  32.496  15.506  1.00  0.00    -0.350 N 
ATOM     11  H   UNL     1      16.553  33.225  14.826  1.00  0.00     0.345 HD
ATOM     12  H   UNL     1      16.945  32.410  16.271  1.00  0.00     0.345 HD
ATOM     13  H   UNL     1      15.329  32.793  15.934  1.00  0.00     0.345 HD
ENDBRANCH   9  10
BRANCH   9  14
ATOM     14  C   UNL     1      16.193  31.369  13.343  1.00  0.00     0.099 C 
ATOM     15  O   UNL     1      17.196  31.948  12.845  1.00  0.00    -0.544 OA
ATOM     16  O   UNL     1      15.201  30.877  12.505  1.00  0.00    -0.544 OA
ENDBRANCH   9  14
ENDBRANCH   8   9
ENDBRANCH   1   8
TORSDOF 7
ENDMDL
MODEL 4
REMARK VINA RESULT:    -3.707      2.981      3.570
REMARK INTER + INTRA:          -5.159
REMARK INTER:                  -4.698
REMARK INTRA:                  -0.461
REMARK UNBOUND:                -0.152
REMARK SMILES [NH3+]CCCC[C@@H]([NH3+])C(=O)[O-]
REMARK SMILES IDX 4 1 3 2 2 3 1 4 5 8 6 9 7 10 8 14 9 15 10 16
REMARK H PARENT 1 5 1 6 1 7 7 11 7 12 7 13
REMARK Flexibility Score: inf
ROOT
ATOM      1  C   UNL     1      16.994  28.860  14.940  1.00  0.00     0.012 C 
ENDROOT
BRANCH   1   2
ATOM      2  C   UNL     1      15.661  28.783  14.168  1.00  0.00     0.061 C 
BRANCH   2   3
ATOM      3  C   UNL     1      15.773  28.048  12.820  1.00  0.00     0.258 C 
BRANCH   3   4
ATOM      4  N   UNL     1      16.935  28.482  12.044  1.00  0.00    -0.358 N 
ATOM      5  H   UNL     1      16.976  29.525  12.008  1.00  0.00     0.344 HD
ATOM      6  H   UNL     1      16.896  28.088  11.075  1.00  0.00     0.344 HD
ATOM      7  H   UNL     1      17.804  28.135  12.511  1.00  0.00     0.344 HD
ENDBRANCH   3   4
ENDBRANCH   2   3
ENDBRANCH   1   2
BRANCH   1   8
ATOM      8  C   UNL     1      17.365  30.306  15.318  1.00  0.00     0.072 C 
BRANCH   8   9
ATOM      9  C   UNL     1      16.535  31.346  14.535  1.00  0.00     0.227 C 
BRANCH   9  10
ATOM     10  N   UNL     1      16.236  32.509  15.380  1.00  0.00    -0.350 N 
ATOM     11  H   UNL     1      17.119  32.979  15.687  1.00  0.00     0.345 HD
ATOM     12  H   UNL     1      15.700  32.202  16.226  1.00  0.00     0.345 HD
ATOM     13  H   UNL     1      15.646  33.191  14.851  1.00  0.00     0.345 HD
ENDBRANCH   9  10
BRANCH   9  14
ATOM     14  C   UNL     1      17.252  31.786  13.284  1.00  0.00     0.099 C 
ATOM     15  O   UNL     1      16.720  31.628  12.152  1.00  0.00    -0.544 OA
ATOM     16  O   UNL     1      18.504  32.379  13.375  1.00  0.00    -0.544 OA
ENDBRANCH   9  14
ENDBRANCH   8   9
ENDBRANCH   1   8
TORSDOF 7
ENDMDL
MODEL 5
REMARK VINA RESULT:    -3.692      2.932      5.104
REMARK INTER + INTRA:          -5.139
REMARK INTER:                  -4.984
REMARK INTRA:                  -0.155
REMARK UNBOUND:                -0.152
REMARK SMILES [NH3+]CCCC[C@@H]([NH3+])C(=O)[O-]
REMARK SMILES IDX 4 1 3 2 2 3 1 4 5 8 6 9 7 10 8 14 9 15 10 16
REMARK H PARENT 1 5 1 6 1 7 7 11 7 12 7 13
REMARK Flexibility Score: inf
ROOT
ATOM      1  C   UNL     1      17.512  31.576  12.834  1.00  0.00     0.012 C 
ENDROOT
BRANCH   1   2
ATOM      2  C   UNL     1      18.784  32.445  12.764  1.00  0.00     0.061 C 
BRANCH   2   3
ATOM      3  C   UNL     1      19.168  32.859  11.332  1.00  0.00     0.258 C 
BRANCH   3   4
ATOM      4  N   UNL     1      19.202  34.312  11.162  1.00  0.00    -0.358 N 
ATOM      5  H   UNL     1      18.624  34.775  11.898  1.00  0.00     0.344 HD
ATOM      6  H   UNL     1      18.857  34.577  10.210  1.00  0.00     0.344 HD
ATOM      7  H   UNL     1      20.189  34.642  11.264  1.00  0.00     0.344 HD
ENDBRANCH   3   4
ENDBRANCH   2   3
ENDBRANCH   1   2
BRANCH   1   8
ATOM      8  C   UNL     1      17.452  30.735  14.123  1.00  0.00     0.072 C 
BRANCH   8   9
ATOM      9  C   UNL     1      16.201  31.054  14.971  1.00  0.00     0.227 C 
BRANCH   9  10
ATOM     10  N   UNL     1      16.253  32.436  15.464  1.00  0.00    -0.350 N 
ATOM     11  H   UNL     1      15.301  32.761  15.752  1.00  0.00     0.345 HD
ATOM     12  H   UNL     1      16.616  33.066  14.712  1.00  0.00     0.345 HD
ATOM     13  H   UNL     1      16.902  32.497  16.282  1.00  0.00     0.345 HD
ENDBRANCH   9  10
BRANCH   9  14
ATOM     14  C   UNL     1      14.936  30.832  14.182  1.00  0.00     0.099 C 
ATOM     15  O   UNL     1      14.681  29.702  13.686  1.00  0.00    -0.544 OA
ATOM     16  O   UNL     1      14.037  31.876  14.005  1.00  0.00    -0.544 OA
ENDBRANCH   9  14
ENDBRANCH   8   9
ENDBRANCH   1   8
TORSDOF 7
ENDMDL
MODEL 6
REMARK VINA RESULT:    -3.688      4.190      6.031
REMARK INTER + INTRA:          -5.133
REMARK INTER:                  -5.039
REMARK INTRA:                  -0.094
REMARK UNBOUND:                -0.152
REMARK SMILES [NH3+]CCCC[C@@H]([NH3+])C(=O)[O-]
REMARK SMILES IDX 4 1 3 2 2 3 1 4 5 8 6 9 7 10 8 14 9 15 10 16
REMARK H PARENT 1 5 1 6 1 7 7 11 7 12 7 13
REMARK Flexibility Score: inf
ROOT
ATOM      1  C   UNL     1      13.310  30.522  13.603  1.00  0.00     0.012 C 
ENDROOT
BRANCH   1   2
ATOM      2  C   UNL     1      14.146  31.763  13.977  1.00  0.00     0.061 C 
BRANCH   2   3
ATOM      3  C   UNL     1      15.558  31.423  14.485  1.00  0.00     0.258 C 
BRANCH   3   4
ATOM      4  N   UNL     1      16.096  32.457  15.370  1.00  0.00    -0.358 N 
ATOM      5  H   UNL     1      16.068  32.134  16.362  1.00  0.00     0.344 HD
ATOM      6  H   UNL     1      15.555  33.347  15.263  1.00  0.00     0.344 HD
ATOM      7  H   UNL     1      17.093  32.639  15.112  1.00  0.00     0.344 HD
ENDBRANCH   3   4
ENDBRANCH   2   3
ENDBRANCH   1   2
BRANCH   1   8
ATOM      8  C   UNL     1      11.937  30.899  13.018  1.00  0.00     0.072 C 
BRANCH   8   9
ATOM      9  C   UNL     1      10.772  30.235  13.786  1.00  0.00     0.227 C 
BRANCH   9  10
ATOM     10  N   UNL     1      10.843  30.568  15.214  1.00  0.00    -0.350 N 
ATOM     11  H   UNL     1      10.492  29.773  15.797  1.00  0.00     0.345 HD
ATOM     12  H   UNL     1      10.261  31.417  15.409  1.00  0.00     0.345 HD
ATOM     13  H   UNL     1      11.831  30.783  15.481  1.00  0.00     0.345 HD
ENDBRANCH   9  10
BRANCH   9  14
ATOM     14  C   UNL     1       9.438  30.653  13.222  1.00  0.00     0.099 C 
ATOM     15  O   UNL     1       8.377  30.094  13.606  1.00  0.00    -0.544 OA
ATOM     16  O   UNL     1       9.373  31.669  12.277  1.00  0.00    -0.544 OA
ENDBRANCH   9  14
ENDBRANCH   8   9
ENDBRANCH   1   8
TORSDOF 7
ENDMDL
MODEL 7
REMARK VINA RESULT:    -3.682     12.358     13.379
REMARK INTER + INTRA:          -5.126
REMARK INTER:                  -4.978
REMARK INTRA:                  -0.148
REMARK UNBOUND:                -0.152
REMARK SMILES [NH3+]CCCC[C@@H]([NH3+])C(=O)[O-]
REMARK SMILES IDX 4 1 3 2 2 3 1 4 5 8 6 9 7 10 8 14 9 15 10 16
REMARK H PARENT 1 5 1 6 1 7 7 11 7 12 7 13
REMARK Flexibility Score: inf
ROOT
ATOM      1  C   UNL     1      16.700  29.678  26.769  1.00  0.00     0.012 C 
ENDROOT
BRANCH   1   2
ATOM      2  C   UNL     1      18.203  30.022  26.743  1.00  0.00     0.061 C 
BRANCH   2   3
ATOM      3  C   UNL     1      18.877  29.938  28.124  1.00  0.00     0.258 C 
BRANCH   3   4
ATOM      4  N   UNL     1      20.320  30.171  28.055  1.00  0.00    -0.358 N 
ATOM      5  H   UNL     1      20.558  31.094  28.481  1.00  0.00     0.344 HD
ATOM      6  H   UNL     1      20.648  30.134  27.062  1.00  0.00     0.344 HD
ATOM      7  H   UNL     1      20.810  29.423  28.597  1.00  0.00     0.344 HD
ENDBRANCH   3   4
ENDBRANCH   2   3
ENDBRANCH   1   2
BRANCH   1   8
ATOM      8  C   UNL     1      15.896  30.503  25.747  1.00  0.00     0.072 C 
BRANCH   8   9
ATOM      9  C   UNL     1      16.032  32.023  25.986  1.00  0.00     0.227 C 
BRANCH   9  10
ATOM     10  N   UNL     1      16.345  32.714  24.729  1.00  0.00    -0.350 N 
ATOM     11  H   UNL     1      17.255  33.226  24.806  1.00  0.00     0.345 HD
ATOM     12  H   UNL     1      15.586  33.398  24.503  1.00  0.00     0.345 HD
ATOM     13  H   UNL     1      16.403  32.022  23.947  1.00  0.00     0.345 HD
ENDBRANCH   9  10
BRANCH   9  14
ATOM     14  C   UNL     1      14.776  32.595  26.592  1.00  0.00     0.099 C 
ATOM     15  O   UNL     1      14.464  33.800  26.400  1.00  0.00    -0.544 OA
ATOM     16  O   UNL     1      13.949  31.787  27.363  1.00  0.00    -0.544 OA
ENDBRANCH   9  14
ENDBRANCH   8   9
ENDBRANCH   1   8
TORSDOF 7
ENDMDL
MODEL 8
REMARK VINA RESULT:    -3.680      2.632      4.380
REMARK INTER + INTRA:          -5.122
REMARK INTER:                  -4.597
REMARK INTRA:                  -0.526
REMARK UNBOUND:                -0.152
REMARK SMILES [NH3+]CCCC[C@@H]([NH3+])C(=O)[O-]
REMARK SMILES IDX 4 1 3 2 2 3 1 4 5 8 6 9 7 10 8 14 9 15 10 16
REMARK H PARENT 1 5 1 6 1 7 7 11 7 12 7 13
REMARK Flexibility Score: inf
ROOT
ATOM      1  C   UNL     1      16.728  28.854  14.812  1.00  0.00     0.012 C 
ENDROOT
BRANCH   1   2
ATOM      2  C   UNL     1      17.340  30.050  15.568  1.00  0.00     0.061 C 
BRANCH   2   3
ATOM      3  C   UNL     1      17.228  31.383  14.806  1.00  0.00     0.258 C 
BRANCH   3   4
ATOM      4  N   UNL     1      16.313  32.321  15.457  1.00  0.00    -0.358 N 
ATOM      5  H   UNL     1      16.769  33.254  15.565  1.00  0.00     0.344 HD
ATOM      6  H   UNL     1      16.014  31.953  16.390  1.00  0.00     0.344 HD
ATOM      7  H   UNL     1      15.464  32.438  14.856  1.00  0.00     0.344 HD
ENDBRANCH   3   4
ENDBRANCH   2   3
ENDBRANCH   1   2
BRANCH   1   8
ATOM      8  C   UNL     1      16.218  29.249  13.414  1.00  0.00     0.072 C 
BRANCH   8   9
ATOM      9  C   UNL     1      14.686  29.099  13.287  1.00  0.00     0.227 C 
BRANCH   9  10
ATOM     10  N   UNL     1      14.127  28.481  14.496  1.00  0.00    -0.350 N 
ATOM     11  H   UNL     1      14.322  27.453  14.510  1.00  0.00     0.345 HD
ATOM     12  H   UNL     1      13.092  28.634  14.525  1.00  0.00     0.345 HD
ATOM     13  H   UNL     1      14.545  28.924  15.347  1.00  0.00     0.345 HD
ENDBRANCH   9  10
BRANCH   9  14
ATOM     14  C   UNL     1      14.027  30.431  13.033  1.00  0.00     0.099 C 
ATOM     15  O   UNL     1      13.656  30.750  11.872  1.00  0.00    -0.544 OA
ATOM     16  O   UNL     1      13.817  31.312  14.086  1.00  0.00    -0.544 OA
ENDBRANCH   9  14
ENDBRANCH   8   9
ENDBRANCH   1   8
TORSDOF 7
ENDMDL
MODEL 9
REMARK VINA RESULT:    -3.562      3.453      4.680
REMARK INTER + INTRA:          -4.963
REMARK INTER:                  -4.835
REMARK INTRA:                  -0.128
REMARK UNBOUND:                -0.152
REMARK SMILES [NH3+]CCCC[C@@H]([NH3+])C(=O)[O-]
REMARK SMILES IDX 4 1 3 2 2 3 1 4 5 8 6 9 7 10 8 14 9 15 10 16
REMARK H PARENT 1 5 1 6 1 7 7 11 7 12 7 13
REMARK Flexibility Score: inf
ROOT
ATOM      1  C   UNL     1      17.903  31.143  12.948  1.00  0.00     0.012 C 
ENDROOT
BRANCH   1   2
ATOM      2  C   UNL     1      17.648  30.727  14.411  1.00  0.00     0.061 C 
BRANCH   2   3
ATOM      3  C   UNL     1      16.234  31.075  14.912  1.00  0.00     0.258 C 
BRANCH   3   4
ATOM      4  N   UNL     1      16.148  32.439  15.434  1.00  0.00    -0.358 N 
ATOM      5  H   UNL     1      15.167  32.791  15.365  1.00  0.00     0.344 HD
ATOM      6  H   UNL     1      16.798  33.071  14.912  1.00  0.00     0.344 HD
ATOM      7  H   UNL     1      16.425  32.433  16.443  1.00  0.00     0.344 HD
ENDBRANCH   3   4
ENDBRANCH   2   3
ENDBRANCH   1   2
BRANCH   1   8
ATOM      8  C   UNL     1      18.744  32.428  12.846  1.00  0.00     0.072 C 
BRANCH   8   9
ATOM      9  C   UNL     1      19.079  32.794  11.383  1.00  0.00     0.227 C 
BRANCH   9  10
ATOM     10  N   UNL     1      19.169  34.250  11.224  1.00  0.00    -0.350 N 
ATOM     11  H   UNL     1      18.258  34.644  10.894  1.00  0.00     0.345 HD
ATOM     12  H   UNL     1      19.915  34.484  10.528  1.00  0.00     0.345 HD
ATOM     13  H   UNL     1      19.426  34.692  12.137  1.00  0.00     0.345 HD
ENDBRANCH   9  10
BRANCH   9  14
ATOM     14  C   UNL     1      20.364  32.143  10.939  1.00  0.00     0.099 C 
ATOM     15  O   UNL     1      20.648  32.058   9.714  1.00  0.00    -0.544 OA
ATOM     16  O   UNL     1      21.249  31.640  11.884  1.00  0.00    -0.544 OA
ENDBRANCH   9  14
ENDBRANCH   8   9
ENDBRANCH   1   8
TORSDOF 7
ENDMDL
