MODEL 1
REMARK VINA RESULT:    -4.830      0.000      0.000
REMARK INTER + INTRA:         -10.282
REMARK INTER:                  -8.078
REMARK INTRA:                  -2.204
REMARK UNBOUND:                -2.204
REMARK SMILES COc1cc(-c2oc3cc(O)cc(O)c3c(=O)c2O[C@H]2O[C@H](CO[C@@H]3O[C@H](C)[C@@H](O)[C@@H](O)[C@@H]3O)[C@H](O)[C@H](O)[C@@H]2O)ccc1O
REMARK SMILES IDX 22 1 35 2 37 3 39 4 20 5 21 6 23 7 24 8 25 9 28 10 27 11
REMARK SMILES IDX 29 12 26 13 31 14 33 15 30 16 32 18 34 20 36 22 38 24 19 26
REMARK SMILES IDX 18 27 6 28 16 29 7 30 15 31 17 32 8 33 13 34 9 35 12 36
REMARK SMILES IDX 10 37 5 38 4 39 41 40 3 41 42 42 43 43 2 44 1 45 44 46 14 48
REMARK SMILES IDX 11 50 40 52
REMARK H PARENT 30 17 32 19 34 21 36 23 38 25 44 47 14 49 11 51 40 53
REMARK Flexibility Score: inf
ROOT
ATOM      1  C   UNL     1      -1.396   7.945  13.885  1.00  0.00     0.180 C 
ATOM      2  C   UNL     1      -1.833   8.971  12.781  1.00  0.00     0.177 C 
ATOM      3  C   UNL     1      -2.812   8.217  11.887  1.00  0.00     0.180 C 
ATOM      4  C   UNL     1      -4.026   7.723  12.691  1.00  0.00     0.214 C 
ATOM      5  C   UNL     1      -3.577   6.961  13.994  1.00  0.00     0.339 C 
ATOM      6  O   UNL     1      -2.513   7.648  14.702  1.00  0.00    -0.332 OA
ENDROOT
BRANCH   1   7
ATOM      7  C   UNL     1      -0.176   8.496  14.663  1.00  0.00     0.198 C 
BRANCH   7   8
ATOM      8  O   UNL     1      -0.254   8.369  16.085  1.00  0.00    -0.347 OA
BRANCH   8   9
ATOM      9  C   UNL     1       0.865   7.813  16.781  1.00  0.00     0.281 C 
ATOM     10  C   UNL     1      -1.581   6.210  17.853  1.00  0.00     0.041 C 
ATOM     11  C   UNL     1      -0.088   6.091  18.181  1.00  0.00     0.150 C 
ATOM     12  C   UNL     1       0.305   6.844  19.513  1.00  0.00     0.174 C 
ATOM     13  O   UNL     1       0.695   6.396  17.005  1.00  0.00    -0.344 OA
ATOM     14  C   UNL     1       0.676   8.344  19.330  1.00  0.00     0.179 C 
ATOM     15  C   UNL     1       1.533   8.492  18.050  1.00  0.00     0.202 C 
BRANCH  12  16
ATOM     16  O   UNL     1       1.317   6.171  20.242  1.00  0.00    -0.388 OA
ATOM     17  H   UNL     1       1.958   6.866  20.568  1.00  0.00     0.211 HD
ENDBRANCH  12  16
BRANCH  14  18
ATOM     18  O   UNL     1       1.387   8.831  20.441  1.00  0.00    -0.387 OA
ATOM     19  H   UNL     1       2.104   9.452  20.076  1.00  0.00     0.211 HD
ENDBRANCH  14  18
BRANCH  15  20
ATOM     20  O   UNL     1       1.993   9.834  17.838  1.00  0.00    -0.385 OA
ATOM     21  H   UNL     1       1.335  10.309  17.255  1.00  0.00     0.211 HD
ENDBRANCH  15  20
ENDBRANCH   8   9
ENDBRANCH   7   8
ENDBRANCH   1   7
BRANCH   2  22
ATOM     22  O   UNL     1      -2.486  10.097  13.355  1.00  0.00    -0.387 OA
ATOM     23  H   UNL     1      -3.276  10.325  12.786  1.00  0.00     0.211 HD
ENDBRANCH   2  22
BRANCH   3  24
ATOM     24  O   UNL     1      -3.273   8.988  10.808  1.00  0.00    -0.387 OA
ATOM     25  H   UNL     1      -2.525   9.053  10.166  1.00  0.00     0.211 HD
ENDBRANCH   3  24
BRANCH   5  26
ATOM     26  O   UNL     1      -3.262   5.609  13.712  1.00  0.00    -0.454 OA
BRANCH  26  27
ATOM     27  C   UNL     1      -3.719   4.570  14.547  1.00  0.00     0.214 A 
ATOM     28  C   UNL     1      -5.074   4.159  14.600  1.00  0.00     0.180 A 
ATOM     29  C   UNL     1      -2.828   3.984  15.463  1.00  0.00     0.239 A 
ATOM     30  O   UNL     1      -5.479   3.299  15.531  1.00  0.00    -0.452 OA
ATOM     31  C   UNL     1      -3.282   3.037  16.393  1.00  0.00     0.111 A 
ATOM     32  O   UNL     1      -1.616   4.342  15.443  1.00  0.00    -0.285 OA
ATOM     33  C   UNL     1      -4.657   2.740  16.411  1.00  0.00     0.146 A 
ATOM     34  C   UNL     1      -2.434   2.402  17.345  1.00  0.00     0.134 A 
ATOM     35  C   UNL     1      -5.199   1.849  17.370  1.00  0.00     0.094 A 
ATOM     36  C   UNL     1      -2.985   1.514  18.287  1.00  0.00     0.093 A 
ATOM     37  C   UNL     1      -4.351   1.231  18.310  1.00  0.00     0.123 A 
BRANCH  28  38
ATOM     38  C   UNL     1      -6.109   4.696  13.676  1.00  0.00     0.025 A 
ATOM     39  C   UNL     1      -7.090   5.575  14.160  1.00  0.00     0.062 A 
ATOM     40  C   UNL     1      -6.203   4.226  12.352  1.00  0.00     0.016 A 
ATOM     41  C   UNL     1      -8.104   6.061  13.312  1.00  0.00     0.161 A 
ATOM     42  C   UNL     1      -7.195   4.726  11.490  1.00  0.00     0.051 A 
ATOM     43  C   UNL     1      -8.141   5.647  11.968  1.00  0.00     0.157 A 
BRANCH  41  44
ATOM     44  O   UNL     1      -9.084   6.959  13.765  1.00  0.00    -0.493 OA
ATOM     45  C   UNL     1      -8.870   8.340  14.051  1.00  0.00     0.278 C 
ENDBRANCH  41  44
BRANCH  43  46
ATOM     46  O   UNL     1      -9.124   6.137  11.117  1.00  0.00    -0.504 OA
ATOM     47  H   UNL     1     -10.067   5.769  11.096  1.00  0.00     0.293 HD
ENDBRANCH  43  46
ENDBRANCH  28  38
BRANCH  34  48
ATOM     48  O   UNL     1      -1.069   2.677  17.391  1.00  0.00    -0.507 OA
ATOM     49  H   UNL     1      -0.702   3.609  17.472  1.00  0.00     0.293 HD
ENDBRANCH  34  48
BRANCH  37  50
ATOM     50  O   UNL     1      -4.865   0.352  19.268  1.00  0.00    -0.508 OA
ATOM     51  H   UNL     1      -5.313  -0.515  18.969  1.00  0.00     0.293 HD
ENDBRANCH  37  50
ENDBRANCH  26  27
ENDBRANCH   5  26
BRANCH   4  52
ATOM     52  O   UNL     1      -5.028   8.691  13.015  1.00  0.00    -0.384 OA
ATOM     53  H   UNL     1      -5.716   8.631  12.298  1.00  0.00     0.211 HD
ENDBRANCH   4  52
TORSDOF 16
ENDMDL
MODEL 2
REMARK VINA RESULT:    -4.276      1.663      7.232
REMARK INTER + INTRA:          -9.355
REMARK INTER:                  -7.344
REMARK INTRA:                  -2.011
REMARK UNBOUND:                -2.204
REMARK SMILES COc1cc(-c2oc3cc(O)cc(O)c3c(=O)c2O[C@H]2O[C@H](CO[C@@H]3O[C@H](C)[C@@H](O)[C@@H](O)[C@@H]3O)[C@H](O)[C@H](O)[C@@H]2O)ccc1O
REMARK SMILES IDX 22 1 35 2 37 3 39 4 20 5 21 6 23 7 24 8 25 9 28 10 27 11
REMARK SMILES IDX 29 12 26 13 31 14 33 15 30 16 32 18 34 20 36 22 38 24 19 26
REMARK SMILES IDX 18 27 6 28 16 29 7 30 15 31 17 32 8 33 13 34 9 35 12 36
REMARK SMILES IDX 10 37 5 38 4 39 41 40 3 41 42 42 43 43 2 44 1 45 44 46 14 48
REMARK SMILES IDX 11 50 40 52
REMARK H PARENT 30 17 32 19 34 21 36 23 38 25 44 47 14 49 11 51 40 53
REMARK Flexibility Score: inf
ROOT
ATOM      1  C   UNL     1      -3.845   7.080  12.351  1.00  0.00     0.180 C 
ATOM      2  C   UNL     1      -4.955   7.993  12.981  1.00  0.00     0.177 C 
ATOM      3  C   UNL     1      -4.608   8.093  14.463  1.00  0.00     0.180 C 
ATOM      4  C   UNL     1      -3.212   8.707  14.663  1.00  0.00     0.214 C 
ATOM      5  C   UNL     1      -2.138   7.986  13.764  1.00  0.00     0.339 C 
ATOM      6  O   UNL     1      -2.606   7.761  12.409  1.00  0.00    -0.332 OA
ENDROOT
BRANCH   1   7
ATOM      7  C   UNL     1      -4.262   6.655  10.921  1.00  0.00     0.198 C 
BRANCH   7   8
ATOM      8  O   UNL     1      -5.665   6.720  10.652  1.00  0.00    -0.347 OA
BRANCH   8   9
ATOM      9  C   UNL     1      -6.433   5.518  10.751  1.00  0.00     0.281 C 
ATOM     10  C   UNL     1      -8.267   7.706  11.995  1.00  0.00     0.041 C 
ATOM     11  C   UNL     1      -8.507   6.207  11.781  1.00  0.00     0.150 C 
ATOM     12  C   UNL     1      -8.237   5.354  13.083  1.00  0.00     0.174 C 
ATOM     13  O   UNL     1      -7.842   5.776  10.571  1.00  0.00    -0.344 OA
ATOM     14  C   UNL     1      -6.765   4.883  13.261  1.00  0.00     0.179 C 
ATOM     15  C   UNL     1      -6.216   4.431  11.887  1.00  0.00     0.202 C 
BRANCH  12  16
ATOM     16  O   UNL     1      -9.124   4.256  13.209  1.00  0.00    -0.388 OA
ATOM     17  H   UNL     1      -9.082   3.742  12.353  1.00  0.00     0.211 HD
ENDBRANCH  12  16
BRANCH  14  18
ATOM     18  O   UNL     1      -6.678   3.825  14.183  1.00  0.00    -0.387 OA
ATOM     19  H   UNL     1      -6.946   4.207  15.087  1.00  0.00     0.211 HD
ENDBRANCH  14  18
BRANCH  15  20
ATOM     20  O   UNL     1      -4.884   3.903  11.964  1.00  0.00    -0.385 OA
ATOM     21  H   UNL     1      -4.859   3.200  12.674  1.00  0.00     0.211 HD
ENDBRANCH  15  20
ENDBRANCH   8   9
ENDBRANCH   7   8
ENDBRANCH   1   7
BRANCH   2  22
ATOM     22  O   UNL     1      -4.945   9.291  12.403  1.00  0.00    -0.387 OA
ATOM     23  H   UNL     1      -3.993   9.570  12.274  1.00  0.00     0.211 HD
ENDBRANCH   2  22
BRANCH   3  24
ATOM     24  O   UNL     1      -5.538   8.849  15.194  1.00  0.00    -0.387 OA
ATOM     25  H   UNL     1      -6.381   8.334  15.199  1.00  0.00     0.211 HD
ENDBRANCH   3  24
BRANCH   5  26
ATOM     26  O   UNL     1      -1.663   6.804  14.384  1.00  0.00    -0.454 OA
BRANCH  26  27
ATOM     27  C   UNL     1      -0.998   6.854  15.625  1.00  0.00     0.214 A 
ATOM     28  C   UNL     1      -1.369   6.053  16.734  1.00  0.00     0.180 A 
ATOM     29  C   UNL     1       0.002   7.820  15.829  1.00  0.00     0.239 A 
ATOM     30  O   UNL     1      -0.825   6.268  17.929  1.00  0.00    -0.452 OA
ATOM     31  C   UNL     1       0.594   7.977  17.092  1.00  0.00     0.111 A 
ATOM     32  O   UNL     1       0.343   8.554  14.858  1.00  0.00    -0.285 OA
ATOM     33  C   UNL     1       0.116   7.179  18.146  1.00  0.00     0.146 A 
ATOM     34  C   UNL     1       1.616   8.931  17.366  1.00  0.00     0.134 A 
ATOM     35  C   UNL     1       0.614   7.335  19.464  1.00  0.00     0.094 A 
ATOM     36  C   UNL     1       2.106   9.069  18.678  1.00  0.00     0.093 A 
ATOM     37  C   UNL     1       1.620   8.285  19.725  1.00  0.00     0.123 A 
BRANCH  28  38
ATOM     38  C   UNL     1      -2.405   4.990  16.641  1.00  0.00     0.025 A 
ATOM     39  C   UNL     1      -3.765   5.332  16.702  1.00  0.00     0.062 A 
ATOM     40  C   UNL     1      -2.040   3.630  16.633  1.00  0.00     0.016 A 
ATOM     41  C   UNL     1      -4.762   4.337  16.658  1.00  0.00     0.161 A 
ATOM     42  C   UNL     1      -3.028   2.631  16.562  1.00  0.00     0.051 A 
ATOM     43  C   UNL     1      -4.386   2.984  16.568  1.00  0.00     0.157 A 
BRANCH  41  44
ATOM     44  O   UNL     1      -6.129   4.654  16.694  1.00  0.00    -0.493 OA
ATOM     45  C   UNL     1      -6.670   5.964  16.854  1.00  0.00     0.278 C 
ENDBRANCH  41  44
BRANCH  43  46
ATOM     46  O   UNL     1      -5.361   1.996  16.504  1.00  0.00    -0.504 OA
ATOM     47  H   UNL     1      -5.583   1.496  15.652  1.00  0.00     0.293 HD
ENDBRANCH  43  46
ENDBRANCH  28  38
BRANCH  34  48
ATOM     48  O   UNL     1       2.110   9.767  16.367  1.00  0.00    -0.507 OA
ATOM     49  H   UNL     1       2.563   9.421  15.539  1.00  0.00     0.293 HD
ENDBRANCH  34  48
BRANCH  37  50
ATOM     50  O   UNL     1       2.123   8.459  21.017  1.00  0.00    -0.508 OA
ATOM     51  H   UNL     1       1.483   8.674  21.784  1.00  0.00     0.293 HD
ENDBRANCH  37  50
ENDBRANCH  26  27
ENDBRANCH   5  26
BRANCH   4  52
ATOM     52  O   UNL     1      -3.099  10.125  14.514  1.00  0.00    -0.384 OA
ATOM     53  H   UNL     1      -3.870  10.408  13.952  1.00  0.00     0.211 HD
ENDBRANCH   4  52
TORSDOF 16
ENDMDL
MODEL 3
REMARK VINA RESULT:    -4.205     12.215     17.402
REMARK INTER + INTRA:          -9.236
REMARK INTER:                  -7.565
REMARK INTRA:                  -1.671
REMARK UNBOUND:                -2.204
REMARK SMILES COc1cc(-c2oc3cc(O)cc(O)c3c(=O)c2O[C@H]2O[C@H](CO[C@@H]3O[C@H](C)[C@@H](O)[C@@H](O)[C@@H]3O)[C@H](O)[C@H](O)[C@@H]2O)ccc1O
REMARK SMILES IDX 22 1 35 2 37 3 39 4 20 5 21 6 23 7 24 8 25 9 28 10 27 11
REMARK SMILES IDX 29 12 26 13 31 14 33 15 30 16 32 18 34 20 36 22 38 24 19 26
REMARK SMILES IDX 18 27 6 28 16 29 7 30 15 31 17 32 8 33 13 34 9 35 12 36
REMARK SMILES IDX 10 37 5 38 4 39 41 40 3 41 42 42 43 43 2 44 1 45 44 46 14 48
REMARK SMILES IDX 11 50 40 52
REMARK H PARENT 30 17 32 19 34 21 36 23 38 25 44 47 14 49 11 51 40 53
REMARK Flexibility Score: inf
ROOT
ATOM      1  C   UNL     1      -6.170  -6.927  24.899  1.00  0.00     0.180 C 
ATOM      2  C   UNL     1      -7.704  -7.213  25.065  1.00  0.00     0.177 C 
ATOM      3  C   UNL     1      -7.800  -8.663  25.528  1.00  0.00     0.180 C 
ATOM      4  C   UNL     1      -7.054  -8.871  26.857  1.00  0.00     0.214 C 
ATOM      5  C   UNL     1      -5.596  -8.278  26.791  1.00  0.00     0.339 C 
ATOM      6  O   UNL     1      -5.556  -6.966  26.173  1.00  0.00    -0.332 OA
ENDROOT
BRANCH   1   7
ATOM      7  C   UNL     1      -5.962  -5.593  24.140  1.00  0.00     0.198 C 
BRANCH   7   8
ATOM      8  O   UNL     1      -6.190  -5.654  22.730  1.00  0.00    -0.347 OA
BRANCH   8   9
ATOM      9  C   UNL     1      -6.253  -4.426  21.998  1.00  0.00     0.281 C 
ATOM     10  C   UNL     1      -9.095  -5.662  21.676  1.00  0.00     0.041 C 
ATOM     11  C   UNL     1      -8.514  -4.344  21.150  1.00  0.00     0.150 C 
ATOM     12  C   UNL     1      -8.040  -4.444  19.647  1.00  0.00     0.174 C 
ATOM     13  O   UNL     1      -7.559  -3.819  22.100  1.00  0.00    -0.344 OA
ATOM     14  C   UNL     1      -6.573  -4.927  19.456  1.00  0.00     0.179 C 
ATOM     15  C   UNL     1      -5.683  -4.253  20.527  1.00  0.00     0.202 C 
BRANCH  12  16
ATOM     16  O   UNL     1      -8.262  -3.246  18.924  1.00  0.00    -0.388 OA
ATOM     17  H   UNL     1      -7.923  -2.493  19.488  1.00  0.00     0.211 HD
ENDBRANCH  12  16
BRANCH  14  18
ATOM     18  O   UNL     1      -6.097  -4.612  18.171  1.00  0.00    -0.387 OA
ATOM     19  H   UNL     1      -6.774  -4.990  17.512  1.00  0.00     0.211 HD
ENDBRANCH  14  18
BRANCH  15  20
ATOM     20  O   UNL     1      -4.293  -4.577  20.383  1.00  0.00    -0.385 OA
ATOM     21  H   UNL     1      -3.760  -3.964  20.966  1.00  0.00     0.211 HD
ENDBRANCH  15  20
ENDBRANCH   8   9
ENDBRANCH   7   8
ENDBRANCH   1   7
BRANCH   2  22
ATOM     22  O   UNL     1      -8.282  -6.363  26.047  1.00  0.00    -0.387 OA
ATOM     23  H   UNL     1      -8.258  -6.837  26.927  1.00  0.00     0.211 HD
ENDBRANCH   2  22
BRANCH   3  24
ATOM     24  O   UNL     1      -9.125  -9.101  25.685  1.00  0.00    -0.387 OA
ATOM     25  H   UNL     1      -9.583  -8.933  24.827  1.00  0.00     0.211 HD
ENDBRANCH   3  24
BRANCH   5  26
ATOM     26  O   UNL     1      -4.699  -9.195  26.190  1.00  0.00    -0.454 OA
BRANCH  26  27
ATOM     27  C   UNL     1      -3.334  -8.880  26.042  1.00  0.00     0.214 A 
ATOM     28  C   UNL     1      -2.730  -8.629  24.784  1.00  0.00     0.180 A 
ATOM     29  C   UNL     1      -2.492  -8.930  27.166  1.00  0.00     0.239 A 
ATOM     30  O   UNL     1      -1.408  -8.513  24.686  1.00  0.00    -0.452 OA
ATOM     31  C   UNL     1      -1.108  -8.745  27.029  1.00  0.00     0.111 A 
ATOM     32  O   UNL     1      -3.006  -9.162  28.298  1.00  0.00    -0.285 OA
ATOM     33  C   UNL     1      -0.594  -8.564  25.733  1.00  0.00     0.146 A 
ATOM     34  C   UNL     1      -0.199  -8.778  28.126  1.00  0.00     0.134 A 
ATOM     35  C   UNL     1       0.801  -8.445  25.510  1.00  0.00     0.094 A 
ATOM     36  C   UNL     1       1.182  -8.651  27.890  1.00  0.00     0.093 A 
ATOM     37  C   UNL     1       1.690  -8.485  26.602  1.00  0.00     0.123 A 
BRANCH  28  38
ATOM     38  C   UNL     1      -3.515  -8.539  23.524  1.00  0.00     0.025 A 
ATOM     39  C   UNL     1      -4.667  -9.325  23.362  1.00  0.00     0.062 A 
ATOM     40  C   UNL     1      -3.043  -7.782  22.435  1.00  0.00     0.016 A 
ATOM     41  C   UNL     1      -5.402  -9.288  22.160  1.00  0.00     0.161 A 
ATOM     42  C   UNL     1      -3.784  -7.717  21.242  1.00  0.00     0.051 A 
ATOM     43  C   UNL     1      -4.964  -8.464  21.106  1.00  0.00     0.157 A 
BRANCH  41  44
ATOM     44  O   UNL     1      -6.569 -10.046  21.980  1.00  0.00    -0.493 OA
ATOM     45  C   UNL     1      -7.901  -9.541  22.049  1.00  0.00     0.278 C 
ENDBRANCH  41  44
BRANCH  43  46
ATOM     46  O   UNL     1      -5.693  -8.404  19.924  1.00  0.00    -0.504 OA
ATOM     47  H   UNL     1      -5.858  -9.213  19.338  1.00  0.00     0.293 HD
ENDBRANCH  43  46
ENDBRANCH  28  38
BRANCH  34  48
ATOM     48  O   UNL     1      -0.649  -8.980  29.429  1.00  0.00    -0.507 OA
ATOM     49  H   UNL     1      -1.432  -9.568  29.652  1.00  0.00     0.293 HD
ENDBRANCH  34  48
BRANCH  37  50
ATOM     50  O   UNL     1       3.069  -8.374  26.406  1.00  0.00    -0.508 OA
ATOM     51  H   UNL     1       3.627  -9.216  26.252  1.00  0.00     0.293 HD
ENDBRANCH  37  50
ENDBRANCH  26  27
ENDBRANCH   5  26
BRANCH   4  52
ATOM     52  O   UNL     1      -7.709  -8.420  28.046  1.00  0.00    -0.384 OA
ATOM     53  H   UNL     1      -8.520  -7.926  27.747  1.00  0.00     0.211 HD
ENDBRANCH   4  52
TORSDOF 16
ENDMDL
MODEL 4
REMARK VINA RESULT:    -3.659      2.218      6.613
REMARK INTER + INTRA:          -8.322
REMARK INTER:                  -7.691
REMARK INTRA:                  -0.631
REMARK UNBOUND:                -2.204
REMARK SMILES COc1cc(-c2oc3cc(O)cc(O)c3c(=O)c2O[C@H]2O[C@H](CO[C@@H]3O[C@H](C)[C@@H](O)[C@@H](O)[C@@H]3O)[C@H](O)[C@H](O)[C@@H]2O)ccc1O
REMARK SMILES IDX 22 1 35 2 37 3 39 4 20 5 21 6 23 7 24 8 25 9 28 10 27 11
REMARK SMILES IDX 29 12 26 13 31 14 33 15 30 16 32 18 34 20 36 22 38 24 19 26
REMARK SMILES IDX 18 27 6 28 16 29 7 30 15 31 17 32 8 33 13 34 9 35 12 36
REMARK SMILES IDX 10 37 5 38 4 39 41 40 3 41 42 42 43 43 2 44 1 45 44 46 14 48
REMARK SMILES IDX 11 50 40 52
REMARK H PARENT 30 17 32 19 34 21 36 23 38 25 44 47 14 49 11 51 40 53
REMARK Flexibility Score: inf
ROOT
ATOM      1  C   UNL     1      -7.677   6.068  12.927  1.00  0.00     0.180 C 
ATOM      2  C   UNL     1      -7.149   5.794  11.475  1.00  0.00     0.177 C 
ATOM      3  C   UNL     1      -5.664   5.485  11.633  1.00  0.00     0.180 C 
ATOM      4  C   UNL     1      -5.447   4.261  12.538  1.00  0.00     0.214 C 
ATOM      5  C   UNL     1      -6.257   4.395  13.883  1.00  0.00     0.339 C 
ATOM      6  O   UNL     1      -7.612   4.867  13.672  1.00  0.00    -0.332 OA
ENDROOT
BRANCH   1   7
ATOM      7  C   UNL     1      -9.093   6.693  12.862  1.00  0.00     0.198 C 
BRANCH   7   8
ATOM      8  O   UNL     1      -9.125   8.120  12.773  1.00  0.00    -0.347 OA
BRANCH   8   9
ATOM      9  C   UNL     1      -8.899   8.880  13.963  1.00  0.00     0.281 C 
ATOM     10  C   UNL     1      -6.411   9.474  12.187  1.00  0.00     0.041 C 
ATOM     11  C   UNL     1      -6.790   9.994  13.579  1.00  0.00     0.150 C 
ATOM     12  C   UNL     1      -6.069   9.205  14.742  1.00  0.00     0.174 C 
ATOM     13  O   UNL     1      -8.227  10.125  13.674  1.00  0.00    -0.344 OA
ATOM     14  C   UNL     1      -6.824   7.937  15.236  1.00  0.00     0.179 C 
ATOM     15  C   UNL     1      -8.337   8.255  15.309  1.00  0.00     0.202 C 
BRANCH  12  16
ATOM     16  O   UNL     1      -5.733  10.037  15.838  1.00  0.00    -0.388 OA
ATOM     17  H   UNL     1      -6.333  10.836  15.798  1.00  0.00     0.211 HD
ENDBRANCH  12  16
BRANCH  14  18
ATOM     18  O   UNL     1      -6.359   7.529  16.499  1.00  0.00    -0.387 OA
ATOM     19  H   UNL     1      -5.354   7.687  16.501  1.00  0.00     0.211 HD
ENDBRANCH  14  18
BRANCH  15  20
ATOM     20  O   UNL     1      -9.112   7.166  15.833  1.00  0.00    -0.385 OA
ATOM     21  H   UNL     1      -8.487   6.464  16.172  1.00  0.00     0.211 HD
ENDBRANCH  15  20
ENDBRANCH   8   9
ENDBRANCH   7   8
ENDBRANCH   1   7
BRANCH   2  22
ATOM     22  O   UNL     1      -7.806   4.677  10.890  1.00  0.00    -0.387 OA
ATOM     23  H   UNL     1      -7.361   3.844  11.219  1.00  0.00     0.211 HD
ENDBRANCH   2  22
BRANCH   3  24
ATOM     24  O   UNL     1      -5.018   5.256  10.408  1.00  0.00    -0.387 OA
ATOM     25  H   UNL     1      -4.071   5.505  10.535  1.00  0.00     0.211 HD
ENDBRANCH   3  24
BRANCH   5  26
ATOM     26  O   UNL     1      -5.547   5.172  14.831  1.00  0.00    -0.454 OA
BRANCH  26  27
ATOM     27  C   UNL     1      -4.527   4.600  15.618  1.00  0.00     0.214 A 
ATOM     28  C   UNL     1      -3.176   5.024  15.560  1.00  0.00     0.180 A 
ATOM     29  C   UNL     1      -4.821   3.480  16.413  1.00  0.00     0.239 A 
ATOM     30  O   UNL     1      -2.229   4.334  16.189  1.00  0.00    -0.452 OA
ATOM     31  C   UNL     1      -3.802   2.813  17.110  1.00  0.00     0.111 A 
ATOM     32  O   UNL     1      -6.018   3.076  16.473  1.00  0.00    -0.285 OA
ATOM     33  C   UNL     1      -2.482   3.269  16.940  1.00  0.00     0.146 A 
ATOM     34  C   UNL     1      -4.030   1.675  17.936  1.00  0.00     0.134 A 
ATOM     35  C   UNL     1      -1.394   2.599  17.552  1.00  0.00     0.094 A 
ATOM     36  C   UNL     1      -2.940   1.025  18.544  1.00  0.00     0.093 A 
ATOM     37  C   UNL     1      -1.631   1.473  18.363  1.00  0.00     0.123 A 
BRANCH  28  38
ATOM     38  C   UNL     1      -2.742   6.204  14.764  1.00  0.00     0.025 A 
ATOM     39  C   UNL     1      -1.598   6.921  15.147  1.00  0.00     0.062 A 
ATOM     40  C   UNL     1      -3.540   6.695  13.714  1.00  0.00     0.016 A 
ATOM     41  C   UNL     1      -1.193   8.066  14.432  1.00  0.00     0.161 A 
ATOM     42  C   UNL     1      -3.130   7.821  12.978  1.00  0.00     0.051 A 
ATOM     43  C   UNL     1      -1.955   8.502  13.332  1.00  0.00     0.157 A 
BRANCH  41  44
ATOM     44  O   UNL     1      -0.041   8.789  14.779  1.00  0.00    -0.493 OA
ATOM     45  C   UNL     1       0.791   8.525  15.907  1.00  0.00     0.278 C 
ENDBRANCH  41  44
BRANCH  43  46
ATOM     46  O   UNL     1      -1.553   9.618  12.608  1.00  0.00    -0.504 OA
ATOM     47  H   UNL     1      -1.744   9.731  11.620  1.00  0.00     0.293 HD
ENDBRANCH  43  46
ENDBRANCH  28  38
BRANCH  34  48
ATOM     48  O   UNL     1      -5.313   1.163  18.120  1.00  0.00    -0.507 OA
ATOM     49  H   UNL     1      -5.572   0.229  17.854  1.00  0.00     0.293 HD
ENDBRANCH  34  48
BRANCH  37  50
ATOM     50  O   UNL     1      -0.572   0.794  18.974  1.00  0.00    -0.508 OA
ATOM     51  H   UNL     1      -0.576   0.661  19.987  1.00  0.00     0.293 HD
ENDBRANCH  37  50
ENDBRANCH  26  27
ENDBRANCH   5  26
BRANCH   4  52
ATOM     52  O   UNL     1      -5.679   2.975  11.957  1.00  0.00    -0.384 OA
ATOM     53  H   UNL     1      -6.602   3.000  11.586  1.00  0.00     0.211 HD
ENDBRANCH   4  52
TORSDOF 16
ENDMDL
MODEL 5
REMARK VINA RESULT:    -3.507      2.715      6.658
REMARK INTER + INTRA:          -8.069
REMARK INTER:                  -9.186
REMARK INTRA:                   1.117
REMARK UNBOUND:                -2.204
REMARK SMILES COc1cc(-c2oc3cc(O)cc(O)c3c(=O)c2O[C@H]2O[C@H](CO[C@@H]3O[C@H](C)[C@@H](O)[C@@H](O)[C@@H]3O)[C@H](O)[C@H](O)[C@@H]2O)ccc1O
REMARK SMILES IDX 22 1 35 2 37 3 39 4 20 5 21 6 23 7 24 8 25 9 28 10 27 11
REMARK SMILES IDX 29 12 26 13 31 14 33 15 30 16 32 18 34 20 36 22 38 24 19 26
REMARK SMILES IDX 18 27 6 28 16 29 7 30 15 31 17 32 8 33 13 34 9 35 12 36
REMARK SMILES IDX 10 37 5 38 4 39 41 40 3 41 42 42 43 43 2 44 1 45 44 46 14 48
REMARK SMILES IDX 11 50 40 52
REMARK H PARENT 30 17 32 19 34 21 36 23 38 25 44 47 14 49 11 51 40 53
REMARK Flexibility Score: inf
ROOT
ATOM      1  C   UNL     1      -4.984   5.216  13.297  1.00  0.00     0.180 C 
ATOM      2  C   UNL     1      -5.951   3.981  13.329  1.00  0.00     0.177 C 
ATOM      3  C   UNL     1      -7.245   4.460  12.679  1.00  0.00     0.180 C 
ATOM      4  C   UNL     1      -6.998   4.928  11.235  1.00  0.00     0.214 C 
ATOM      5  C   UNL     1      -5.791   5.937  11.161  1.00  0.00     0.339 C 
ATOM      6  O   UNL     1      -4.654   5.504  11.951  1.00  0.00    -0.332 OA
ENDROOT
BRANCH   1   7
ATOM      7  C   UNL     1      -3.756   4.947  14.202  1.00  0.00     0.198 C 
BRANCH   7   8
ATOM      8  O   UNL     1      -3.592   5.858  15.292  1.00  0.00    -0.347 OA
BRANCH   8   9
ATOM      9  C   UNL     1      -3.796   5.371  16.621  1.00  0.00     0.281 C 
ATOM     10  C   UNL     1      -1.353   3.748  15.573  1.00  0.00     0.041 C 
ATOM     11  C   UNL     1      -2.062   3.718  16.932  1.00  0.00     0.150 C 
ATOM     12  C   UNL     1      -3.101   2.534  17.052  1.00  0.00     0.174 C 
ATOM     13  O   UNL     1      -2.543   5.042  17.259  1.00  0.00    -0.344 OA
ATOM     14  C   UNL     1      -4.533   2.868  16.544  1.00  0.00     0.179 C 
ATOM     15  C   UNL     1      -4.903   4.299  17.001  1.00  0.00     0.202 C 
BRANCH  12  16
ATOM     16  O   UNL     1      -3.157   1.987  18.358  1.00  0.00    -0.388 OA
ATOM     17  H   UNL     1      -3.488   1.048  18.271  1.00  0.00     0.211 HD
ENDBRANCH  12  16
BRANCH  14  18
ATOM     18  O   UNL     1      -5.475   1.949  17.039  1.00  0.00    -0.387 OA
ATOM     19  H   UNL     1      -5.687   2.237  17.991  1.00  0.00     0.211 HD
ENDBRANCH  14  18
BRANCH  15  20
ATOM     20  O   UNL     1      -6.242   4.671  16.647  1.00  0.00    -0.385 OA
ATOM     21  H   UNL     1      -6.858   4.385  17.380  1.00  0.00     0.211 HD
ENDBRANCH  15  20
ENDBRANCH   8   9
ENDBRANCH   7   8
ENDBRANCH   1   7
BRANCH   2  22
ATOM     22  O   UNL     1      -5.421   2.892  12.584  1.00  0.00    -0.387 OA
ATOM     23  H   UNL     1      -4.845   2.347  13.192  1.00  0.00     0.211 HD
ENDBRANCH   2  22
BRANCH   3  24
ATOM     24  O   UNL     1      -8.247   3.477  12.665  1.00  0.00    -0.387 OA
ATOM     25  H   UNL     1      -7.882   2.692  13.140  1.00  0.00     0.211 HD
ENDBRANCH   3  24
BRANCH   5  26
ATOM     26  O   UNL     1      -6.207   7.255  11.476  1.00  0.00    -0.454 OA
BRANCH  26  27
ATOM     27  C   UNL     1      -6.101   7.754  12.789  1.00  0.00     0.214 A 
ATOM     28  C   UNL     1      -4.968   8.464  13.258  1.00  0.00     0.180 A 
ATOM     29  C   UNL     1      -7.102   7.440  13.724  1.00  0.00     0.239 A 
ATOM     30  O   UNL     1      -4.846   8.755  14.550  1.00  0.00    -0.452 OA
ATOM     31  C   UNL     1      -6.963   7.815  15.069  1.00  0.00     0.111 A 
ATOM     32  O   UNL     1      -8.118   6.797  13.333  1.00  0.00    -0.285 OA
ATOM     33  C   UNL     1      -5.775   8.461  15.453  1.00  0.00     0.146 A 
ATOM     34  C   UNL     1      -7.940   7.534  16.068  1.00  0.00     0.134 A 
ATOM     35  C   UNL     1      -5.533   8.803  16.806  1.00  0.00     0.094 A 
ATOM     36  C   UNL     1      -7.689   7.886  17.407  1.00  0.00     0.093 A 
ATOM     37  C   UNL     1      -6.503   8.515  17.786  1.00  0.00     0.123 A 
BRANCH  28  38
ATOM     38  C   UNL     1      -3.849   8.865  12.363  1.00  0.00     0.025 A 
ATOM     39  C   UNL     1      -2.589   9.157  12.908  1.00  0.00     0.062 A 
ATOM     40  C   UNL     1      -4.073   9.092  10.991  1.00  0.00     0.016 A 
ATOM     41  C   UNL     1      -1.528   9.579  12.084  1.00  0.00     0.161 A 
ATOM     42  C   UNL     1      -3.013   9.488  10.156  1.00  0.00     0.051 A 
ATOM     43  C   UNL     1      -1.741   9.725  10.700  1.00  0.00     0.157 A 
BRANCH  41  44
ATOM     44  O   UNL     1      -0.252   9.855  12.599  1.00  0.00    -0.493 OA
ATOM     45  C   UNL     1       0.138   9.707  13.963  1.00  0.00     0.278 C 
ENDBRANCH  41  44
BRANCH  43  46
ATOM     46  O   UNL     1      -0.695  10.122   9.875  1.00  0.00    -0.504 OA
ATOM     47  H   UNL     1      -0.806  10.275   8.881  1.00  0.00     0.293 HD
ENDBRANCH  43  46
ENDBRANCH  28  38
BRANCH  34  48
ATOM     48  O   UNL     1      -9.125   6.872  15.751  1.00  0.00    -0.507 OA
ATOM     49  H   UNL     1      -9.245   6.341  14.907  1.00  0.00     0.293 HD
ENDBRANCH  34  48
BRANCH  37  50
ATOM     50  O   UNL     1      -6.285   8.840  19.127  1.00  0.00    -0.508 OA
ATOM     51  H   UNL     1      -5.526   9.478  19.376  1.00  0.00     0.293 HD
ENDBRANCH  37  50
ENDBRANCH  26  27
ENDBRANCH   5  26
BRANCH   4  52
ATOM     52  O   UNL     1      -6.844   3.912  10.241  1.00  0.00    -0.384 OA
ATOM     53  H   UNL     1      -6.067   3.359  10.526  1.00  0.00     0.211 HD
ENDBRANCH   4  52
TORSDOF 16
ENDMDL
MODEL 6
REMARK VINA RESULT:    -2.737     10.087     16.161
REMARK INTER + INTRA:          -6.781
REMARK INTER:                  -5.397
REMARK INTRA:                  -1.384
REMARK UNBOUND:                -2.204
REMARK SMILES COc1cc(-c2oc3cc(O)cc(O)c3c(=O)c2O[C@H]2O[C@H](CO[C@@H]3O[C@H](C)[C@@H](O)[C@@H](O)[C@@H]3O)[C@H](O)[C@H](O)[C@@H]2O)ccc1O
REMARK SMILES IDX 22 1 35 2 37 3 39 4 20 5 21 6 23 7 24 8 25 9 28 10 27 11
REMARK SMILES IDX 29 12 26 13 31 14 33 15 30 16 32 18 34 20 36 22 38 24 19 26
REMARK SMILES IDX 18 27 6 28 16 29 7 30 15 31 17 32 8 33 13 34 9 35 12 36
REMARK SMILES IDX 10 37 5 38 4 39 41 40 3 41 42 42 43 43 2 44 1 45 44 46 14 48
REMARK SMILES IDX 11 50 40 52
REMARK H PARENT 30 17 32 19 34 21 36 23 38 25 44 47 14 49 11 51 40 53
REMARK Flexibility Score: inf
ROOT
ATOM      1  C   UNL     1      -4.784  -7.063  25.000  1.00  0.00     0.180 C 
ATOM      2  C   UNL     1      -5.822  -7.512  26.088  1.00  0.00     0.177 C 
ATOM      3  C   UNL     1      -7.007  -6.565  25.938  1.00  0.00     0.180 C 
ATOM      4  C   UNL     1      -7.614  -6.658  24.527  1.00  0.00     0.214 C 
ATOM      5  C   UNL     1      -6.502  -6.531  23.419  1.00  0.00     0.339 C 
ATOM      6  O   UNL     1      -5.324  -7.323  23.718  1.00  0.00    -0.332 OA
ENDROOT
BRANCH   1   7
ATOM      7  C   UNL     1      -3.419  -7.747  25.259  1.00  0.00     0.198 C 
BRANCH   7   8
ATOM      8  O   UNL     1      -3.207  -8.192  26.601  1.00  0.00    -0.347 OA
BRANCH   8   9
ATOM      9  C   UNL     1      -2.130  -9.097  26.855  1.00  0.00     0.281 C 
ATOM     10  C   UNL     1      -1.640  -6.744  28.835  1.00  0.00     0.041 C 
ATOM     11  C   UNL     1      -0.856  -8.043  28.616  1.00  0.00     0.150 C 
ATOM     12  C   UNL     1       0.409  -7.842  27.691  1.00  0.00     0.174 C 
ATOM     13  O   UNL     1      -1.766  -9.105  28.252  1.00  0.00    -0.344 OA
ATOM     14  C   UNL     1       0.134  -7.994  26.167  1.00  0.00     0.179 C 
ATOM     15  C   UNL     1      -0.828  -9.186  25.950  1.00  0.00     0.202 C 
BRANCH  12  16
ATOM     16  O   UNL     1       1.502  -8.657  28.078  1.00  0.00    -0.388 OA
ATOM     17  H   UNL     1       1.125  -9.532  28.382  1.00  0.00     0.211 HD
ENDBRANCH  12  16
BRANCH  14  18
ATOM     18  O   UNL     1       1.327  -8.206  25.454  1.00  0.00    -0.387 OA
ATOM     19  H   UNL     1       1.719  -9.079  25.799  1.00  0.00     0.211 HD
ENDBRANCH  14  18
BRANCH  15  20
ATOM     20  O   UNL     1      -1.081  -9.455  24.564  1.00  0.00    -0.385 OA
ATOM     21  H   UNL     1      -0.240  -9.799  24.147  1.00  0.00     0.211 HD
ENDBRANCH  15  20
ENDBRANCH   8   9
ENDBRANCH   7   8
ENDBRANCH   1   7
BRANCH   2  22
ATOM     22  O   UNL     1      -6.252  -8.849  25.867  1.00  0.00    -0.387 OA
ATOM     23  H   UNL     1      -6.395  -9.284  26.756  1.00  0.00     0.211 HD
ENDBRANCH   2  22
BRANCH   3  24
ATOM     24  O   UNL     1      -8.022  -6.804  26.878  1.00  0.00    -0.387 OA
ATOM     25  H   UNL     1      -8.609  -6.010  26.869  1.00  0.00     0.211 HD
ENDBRANCH   3  24
BRANCH   5  26
ATOM     26  O   UNL     1      -6.197  -5.173  23.155  1.00  0.00    -0.454 OA
BRANCH  26  27
ATOM     27  C   UNL     1      -6.540  -4.579  21.924  1.00  0.00     0.214 A 
ATOM     28  C   UNL     1      -5.986  -4.989  20.686  1.00  0.00     0.180 A 
ATOM     29  C   UNL     1      -7.378  -3.451  21.917  1.00  0.00     0.239 A 
ATOM     30  O   UNL     1      -6.209  -4.280  19.583  1.00  0.00    -0.452 OA
ATOM     31  C   UNL     1      -7.637  -2.763  20.721  1.00  0.00     0.111 A 
ATOM     32  O   UNL     1      -7.877  -3.059  23.010  1.00  0.00    -0.285 OA
ATOM     33  C   UNL     1      -6.991  -3.207  19.554  1.00  0.00     0.146 A 
ATOM     34  C   UNL     1      -8.479  -1.616  20.642  1.00  0.00     0.134 A 
ATOM     35  C   UNL     1      -7.146  -2.518  18.326  1.00  0.00     0.094 A 
ATOM     36  C   UNL     1      -8.629  -0.946  19.414  1.00  0.00     0.093 A 
ATOM     37  C   UNL     1      -7.976  -1.382  18.260  1.00  0.00     0.123 A 
BRANCH  28  38
ATOM     38  C   UNL     1      -5.096  -6.175  20.563  1.00  0.00     0.025 A 
ATOM     39  C   UNL     1      -5.648  -7.438  20.295  1.00  0.00     0.062 A 
ATOM     40  C   UNL     1      -3.721  -6.074  20.849  1.00  0.00     0.016 A 
ATOM     41  C   UNL     1      -4.828  -8.580  20.215  1.00  0.00     0.161 A 
ATOM     42  C   UNL     1      -2.891  -7.204  20.746  1.00  0.00     0.051 A 
ATOM     43  C   UNL     1      -3.442  -8.454  20.424  1.00  0.00     0.157 A 
BRANCH  41  44
ATOM     44  O   UNL     1      -5.350  -9.851  19.926  1.00  0.00    -0.493 OA
ATOM     45  C   UNL     1      -6.699 -10.123  19.549  1.00  0.00     0.278 C 
ENDBRANCH  41  44
BRANCH  43  46
ATOM     46  O   UNL     1      -2.621  -9.572  20.328  1.00  0.00    -0.504 OA
ATOM     47  H   UNL     1      -1.975  -9.845  21.058  1.00  0.00     0.293 HD
ENDBRANCH  43  46
ENDBRANCH  28  38
BRANCH  34  48
ATOM     48  O   UNL     1      -9.123  -1.116  21.771  1.00  0.00    -0.507 OA
ATOM     49  H   UNL     1      -9.185  -1.623  22.636  1.00  0.00     0.293 HD
ENDBRANCH  34  48
BRANCH  37  50
ATOM     50  O   UNL     1      -8.141  -0.684  17.061  1.00  0.00    -0.508 OA
ATOM     51  H   UNL     1      -8.397  -1.192  16.212  1.00  0.00     0.293 HD
ENDBRANCH  37  50
ENDBRANCH  26  27
ENDBRANCH   5  26
BRANCH   4  52
ATOM     52  O   UNL     1      -8.448  -7.787  24.253  1.00  0.00    -0.384 OA
ATOM     53  H   UNL     1      -9.034  -7.522  23.494  1.00  0.00     0.211 HD
ENDBRANCH   4  52
TORSDOF 16
ENDMDL
