MODEL 1
REMARK VINA RESULT:    -2.134      0.000      0.000
REMARK INTER + INTRA:          -3.820
REMARK INTER:                  -2.945
REMARK INTRA:                  -0.875
REMARK UNBOUND:                -0.875
REMARK SMILES C[C@H]1OC(=O)[C@H](C)[C@@H]1C[C@@H](O)[C@@](C)(O)[C@H]1CC[C@@]2(O)C3=CC(=O)[C@H]4C[C@@H](O)[C@H](O)C[C@@]4(C)[C@@H]3CC[C@@]12C
REMARK SMILES IDX 12 1 13 2 10 3 9 4 8 5 7 6 6 7 4 8 2 9 3 10 5 11 1 12 11 13
REMARK SMILES IDX 15 15 16 16 36 17 17 18 18 19 35 20 37 21 20 22 34 23 33 24
REMARK SMILES IDX 21 25 31 26 22 27 24 28 30 29 32 30 23 31 25 32 28 33 26 34
REMARK SMILES IDX 19 35 29 37 27 39 14 41
REMARK H PARENT 11 14 19 36 29 38 27 40 14 42
REMARK Flexibility Score: inf
ROOT
ATOM      1  C   UNL     1      30.389  56.730  14.815  1.00  0.00     0.091 C 
ATOM      2  C   UNL     1      29.203  56.010  15.505  1.00  0.00     0.045 C 
ENDROOT
BRANCH   1   3
ATOM      3  C   UNL     1      30.077  56.893  13.276  1.00  0.00     0.146 C 
BRANCH   3   4
ATOM      4  C   UNL     1      31.282  56.725  12.300  1.00  0.00     0.043 C 
BRANCH   4   5
ATOM      5  C   UNL     1      31.375  57.848  11.229  1.00  0.00     0.046 C 
ATOM      6  C   UNL     1      30.989  55.875   9.507  1.00  0.00     0.020 C 
ATOM      7  C   UNL     1      31.089  57.388   9.762  1.00  0.00     0.103 C 
ATOM      8  C   UNL     1      29.811  58.070   9.451  1.00  0.00     0.309 C 
ATOM      9  C   UNL     1      30.335  58.981  11.510  1.00  0.00     0.177 C 
ATOM     10  O   UNL     1      29.410  58.939  10.438  1.00  0.00    -0.462 OA
ATOM     11  O   UNL     1      29.170  57.922   8.378  1.00  0.00    -0.252 OA
ATOM     12  C   UNL     1      30.992  60.361  11.555  1.00  0.00     0.053 C 
ENDBRANCH   4   5
ENDBRANCH   3   4
BRANCH   3  13
ATOM     13  O   UNL     1      29.001  56.062  12.901  1.00  0.00    -0.390 OA
ATOM     14  H   UNL     1      28.555  56.455  12.110  1.00  0.00     0.211 HD
ENDBRANCH   3  13
ENDBRANCH   1   3
BRANCH   1  15
ATOM     15  C   UNL     1      30.749  58.121  15.525  1.00  0.00     0.032 C 
ATOM     16  C   UNL     1      31.909  58.953  14.927  1.00  0.00     0.010 C 
ATOM     17  C   UNL     1      29.610  59.176  15.743  1.00  0.00     0.006 C 
ATOM     18  C   UNL     1      31.711  60.391  15.407  1.00  0.00     0.041 C 
ATOM     19  C   UNL     1      30.417  60.422  16.237  1.00  0.00     0.092 C 
ATOM     20  C   UNL     1      28.872  59.512  14.412  1.00  0.00     0.011 C 
ATOM     21  C   UNL     1      28.589  58.700  16.818  1.00  0.00     0.015 C 
ATOM     22  C   UNL     1      29.719  61.780  16.043  1.00  0.00    -0.031 C 
ATOM     23  C   UNL     1      27.952  60.722  14.553  1.00  0.00     0.009 C 
ATOM     24  C   UNL     1      28.747  62.002  14.883  1.00  0.00     0.025 C 
ATOM     25  C   UNL     1      30.192  62.842  16.729  1.00  0.00     0.050 C 
ATOM     26  C   UNL     1      27.829  63.271  15.103  1.00  0.00    -0.013 C 
ATOM     27  C   UNL     1      29.695  64.209  16.514  1.00  0.00     0.159 C 
ATOM     28  C   UNL     1      28.730  64.512  15.404  1.00  0.00     0.070 C 
ATOM     29  C   UNL     1      26.940  63.603  13.863  1.00  0.00     0.042 C 
ATOM     30  C   UNL     1      26.868  63.048  16.306  1.00  0.00     0.013 C 
ATOM     31  O   UNL     1      30.124  65.144  17.242  1.00  0.00    -0.295 OA
ATOM     32  C   UNL     1      29.520  64.997  14.168  1.00  0.00     0.047 C 
ATOM     33  C   UNL     1      27.739  64.058  12.632  1.00  0.00     0.143 C 
ATOM     34  C   UNL     1      28.596  65.290  12.977  1.00  0.00     0.143 C 
BRANCH  19  35
ATOM     35  O   UNL     1      30.788  60.241  17.592  1.00  0.00    -0.385 OA
ATOM     36  H   UNL     1      30.019  60.494  18.167  1.00  0.00     0.211 HD
ENDBRANCH  19  35
BRANCH  33  37
ATOM     37  O   UNL     1      26.834  64.384  11.609  1.00  0.00    -0.390 OA
ATOM     38  H   UNL     1      27.168  63.956  10.777  1.00  0.00     0.211 HD
ENDBRANCH  33  37
BRANCH  34  39
ATOM     39  O   UNL     1      29.369  65.642  11.859  1.00  0.00    -0.390 OA
ATOM     40  H   UNL     1      30.317  65.644  12.154  1.00  0.00     0.211 HD
ENDBRANCH  34  39
ENDBRANCH   1  15
BRANCH   1  41
ATOM     41  O   UNL     1      31.507  55.876  14.904  1.00  0.00    -0.387 OA
ATOM     42  H   UNL     1      31.617  55.575  15.844  1.00  0.00     0.211 HD
ENDBRANCH   1  41
TORSDOF 9
ENDMDL
MODEL 2
REMARK VINA RESULT:    -2.084      2.048      8.135
REMARK INTER + INTRA:          -3.750
REMARK INTER:                  -2.879
REMARK INTRA:                  -0.871
REMARK UNBOUND:                -0.875
REMARK SMILES C[C@H]1OC(=O)[C@H](C)[C@@H]1C[C@@H](O)[C@@](C)(O)[C@H]1CC[C@@]2(O)C3=CC(=O)[C@H]4C[C@@H](O)[C@H](O)C[C@@]4(C)[C@@H]3CC[C@@]12C
REMARK SMILES IDX 12 1 13 2 10 3 9 4 8 5 7 6 6 7 4 8 2 9 3 10 5 11 1 12 11 13
REMARK SMILES IDX 15 15 16 16 36 17 17 18 18 19 35 20 37 21 20 22 34 23 33 24
REMARK SMILES IDX 21 25 31 26 22 27 24 28 30 29 32 30 23 31 25 32 28 33 26 34
REMARK SMILES IDX 19 35 29 37 27 39 14 41
REMARK H PARENT 11 14 19 36 29 38 27 40 14 42
REMARK Flexibility Score: inf
ROOT
ATOM      1  C   UNL     1      29.232  64.314  11.586  1.00  0.00     0.091 C 
ATOM      2  C   UNL     1      27.794  64.599  11.083  1.00  0.00     0.045 C 
ENDROOT
BRANCH   1   3
ATOM      3  C   UNL     1      29.216  64.172  13.158  1.00  0.00     0.146 C 
BRANCH   3   4
ATOM      4  C   UNL     1      30.216  65.072  13.949  1.00  0.00     0.043 C 
BRANCH   4   5
ATOM      5  C   UNL     1      31.354  64.274  14.643  1.00  0.00     0.046 C 
ATOM      6  C   UNL     1      31.656  66.471  16.087  1.00  0.00     0.020 C 
ATOM      7  C   UNL     1      32.019  64.994  15.861  1.00  0.00     0.103 C 
ATOM      8  C   UNL     1      31.595  64.156  17.006  1.00  0.00     0.309 C 
ATOM      9  C   UNL     1      30.825  62.917  15.213  1.00  0.00     0.177 C 
ATOM     10  O   UNL     1      30.926  63.018  16.622  1.00  0.00    -0.462 OA
ATOM     11  O   UNL     1      31.852  64.416  18.211  1.00  0.00    -0.252 OA
ATOM     12  C   UNL     1      31.659  61.730  14.730  1.00  0.00     0.053 C 
ENDBRANCH   4   5
ENDBRANCH   3   4
BRANCH   3  13
ATOM     13  O   UNL     1      27.904  64.317  13.652  1.00  0.00    -0.390 OA
ATOM     14  H   UNL     1      27.740  65.274  13.846  1.00  0.00     0.211 HD
ENDBRANCH   3  13
ENDBRANCH   1   3
BRANCH   1  15
ATOM     15  C   UNL     1      29.890  63.049  10.855  1.00  0.00     0.032 C 
ATOM     16  C   UNL     1      31.372  62.730  11.167  1.00  0.00     0.010 C 
ATOM     17  C   UNL     1      29.179  61.656  10.969  1.00  0.00     0.006 C 
ATOM     18  C   UNL     1      31.592  61.262  10.802  1.00  0.00     0.041 C 
ATOM     19  C   UNL     1      30.240  60.701  10.329  1.00  0.00     0.092 C 
ATOM     20  C   UNL     1      28.929  61.256  12.455  1.00  0.00     0.011 C 
ATOM     21  C   UNL     1      27.841  61.630  10.174  1.00  0.00     0.015 C 
ATOM     22  C   UNL     1      30.131  59.222  10.740  1.00  0.00    -0.031 C 
ATOM     23  C   UNL     1      28.490  59.800  12.594  1.00  0.00     0.009 C 
ATOM     24  C   UNL     1      29.589  58.830  12.116  1.00  0.00     0.025 C 
ATOM     25  C   UNL     1      30.780  58.304   9.993  1.00  0.00     0.050 C 
ATOM     26  C   UNL     1      29.154  57.310  12.180  1.00  0.00    -0.013 C 
ATOM     27  C   UNL     1      30.860  56.886  10.373  1.00  0.00     0.159 C 
ATOM     28  C   UNL     1      30.343  56.414  11.702  1.00  0.00     0.070 C 
ATOM     29  C   UNL     1      28.746  56.852  13.615  1.00  0.00     0.042 C 
ATOM     30  C   UNL     1      27.932  57.053  11.254  1.00  0.00     0.013 C 
ATOM     31  O   UNL     1      31.416  56.067   9.593  1.00  0.00    -0.295 OA
ATOM     32  C   UNL     1      31.511  56.373  12.712  1.00  0.00     0.047 C 
ATOM     33  C   UNL     1      29.910  56.842  14.618  1.00  0.00     0.143 C 
ATOM     34  C   UNL     1      31.045  55.935  14.109  1.00  0.00     0.143 C 
BRANCH  19  35
ATOM     35  O   UNL     1      30.207  60.831   8.920  1.00  0.00    -0.385 OA
ATOM     36  H   UNL     1      29.503  60.226   8.563  1.00  0.00     0.211 HD
ENDBRANCH  19  35
BRANCH  33  37
ATOM     37  O   UNL     1      29.435  56.358  15.848  1.00  0.00    -0.390 OA
ATOM     38  H   UNL     1      30.118  55.727  16.195  1.00  0.00     0.211 HD
ENDBRANCH  33  37
BRANCH  34  39
ATOM     39  O   UNL     1      32.124  55.998  15.005  1.00  0.00    -0.390 OA
ATOM     40  H   UNL     1      31.739  55.990  15.920  1.00  0.00     0.211 HD
ENDBRANCH  34  39
ENDBRANCH   1  15
BRANCH   1  41
ATOM     41  O   UNL     1      30.010  65.454  11.300  1.00  0.00    -0.387 OA
ATOM     42  H   UNL     1      29.464  66.271  11.451  1.00  0.00     0.211 HD
ENDBRANCH   1  41
TORSDOF 9
ENDMDL
MODEL 3
REMARK VINA RESULT:    -2.076      1.740      6.922
REMARK INTER + INTRA:          -3.739
REMARK INTER:                  -2.906
REMARK INTRA:                  -0.833
REMARK UNBOUND:                -0.875
REMARK SMILES C[C@H]1OC(=O)[C@H](C)[C@@H]1C[C@@H](O)[C@@](C)(O)[C@H]1CC[C@@]2(O)C3=CC(=O)[C@H]4C[C@@H](O)[C@H](O)C[C@@]4(C)[C@@H]3CC[C@@]12C
REMARK SMILES IDX 12 1 13 2 10 3 9 4 8 5 7 6 6 7 4 8 2 9 3 10 5 11 1 12 11 13
REMARK SMILES IDX 15 15 16 16 36 17 17 18 18 19 35 20 37 21 20 22 34 23 33 24
REMARK SMILES IDX 21 25 31 26 22 27 24 28 30 29 32 30 23 31 25 32 28 33 26 34
REMARK SMILES IDX 19 35 29 37 27 39 14 41
REMARK H PARENT 11 14 19 36 29 38 27 40 14 42
REMARK Flexibility Score: inf
ROOT
ATOM      1  C   UNL     1      29.417  59.315  16.889  1.00  0.00     0.091 C 
ATOM      2  C   UNL     1      29.350  58.666  18.295  1.00  0.00     0.045 C 
ENDROOT
BRANCH   1   3
ATOM      3  C   UNL     1      30.280  60.635  16.965  1.00  0.00     0.146 C 
BRANCH   3   4
ATOM      4  C   UNL     1      29.502  61.983  16.851  1.00  0.00     0.043 C 
BRANCH   4   5
ATOM      5  C   UNL     1      29.818  62.775  15.552  1.00  0.00     0.046 C 
ATOM      6  C   UNL     1      27.360  63.715  15.841  1.00  0.00     0.020 C 
ATOM      7  C   UNL     1      28.710  63.785  15.107  1.00  0.00     0.103 C 
ATOM      8  C   UNL     1      29.365  65.097  15.312  1.00  0.00     0.309 C 
ATOM      9  C   UNL     1      31.111  63.638  15.719  1.00  0.00     0.177 C 
ATOM     10  O   UNL     1      30.691  64.989  15.661  1.00  0.00    -0.462 OA
ATOM     11  O   UNL     1      28.798  66.208  15.142  1.00  0.00    -0.252 OA
ATOM     12  C   UNL     1      32.122  63.375  14.602  1.00  0.00     0.053 C 
ENDBRANCH   4   5
ENDBRANCH   3   4
BRANCH   3  13
ATOM     13  O   UNL     1      31.103  60.620  18.109  1.00  0.00    -0.390 OA
ATOM     14  H   UNL     1      31.047  59.726  18.530  1.00  0.00     0.211 HD
ENDBRANCH   3  13
ENDBRANCH   1   3
BRANCH   1  15
ATOM     15  C   UNL     1      29.945  58.292  15.774  1.00  0.00     0.032 C 
ATOM     16  C   UNL     1      28.984  57.166  15.321  1.00  0.00     0.010 C 
ATOM     17  C   UNL     1      30.503  58.866  14.426  1.00  0.00     0.006 C 
ATOM     18  C   UNL     1      29.476  56.693  13.953  1.00  0.00     0.041 C 
ATOM     19  C   UNL     1      30.683  57.567  13.574  1.00  0.00     0.092 C 
ATOM     20  C   UNL     1      29.481  59.820  13.736  1.00  0.00     0.011 C 
ATOM     21  C   UNL     1      31.862  59.598  14.636  1.00  0.00     0.015 C 
ATOM     22  C   UNL     1      30.702  57.774  12.048  1.00  0.00    -0.031 C 
ATOM     23  C   UNL     1      29.892  60.169  12.308  1.00  0.00     0.009 C 
ATOM     24  C   UNL     1      29.920  58.920  11.405  1.00  0.00     0.025 C 
ATOM     25  C   UNL     1      31.175  56.773  11.277  1.00  0.00     0.050 C 
ATOM     26  C   UNL     1      30.405  59.224   9.929  1.00  0.00    -0.013 C 
ATOM     27  C   UNL     1      31.110  56.807   9.808  1.00  0.00     0.159 C 
ATOM     28  C   UNL     1      30.371  57.903   9.095  1.00  0.00     0.070 C 
ATOM     29  C   UNL     1      29.518  60.283   9.202  1.00  0.00     0.042 C 
ATOM     30  C   UNL     1      31.859  59.774   9.935  1.00  0.00     0.013 C 
ATOM     31  O   UNL     1      31.640  55.876   9.144  1.00  0.00    -0.295 OA
ATOM     32  C   UNL     1      28.936  57.423   8.783  1.00  0.00     0.047 C 
ATOM     33  C   UNL     1      28.085  59.805   8.923  1.00  0.00     0.143 C 
ATOM     34  C   UNL     1      28.107  58.512   8.086  1.00  0.00     0.143 C 
BRANCH  19  35
ATOM     35  O   UNL     1      31.844  56.877  13.998  1.00  0.00    -0.385 OA
ATOM     36  H   UNL     1      31.892  56.011  13.514  1.00  0.00     0.211 HD
ENDBRANCH  19  35
BRANCH  33  37
ATOM     37  O   UNL     1      27.408  60.812   8.216  1.00  0.00    -0.390 OA
ATOM     38  H   UNL     1      26.437  60.673   8.369  1.00  0.00     0.211 HD
ENDBRANCH  33  37
BRANCH  34  39
ATOM     39  O   UNL     1      26.791  58.056   7.904  1.00  0.00    -0.390 OA
ATOM     40  H   UNL     1      26.196  58.709   8.358  1.00  0.00     0.211 HD
ENDBRANCH  34  39
ENDBRANCH   1  15
BRANCH   1  41
ATOM     41  O   UNL     1      28.110  59.716  16.550  1.00  0.00    -0.387 OA
ATOM     42  H   UNL     1      28.149  60.361  15.795  1.00  0.00     0.211 HD
ENDBRANCH   1  41
TORSDOF 9
ENDMDL
MODEL 4
REMARK VINA RESULT:    -1.986      2.212      7.506
REMARK INTER + INTRA:          -3.615
REMARK INTER:                  -2.616
REMARK INTRA:                  -1.000
REMARK UNBOUND:                -0.875
REMARK SMILES C[C@H]1OC(=O)[C@H](C)[C@@H]1C[C@@H](O)[C@@](C)(O)[C@H]1CC[C@@]2(O)C3=CC(=O)[C@H]4C[C@@H](O)[C@H](O)C[C@@]4(C)[C@@H]3CC[C@@]12C
REMARK SMILES IDX 12 1 13 2 10 3 9 4 8 5 7 6 6 7 4 8 2 9 3 10 5 11 1 12 11 13
REMARK SMILES IDX 15 15 16 16 36 17 17 18 18 19 35 20 37 21 20 22 34 23 33 24
REMARK SMILES IDX 21 25 31 26 22 27 24 28 30 29 32 30 23 31 25 32 28 33 26 34
REMARK SMILES IDX 19 35 29 37 27 39 14 41
REMARK H PARENT 11 14 19 36 29 38 27 40 14 42
REMARK Flexibility Score: inf
ROOT
ATOM      1  C   UNL     1      29.280  64.330  13.508  1.00  0.00     0.091 C 
ATOM      2  C   UNL     1      30.456  65.316  13.294  1.00  0.00     0.045 C 
ENDROOT
BRANCH   1   3
ATOM      3  C   UNL     1      28.342  64.352  12.238  1.00  0.00     0.146 C 
BRANCH   3   4
ATOM      4  C   UNL     1      26.805  64.312  12.506  1.00  0.00     0.043 C 
BRANCH   4   5
ATOM      5  C   UNL     1      26.176  62.906  12.302  1.00  0.00     0.046 C 
ATOM      6  C   UNL     1      25.098  63.332  14.682  1.00  0.00     0.020 C 
ATOM      7  C   UNL     1      25.171  62.463  13.415  1.00  0.00     0.103 C 
ATOM      8  C   UNL     1      23.875  62.450  12.698  1.00  0.00     0.309 C 
ATOM      9  C   UNL     1      25.360  62.843  10.970  1.00  0.00     0.177 C 
ATOM     10  O   UNL     1      24.005  62.674  11.347  1.00  0.00    -0.462 OA
ATOM     11  O   UNL     1      22.765  62.213  13.241  1.00  0.00    -0.252 OA
ATOM     12  C   UNL     1      25.790  61.667  10.091  1.00  0.00     0.053 C 
ENDBRANCH   4   5
ENDBRANCH   3   4
BRANCH   3  13
ATOM     13  O   UNL     1      28.681  65.430  11.395  1.00  0.00    -0.390 OA
ATOM     14  H   UNL     1      28.027  66.161  11.534  1.00  0.00     0.211 HD
ENDBRANCH   3  13
ENDBRANCH   1   3
BRANCH   1  15
ATOM     15  C   UNL     1      29.785  62.856  13.880  1.00  0.00     0.032 C 
ATOM     16  C   UNL     1      28.787  61.914  14.597  1.00  0.00     0.010 C 
ATOM     17  C   UNL     1      30.393  61.957  12.749  1.00  0.00     0.006 C 
ATOM     18  C   UNL     1      29.285  60.487  14.366  1.00  0.00     0.041 C 
ATOM     19  C   UNL     1      30.534  60.578  13.475  1.00  0.00     0.092 C 
ATOM     20  C   UNL     1      29.425  61.824  11.534  1.00  0.00     0.011 C 
ATOM     21  C   UNL     1      31.777  62.492  12.276  1.00  0.00     0.015 C 
ATOM     22  C   UNL     1      30.592  59.348  12.551  1.00  0.00    -0.031 C 
ATOM     23  C   UNL     1      29.878  60.746  10.552  1.00  0.00     0.009 C 
ATOM     24  C   UNL     1      29.871  59.348  11.202  1.00  0.00     0.025 C 
ATOM     25  C   UNL     1      31.037  58.184  13.069  1.00  0.00     0.050 C 
ATOM     26  C   UNL     1      30.396  58.207  10.240  1.00  0.00    -0.013 C 
ATOM     27  C   UNL     1      31.002  56.919  12.321  1.00  0.00     0.159 C 
ATOM     28  C   UNL     1      30.323  56.833  10.983  1.00  0.00     0.070 C 
ATOM     29  C   UNL     1      29.569  58.091   8.922  1.00  0.00     0.042 C 
ATOM     30  C   UNL     1      31.872  58.475   9.830  1.00  0.00     0.013 C 
ATOM     31  O   UNL     1      31.504  55.883  12.833  1.00  0.00    -0.295 OA
ATOM     32  C   UNL     1      28.876  56.333  11.184  1.00  0.00     0.047 C 
ATOM     33  C   UNL     1      28.122  57.619   9.136  1.00  0.00     0.143 C 
ATOM     34  C   UNL     1      28.107  56.259   9.856  1.00  0.00     0.143 C 
BRANCH  19  35
ATOM     35  O   UNL     1      31.657  60.608  14.336  1.00  0.00    -0.385 OA
ATOM     36  H   UNL     1      31.455  60.057  15.138  1.00  0.00     0.211 HD
ENDBRANCH  19  35
BRANCH  33  37
ATOM     37  O   UNL     1      27.502  57.497   7.882  1.00  0.00    -0.390 OA
ATOM     38  H   UNL     1      27.233  56.546   7.782  1.00  0.00     0.211 HD
ENDBRANCH  33  37
BRANCH  34  39
ATOM     39  O   UNL     1      26.777  55.882  10.105  1.00  0.00    -0.390 OA
ATOM     40  H   UNL     1      26.264  56.076   9.276  1.00  0.00     0.211 HD
ENDBRANCH  34  39
ENDBRANCH   1  15
BRANCH   1  41
ATOM     41  O   UNL     1      28.507  64.825  14.578  1.00  0.00    -0.387 OA
ATOM     42  H   UNL     1      29.027  64.746  15.422  1.00  0.00     0.211 HD
ENDBRANCH   1  41
TORSDOF 9
ENDMDL
MODEL 5
REMARK VINA RESULT:    -1.971      2.435      8.045
REMARK INTER + INTRA:          -3.594
REMARK INTER:                  -2.630
REMARK INTRA:                  -0.963
REMARK UNBOUND:                -0.875
REMARK SMILES C[C@H]1OC(=O)[C@H](C)[C@@H]1C[C@@H](O)[C@@](C)(O)[C@H]1CC[C@@]2(O)C3=CC(=O)[C@H]4C[C@@H](O)[C@H](O)C[C@@]4(C)[C@@H]3CC[C@@]12C
REMARK SMILES IDX 12 1 13 2 10 3 9 4 8 5 7 6 6 7 4 8 2 9 3 10 5 11 1 12 11 13
REMARK SMILES IDX 15 15 16 16 36 17 17 18 18 19 35 20 37 21 20 22 34 23 33 24
REMARK SMILES IDX 21 25 31 26 22 27 24 28 30 29 32 30 23 31 25 32 28 33 26 34
REMARK SMILES IDX 19 35 29 37 27 39 14 41
REMARK H PARENT 11 14 19 36 29 38 27 40 14 42
REMARK Flexibility Score: inf
ROOT
ATOM      1  C   UNL     1      29.188  64.374  12.073  1.00  0.00     0.091 C 
ATOM      2  C   UNL     1      29.912  65.725  11.844  1.00  0.00     0.045 C 
ENDROOT
BRANCH   1   3
ATOM      3  C   UNL     1      27.660  64.533  11.705  1.00  0.00     0.146 C 
BRANCH   3   4
ATOM      4  C   UNL     1      26.645  64.425  12.885  1.00  0.00     0.043 C 
BRANCH   4   5
ATOM      5  C   UNL     1      25.700  63.195  12.780  1.00  0.00     0.046 C 
ATOM      6  C   UNL     1      26.512  62.692  15.249  1.00  0.00     0.020 C 
ATOM      7  C   UNL     1      25.550  62.362  14.095  1.00  0.00     0.103 C 
ATOM      8  C   UNL     1      24.142  62.615  14.481  1.00  0.00     0.309 C 
ATOM      9  C   UNL     1      24.246  63.634  12.408  1.00  0.00     0.177 C 
ATOM     10  O   UNL     1      23.445  63.329  13.536  1.00  0.00    -0.462 OA
ATOM     11  O   UNL     1      23.608  62.186  15.537  1.00  0.00    -0.252 OA
ATOM     12  C   UNL     1      23.714  62.875  11.191  1.00  0.00     0.053 C 
ENDBRANCH   4   5
ENDBRANCH   3   4
BRANCH   3  13
ATOM     13  O   UNL     1      27.452  65.715  10.965  1.00  0.00    -0.390 OA
ATOM     14  H   UNL     1      28.297  66.232  10.947  1.00  0.00     0.211 HD
ENDBRANCH   3  13
ENDBRANCH   1   3
BRANCH   1  15
ATOM     15  C   UNL     1      29.893  63.168  11.288  1.00  0.00     0.032 C 
ATOM     16  C   UNL     1      31.370  62.856  11.630  1.00  0.00     0.010 C 
ATOM     17  C   UNL     1      29.206  61.759  11.294  1.00  0.00     0.006 C 
ATOM     18  C   UNL     1      31.629  61.417  11.183  1.00  0.00     0.041 C 
ATOM     19  C   UNL     1      30.305  60.863  10.633  1.00  0.00     0.092 C 
ATOM     20  C   UNL     1      28.915  61.264  12.743  1.00  0.00     0.011 C 
ATOM     21  C   UNL     1      27.894  61.759  10.454  1.00  0.00     0.015 C 
ATOM     22  C   UNL     1      30.210  59.360  10.949  1.00  0.00    -0.031 C 
ATOM     23  C   UNL     1      28.500  59.795  12.778  1.00  0.00     0.009 C 
ATOM     24  C   UNL     1      29.631  58.875  12.279  1.00  0.00     0.025 C 
ATOM     25  C   UNL     1      30.900  58.501  10.169  1.00  0.00     0.050 C 
ATOM     26  C   UNL     1      29.224  57.346  12.235  1.00  0.00    -0.013 C 
ATOM     27  C   UNL     1      30.995  57.064  10.464  1.00  0.00     0.159 C 
ATOM     28  C   UNL     1      30.444  56.502  11.744  1.00  0.00     0.070 C 
ATOM     29  C   UNL     1      28.778  56.794  13.625  1.00  0.00     0.042 C 
ATOM     30  C   UNL     1      28.037  57.126  11.255  1.00  0.00     0.013 C 
ATOM     31  O   UNL     1      31.591  56.304   9.654  1.00  0.00    -0.295 OA
ATOM     32  C   UNL     1      31.579  56.419  12.788  1.00  0.00     0.047 C 
ATOM     33  C   UNL     1      29.909  56.742  14.664  1.00  0.00     0.143 C 
ATOM     34  C   UNL     1      31.077  55.888  14.139  1.00  0.00     0.143 C 
BRANCH  19  35
ATOM     35  O   UNL     1      30.314  61.079   9.233  1.00  0.00    -0.385 OA
ATOM     36  H   UNL     1      29.568  60.563   8.828  1.00  0.00     0.211 HD
ENDBRANCH  19  35
BRANCH  33  37
ATOM     37  O   UNL     1      29.403  56.176  15.845  1.00  0.00    -0.390 OA
ATOM     38  H   UNL     1      30.175  55.786  16.335  1.00  0.00     0.211 HD
ENDBRANCH  33  37
BRANCH  34  39
ATOM     39  O   UNL     1      32.125  55.914  15.073  1.00  0.00    -0.390 OA
ATOM     40  H   UNL     1      31.834  55.363  15.846  1.00  0.00     0.211 HD
ENDBRANCH  34  39
ENDBRANCH   1  15
BRANCH   1  41
ATOM     41  O   UNL     1      29.235  64.102  13.455  1.00  0.00    -0.387 OA
ATOM     42  H   UNL     1      29.876  63.360  13.621  1.00  0.00     0.211 HD
ENDBRANCH   1  41
TORSDOF 9
ENDMDL
MODEL 6
REMARK VINA RESULT:    -1.954      2.232      6.813
REMARK INTER + INTRA:          -3.572
REMARK INTER:                  -2.668
REMARK INTRA:                  -0.904
REMARK UNBOUND:                -0.875
REMARK SMILES C[C@H]1OC(=O)[C@H](C)[C@@H]1C[C@@H](O)[C@@](C)(O)[C@H]1CC[C@@]2(O)C3=CC(=O)[C@H]4C[C@@H](O)[C@H](O)C[C@@]4(C)[C@@H]3CC[C@@]12C
REMARK SMILES IDX 12 1 13 2 10 3 9 4 8 5 7 6 6 7 4 8 2 9 3 10 5 11 1 12 11 13
REMARK SMILES IDX 15 15 16 16 36 17 17 18 18 19 35 20 37 21 20 22 34 23 33 24
REMARK SMILES IDX 21 25 31 26 22 27 24 28 30 29 32 30 23 31 25 32 28 33 26 34
REMARK SMILES IDX 19 35 29 37 27 39 14 41
REMARK H PARENT 11 14 19 36 29 38 27 40 14 42
REMARK Flexibility Score: inf
ROOT
ATOM      1  C   UNL     1      29.233  60.181  16.738  1.00  0.00     0.091 C 
ATOM      2  C   UNL     1      30.288  60.635  17.778  1.00  0.00     0.045 C 
ENDROOT
BRANCH   1   3
ATOM      3  C   UNL     1      28.695  61.442  15.955  1.00  0.00     0.146 C 
BRANCH   3   4
ATOM      4  C   UNL     1      27.171  61.748  16.090  1.00  0.00     0.043 C 
BRANCH   4   5
ATOM      5  C   UNL     1      26.514  62.228  14.766  1.00  0.00     0.046 C 
ATOM      6  C   UNL     1      25.791  59.695  14.513  1.00  0.00     0.020 C 
ATOM      7  C   UNL     1      25.678  61.144  14.011  1.00  0.00     0.103 C 
ATOM      8  C   UNL     1      24.293  61.652  14.143  1.00  0.00     0.309 C 
ATOM      9  C   UNL     1      25.515  63.403  15.028  1.00  0.00     0.177 C 
ATOM     10  O   UNL     1      24.228  62.899  14.719  1.00  0.00    -0.462 OA
ATOM     11  O   UNL     1      23.271  61.042  13.733  1.00  0.00    -0.252 OA
ATOM     12  C   UNL     1      25.811  64.613  14.141  1.00  0.00     0.053 C 
ENDBRANCH   4   5
ENDBRANCH   3   4
BRANCH   3  13
ATOM     13  O   UNL     1      29.470  62.579  16.263  1.00  0.00    -0.390 OA
ATOM     14  H   UNL     1      28.903  63.386  16.165  1.00  0.00     0.211 HD
ENDBRANCH   3  13
ENDBRANCH   1   3
BRANCH   1  15
ATOM     15  C   UNL     1      29.795  59.039  15.764  1.00  0.00     0.032 C 
ATOM     16  C   UNL     1      28.853  57.859  15.423  1.00  0.00     0.010 C 
ATOM     17  C   UNL     1      30.384  59.456  14.372  1.00  0.00     0.006 C 
ATOM     18  C   UNL     1      29.382  57.233  14.132  1.00  0.00     0.041 C 
ATOM     19  C   UNL     1      30.593  58.067  13.683  1.00  0.00     0.092 C 
ATOM     20  C   UNL     1      29.374  60.313  13.550  1.00  0.00     0.011 C 
ATOM     21  C   UNL     1      31.733  60.219  14.528  1.00  0.00     0.015 C 
ATOM     22  C   UNL     1      30.651  58.094  12.145  1.00  0.00    -0.031 C 
ATOM     23  C   UNL     1      29.820  60.496  12.101  1.00  0.00     0.009 C 
ATOM     24  C   UNL     1      29.879  59.150  11.352  1.00  0.00     0.025 C 
ATOM     25  C   UNL     1      31.149  57.014  11.508  1.00  0.00     0.050 C 
ATOM     26  C   UNL     1      30.399  59.283   9.863  1.00  0.00    -0.013 C 
ATOM     27  C   UNL     1      31.121  56.875  10.044  1.00  0.00     0.159 C 
ATOM     28  C   UNL     1      30.395  57.873   9.189  1.00  0.00     0.070 C 
ATOM     29  C   UNL     1      29.525  60.241   8.995  1.00  0.00     0.042 C 
ATOM     30  C   UNL     1      31.850  59.843   9.841  1.00  0.00     0.013 C 
ATOM     31  O   UNL     1      31.673  55.877   9.507  1.00  0.00    -0.295 OA
ATOM     32  C   UNL     1      28.971  57.347   8.901  1.00  0.00     0.047 C 
ATOM     33  C   UNL     1      28.102  59.721   8.738  1.00  0.00     0.143 C 
ATOM     34  C   UNL     1      28.154  58.340   8.060  1.00  0.00     0.143 C 
BRANCH  19  35
ATOM     35  O   UNL     1      31.748  57.442  14.214  1.00  0.00    -0.385 OA
ATOM     36  H   UNL     1      32.452  57.431  13.513  1.00  0.00     0.211 HD
ENDBRANCH  19  35
BRANCH  33  37
ATOM     37  O   UNL     1      27.438  60.633   7.902  1.00  0.00    -0.390 OA
ATOM     38  H   UNL     1      28.001  61.450   7.857  1.00  0.00     0.211 HD
ENDBRANCH  33  37
BRANCH  34  39
ATOM     39  O   UNL     1      26.846  57.854   7.900  1.00  0.00    -0.390 OA
ATOM     40  H   UNL     1      26.642  57.309   8.705  1.00  0.00     0.211 HD
ENDBRANCH  34  39
ENDBRANCH   1  15
BRANCH   1  41
ATOM     41  O   UNL     1      28.135  59.662  17.453  1.00  0.00    -0.387 OA
ATOM     42  H   UNL     1      28.329  58.724  17.718  1.00  0.00     0.211 HD
ENDBRANCH   1  41
TORSDOF 9
ENDMDL
MODEL 7
REMARK VINA RESULT:    -1.917      1.435      1.847
REMARK INTER + INTRA:          -3.521
REMARK INTER:                  -2.627
REMARK INTRA:                  -0.894
REMARK UNBOUND:                -0.875
REMARK SMILES C[C@H]1OC(=O)[C@H](C)[C@@H]1C[C@@H](O)[C@@](C)(O)[C@H]1CC[C@@]2(O)C3=CC(=O)[C@H]4C[C@@H](O)[C@H](O)C[C@@]4(C)[C@@H]3CC[C@@]12C
REMARK SMILES IDX 12 1 13 2 10 3 9 4 8 5 7 6 6 7 4 8 2 9 3 10 5 11 1 12 11 13
REMARK SMILES IDX 15 15 16 16 36 17 17 18 18 19 35 20 37 21 20 22 34 23 33 24
REMARK SMILES IDX 21 25 31 26 22 27 24 28 30 29 32 30 23 31 25 32 28 33 26 34
REMARK SMILES IDX 19 35 29 37 27 39 14 41
REMARK H PARENT 11 14 19 36 29 38 27 40 14 42
REMARK Flexibility Score: inf
ROOT
ATOM      1  C   UNL     1      30.722  57.905  14.698  1.00  0.00     0.091 C 
ATOM      2  C   UNL     1      30.015  57.066  15.793  1.00  0.00     0.045 C 
ENDROOT
BRANCH   1   3
ATOM      3  C   UNL     1      30.110  57.544  13.288  1.00  0.00     0.146 C 
BRANCH   3   4
ATOM      4  C   UNL     1      31.125  57.188  12.158  1.00  0.00     0.043 C 
BRANCH   4   5
ATOM      5  C   UNL     1      31.020  58.112  10.914  1.00  0.00     0.046 C 
ATOM      6  C   UNL     1      31.385  55.875   9.547  1.00  0.00     0.020 C 
ATOM      7  C   UNL     1      31.033  57.372   9.536  1.00  0.00     0.103 C 
ATOM      8  C   UNL     1      29.658  57.597   9.033  1.00  0.00     0.309 C 
ATOM      9  C   UNL     1      29.682  58.923  10.927  1.00  0.00     0.177 C 
ATOM     10  O   UNL     1      28.927  58.450   9.825  1.00  0.00    -0.462 OA
ATOM     11  O   UNL     1      29.204  57.107   7.966  1.00  0.00    -0.252 OA
ATOM     12  C   UNL     1      29.922  60.425  10.768  1.00  0.00     0.053 C 
ENDBRANCH   4   5
ENDBRANCH   3   4
BRANCH   3  13
ATOM     13  O   UNL     1      29.127  56.541  13.420  1.00  0.00    -0.390 OA
ATOM     14  H   UNL     1      28.663  56.662  14.286  1.00  0.00     0.211 HD
ENDBRANCH   3  13
ENDBRANCH   1   3
BRANCH   1  15
ATOM     15  C   UNL     1      30.673  59.475  15.011  1.00  0.00     0.032 C 
ATOM     16  C   UNL     1      31.394  60.427  14.026  1.00  0.00     0.010 C 
ATOM     17  C   UNL     1      29.279  60.159  15.232  1.00  0.00     0.006 C 
ATOM     18  C   UNL     1      30.780  61.813  14.225  1.00  0.00     0.041 C 
ATOM     19  C   UNL     1      29.668  61.673  15.278  1.00  0.00     0.092 C 
ATOM     20  C   UNL     1      28.309  59.892  14.041  1.00  0.00     0.011 C 
ATOM     21  C   UNL     1      28.624  59.702  16.569  1.00  0.00     0.015 C 
ATOM     22  C   UNL     1      28.530  62.657  14.951  1.00  0.00    -0.031 C 
ATOM     23  C   UNL     1      27.058  60.763  14.111  1.00  0.00     0.009 C 
ATOM     24  C   UNL     1      27.403  62.261  13.995  1.00  0.00     0.025 C 
ATOM     25  C   UNL     1      28.695  63.954  15.287  1.00  0.00     0.050 C 
ATOM     26  C   UNL     1      26.142  63.208  14.128  1.00  0.00    -0.013 C 
ATOM     27  C   UNL     1      27.738  65.001  14.897  1.00  0.00     0.159 C 
ATOM     28  C   UNL     1      26.597  64.695  13.970  1.00  0.00     0.070 C 
ATOM     29  C   UNL     1      25.046  62.917  13.056  1.00  0.00     0.042 C 
ATOM     30  C   UNL     1      25.475  63.035  15.522  1.00  0.00     0.013 C 
ATOM     31  O   UNL     1      27.910  66.180  15.309  1.00  0.00    -0.295 OA
ATOM     32  C   UNL     1      27.012  65.049  12.525  1.00  0.00     0.047 C 
ATOM     33  C   UNL     1      25.480  63.246  11.619  1.00  0.00     0.143 C 
ATOM     34  C   UNL     1      25.902  64.723  11.515  1.00  0.00     0.143 C 
BRANCH  19  35
ATOM     35  O   UNL     1      30.245  61.978  16.534  1.00  0.00    -0.385 OA
ATOM     36  H   UNL     1      29.624  61.676  17.249  1.00  0.00     0.211 HD
ENDBRANCH  19  35
BRANCH  33  37
ATOM     37  O   UNL     1      24.398  63.003  10.759  1.00  0.00    -0.390 OA
ATOM     38  H   UNL     1      23.714  63.698  10.947  1.00  0.00     0.211 HD
ENDBRANCH  33  37
BRANCH  34  39
ATOM     39  O   UNL     1      26.362  64.982  10.213  1.00  0.00    -0.390 OA
ATOM     40  H   UNL     1      27.174  65.546  10.302  1.00  0.00     0.211 HD
ENDBRANCH  34  39
ENDBRANCH   1  15
BRANCH   1  41
ATOM     41  O   UNL     1      32.070  57.495  14.660  1.00  0.00    -0.387 OA
ATOM     42  H   UNL     1      32.431  57.637  13.745  1.00  0.00     0.211 HD
ENDBRANCH   1  41
TORSDOF 9
ENDMDL
MODEL 8
REMARK VINA RESULT:    -1.674      3.106      6.714
REMARK INTER + INTRA:          -3.185
REMARK INTER:                  -2.181
REMARK INTRA:                  -1.004
REMARK UNBOUND:                -0.875
REMARK SMILES C[C@H]1OC(=O)[C@H](C)[C@@H]1C[C@@H](O)[C@@](C)(O)[C@H]1CC[C@@]2(O)C3=CC(=O)[C@H]4C[C@@H](O)[C@H](O)C[C@@]4(C)[C@@H]3CC[C@@]12C
REMARK SMILES IDX 12 1 13 2 10 3 9 4 8 5 7 6 6 7 4 8 2 9 3 10 5 11 1 12 11 13
REMARK SMILES IDX 15 15 16 16 36 17 17 18 18 19 35 20 37 21 20 22 34 23 33 24
REMARK SMILES IDX 21 25 31 26 22 27 24 28 30 29 32 30 23 31 25 32 28 33 26 34
REMARK SMILES IDX 19 35 29 37 27 39 14 41
REMARK H PARENT 11 14 19 36 29 38 27 40 14 42
REMARK Flexibility Score: inf
ROOT
ATOM      1  C   UNL     1      29.623  58.205  16.897  1.00  0.00     0.091 C 
ATOM      2  C   UNL     1      30.798  58.762  17.741  1.00  0.00     0.045 C 
ENDROOT
BRANCH   1   3
ATOM      3  C   UNL     1      28.668  59.393  16.485  1.00  0.00     0.146 C 
BRANCH   3   4
ATOM      4  C   UNL     1      27.136  59.139  16.636  1.00  0.00     0.043 C 
BRANCH   4   5
ATOM      5  C   UNL     1      26.460  58.628  15.333  1.00  0.00     0.046 C 
ATOM      6  C   UNL     1      25.547  56.684  16.881  1.00  0.00     0.020 C 
ATOM      7  C   UNL     1      25.517  57.393  15.517  1.00  0.00     0.103 C 
ATOM      8  C   UNL     1      24.179  57.962  15.237  1.00  0.00     0.309 C 
ATOM      9  C   UNL     1      25.559  59.735  14.695  1.00  0.00     0.177 C 
ATOM     10  O   UNL     1      24.227  59.262  14.794  1.00  0.00    -0.462 OA
ATOM     11  O   UNL     1      23.100  57.322  15.340  1.00  0.00    -0.252 OA
ATOM     12  C   UNL     1      25.902  59.974  13.224  1.00  0.00     0.053 C 
ENDBRANCH   4   5
ENDBRANCH   3   4
BRANCH   3  13
ATOM     13  O   UNL     1      29.051  60.582  17.140  1.00  0.00    -0.390 OA
ATOM     14  H   UNL     1      28.764  60.531  18.086  1.00  0.00     0.211 HD
ENDBRANCH   3  13
ENDBRANCH   1   3
BRANCH   1  15
ATOM     15  C   UNL     1      30.130  57.353  15.639  1.00  0.00     0.032 C 
ATOM     16  C   UNL     1      29.179  56.270  15.075  1.00  0.00     0.010 C 
ATOM     17  C   UNL     1      30.625  58.113  14.360  1.00  0.00     0.006 C 
ATOM     18  C   UNL     1      29.629  55.994  13.640  1.00  0.00     0.041 C 
ATOM     19  C   UNL     1      30.801  56.943  13.338  1.00  0.00     0.092 C 
ATOM     20  C   UNL     1      29.557  59.121  13.839  1.00  0.00     0.011 C 
ATOM     21  C   UNL     1      31.974  58.847  14.619  1.00  0.00     0.015 C 
ATOM     22  C   UNL     1      30.759  57.349  11.854  1.00  0.00    -0.031 C 
ATOM     23  C   UNL     1      29.906  59.667  12.456  1.00  0.00     0.009 C 
ATOM     24  C   UNL     1      29.928  58.549  11.395  1.00  0.00     0.025 C 
ATOM     25  C   UNL     1      31.225  56.472  10.941  1.00  0.00     0.050 C 
ATOM     26  C   UNL     1      30.350  59.056   9.957  1.00  0.00    -0.013 C 
ATOM     27  C   UNL     1      31.104  56.696   9.492  1.00  0.00     0.159 C 
ATOM     28  C   UNL     1      30.314  57.856   8.956  1.00  0.00     0.070 C 
ATOM     29  C   UNL     1      29.413  60.177   9.407  1.00  0.00     0.042 C 
ATOM     30  C   UNL     1      31.791  59.640   9.985  1.00  0.00     0.013 C 
ATOM     31  O   UNL     1      31.628  55.875   8.693  1.00  0.00    -0.295 OA
ATOM     32  C   UNL     1      28.880  57.383   8.634  1.00  0.00     0.047 C 
ATOM     33  C   UNL     1      27.981  59.701   9.116  1.00  0.00     0.143 C 
ATOM     34  C   UNL     1      28.001  58.531   8.115  1.00  0.00     0.143 C 
BRANCH  19  35
ATOM     35  O   UNL     1      31.993  56.235  13.628  1.00  0.00    -0.385 OA
ATOM     36  H   UNL     1      31.902  55.308  13.282  1.00  0.00     0.211 HD
ENDBRANCH  19  35
BRANCH  33  37
ATOM     37  O   UNL     1      27.256  60.775   8.573  1.00  0.00    -0.390 OA
ATOM     38  H   UNL     1      26.829  61.250   9.332  1.00  0.00     0.211 HD
ENDBRANCH  33  37
BRANCH  34  39
ATOM     39  O   UNL     1      26.690  58.068   7.920  1.00  0.00    -0.390 OA
ATOM     40  H   UNL     1      26.584  57.258   8.486  1.00  0.00     0.211 HD
ENDBRANCH  34  39
ENDBRANCH   1  15
BRANCH   1  41
ATOM     41  O   UNL     1      28.867  57.362  17.737  1.00  0.00    -0.387 OA
ATOM     42  H   UNL     1      29.402  57.135  18.542  1.00  0.00     0.211 HD
ENDBRANCH   1  41
TORSDOF 9
ENDMDL
