MODEL 1
REMARK VINA RESULT:    -4.047      0.000      0.000
REMARK INTER + INTRA:          -6.115
REMARK INTER:                  -5.703
REMARK INTRA:                  -0.412
REMARK UNBOUND:                -0.412
REMARK SMILES CCCCCCCCC(=O)[O-]
REMARK SMILES IDX 6 1 7 2 8 3 9 4 10 5 11 6 5 7 4 8 3 9 2 10 1 11
REMARK H PARENT
REMARK Flexibility Score: inf
ROOT
ATOM      1  C   UNL     1     -20.334  -0.236   6.823  1.00  0.00     0.000 C 
ENDROOT
BRANCH   1   2
ATOM      2  C   UNL     1     -19.935   0.901   7.780  1.00  0.00     0.006 C 
BRANCH   2   3
ATOM      3  C   UNL     1     -20.816   2.156   7.661  1.00  0.00     0.053 C 
BRANCH   3   4
ATOM      4  C   UNL     1     -21.509   2.497   8.945  1.00  0.00     0.041 C 
ATOM      5  O   UNL     1     -22.009   3.640   9.111  1.00  0.00    -0.550 OA
ATOM      6  O   UNL     1     -21.573   1.564   9.973  1.00  0.00    -0.550 OA
ENDBRANCH   3   4
ENDBRANCH   2   3
ENDBRANCH   1   2
BRANCH   1   7
ATOM      7  C   UNL     1     -20.287  -1.624   7.485  1.00  0.00     0.000 C 
BRANCH   7   8
ATOM      8  C   UNL     1     -20.045  -1.547   9.001  1.00  0.00    -0.000 C 
BRANCH   8   9
ATOM      9  C   UNL     1     -19.569  -2.885   9.591  1.00  0.00    -0.000 C 
BRANCH   9  10
ATOM     10  C   UNL     1     -19.078  -3.827   8.487  1.00  0.00    -0.003 C 
ATOM     11  C   UNL     1     -19.396  -5.282   8.821  1.00  0.00     0.004 C 
ENDBRANCH   9  10
ENDBRANCH   8   9
ENDBRANCH   7   8
ENDBRANCH   1   7
TORSDOF 7
ENDMDL
MODEL 2
REMARK VINA RESULT:    -3.946      2.563      5.913
REMARK INTER + INTRA:          -5.973
REMARK INTER:                  -5.632
REMARK INTRA:                  -0.342
REMARK UNBOUND:                -0.412
REMARK SMILES CCCCCCCCC(=O)[O-]
REMARK SMILES IDX 6 1 7 2 8 3 9 4 10 5 11 6 5 7 4 8 3 9 2 10 1 11
REMARK H PARENT
REMARK Flexibility Score: inf
ROOT
ATOM      1  C   UNL     1     -20.174   0.503   7.094  1.00  0.00     0.000 C 
ENDROOT
BRANCH   1   2
ATOM      2  C   UNL     1     -20.746  -0.732   7.810  1.00  0.00     0.006 C 
BRANCH   2   3
ATOM      3  C   UNL     1     -19.966  -2.030   7.537  1.00  0.00     0.053 C 
BRANCH   3   4
ATOM      4  C   UNL     1     -19.569  -2.738   8.796  1.00  0.00     0.041 C 
ATOM      5  O   UNL     1     -19.579  -2.127   9.897  1.00  0.00    -0.550 OA
ATOM      6  O   UNL     1     -19.155  -4.064   8.751  1.00  0.00    -0.550 OA
ENDBRANCH   3   4
ENDBRANCH   2   3
ENDBRANCH   1   2
BRANCH   1   7
ATOM      7  C   UNL     1     -20.700   1.830   7.669  1.00  0.00     0.000 C 
BRANCH   7   8
ATOM      8  C   UNL     1     -21.133   1.707   9.139  1.00  0.00    -0.000 C 
BRANCH   8   9
ATOM      9  C   UNL     1     -21.922   2.932   9.626  1.00  0.00    -0.000 C 
BRANCH   9  10
ATOM     10  C   UNL     1     -21.886   4.057   8.587  1.00  0.00    -0.003 C 
ATOM     11  C   UNL     1     -21.578   5.402   9.239  1.00  0.00     0.004 C 
ENDBRANCH   9  10
ENDBRANCH   8   9
ENDBRANCH   7   8
ENDBRANCH   1   7
TORSDOF 7
ENDMDL
MODEL 3
REMARK VINA RESULT:    -3.941      2.676      5.043
REMARK INTER + INTRA:          -5.965
REMARK INTER:                  -5.515
REMARK INTRA:                  -0.451
REMARK UNBOUND:                -0.412
REMARK SMILES CCCCCCCCC(=O)[O-]
REMARK SMILES IDX 6 1 7 2 8 3 9 4 10 5 11 6 5 7 4 8 3 9 2 10 1 11
REMARK H PARENT
REMARK Flexibility Score: inf
ROOT
ATOM      1  C   UNL     1     -20.374   0.065   6.750  1.00  0.00     0.000 C 
ENDROOT
BRANCH   1   2
ATOM      2  C   UNL     1     -20.336  -1.269   7.515  1.00  0.00     0.006 C 
BRANCH   2   3
ATOM      3  C   UNL     1     -20.384  -1.114   9.045  1.00  0.00     0.053 C 
BRANCH   3   4
ATOM      4  C   UNL     1     -19.615  -2.185   9.757  1.00  0.00     0.041 C 
ATOM      5  O   UNL     1     -19.270  -2.025  10.957  1.00  0.00    -0.550 OA
ATOM      6  O   UNL     1     -19.249  -3.345   9.086  1.00  0.00    -0.550 OA
ENDBRANCH   3   4
ENDBRANCH   2   3
ENDBRANCH   1   2
BRANCH   1   7
ATOM      7  C   UNL     1     -19.995   1.272   7.626  1.00  0.00     0.000 C 
BRANCH   7   8
ATOM      8  C   UNL     1     -21.129   2.304   7.732  1.00  0.00    -0.000 C 
BRANCH   8   9
ATOM      9  C   UNL     1     -21.337   2.809   9.168  1.00  0.00    -0.000 C 
BRANCH   9  10
ATOM     10  C   UNL     1     -21.957   1.718  10.048  1.00  0.00    -0.003 C 
ATOM     11  C   UNL     1     -21.311   1.691  11.431  1.00  0.00     0.004 C 
ENDBRANCH   9  10
ENDBRANCH   8   9
ENDBRANCH   7   8
ENDBRANCH   1   7
TORSDOF 7
ENDMDL
MODEL 4
REMARK VINA RESULT:    -3.752      1.133      2.013
REMARK INTER + INTRA:          -5.700
REMARK INTER:                  -5.663
REMARK INTRA:                  -0.037
REMARK UNBOUND:                -0.412
REMARK SMILES CCCCCCCCC(=O)[O-]
REMARK SMILES IDX 6 1 7 2 8 3 9 4 10 5 11 6 5 7 4 8 3 9 2 10 1 11
REMARK H PARENT
REMARK Flexibility Score: inf
ROOT
ATOM      1  C   UNL     1     -20.110   0.103   6.817  1.00  0.00     0.000 C 
ENDROOT
BRANCH   1   2
ATOM      2  C   UNL     1     -20.454   1.399   7.571  1.00  0.00     0.006 C 
BRANCH   2   3
ATOM      3  C   UNL     1     -20.762   1.190   9.064  1.00  0.00     0.053 C 
BRANCH   3   4
ATOM      4  C   UNL     1     -21.735   2.197   9.598  1.00  0.00     0.041 C 
ATOM      5  O   UNL     1     -22.464   1.911  10.583  1.00  0.00    -0.550 OA
ATOM      6  O   UNL     1     -21.861   3.438   8.987  1.00  0.00    -0.550 OA
ENDBRANCH   3   4
ENDBRANCH   2   3
ENDBRANCH   1   2
BRANCH   1   7
ATOM      7  C   UNL     1     -20.753  -1.147   7.443  1.00  0.00     0.000 C 
BRANCH   7   8
ATOM      8  C   UNL     1     -19.737  -2.274   7.689  1.00  0.00    -0.000 C 
BRANCH   8   9
ATOM      9  C   UNL     1     -19.683  -2.709   9.162  1.00  0.00    -0.000 C 
BRANCH   9  10
ATOM     10  C   UNL     1     -20.021  -1.540  10.092  1.00  0.00    -0.003 C 
ATOM     11  C   UNL     1     -20.092  -1.994  11.547  1.00  0.00     0.004 C 
ENDBRANCH   9  10
ENDBRANCH   8   9
ENDBRANCH   7   8
ENDBRANCH   1   7
TORSDOF 7
ENDMDL
MODEL 5
REMARK VINA RESULT:    -3.581      2.946      4.890
REMARK INTER + INTRA:          -5.458
REMARK INTER:                  -5.222
REMARK INTRA:                  -0.236
REMARK UNBOUND:                -0.412
REMARK SMILES CCCCCCCCC(=O)[O-]
REMARK SMILES IDX 6 1 7 2 8 3 9 4 10 5 11 6 5 7 4 8 3 9 2 10 1 11
REMARK H PARENT
REMARK Flexibility Score: inf
ROOT
ATOM      1  C   UNL     1     -20.364  -2.568  10.801  1.00  0.00     0.000 C 
ENDROOT
BRANCH   1   2
ATOM      2  C   UNL     1     -19.944  -1.676  11.982  1.00  0.00     0.006 C 
BRANCH   2   3
ATOM      3  C   UNL     1     -20.965  -1.639  13.132  1.00  0.00     0.053 C 
BRANCH   3   4
ATOM      4  C   UNL     1     -21.008  -0.309  13.821  1.00  0.00     0.041 C 
ATOM      5  O   UNL     1     -21.435   0.707  13.212  1.00  0.00    -0.550 OA
ATOM      6  O   UNL     1     -20.544  -0.183  15.125  1.00  0.00    -0.550 OA
ENDBRANCH   3   4
ENDBRANCH   2   3
ENDBRANCH   1   2
BRANCH   1   7
ATOM      7  C   UNL     1     -19.693  -2.168   9.476  1.00  0.00     0.000 C 
BRANCH   7   8
ATOM      8  C   UNL     1     -20.338  -0.927   8.838  1.00  0.00    -0.000 C 
BRANCH   8   9
ATOM      9  C   UNL     1     -20.459  -1.043   7.311  1.00  0.00    -0.000 C 
BRANCH   9  10
ATOM     10  C   UNL     1     -20.486   0.342   6.656  1.00  0.00    -0.003 C 
ATOM     11  C   UNL     1     -20.393   1.450   7.701  1.00  0.00     0.004 C 
ENDBRANCH   9  10
ENDBRANCH   8   9
ENDBRANCH   7   8
ENDBRANCH   1   7
TORSDOF 7
ENDMDL
MODEL 6
REMARK VINA RESULT:    -3.550      3.200      4.830
REMARK INTER + INTRA:          -5.414
REMARK INTER:                  -5.129
REMARK INTRA:                  -0.285
REMARK UNBOUND:                -0.412
REMARK SMILES CCCCCCCCC(=O)[O-]
REMARK SMILES IDX 6 1 7 2 8 3 9 4 10 5 11 6 5 7 4 8 3 9 2 10 1 11
REMARK H PARENT
REMARK Flexibility Score: inf
ROOT
ATOM      1  C   UNL     1     -22.073   1.787  10.761  1.00  0.00     0.000 C 
ENDROOT
BRANCH   1   2
ATOM      2  C   UNL     1     -21.163   0.879  11.606  1.00  0.00     0.006 C 
BRANCH   2   3
ATOM      3  C   UNL     1     -21.385   1.009  13.122  1.00  0.00     0.053 C 
BRANCH   3   4
ATOM      4  C   UNL     1     -20.920  -0.198  13.878  1.00  0.00     0.041 C 
ATOM      5  O   UNL     1     -20.622  -0.106  15.098  1.00  0.00    -0.550 OA
ATOM      6  O   UNL     1     -20.784  -1.419  13.229  1.00  0.00    -0.550 OA
ENDBRANCH   3   4
ENDBRANCH   2   3
ENDBRANCH   1   2
BRANCH   1   7
ATOM      7  C   UNL     1     -21.500   2.081   9.363  1.00  0.00     0.000 C 
BRANCH   7   8
ATOM      8  C   UNL     1     -20.720   0.890   8.782  1.00  0.00    -0.000 C 
BRANCH   8   9
ATOM      9  C   UNL     1     -20.260   1.135   7.337  1.00  0.00    -0.000 C 
BRANCH   9  10
ATOM     10  C   UNL     1     -20.021  -0.190   6.605  1.00  0.00    -0.003 C 
ATOM     11  C   UNL     1     -20.376  -1.382   7.491  1.00  0.00     0.004 C 
ENDBRANCH   9  10
ENDBRANCH   8   9
ENDBRANCH   7   8
ENDBRANCH   1   7
TORSDOF 7
ENDMDL
MODEL 7
REMARK VINA RESULT:    -3.448      3.551      6.056
REMARK INTER + INTRA:          -5.272
REMARK INTER:                  -4.928
REMARK INTRA:                  -0.343
REMARK UNBOUND:                -0.412
REMARK SMILES CCCCCCCCC(=O)[O-]
REMARK SMILES IDX 6 1 7 2 8 3 9 4 10 5 11 6 5 7 4 8 3 9 2 10 1 11
REMARK H PARENT
REMARK Flexibility Score: inf
ROOT
ATOM      1  C   UNL     1     -20.152  -1.437   9.049  1.00  0.00     0.000 C 
ENDROOT
BRANCH   1   2
ATOM      2  C   UNL     1     -19.798  -2.829   9.600  1.00  0.00     0.006 C 
BRANCH   2   3
ATOM      3  C   UNL     1     -19.084  -3.740   8.587  1.00  0.00     0.053 C 
BRANCH   3   4
ATOM      4  C   UNL     1     -19.489  -5.177   8.719  1.00  0.00     0.041 C 
ATOM      5  O   UNL     1     -18.787  -6.082   8.196  1.00  0.00    -0.550 OA
ATOM      6  O   UNL     1     -20.658  -5.514   9.389  1.00  0.00    -0.550 OA
ENDBRANCH   3   4
ENDBRANCH   2   3
ENDBRANCH   1   2
BRANCH   1   7
ATOM      7  C   UNL     1     -20.206  -1.395   7.512  1.00  0.00     0.000 C 
BRANCH   7   8
ATOM      8  C   UNL     1     -20.719  -0.048   6.976  1.00  0.00    -0.000 C 
BRANCH   8   9
ATOM      9  C   UNL     1     -20.047   1.153   7.658  1.00  0.00    -0.000 C 
BRANCH   9  10
ATOM     10  C   UNL     1     -21.094   2.115   8.231  1.00  0.00    -0.003 C 
ATOM     11  C   UNL     1     -21.431   1.766   9.678  1.00  0.00     0.004 C 
ENDBRANCH   9  10
ENDBRANCH   8   9
ENDBRANCH   7   8
ENDBRANCH   1   7
TORSDOF 7
ENDMDL
MODEL 8
REMARK VINA RESULT:    -3.369      2.623      5.034
REMARK INTER + INTRA:          -5.160
REMARK INTER:                  -4.790
REMARK INTRA:                  -0.370
REMARK UNBOUND:                -0.412
REMARK SMILES CCCCCCCCC(=O)[O-]
REMARK SMILES IDX 6 1 7 2 8 3 9 4 10 5 11 6 5 7 4 8 3 9 2 10 1 11
REMARK H PARENT
REMARK Flexibility Score: inf
ROOT
ATOM      1  C   UNL     1     -19.664  -2.008   8.661  1.00  0.00     0.000 C 
ENDROOT
BRANCH   1   2
ATOM      2  C   UNL     1     -20.275  -2.386  10.022  1.00  0.00     0.006 C 
BRANCH   2   3
ATOM      3  C   UNL     1     -19.819  -1.486  11.183  1.00  0.00     0.053 C 
BRANCH   3   4
ATOM      4  C   UNL     1     -20.559  -1.768  12.455  1.00  0.00     0.041 C 
ATOM      5  O   UNL     1     -21.084  -2.897  12.645  1.00  0.00    -0.550 OA
ATOM      6  O   UNL     1     -20.701  -0.774  13.416  1.00  0.00    -0.550 OA
ENDBRANCH   3   4
ENDBRANCH   2   3
ENDBRANCH   1   2
BRANCH   1   7
ATOM      7  C   UNL     1     -20.632  -1.217   7.765  1.00  0.00     0.000 C 
BRANCH   7   8
ATOM      8  C   UNL     1     -19.946  -0.046   7.043  1.00  0.00    -0.000 C 
BRANCH   8   9
ATOM      9  C   UNL     1     -20.400   1.322   7.575  1.00  0.00    -0.000 C 
BRANCH   9  10
ATOM     10  C   UNL     1     -20.948   1.202   9.001  1.00  0.00    -0.003 C 
ATOM     11  C   UNL     1     -21.722   2.455   9.402  1.00  0.00     0.004 C 
ENDBRANCH   9  10
ENDBRANCH   8   9
ENDBRANCH   7   8
ENDBRANCH   1   7
TORSDOF 7
ENDMDL
MODEL 9
REMARK VINA RESULT:    -2.958      3.571      5.006
REMARK INTER + INTRA:          -4.581
REMARK INTER:                  -4.210
REMARK INTRA:                  -0.371
REMARK UNBOUND:                -0.412
REMARK SMILES CCCCCCCCC(=O)[O-]
REMARK SMILES IDX 6 1 7 2 8 3 9 4 10 5 11 6 5 7 4 8 3 9 2 10 1 11
REMARK H PARENT
REMARK Flexibility Score: inf
ROOT
ATOM      1  C   UNL     1     -21.585   2.037   9.682  1.00  0.00     0.000 C 
ENDROOT
BRANCH   1   2
ATOM      2  C   UNL     1     -20.808   1.204   8.647  1.00  0.00     0.006 C 
BRANCH   2   3
ATOM      3  C   UNL     1     -20.434  -0.206   9.135  1.00  0.00     0.053 C 
BRANCH   3   4
ATOM      4  C   UNL     1     -20.294  -1.186   8.010  1.00  0.00     0.041 C 
ATOM      5  O   UNL     1     -20.737  -0.904   6.866  1.00  0.00    -0.550 OA
ATOM      6  O   UNL     1     -19.705  -2.425   8.232  1.00  0.00    -0.550 OA
ENDBRANCH   3   4
ENDBRANCH   2   3
ENDBRANCH   1   2
BRANCH   1   7
ATOM      7  C   UNL     1     -21.727   1.329  11.040  1.00  0.00     0.000 C 
BRANCH   7   8
ATOM      8  C   UNL     1     -20.961   2.046  12.163  1.00  0.00    -0.000 C 
BRANCH   8   9
ATOM      9  C   UNL     1     -21.172   1.389  13.536  1.00  0.00    -0.000 C 
BRANCH   9  10
ATOM     10  C   UNL     1     -21.161  -0.139  13.419  1.00  0.00    -0.003 C 
ATOM     11  C   UNL     1     -21.502  -0.798  14.753  1.00  0.00     0.004 C 
ENDBRANCH   9  10
ENDBRANCH   8   9
ENDBRANCH   7   8
ENDBRANCH   1   7
TORSDOF 7
ENDMDL
