MODEL 1
REMARK VINA RESULT:    -4.262      0.000      0.000
REMARK INTER + INTRA:          -6.214
REMARK INTER:                  -6.504
REMARK INTRA:                   0.290
REMARK UNBOUND:                 0.290
REMARK SMILES CC1=CCC[C@@H](C)C(=O)C[C@H](C(C)C)C(=O)C1
REMARK SMILES IDX 8 1 9 2 6 3 7 4 5 5 4 6 3 7 2 8 1 9 10 11 11 12 15 13 16 14
REMARK SMILES IDX 17 15 12 17 13 18 14 19
REMARK H PARENT
REMARK Flexibility Score: 70.00
ROOT
ATOM      1  C   UNL     1      -9.758  75.004  30.835  1.00  0.00     0.136 C 
ATOM      2  O   UNL     1      -8.625  74.900  31.283  1.00  0.00    -0.299 OA
ENDROOT
BRANCH   1   3
ATOM      3  C   UNL     1     -10.959  74.948  31.771  1.00  0.00     0.053 C 
ATOM      4  C   UNL     1     -11.248  76.306  32.434  1.00  0.00     0.016 C 
BRANCH   3   5
ATOM      5  C   UNL     1     -10.819  73.831  32.830  1.00  0.00     0.015 C 
BRANCH   5   6
ATOM      6  C   UNL     1     -11.068  72.421  32.262  1.00  0.00     0.028 C 
BRANCH   6   7
ATOM      7  C   UNL     1      -9.823  71.803  31.677  1.00  0.00    -0.028 C 
ATOM      8  C   UNL     1      -9.629  71.486  30.371  1.00  0.00    -0.070 CG0
ATOM      9  C   UNL     1      -8.261  70.970  29.988  1.00  0.00     0.039 C 
ATOM     10  G   UNL     1     -10.706  71.559  29.291  1.00  0.00     0.000 G0
ENDBRANCH   6   7
ENDBRANCH   5   6
ENDBRANCH   3   5
ENDBRANCH   1   3
BRANCH   1  11
ATOM     11  C   UNL     1      -9.941  75.229  29.352  1.00  0.00     0.087 C 
BRANCH  11  12
ATOM     12  C   UNL     1      -9.765  73.931  28.518  1.00  0.00     0.066 C 
BRANCH  12  13
ATOM     13  C   UNL     1     -10.906  72.927  28.682  1.00  0.00     0.140 C 
ATOM     14  O   UNL     1     -12.044  73.294  28.424  1.00  0.00    -0.299 OA
BRANCH  13  15
ATOM     15  C   UNL     1     -10.710  71.552  29.277  1.00  0.00     0.106 CG0
ATOM     16  G   UNL     1      -9.636  71.479  30.361  1.00  0.00     0.000 G0
ENDBRANCH  13  15
ENDBRANCH  12  13
BRANCH  12  17
ATOM     17  C   UNL     1      -9.414  74.234  27.026  1.00  0.00    -0.006 C 
ATOM     18  C   UNL     1      -9.022  72.960  26.263  1.00  0.00     0.008 C 
ATOM     19  C   UNL     1     -10.500  75.003  26.254  1.00  0.00     0.008 C 
ENDBRANCH  12  17
ENDBRANCH  11  12
ENDBRANCH   1  11
TORSDOF 1
ENDMDL
MODEL 2
REMARK VINA RESULT:    -4.099      4.926      8.108
REMARK INTER + INTRA:          -5.965
REMARK INTER:                  -5.868
REMARK INTRA:                  -0.097
REMARK UNBOUND:                 0.290
REMARK SMILES CC1=CCC[C@@H](C)C(=O)C[C@H](C(C)C)C(=O)C1
REMARK SMILES IDX 8 1 9 2 6 3 7 4 5 5 4 6 3 7 2 8 1 9 10 11 11 12 15 13 16 14
REMARK SMILES IDX 17 15 12 17 13 18 14 19
REMARK H PARENT
REMARK Flexibility Score: 70.00
ROOT
ATOM      1  C   UNL     1      -6.615  72.235  21.599  1.00  0.00     0.136 C 
ATOM      2  O   UNL     1      -5.552  71.878  21.112  1.00  0.00    -0.299 OA
ENDROOT
BRANCH   1   3
ATOM      3  C   UNL     1      -7.378  73.408  20.995  1.00  0.00     0.053 C 
ATOM      4  C   UNL     1      -6.523  74.210  19.999  1.00  0.00     0.016 C 
BRANCH   3   5
ATOM      5  C   UNL     1      -7.981  74.330  22.078  1.00  0.00     0.015 C 
BRANCH   5   6
ATOM      6  C   UNL     1      -9.516  74.243  22.164  1.00  0.00     0.028 C 
BRANCH   6   7
ATOM      7  C   UNL     1     -10.041  74.579  23.537  1.00  0.00    -0.028 C 
ATOM      8  C   UNL     1      -9.921  73.807  24.647  1.00  0.00    -0.070 CG0
ATOM      9  C   UNL     1     -10.433  74.389  25.944  1.00  0.00     0.039 C 
ATOM     10  G   UNL     1      -9.366  72.384  24.658  1.00  0.00     0.000 G0
ENDBRANCH   6   7
ENDBRANCH   5   6
ENDBRANCH   3   5
ENDBRANCH   1   3
BRANCH   1  11
ATOM     11  C   UNL     1      -7.173  71.472  22.777  1.00  0.00     0.087 C 
BRANCH  11  12
ATOM     12  C   UNL     1      -6.758  72.081  24.144  1.00  0.00     0.066 C 
BRANCH  12  13
ATOM     13  C   UNL     1      -7.924  72.287  25.111  1.00  0.00     0.140 C 
ATOM     14  O   UNL     1      -7.693  72.265  26.312  1.00  0.00    -0.299 OA
BRANCH  13  15
ATOM     15  C   UNL     1      -9.362  72.379  24.656  1.00  0.00     0.106 CG0
ATOM     16  G   UNL     1      -9.937  73.794  24.661  1.00  0.00     0.000 G0
ENDBRANCH  13  15
ENDBRANCH  12  13
BRANCH  12  17
ATOM     17  C   UNL     1      -5.548  71.327  24.781  1.00  0.00    -0.006 C 
ATOM     18  C   UNL     1      -5.510  69.850  24.358  1.00  0.00     0.008 C 
ATOM     19  C   UNL     1      -4.180  71.985  24.533  1.00  0.00     0.008 C 
ENDBRANCH  12  17
ENDBRANCH  11  12
ENDBRANCH   1  11
TORSDOF 1
ENDMDL
MODEL 3
REMARK VINA RESULT:    -3.837      6.732      8.789
REMARK INTER + INTRA:          -5.565
REMARK INTER:                  -5.268
REMARK INTRA:                  -0.298
REMARK UNBOUND:                 0.290
REMARK SMILES CC1=CCC[C@@H](C)C(=O)C[C@H](C(C)C)C(=O)C1
REMARK SMILES IDX 8 1 9 2 6 3 7 4 5 5 4 6 3 7 2 8 1 9 10 11 11 12 15 13 16 14
REMARK SMILES IDX 17 15 12 17 13 18 14 19
REMARK H PARENT
REMARK Flexibility Score: 70.00
ROOT
ATOM      1  C   UNL     1      -6.303  73.189  21.119  1.00  0.00     0.136 C 
ATOM      2  O   UNL     1      -6.899  72.940  20.080  1.00  0.00    -0.299 OA
ENDROOT
BRANCH   1   3
ATOM      3  C   UNL     1      -4.803  72.938  21.218  1.00  0.00     0.053 C 
ATOM      4  C   UNL     1      -3.988  73.925  20.366  1.00  0.00     0.016 C 
BRANCH   3   5
ATOM      5  C   UNL     1      -4.434  71.476  20.881  1.00  0.00     0.015 C 
BRANCH   5   6
ATOM      6  C   UNL     1      -5.262  70.444  21.669  1.00  0.00     0.028 C 
BRANCH   6   7
ATOM      7  C   UNL     1      -4.912  70.415  23.135  1.00  0.00    -0.028 C 
ATOM      8  C   UNL     1      -5.795  70.426  24.166  1.00  0.00    -0.070 CG0
ATOM      9  C   UNL     1      -5.225  70.286  25.558  1.00  0.00     0.039 C 
ATOM     10  G   UNL     1      -7.302  70.628  24.015  1.00  0.00     0.000 G0
ENDBRANCH   6   7
ENDBRANCH   5   6
ENDBRANCH   3   5
ENDBRANCH   1   3
BRANCH   1  11
ATOM     11  C   UNL     1      -7.069  73.781  22.278  1.00  0.00     0.087 C 
BRANCH  11  12
ATOM     12  C   UNL     1      -8.184  72.841  22.811  1.00  0.00     0.066 C 
BRANCH  12  13
ATOM     13  C   UNL     1      -7.793  72.062  24.067  1.00  0.00     0.140 C 
ATOM     14  O   UNL     1      -7.753  72.661  25.133  1.00  0.00    -0.299 OA
BRANCH  13  15
ATOM     15  C   UNL     1      -7.323  70.627  24.030  1.00  0.00     0.106 CG0
ATOM     16  G   UNL     1      -5.813  70.451  24.184  1.00  0.00     0.000 G0
ENDBRANCH  13  15
ENDBRANCH  12  13
BRANCH  12  17
ATOM     17  C   UNL     1      -9.559  73.571  22.935  1.00  0.00    -0.006 C 
ATOM     18  C   UNL     1      -9.927  74.315  21.642  1.00  0.00     0.008 C 
ATOM     19  C   UNL     1     -10.725  72.673  23.380  1.00  0.00     0.008 C 
ENDBRANCH  12  17
ENDBRANCH  11  12
ENDBRANCH   1  11
TORSDOF 1
ENDMDL
MODEL 4
REMARK VINA RESULT:    -3.803      1.325      2.059
REMARK INTER + INTRA:          -5.514
REMARK INTER:                  -5.643
REMARK INTRA:                   0.129
REMARK UNBOUND:                 0.290
REMARK SMILES CC1=CCC[C@@H](C)C(=O)C[C@H](C(C)C)C(=O)C1
REMARK SMILES IDX 8 1 9 2 6 3 7 4 5 5 4 6 3 7 2 8 1 9 10 11 11 12 15 13 16 14
REMARK SMILES IDX 17 15 12 17 13 18 14 19
REMARK H PARENT
REMARK Flexibility Score: 70.00
ROOT
ATOM      1  C   UNL     1      -9.584  74.764  30.694  1.00  0.00     0.136 C 
ATOM      2  O   UNL     1      -8.440  74.803  31.124  1.00  0.00    -0.299 OA
ENDROOT
BRANCH   1   3
ATOM      3  C   UNL     1     -10.765  74.780  31.657  1.00  0.00     0.053 C 
ATOM      4  C   UNL     1     -10.917  76.134  32.372  1.00  0.00     0.016 C 
BRANCH   3   5
ATOM      5  C   UNL     1     -10.702  73.618  32.673  1.00  0.00     0.015 C 
BRANCH   5   6
ATOM      6  C   UNL     1     -11.388  72.334  32.171  1.00  0.00     0.028 C 
BRANCH   6   7
ATOM      7  C   UNL     1     -12.193  72.559  30.916  1.00  0.00    -0.028 C 
ATOM      8  C   UNL     1     -11.900  72.073  29.683  1.00  0.00    -0.070 CG0
ATOM      9  C   UNL     1     -12.905  72.336  28.586  1.00  0.00     0.039 C 
ATOM     10  G   UNL     1     -10.609  71.340  29.325  1.00  0.00     0.000 G0
ENDBRANCH   6   7
ENDBRANCH   5   6
ENDBRANCH   3   5
ENDBRANCH   1   3
BRANCH   1  11
ATOM     11  C   UNL     1      -9.802  74.739  29.199  1.00  0.00     0.087 C 
BRANCH  11  12
ATOM     12  C   UNL     1      -9.215  73.471  28.522  1.00  0.00     0.066 C 
BRANCH  12  13
ATOM     13  C   UNL     1      -9.368  72.197  29.352  1.00  0.00     0.140 C 
ATOM     14  O   UNL     1      -8.401  71.797  29.986  1.00  0.00    -0.299 OA
BRANCH  13  15
ATOM     15  C   UNL     1     -10.611  71.338  29.316  1.00  0.00     0.106 CG0
ATOM     16  G   UNL     1     -11.899  72.075  29.677  1.00  0.00     0.000 G0
ENDBRANCH  13  15
ENDBRANCH  12  13
BRANCH  12  17
ATOM     17  C   UNL     1      -9.701  73.314  27.046  1.00  0.00    -0.006 C 
ATOM     18  C   UNL     1     -10.397  74.586  26.538  1.00  0.00     0.008 C 
ATOM     19  C   UNL     1      -8.610  72.874  26.054  1.00  0.00     0.008 C 
ENDBRANCH  12  17
ENDBRANCH  11  12
ENDBRANCH   1  11
TORSDOF 1
ENDMDL
MODEL 5
REMARK VINA RESULT:    -3.586      1.857      4.966
REMARK INTER + INTRA:          -5.183
REMARK INTER:                  -5.288
REMARK INTRA:                   0.105
REMARK UNBOUND:                 0.290
REMARK SMILES CC1=CCC[C@@H](C)C(=O)C[C@H](C(C)C)C(=O)C1
REMARK SMILES IDX 8 1 9 2 6 3 7 4 5 5 4 6 3 7 2 8 1 9 10 11 11 12 15 13 16 14
REMARK SMILES IDX 17 15 12 17 13 18 14 19
REMARK H PARENT
REMARK Flexibility Score: 70.00
ROOT
ATOM      1  C   UNL     1     -11.914  72.200  29.512  1.00  0.00     0.136 C 
ATOM      2  O   UNL     1     -11.874  71.074  29.037  1.00  0.00    -0.299 OA
ENDROOT
BRANCH   1   3
ATOM      3  C   UNL     1     -11.936  73.417  28.595  1.00  0.00     0.053 C 
ATOM      4  C   UNL     1     -13.230  73.502  27.768  1.00  0.00     0.016 C 
BRANCH   3   5
ATOM      5  C   UNL     1     -10.689  73.482  27.686  1.00  0.00     0.015 C 
BRANCH   5   6
ATOM      6  C   UNL     1      -9.648  74.515  28.155  1.00  0.00     0.028 C 
BRANCH   6   7
ATOM      7  C   UNL     1     -10.038  75.187  29.447  1.00  0.00    -0.028 C 
ATOM      8  C   UNL     1      -9.577  74.866  30.683  1.00  0.00    -0.070 CG0
ATOM      9  C   UNL     1     -10.025  75.742  31.830  1.00  0.00     0.039 C 
ATOM     10  G   UNL     1      -8.696  73.658  30.993  1.00  0.00     0.000 G0
ENDBRANCH   6   7
ENDBRANCH   5   6
ENDBRANCH   3   5
ENDBRANCH   1   3
BRANCH   1  11
ATOM     11  C   UNL     1     -11.981  72.359  31.013  1.00  0.00     0.087 C 
BRANCH  11  12
ATOM     12  C   UNL     1     -10.650  71.989  31.721  1.00  0.00     0.066 C 
BRANCH  12  13
ATOM     13  C   UNL     1      -9.400  72.329  30.910  1.00  0.00     0.140 C 
ATOM     14  O   UNL     1      -8.886  71.446  30.238  1.00  0.00    -0.299 OA
BRANCH  13  15
ATOM     15  C   UNL     1      -8.695  73.662  31.008  1.00  0.00     0.106 CG0
ATOM     16  G   UNL     1      -9.575  74.868  30.687  1.00  0.00     0.000 G0
ENDBRANCH  13  15
ENDBRANCH  12  13
BRANCH  12  17
ATOM     17  C   UNL     1     -10.600  72.516  33.191  1.00  0.00    -0.006 C 
ATOM     18  C   UNL     1     -11.946  73.112  33.628  1.00  0.00     0.008 C 
ATOM     19  C   UNL     1     -10.114  71.487  34.226  1.00  0.00     0.008 C 
ENDBRANCH  12  17
ENDBRANCH  11  12
ENDBRANCH   1  11
TORSDOF 1
ENDMDL
MODEL 6
REMARK VINA RESULT:    -3.508      8.171      9.601
REMARK INTER + INTRA:          -5.063
REMARK INTER:                  -4.871
REMARK INTRA:                  -0.192
REMARK UNBOUND:                 0.290
REMARK SMILES CC1=CCC[C@@H](C)C(=O)C[C@H](C(C)C)C(=O)C1
REMARK SMILES IDX 8 1 9 2 6 3 7 4 5 5 4 6 3 7 2 8 1 9 10 11 11 12 15 13 16 14
REMARK SMILES IDX 17 15 12 17 13 18 14 19
REMARK H PARENT
REMARK Flexibility Score: 70.00
ROOT
ATOM      1  C   UNL     1      -4.821  69.163  36.918  1.00  0.00     0.136 C 
ATOM      2  O   UNL     1      -5.482  70.171  37.132  1.00  0.00    -0.299 OA
ENDROOT
BRANCH   1   3
ATOM      3  C   UNL     1      -3.328  69.150  37.218  1.00  0.00     0.053 C 
ATOM      4  C   UNL     1      -2.864  70.431  37.932  1.00  0.00     0.016 C 
BRANCH   3   5
ATOM      5  C   UNL     1      -2.482  68.881  35.954  1.00  0.00     0.015 C 
BRANCH   5   6
ATOM      6  C   UNL     1      -2.960  69.675  34.724  1.00  0.00     0.028 C 
BRANCH   6   7
ATOM      7  C   UNL     1      -2.680  68.960  33.426  1.00  0.00    -0.028 C 
ATOM      8  C   UNL     1      -3.298  67.834  32.987  1.00  0.00    -0.070 CG0
ATOM      9  C   UNL     1      -2.932  67.346  31.604  1.00  0.00     0.039 C 
ATOM     10  G   UNL     1      -4.280  67.006  33.813  1.00  0.00     0.000 G0
ENDBRANCH   6   7
ENDBRANCH   5   6
ENDBRANCH   3   5
ENDBRANCH   1   3
BRANCH   1  11
ATOM     11  C   UNL     1      -5.518  67.930  36.392  1.00  0.00     0.087 C 
BRANCH  11  12
ATOM     12  C   UNL     1      -6.301  68.192  35.077  1.00  0.00     0.066 C 
BRANCH  12  13
ATOM     13  C   UNL     1      -5.705  67.500  33.851  1.00  0.00     0.140 C 
ATOM     14  O   UNL     1      -6.441  67.263  32.903  1.00  0.00    -0.299 OA
BRANCH  13  15
ATOM     15  C   UNL     1      -4.289  66.974  33.813  1.00  0.00     0.106 CG0
ATOM     16  G   UNL     1      -3.320  67.825  32.994  1.00  0.00     0.000 G0
ENDBRANCH  13  15
ENDBRANCH  12  13
BRANCH  12  17
ATOM     17  C   UNL     1      -7.834  67.946  35.246  1.00  0.00    -0.006 C 
ATOM     18  C   UNL     1      -8.121  66.642  36.005  1.00  0.00     0.008 C 
ATOM     19  C   UNL     1      -8.604  69.113  35.887  1.00  0.00     0.008 C 
ENDBRANCH  12  17
ENDBRANCH  11  12
ENDBRANCH   1  11
TORSDOF 1
ENDMDL
MODEL 7
REMARK VINA RESULT:    -3.411      5.834      8.500
REMARK INTER + INTRA:          -4.916
REMARK INTER:                  -5.196
REMARK INTRA:                   0.280
REMARK UNBOUND:                 0.290
REMARK SMILES CC1=CCC[C@@H](C)C(=O)C[C@H](C(C)C)C(=O)C1
REMARK SMILES IDX 8 1 9 2 6 3 7 4 5 5 4 6 3 7 2 8 1 9 10 11 11 12 15 13 16 14
REMARK SMILES IDX 17 15 12 17 13 18 14 19
REMARK H PARENT
REMARK Flexibility Score: 70.00
ROOT
ATOM      1  C   UNL     1      -8.721  72.413  24.622  1.00  0.00     0.136 C 
ATOM      2  O   UNL     1      -9.610  71.601  24.405  1.00  0.00    -0.299 OA
ENDROOT
BRANCH   1   3
ATOM      3  C   UNL     1      -9.021  73.906  24.581  1.00  0.00     0.053 C 
ATOM      4  C   UNL     1     -10.104  74.312  25.595  1.00  0.00     0.016 C 
BRANCH   3   5
ATOM      5  C   UNL     1      -9.382  74.388  23.158  1.00  0.00     0.015 C 
BRANCH   5   6
ATOM      6  C   UNL     1      -8.868  73.450  22.050  1.00  0.00     0.028 C 
BRANCH   6   7
ATOM      7  C   UNL     1      -7.724  74.046  21.270  1.00  0.00    -0.028 C 
ATOM      8  C   UNL     1      -6.580  73.406  20.917  1.00  0.00    -0.070 CG0
ATOM      9  C   UNL     1      -5.611  74.166  20.042  1.00  0.00     0.039 C 
ATOM     10  G   UNL     1      -6.189  72.007  21.389  1.00  0.00     0.000 G0
ENDBRANCH   6   7
ENDBRANCH   5   6
ENDBRANCH   3   5
ENDBRANCH   1   3
BRANCH   1  11
ATOM     11  C   UNL     1      -7.339  71.908  24.966  1.00  0.00     0.087 C 
BRANCH  11  12
ATOM     12  C   UNL     1      -6.695  71.079  23.822  1.00  0.00     0.066 C 
BRANCH  12  13
ATOM     13  C   UNL     1      -5.854  71.908  22.851  1.00  0.00     0.140 C 
ATOM     14  O   UNL     1      -4.955  72.601  23.307  1.00  0.00    -0.299 OA
BRANCH  13  15
ATOM     15  C   UNL     1      -6.170  72.016  21.378  1.00  0.00     0.106 CG0
ATOM     16  G   UNL     1      -6.587  73.412  20.921  1.00  0.00     0.000 G0
ENDBRANCH  13  15
ENDBRANCH  12  13
BRANCH  12  17
ATOM     17  C   UNL     1      -5.956  69.812  24.359  1.00  0.00    -0.006 C 
ATOM     18  C   UNL     1      -5.401  68.949  23.215  1.00  0.00     0.008 C 
ATOM     19  C   UNL     1      -4.852  70.100  25.390  1.00  0.00     0.008 C 
ENDBRANCH  12  17
ENDBRANCH  11  12
ENDBRANCH   1  11
TORSDOF 1
ENDMDL
MODEL 8
REMARK VINA RESULT:    -3.405      1.677      4.606
REMARK INTER + INTRA:          -4.907
REMARK INTER:                  -5.621
REMARK INTRA:                   0.714
REMARK UNBOUND:                 0.290
REMARK SMILES CC1=CCC[C@@H](C)C(=O)C[C@H](C(C)C)C(=O)C1
REMARK SMILES IDX 8 1 9 2 6 3 7 4 5 5 4 6 3 7 2 8 1 9 10 11 11 12 15 13 16 14
REMARK SMILES IDX 17 15 12 17 13 18 14 19
REMARK H PARENT
REMARK Flexibility Score: 70.00
ROOT
ATOM      1  C   UNL     1     -12.050  72.594  29.174  1.00  0.00     0.136 C 
ATOM      2  O   UNL     1     -11.743  71.480  28.773  1.00  0.00    -0.299 OA
ENDROOT
BRANCH   1   3
ATOM      3  C   UNL     1     -12.169  73.754  28.192  1.00  0.00     0.053 C 
ATOM      4  C   UNL     1     -13.541  73.794  27.498  1.00  0.00     0.016 C 
BRANCH   3   5
ATOM      5  C   UNL     1     -11.022  73.761  27.157  1.00  0.00     0.015 C 
BRANCH   5   6
ATOM      6  C   UNL     1      -9.641  74.026  27.784  1.00  0.00     0.028 C 
BRANCH   6   7
ATOM      7  C   UNL     1      -9.000  72.775  28.330  1.00  0.00    -0.028 C 
ATOM      8  C   UNL     1      -8.655  72.556  29.624  1.00  0.00    -0.070 CG0
ATOM      9  C   UNL     1      -8.120  71.186  29.968  1.00  0.00     0.039 C 
ATOM     10  G   UNL     1      -8.715  73.610  30.728  1.00  0.00     0.000 G0
ENDBRANCH   6   7
ENDBRANCH   5   6
ENDBRANCH   3   5
ENDBRANCH   1   3
BRANCH   1  11
ATOM     11  C   UNL     1     -12.344  72.788  30.643  1.00  0.00     0.087 C 
BRANCH  11  12
ATOM     12  C   UNL     1     -11.078  72.668  31.534  1.00  0.00     0.066 C 
BRANCH  12  13
ATOM     13  C   UNL     1     -10.077  73.808  31.349  1.00  0.00     0.140 C 
ATOM     14  O   UNL     1     -10.440  74.947  31.607  1.00  0.00    -0.299 OA
BRANCH  13  15
ATOM     15  C   UNL     1      -8.711  73.609  30.734  1.00  0.00     0.106 CG0
ATOM     16  G   UNL     1      -8.663  72.557  29.627  1.00  0.00     0.000 G0
ENDBRANCH  13  15
ENDBRANCH  12  13
BRANCH  12  17
ATOM     17  C   UNL     1     -11.436  72.391  33.029  1.00  0.00    -0.006 C 
ATOM     18  C   UNL     1     -10.179  72.167  33.884  1.00  0.00     0.008 C 
ATOM     19  C   UNL     1     -12.338  73.454  33.681  1.00  0.00     0.008 C 
ENDBRANCH  12  17
ENDBRANCH  11  12
ENDBRANCH   1  11
TORSDOF 1
ENDMDL
MODEL 9
REMARK VINA RESULT:    -3.372      7.885      9.864
REMARK INTER + INTRA:          -4.856
REMARK INTER:                  -4.461
REMARK INTRA:                  -0.395
REMARK UNBOUND:                 0.290
REMARK SMILES CC1=CCC[C@@H](C)C(=O)C[C@H](C(C)C)C(=O)C1
REMARK SMILES IDX 8 1 9 2 6 3 7 4 5 5 4 6 3 7 2 8 1 9 10 11 11 12 15 13 16 14
REMARK SMILES IDX 17 15 12 17 13 18 14 19
REMARK H PARENT
REMARK Flexibility Score: 70.00
ROOT
ATOM      1  C   UNL     1      -6.425  68.961  36.625  1.00  0.00     0.136 C 
ATOM      2  O   UNL     1      -6.695  68.915  37.817  1.00  0.00    -0.299 OA
ENDROOT
BRANCH   1   3
ATOM      3  C   UNL     1      -7.446  68.503  35.591  1.00  0.00     0.053 C 
ATOM      4  C   UNL     1      -8.769  69.282  35.690  1.00  0.00     0.016 C 
BRANCH   3   5
ATOM      5  C   UNL     1      -7.693  66.979  35.652  1.00  0.00     0.015 C 
BRANCH   5   6
ATOM      6  C   UNL     1      -6.664  66.164  34.848  1.00  0.00     0.028 C 
BRANCH   6   7
ATOM      7  C   UNL     1      -6.334  66.795  33.519  1.00  0.00    -0.028 C 
ATOM      8  C   UNL     1      -5.089  67.085  33.061  1.00  0.00    -0.070 CG0
ATOM      9  C   UNL     1      -4.985  67.621  31.653  1.00  0.00     0.039 C 
ATOM     10  G   UNL     1      -3.811  66.964  33.889  1.00  0.00     0.000 G0
ENDBRANCH   6   7
ENDBRANCH   5   6
ENDBRANCH   3   5
ENDBRANCH   1   3
BRANCH   1  11
ATOM     11  C   UNL     1      -5.085  69.513  36.199  1.00  0.00     0.087 C 
BRANCH  11  12
ATOM     12  C   UNL     1      -3.983  68.422  36.107  1.00  0.00     0.066 C 
BRANCH  12  13
ATOM     13  C   UNL     1      -3.455  68.191  34.691  1.00  0.00     0.140 C 
ATOM     14  O   UNL     1      -2.821  69.088  34.153  1.00  0.00    -0.299 OA
BRANCH  13  15
ATOM     15  C   UNL     1      -3.798  66.964  33.878  1.00  0.00     0.106 CG0
ATOM     16  G   UNL     1      -5.084  67.084  33.063  1.00  0.00     0.000 G0
ENDBRANCH  13  15
ENDBRANCH  12  13
BRANCH  12  17
ATOM     17  C   UNL     1      -2.853  68.637  37.164  1.00  0.00    -0.006 C 
ATOM     18  C   UNL     1      -2.610  70.128  37.443  1.00  0.00     0.008 C 
ATOM     19  C   UNL     1      -3.057  67.877  38.485  1.00  0.00     0.008 C 
ENDBRANCH  12  17
ENDBRANCH  11  12
ENDBRANCH   1  11
TORSDOF 1
ENDMDL
