MODEL 1
REMARK VINA RESULT:    -4.899      0.000      0.000
REMARK INTER + INTRA:          -7.559
REMARK INTER:                  -6.045
REMARK INTRA:                  -1.514
REMARK UNBOUND:                -1.514
REMARK SMILES CC(C)=CCC[C@H](C)c1ccc(C)cc1
REMARK SMILES IDX 6 1 7 2 8 3 9 4 13 5 12 6 11 7 14 8 10 9 15 10 5 11 4 12
REMARK SMILES IDX 2 13 1 14 3 15
REMARK H PARENT
REMARK Flexibility Score: inf
ROOT
ATOM      1  C   UNL     1     -19.956  -5.923  -4.633  1.00  0.00     0.012 C 
ENDROOT
BRANCH   1   2
ATOM      2  C   UNL     1     -19.907  -4.506  -4.010  1.00  0.00     0.016 C 
ATOM      3  C   UNL     1     -21.302  -3.932  -3.724  1.00  0.00     0.013 C 
BRANCH   2   4
ATOM      4  C   UNL     1     -19.124  -3.564  -4.908  1.00  0.00    -0.045 A 
ATOM      5  C   UNL     1     -16.891  -0.926  -7.500  1.00  0.00     0.044 C 
ATOM      6  C   UNL     1     -17.654  -1.828  -6.576  1.00  0.00    -0.051 A 
ATOM      7  C   UNL     1     -18.943  -1.477  -6.150  1.00  0.00     0.004 A 
ATOM      8  C   UNL     1     -17.114  -3.062  -6.187  1.00  0.00     0.004 A 
ATOM      9  C   UNL     1     -19.671  -2.333  -5.319  1.00  0.00     0.004 A 
ATOM     10  C   UNL     1     -17.839  -3.920  -5.356  1.00  0.00     0.004 A 
ENDBRANCH   2   4
ENDBRANCH   1   2
BRANCH   1  11
ATOM     11  C   UNL     1     -21.048  -6.093  -5.707  1.00  0.00     0.028 C 
BRANCH  11  12
ATOM     12  C   UNL     1     -20.492  -6.058  -7.112  1.00  0.00    -0.028 C 
ATOM     13  C   UNL     1     -20.811  -5.094  -8.005  1.00  0.00    -0.080 C 
ATOM     14  C   UNL     1     -21.757  -3.974  -7.655  1.00  0.00     0.039 C 
ATOM     15  C   UNL     1     -20.223  -5.126  -9.391  1.00  0.00     0.039 C 
ENDBRANCH  11  12
ENDBRANCH   1  11
TORSDOF 4
ENDMDL
MODEL 2
REMARK VINA RESULT:    -4.857      1.018      4.071
REMARK INTER + INTRA:          -7.507
REMARK INTER:                  -5.953
REMARK INTRA:                  -1.554
REMARK UNBOUND:                -1.514
REMARK SMILES CC(C)=CCC[C@H](C)c1ccc(C)cc1
REMARK SMILES IDX 6 1 7 2 8 3 9 4 13 5 12 6 11 7 14 8 10 9 15 10 5 11 4 12
REMARK SMILES IDX 2 13 1 14 3 15
REMARK H PARENT
REMARK Flexibility Score: inf
ROOT
ATOM      1  C   UNL     1     -21.380  -3.110  -4.172  1.00  0.00     0.012 C 
ENDROOT
BRANCH   1   2
ATOM      2  C   UNL     1     -21.888  -4.504  -4.616  1.00  0.00     0.016 C 
ATOM      3  C   UNL     1     -21.436  -5.631  -3.676  1.00  0.00     0.013 C 
BRANCH   2   4
ATOM      4  C   UNL     1     -21.446  -4.796  -6.040  1.00  0.00    -0.045 A 
ATOM      5  C   UNL     1     -20.217  -5.673 -10.087  1.00  0.00     0.044 C 
ATOM      6  C   UNL     1     -20.618  -5.353  -8.677  1.00  0.00    -0.051 A 
ATOM      7  C   UNL     1     -21.348  -4.190  -8.396  1.00  0.00     0.004 A 
ATOM      8  C   UNL     1     -20.327  -6.250  -7.639  1.00  0.00     0.004 A 
ATOM      9  C   UNL     1     -21.754  -3.908  -7.089  1.00  0.00     0.004 A 
ATOM     10  C   UNL     1     -20.733  -5.971  -6.331  1.00  0.00     0.004 A 
ENDBRANCH   2   4
ENDBRANCH   1   2
BRANCH   1  11
ATOM     11  C   UNL     1     -19.846  -3.011  -4.075  1.00  0.00     0.028 C 
BRANCH  11  12
ATOM     12  C   UNL     1     -19.247  -2.163  -5.173  1.00  0.00    -0.028 C 
ATOM     13  C   UNL     1     -18.291  -2.617  -6.013  1.00  0.00    -0.080 C 
ATOM     14  C   UNL     1     -17.746  -4.019  -5.909  1.00  0.00     0.039 C 
ATOM     15  C   UNL     1     -17.735  -1.713  -7.083  1.00  0.00     0.039 C 
ENDBRANCH  11  12
ENDBRANCH   1  11
TORSDOF 4
ENDMDL
MODEL 3
REMARK VINA RESULT:    -4.418     16.322     18.101
REMARK INTER + INTRA:          -6.965
REMARK INTER:                  -5.423
REMARK INTRA:                  -1.542
REMARK UNBOUND:                -1.514
REMARK SMILES CC(C)=CCC[C@H](C)c1ccc(C)cc1
REMARK SMILES IDX 6 1 7 2 8 3 9 4 13 5 12 6 11 7 14 8 10 9 15 10 5 11 4 12
REMARK SMILES IDX 2 13 1 14 3 15
REMARK H PARENT
REMARK Flexibility Score: inf
ROOT
ATOM      1  C   UNL     1     -32.457   4.120  -6.364  1.00  0.00     0.012 C 
ENDROOT
BRANCH   1   2
ATOM      2  C   UNL     1     -32.614   5.451  -5.588  1.00  0.00     0.016 C 
ATOM      3  C   UNL     1     -32.856   5.241  -4.086  1.00  0.00     0.013 C 
BRANCH   2   4
ATOM      4  C   UNL     1     -33.735   6.281  -6.191  1.00  0.00    -0.045 A 
ATOM      5  C   UNL     1     -36.903   8.686  -7.875  1.00  0.00     0.044 C 
ATOM      6  C   UNL     1     -35.821   7.827  -7.292  1.00  0.00    -0.051 A 
ATOM      7  C   UNL     1     -34.884   7.204  -8.129  1.00  0.00     0.004 A 
ATOM      8  C   UNL     1     -35.695   7.696  -5.902  1.00  0.00     0.004 A 
ATOM      9  C   UNL     1     -33.853   6.433  -7.586  1.00  0.00     0.004 A 
ATOM     10  C   UNL     1     -34.664   6.925  -5.355  1.00  0.00     0.004 A 
ENDBRANCH   2   4
ENDBRANCH   1   2
BRANCH   1  11
ATOM     11  C   UNL     1     -33.500   3.052  -5.982  1.00  0.00     0.028 C 
BRANCH  11  12
ATOM     12  C   UNL     1     -34.716   3.080  -6.879  1.00  0.00    -0.028 C 
ATOM     13  C   UNL     1     -35.950   3.407  -6.435  1.00  0.00    -0.080 C 
ATOM     14  C   UNL     1     -36.201   3.769  -4.993  1.00  0.00     0.039 C 
ATOM     15  C   UNL     1     -37.118   3.409  -7.385  1.00  0.00     0.039 C 
ENDBRANCH  11  12
ENDBRANCH   1  11
TORSDOF 4
ENDMDL
MODEL 4
REMARK VINA RESULT:    -4.181     15.894     17.753
REMARK INTER + INTRA:          -6.672
REMARK INTER:                  -5.849
REMARK INTRA:                  -0.823
REMARK UNBOUND:                -1.514
REMARK SMILES CC(C)=CCC[C@H](C)c1ccc(C)cc1
REMARK SMILES IDX 6 1 7 2 8 3 9 4 13 5 12 6 11 7 14 8 10 9 15 10 5 11 4 12
REMARK SMILES IDX 2 13 1 14 3 15
REMARK H PARENT
REMARK Flexibility Score: inf
ROOT
ATOM      1  C   UNL     1     -28.612   0.215   8.312  1.00  0.00     0.012 C 
ENDROOT
BRANCH   1   2
ATOM      2  C   UNL     1     -27.095   0.078   8.595  1.00  0.00     0.016 C 
ATOM      3  C   UNL     1     -26.231   0.900   7.628  1.00  0.00     0.013 C 
BRANCH   2   4
ATOM      4  C   UNL     1     -26.684  -1.384   8.557  1.00  0.00    -0.045 A 
ATOM      5  C   UNL     1     -25.492  -5.536   8.500  1.00  0.00     0.044 C 
ATOM      6  C   UNL     1     -25.903  -4.093   8.490  1.00  0.00    -0.051 A 
ATOM      7  C   UNL     1     -27.256  -3.745   8.378  1.00  0.00     0.004 A 
ATOM      8  C   UNL     1     -24.944  -3.084   8.662  1.00  0.00     0.004 A 
ATOM      9  C   UNL     1     -27.645  -2.403   8.406  1.00  0.00     0.004 A 
ATOM     10  C   UNL     1     -25.331  -1.741   8.690  1.00  0.00     0.004 A 
ENDBRANCH   2   4
ENDBRANCH   1   2
BRANCH   1  11
ATOM     11  C   UNL     1     -29.329   1.213   9.242  1.00  0.00     0.028 C 
BRANCH  11  12
ATOM     12  C   UNL     1     -29.432   2.596   8.643  1.00  0.00    -0.028 C 
ATOM     13  C   UNL     1     -28.622   3.616   9.005  1.00  0.00    -0.080 C 
ATOM     14  C   UNL     1     -27.546   3.441  10.047  1.00  0.00     0.039 C 
ATOM     15  C   UNL     1     -28.785   4.971   8.368  1.00  0.00     0.039 C 
ENDBRANCH  11  12
ENDBRANCH   1  11
TORSDOF 4
ENDMDL
MODEL 5
REMARK VINA RESULT:    -4.165     15.870     17.756
REMARK INTER + INTRA:          -6.653
REMARK INTER:                  -5.830
REMARK INTRA:                  -0.823
REMARK UNBOUND:                -1.514
REMARK SMILES CC(C)=CCC[C@H](C)c1ccc(C)cc1
REMARK SMILES IDX 6 1 7 2 8 3 9 4 13 5 12 6 11 7 14 8 10 9 15 10 5 11 4 12
REMARK SMILES IDX 2 13 1 14 3 15
REMARK H PARENT
REMARK Flexibility Score: inf
ROOT
ATOM      1  C   UNL     1     -28.582   0.134   8.364  1.00  0.00     0.012 C 
ENDROOT
BRANCH   1   2
ATOM      2  C   UNL     1     -27.056   0.007   8.595  1.00  0.00     0.016 C 
ATOM      3  C   UNL     1     -26.229   0.796   7.568  1.00  0.00     0.013 C 
BRANCH   2   4
ATOM      4  C   UNL     1     -26.644  -1.456   8.591  1.00  0.00    -0.045 A 
ATOM      5  C   UNL     1     -25.500  -5.621   8.532  1.00  0.00     0.044 C 
ATOM      6  C   UNL     1     -25.899  -4.175   8.583  1.00  0.00    -0.051 A 
ATOM      7  C   UNL     1     -24.919  -3.174   8.642  1.00  0.00     0.004 A 
ATOM      8  C   UNL     1     -27.250  -3.812   8.500  1.00  0.00     0.004 A 
ATOM      9  C   UNL     1     -25.287  -1.826   8.653  1.00  0.00     0.004 A 
ATOM     10  C   UNL     1     -27.620  -2.464   8.510  1.00  0.00     0.004 A 
ENDBRANCH   2   4
ENDBRANCH   1   2
BRANCH   1  11
ATOM     11  C   UNL     1     -29.263   1.171   9.278  1.00  0.00     0.028 C 
BRANCH  11  12
ATOM     12  C   UNL     1     -29.332   2.544   8.651  1.00  0.00    -0.028 C 
ATOM     13  C   UNL     1     -28.495   3.549   8.989  1.00  0.00    -0.080 C 
ATOM     14  C   UNL     1     -27.421   3.368  10.032  1.00  0.00     0.039 C 
ATOM     15  C   UNL     1     -28.625   4.895   8.325  1.00  0.00     0.039 C 
ENDBRANCH  11  12
ENDBRANCH   1  11
TORSDOF 4
ENDMDL
MODEL 6
REMARK VINA RESULT:    -4.154     15.918     17.597
REMARK INTER + INTRA:          -6.640
REMARK INTER:                  -5.823
REMARK INTRA:                  -0.817
REMARK UNBOUND:                -1.514
REMARK SMILES CC(C)=CCC[C@H](C)c1ccc(C)cc1
REMARK SMILES IDX 6 1 7 2 8 3 9 4 13 5 12 6 11 7 14 8 10 9 15 10 5 11 4 12
REMARK SMILES IDX 2 13 1 14 3 15
REMARK H PARENT
REMARK Flexibility Score: inf
ROOT
ATOM      1  C   UNL     1     -25.810  -0.208   8.437  1.00  0.00     0.012 C 
ENDROOT
BRANCH   1   2
ATOM      2  C   UNL     1     -27.340  -0.052   8.623  1.00  0.00     0.016 C 
ATOM      3  C   UNL     1     -28.151  -0.845   7.589  1.00  0.00     0.013 C 
BRANCH   2   4
ATOM      4  C   UNL     1     -27.727   1.417   8.582  1.00  0.00    -0.045 A 
ATOM      5  C   UNL     1     -28.854   5.586   8.515  1.00  0.00     0.044 C 
ATOM      6  C   UNL     1     -28.463   4.138   8.508  1.00  0.00    -0.051 A 
ATOM      7  C   UNL     1     -27.110   3.771   8.499  1.00  0.00     0.004 A 
ATOM      8  C   UNL     1     -29.446   3.141   8.581  1.00  0.00     0.004 A 
ATOM      9  C   UNL     1     -26.743   2.423   8.530  1.00  0.00     0.004 A 
ATOM     10  C   UNL     1     -29.081   1.791   8.613  1.00  0.00     0.004 A 
ENDBRANCH   2   4
ENDBRANCH   1   2
BRANCH   1  11
ATOM     11  C   UNL     1     -25.167  -1.220   9.404  1.00  0.00     0.028 C 
BRANCH  11  12
ATOM     12  C   UNL     1     -24.968  -2.580   8.776  1.00  0.00    -0.028 C 
ATOM     13  C   UNL     1     -25.795  -3.624   9.006  1.00  0.00    -0.080 C 
ATOM     14  C   UNL     1     -26.988  -3.502   9.919  1.00  0.00     0.039 C 
ATOM     15  C   UNL     1     -25.532  -4.954   8.348  1.00  0.00     0.039 C 
ENDBRANCH  11  12
ENDBRANCH   1  11
TORSDOF 4
ENDMDL
MODEL 7
REMARK VINA RESULT:    -4.091      1.512      4.388
REMARK INTER + INTRA:          -6.562
REMARK INTER:                  -5.312
REMARK INTRA:                  -1.250
REMARK UNBOUND:                -1.514
REMARK SMILES CC(C)=CCC[C@H](C)c1ccc(C)cc1
REMARK SMILES IDX 6 1 7 2 8 3 9 4 13 5 12 6 11 7 14 8 10 9 15 10 5 11 4 12
REMARK SMILES IDX 2 13 1 14 3 15
REMARK H PARENT
REMARK Flexibility Score: inf
ROOT
ATOM      1  C   UNL     1     -21.872  -4.080  -8.033  1.00  0.00     0.012 C 
ENDROOT
BRANCH   1   2
ATOM      2  C   UNL     1     -20.628  -4.758  -8.658  1.00  0.00     0.016 C 
ATOM      3  C   UNL     1     -20.986  -5.961  -9.544  1.00  0.00     0.013 C 
BRANCH   2   4
ATOM      4  C   UNL     1     -19.655  -5.177  -7.569  1.00  0.00    -0.045 A 
ATOM      5  C   UNL     1     -16.883  -6.314  -4.458  1.00  0.00     0.044 C 
ATOM      6  C   UNL     1     -17.836  -5.942  -5.555  1.00  0.00    -0.051 A 
ATOM      7  C   UNL     1     -19.141  -6.455  -5.561  1.00  0.00     0.004 A 
ATOM      8  C   UNL     1     -17.452  -5.026  -6.544  1.00  0.00     0.004 A 
ATOM      9  C   UNL     1     -20.042  -6.081  -6.561  1.00  0.00     0.004 A 
ATOM     10  C   UNL     1     -18.352  -4.650  -7.546  1.00  0.00     0.004 A 
ENDBRANCH   2   4
ENDBRANCH   1   2
BRANCH   1  11
ATOM     11  C   UNL     1     -21.558  -2.760  -7.303  1.00  0.00     0.028 C 
BRANCH  11  12
ATOM     12  C   UNL     1     -21.326  -2.955  -5.823  1.00  0.00    -0.028 C 
ATOM     13  C   UNL     1     -20.202  -2.541  -5.195  1.00  0.00    -0.080 C 
ATOM     14  C   UNL     1     -19.088  -1.850  -5.939  1.00  0.00     0.039 C 
ATOM     15  C   UNL     1     -20.036  -2.774  -3.716  1.00  0.00     0.039 C 
ENDBRANCH  11  12
ENDBRANCH   1  11
TORSDOF 4
ENDMDL
MODEL 8
REMARK VINA RESULT:    -3.932     12.445     15.454
REMARK INTER + INTRA:          -6.365
REMARK INTER:                  -5.665
REMARK INTRA:                  -0.699
REMARK UNBOUND:                -1.514
REMARK SMILES CC(C)=CCC[C@H](C)c1ccc(C)cc1
REMARK SMILES IDX 6 1 7 2 8 3 9 4 13 5 12 6 11 7 14 8 10 9 15 10 5 11 4 12
REMARK SMILES IDX 2 13 1 14 3 15
REMARK H PARENT
REMARK Flexibility Score: inf
ROOT
ATOM      1  C   UNL     1     -23.368  -3.267   8.747  1.00  0.00     0.012 C 
ENDROOT
BRANCH   1   2
ATOM      2  C   UNL     1     -24.780  -3.737   9.173  1.00  0.00     0.016 C 
ATOM      3  C   UNL     1     -25.161  -5.100   8.578  1.00  0.00     0.013 C 
BRANCH   2   4
ATOM      4  C   UNL     1     -25.817  -2.691   8.800  1.00  0.00    -0.045 A 
ATOM      5  C   UNL     1     -28.795   0.269   7.785  1.00  0.00     0.044 C 
ATOM      6  C   UNL     1     -27.756  -0.764   8.108  1.00  0.00    -0.051 A 
ATOM      7  C   UNL     1     -26.418  -0.386   8.291  1.00  0.00     0.004 A 
ATOM      8  C   UNL     1     -28.126  -2.102   8.298  1.00  0.00     0.004 A 
ATOM      9  C   UNL     1     -25.455  -1.341   8.628  1.00  0.00     0.004 A 
ATOM     10  C   UNL     1     -27.164  -3.059   8.636  1.00  0.00     0.004 A 
ENDBRANCH   2   4
ENDBRANCH   1   2
BRANCH   1  11
ATOM     11  C   UNL     1     -22.963  -3.723   7.332  1.00  0.00     0.028 C 
BRANCH  11  12
ATOM     12  C   UNL     1     -22.481  -2.580   6.468  1.00  0.00    -0.028 C 
ATOM     13  C   UNL     1     -21.315  -2.615   5.785  1.00  0.00    -0.080 C 
ATOM     14  C   UNL     1     -20.401  -3.813   5.842  1.00  0.00     0.039 C 
ATOM     15  C   UNL     1     -20.896  -1.436   4.947  1.00  0.00     0.039 C 
ENDBRANCH  11  12
ENDBRANCH   1  11
TORSDOF 4
ENDMDL
