MODEL 1
REMARK VINA RESULT:    -6.048      0.000      0.000
REMARK INTER + INTRA:          -6.500
REMARK INTER:                  -6.402
REMARK INTRA:                  -0.098
REMARK UNBOUND:                -0.098
REMARK SMILES C=C(C)[C@H]1CC=C(C)C(=O)C1
REMARK SMILES IDX 8 1 7 2 6 3 5 4 4 5 11 6 9 7 10 8 2 9 1 10 3 11
REMARK H PARENT
REMARK Flexibility Score: inf
ROOT
ATOM      1  C   UNL     1      -0.086  12.346 -31.467  1.00  0.00     0.048 C 
ATOM      2  C   UNL     1      -1.195  12.929 -30.636  1.00  0.00    -0.012 C 
ATOM      3  C   UNL     1      -2.442  12.990 -31.133  1.00  0.00    -0.019 C 
ATOM      4  C   UNL     1      -3.585  13.581 -30.351  1.00  0.00     0.036 C 
ATOM      5  C   UNL     1      -3.408  13.336 -28.841  1.00  0.00     0.025 C 
ATOM      6  C   UNL     1      -2.043  13.870 -28.370  1.00  0.00     0.089 C 
ATOM      7  C   UNL     1      -0.936  13.321 -29.228  1.00  0.00     0.158 C 
ATOM      8  O   UNL     1       0.226  13.231 -28.749  1.00  0.00    -0.295 OA
ENDROOT
BRANCH   5   9
ATOM      9  C   UNL     1      -4.550  13.947 -28.040  1.00  0.00    -0.077 C 
ATOM     10  C   UNL     1      -4.356  14.310 -26.763  1.00  0.00     0.008 C 
ATOM     11  C   UNL     1      -5.914  14.159 -28.650  1.00  0.00     0.039 C 
ENDBRANCH   5   9
TORSDOF 1
ENDMDL
MODEL 2
REMARK VINA RESULT:    -5.919      1.912      3.008
REMARK INTER + INTRA:          -6.363
REMARK INTER:                  -6.265
REMARK INTRA:                  -0.098
REMARK UNBOUND:                -0.098
REMARK SMILES C=C(C)[C@H]1CC=C(C)C(=O)C1
REMARK SMILES IDX 8 1 7 2 6 3 5 4 4 5 11 6 9 7 10 8 2 9 1 10 3 11
REMARK H PARENT
REMARK Flexibility Score: inf
ROOT
ATOM      1  C   UNL     1      -4.624  14.290 -32.539  1.00  0.00     0.048 C 
ATOM      2  C   UNL     1      -4.270  14.053 -31.097  1.00  0.00    -0.012 C 
ATOM      3  C   UNL     1      -5.191  14.257 -30.140  1.00  0.00    -0.019 C 
ATOM      4  C   UNL     1      -4.884  14.054 -28.680  1.00  0.00     0.036 C 
ATOM      5  C   UNL     1      -3.858  12.923 -28.482  1.00  0.00     0.025 C 
ATOM      6  C   UNL     1      -2.590  13.200 -29.311  1.00  0.00     0.089 C 
ATOM      7  C   UNL     1      -2.947  13.479 -30.746  1.00  0.00     0.158 C 
ATOM      8  O   UNL     1      -2.095  13.254 -31.646  1.00  0.00    -0.295 OA
ENDROOT
BRANCH   5   9
ATOM      9  C   UNL     1      -3.526  12.722 -27.010  1.00  0.00    -0.077 C 
ATOM     10  C   UNL     1      -3.841  13.669 -26.114  1.00  0.00     0.008 C 
ATOM     11  C   UNL     1      -2.843  11.467 -26.522  1.00  0.00     0.039 C 
ENDBRANCH   5   9
TORSDOF 1
ENDMDL
MODEL 3
REMARK VINA RESULT:    -5.912      2.179      3.334
REMARK INTER + INTRA:          -6.356
REMARK INTER:                  -6.268
REMARK INTRA:                  -0.087
REMARK UNBOUND:                -0.098
REMARK SMILES C=C(C)[C@H]1CC=C(C)C(=O)C1
REMARK SMILES IDX 8 1 7 2 6 3 5 4 4 5 11 6 9 7 10 8 2 9 1 10 3 11
REMARK H PARENT
REMARK Flexibility Score: inf
ROOT
ATOM      1  C   UNL     1      -2.511  12.028 -28.875  1.00  0.00     0.048 C 
ATOM      2  C   UNL     1      -3.601  13.064 -28.878  1.00  0.00    -0.012 C 
ATOM      3  C   UNL     1      -4.208  13.394 -30.031  1.00  0.00    -0.019 C 
ATOM      4  C   UNL     1      -5.291  14.438 -30.092  1.00  0.00     0.036 C 
ATOM      5  C   UNL     1      -6.122  14.451 -28.796  1.00  0.00     0.025 C 
ATOM      6  C   UNL     1      -5.203  14.637 -27.574  1.00  0.00     0.089 C 
ATOM      7  C   UNL     1      -4.088  13.627 -27.593  1.00  0.00     0.158 C 
ATOM      8  O   UNL     1      -3.543  13.293 -26.507  1.00  0.00    -0.295 OA
ENDROOT
BRANCH   5   9
ATOM      9  C   UNL     1      -7.209  15.517 -28.840  1.00  0.00    -0.077 C 
ATOM     10  C   UNL     1      -8.495  15.175 -28.665  1.00  0.00     0.008 C 
ATOM     11  C   UNL     1      -6.876  16.969 -29.080  1.00  0.00     0.039 C 
ENDBRANCH   5   9
TORSDOF 1
ENDMDL
MODEL 4
REMARK VINA RESULT:    -5.840      1.935      4.309
REMARK INTER + INTRA:          -6.279
REMARK INTER:                  -6.186
REMARK INTRA:                  -0.093
REMARK UNBOUND:                -0.098
REMARK SMILES C=C(C)[C@H]1CC=C(C)C(=O)C1
REMARK SMILES IDX 8 1 7 2 6 3 5 4 4 5 11 6 9 7 10 8 2 9 1 10 3 11
REMARK H PARENT
REMARK Flexibility Score: inf
ROOT
ATOM      1  C   UNL     1      -6.516  14.571 -28.678  1.00  0.00     0.048 C 
ATOM      2  C   UNL     1      -5.098  14.079 -28.757  1.00  0.00    -0.012 C 
ATOM      3  C   UNL     1      -4.583  13.706 -29.941  1.00  0.00    -0.019 C 
ATOM      4  C   UNL     1      -3.176  13.187 -30.072  1.00  0.00     0.036 C 
ATOM      5  C   UNL     1      -2.243  13.853 -29.044  1.00  0.00     0.025 C 
ATOM      6  C   UNL     1      -2.800  13.670 -27.619  1.00  0.00     0.089 C 
ATOM      7  C   UNL     1      -4.233  14.123 -27.551  1.00  0.00     0.158 C 
ATOM      8  O   UNL     1      -4.703  14.506 -26.447  1.00  0.00    -0.295 OA
ENDROOT
BRANCH   5   9
ATOM      9  C   UNL     1      -0.820  13.321 -29.156  1.00  0.00    -0.077 C 
ATOM     10  C   UNL     1       0.187  13.957 -28.537  1.00  0.00     0.008 C 
ATOM     11  C   UNL     1      -0.505  12.081 -29.955  1.00  0.00     0.039 C 
ENDBRANCH   5   9
TORSDOF 1
ENDMDL
MODEL 5
REMARK VINA RESULT:    -5.793      2.804      3.767
REMARK INTER + INTRA:          -6.230
REMARK INTER:                  -6.132
REMARK INTRA:                  -0.098
REMARK UNBOUND:                -0.098
REMARK SMILES C=C(C)[C@H]1CC=C(C)C(=O)C1
REMARK SMILES IDX 8 1 7 2 6 3 5 4 4 5 11 6 9 7 10 8 2 9 1 10 3 11
REMARK H PARENT
REMARK Flexibility Score: inf
ROOT
ATOM      1  C   UNL     1      -2.465  10.980 -26.057  1.00  0.00     0.048 C 
ATOM      2  C   UNL     1      -3.296  11.776 -27.024  1.00  0.00    -0.012 C 
ATOM      3  C   UNL     1      -3.659  13.034 -26.719  1.00  0.00    -0.019 C 
ATOM      4  C   UNL     1      -4.506  13.867 -27.644  1.00  0.00     0.036 C 
ATOM      5  C   UNL     1      -4.222  13.522 -29.117  1.00  0.00     0.025 C 
ATOM      6  C   UNL     1      -4.408  12.012 -29.359  1.00  0.00     0.089 C 
ATOM      7  C   UNL     1      -3.610  11.216 -28.363  1.00  0.00     0.158 C 
ATOM      8  O   UNL     1      -3.241  10.049 -28.664  1.00  0.00    -0.295 OA
ENDROOT
BRANCH   5   9
ATOM      9  C   UNL     1      -5.088  14.346 -30.060  1.00  0.00    -0.077 C 
ATOM     10  C   UNL     1      -6.175  14.980 -29.594  1.00  0.00     0.008 C 
ATOM     11  C   UNL     1      -4.754  14.473 -31.527  1.00  0.00     0.039 C 
ENDBRANCH   5   9
TORSDOF 1
ENDMDL
MODEL 6
REMARK VINA RESULT:    -5.676      2.328      4.797
REMARK INTER + INTRA:          -6.106
REMARK INTER:                  -6.017
REMARK INTRA:                  -0.089
REMARK UNBOUND:                -0.098
REMARK SMILES C=C(C)[C@H]1CC=C(C)C(=O)C1
REMARK SMILES IDX 8 1 7 2 6 3 5 4 4 5 11 6 9 7 10 8 2 9 1 10 3 11
REMARK H PARENT
REMARK Flexibility Score: inf
ROOT
ATOM      1  C   UNL     1      -6.455  14.759 -29.111  1.00  0.00     0.048 C 
ATOM      2  C   UNL     1      -5.134  14.152 -29.495  1.00  0.00    -0.012 C 
ATOM      3  C   UNL     1      -4.434  13.444 -28.591  1.00  0.00    -0.019 C 
ATOM      4  C   UNL     1      -3.098  12.832 -28.918  1.00  0.00     0.036 C 
ATOM      5  C   UNL     1      -3.031  12.405 -30.396  1.00  0.00     0.025 C 
ATOM      6  C   UNL     1      -3.364  13.596 -31.312  1.00  0.00     0.089 C 
ATOM      7  C   UNL     1      -4.665  14.231 -30.901  1.00  0.00     0.158 C 
ATOM      8  O   UNL     1      -5.337  14.864 -31.759  1.00  0.00    -0.295 OA
ENDROOT
BRANCH   5   9
ATOM      9  C   UNL     1      -1.676  11.801 -30.741  1.00  0.00    -0.077 C 
ATOM     10  C   UNL     1      -1.434  10.504 -30.493  1.00  0.00     0.008 C 
ATOM     11  C   UNL     1      -0.580  12.632 -31.363  1.00  0.00     0.039 C 
ENDBRANCH   5   9
TORSDOF 1
ENDMDL
MODEL 7
REMARK VINA RESULT:    -5.657      2.886      3.627
REMARK INTER + INTRA:          -6.086
REMARK INTER:                  -5.993
REMARK INTRA:                  -0.093
REMARK UNBOUND:                -0.098
REMARK SMILES C=C(C)[C@H]1CC=C(C)C(=O)C1
REMARK SMILES IDX 8 1 7 2 6 3 5 4 4 5 11 6 9 7 10 8 2 9 1 10 3 11
REMARK H PARENT
REMARK Flexibility Score: inf
ROOT
ATOM      1  C   UNL     1      -2.714  11.054 -26.160  1.00  0.00     0.048 C 
ATOM      2  C   UNL     1      -3.385  12.037 -27.079  1.00  0.00    -0.012 C 
ATOM      3  C   UNL     1      -3.703  11.671 -28.333  1.00  0.00    -0.019 C 
ATOM      4  C   UNL     1      -4.358  12.622 -29.300  1.00  0.00     0.036 C 
ATOM      5  C   UNL     1      -5.285  13.608 -28.565  1.00  0.00     0.025 C 
ATOM      6  C   UNL     1      -4.510  14.346 -27.458  1.00  0.00     0.089 C 
ATOM      7  C   UNL     1      -3.804  13.365 -26.563  1.00  0.00     0.158 C 
ATOM      8  O   UNL     1      -3.537  13.697 -25.377  1.00  0.00    -0.295 OA
ENDROOT
BRANCH   5   9
ATOM      9  C   UNL     1      -5.938  14.586 -29.533  1.00  0.00    -0.077 C 
ATOM     10  C   UNL     1      -6.986  15.325 -29.138  1.00  0.00     0.008 C 
ATOM     11  C   UNL     1      -5.432  14.750 -30.945  1.00  0.00     0.039 C 
ENDBRANCH   5   9
TORSDOF 1
ENDMDL
MODEL 8
REMARK VINA RESULT:    -5.611      2.748      3.738
REMARK INTER + INTRA:          -6.037
REMARK INTER:                  -5.941
REMARK INTRA:                  -0.095
REMARK UNBOUND:                -0.098
REMARK SMILES C=C(C)[C@H]1CC=C(C)C(=O)C1
REMARK SMILES IDX 8 1 7 2 6 3 5 4 4 5 11 6 9 7 10 8 2 9 1 10 3 11
REMARK H PARENT
REMARK Flexibility Score: inf
ROOT
ATOM      1  C   UNL     1      -4.920  14.759 -32.358  1.00  0.00     0.048 C 
ATOM      2  C   UNL     1      -4.637  14.070 -31.052  1.00  0.00    -0.012 C 
ATOM      3  C   UNL     1      -3.621  13.195 -30.964  1.00  0.00    -0.019 C 
ATOM      4  C   UNL     1      -3.306  12.463 -29.686  1.00  0.00     0.036 C 
ATOM      5  C   UNL     1      -3.639  13.328 -28.456  1.00  0.00     0.025 C 
ATOM      6  C   UNL     1      -5.105  13.797 -28.513  1.00  0.00     0.089 C 
ATOM      7  C   UNL     1      -5.400  14.448 -29.837  1.00  0.00     0.158 C 
ATOM      8  O   UNL     1      -6.331  15.294 -29.910  1.00  0.00    -0.295 OA
ENDROOT
BRANCH   5   9
ATOM      9  C   UNL     1      -3.342  12.590 -27.158  1.00  0.00    -0.077 C 
ATOM     10  C   UNL     1      -3.577  13.183 -25.977  1.00  0.00     0.008 C 
ATOM     11  C   UNL     1      -2.783  11.189 -27.161  1.00  0.00     0.039 C 
ENDBRANCH   5   9
TORSDOF 1
ENDMDL
MODEL 9
REMARK VINA RESULT:    -5.542      1.443      1.948
REMARK INTER + INTRA:          -5.964
REMARK INTER:                  -5.866
REMARK INTRA:                  -0.098
REMARK UNBOUND:                -0.098
REMARK SMILES C=C(C)[C@H]1CC=C(C)C(=O)C1
REMARK SMILES IDX 8 1 7 2 6 3 5 4 4 5 11 6 9 7 10 8 2 9 1 10 3 11
REMARK H PARENT
REMARK Flexibility Score: inf
ROOT
ATOM      1  C   UNL     1       0.380  12.275 -31.116  1.00  0.00     0.048 C 
ATOM      2  C   UNL     1      -0.748  12.579 -30.170  1.00  0.00    -0.012 C 
ATOM      3  C   UNL     1      -0.673  13.649 -29.360  1.00  0.00    -0.019 C 
ATOM      4  C   UNL     1      -1.766  13.987 -28.380  1.00  0.00     0.036 C 
ATOM      5  C   UNL     1      -3.145  13.575 -28.926  1.00  0.00     0.025 C 
ATOM      6  C   UNL     1      -3.146  12.083 -29.307  1.00  0.00     0.089 C 
ATOM      7  C   UNL     1      -1.992  11.770 -30.220  1.00  0.00     0.158 C 
ATOM      8  O   UNL     1      -2.078  10.787 -31.004  1.00  0.00    -0.295 OA
ENDROOT
BRANCH   5   9
ATOM      9  C   UNL     1      -4.256  13.896 -27.935  1.00  0.00    -0.077 C 
ATOM     10  C   UNL     1      -3.982  13.989 -26.624  1.00  0.00     0.008 C 
ATOM     11  C   UNL     1      -5.677  14.116 -28.391  1.00  0.00     0.039 C 
ENDBRANCH   5   9
TORSDOF 1
ENDMDL
