MODEL 1
REMARK VINA RESULT:    -3.996      0.000      0.000
REMARK INTER + INTRA:          -5.020
REMARK INTER:                  -4.931
REMARK INTRA:                  -0.089
REMARK UNBOUND:                -0.089
REMARK SMILES CCCCCC(=O)[O-]
REMARK SMILES IDX 4 1 5 2 6 3 7 4 8 5 3 6 2 7 1 8
REMARK H PARENT
REMARK Flexibility Score: inf
ROOT
ATOM      1  C   UNL     1       3.611  41.467  11.741  1.00  0.00     0.006 C 
ENDROOT
BRANCH   1   2
ATOM      2  C   UNL     1       2.854  40.330  12.442  1.00  0.00     0.053 C 
BRANCH   2   3
ATOM      3  C   UNL     1       3.760  39.162  12.669  1.00  0.00     0.041 C 
ATOM      4  O   UNL     1       3.482  38.039  12.172  1.00  0.00    -0.550 OA
ATOM      5  O   UNL     1       4.884  39.300  13.472  1.00  0.00    -0.550 OA
ENDBRANCH   2   3
ENDBRANCH   1   2
BRANCH   1   6
ATOM      6  C   UNL     1       2.672  42.547  11.184  1.00  0.00     0.000 C 
BRANCH   6   7
ATOM      7  C   UNL     1       2.990  43.946  11.732  1.00  0.00    -0.003 C 
ATOM      8  C   UNL     1       4.443  44.041  12.188  1.00  0.00     0.004 C 
ENDBRANCH   6   7
ENDBRANCH   1   6
TORSDOF 4
ENDMDL
MODEL 2
REMARK VINA RESULT:    -3.982     12.351     14.070
REMARK INTER + INTRA:          -5.002
REMARK INTER:                  -4.803
REMARK INTRA:                  -0.199
REMARK UNBOUND:                -0.089
REMARK SMILES CCCCCC(=O)[O-]
REMARK SMILES IDX 4 1 5 2 6 3 7 4 8 5 3 6 2 7 1 8
REMARK H PARENT
REMARK Flexibility Score: inf
ROOT
ATOM      1  C   UNL     1      13.474  32.781  12.434  1.00  0.00     0.006 C 
ENDROOT
BRANCH   1   2
ATOM      2  C   UNL     1      13.370  33.906  13.472  1.00  0.00     0.053 C 
BRANCH   2   3
ATOM      3  C   UNL     1      14.347  34.995  13.161  1.00  0.00     0.041 C 
ATOM      4  O   UNL     1      15.550  34.887  13.516  1.00  0.00    -0.550 OA
ATOM      5  O   UNL     1      13.919  36.152  12.524  1.00  0.00    -0.550 OA
ENDBRANCH   2   3
ENDBRANCH   1   2
BRANCH   1   6
ATOM      6  C   UNL     1      14.108  31.504  13.008  1.00  0.00     0.000 C 
BRANCH   6   7
ATOM      7  C   UNL     1      15.396  31.102  12.275  1.00  0.00    -0.003 C 
ATOM      8  C   UNL     1      16.629  31.640  12.998  1.00  0.00     0.004 C 
ENDBRANCH   6   7
ENDBRANCH   1   6
TORSDOF 4
ENDMDL
MODEL 3
REMARK VINA RESULT:    -3.934      4.006      5.102
REMARK INTER + INTRA:          -4.943
REMARK INTER:                  -4.895
REMARK INTRA:                  -0.048
REMARK UNBOUND:                -0.089
REMARK SMILES CCCCCC(=O)[O-]
REMARK SMILES IDX 4 1 5 2 6 3 7 4 8 5 3 6 2 7 1 8
REMARK H PARENT
REMARK Flexibility Score: inf
ROOT
ATOM      1  C   UNL     1       4.536  46.016  10.546  1.00  0.00     0.006 C 
ENDROOT
BRANCH   1   2
ATOM      2  C   UNL     1       4.014  44.624  10.169  1.00  0.00     0.053 C 
BRANCH   2   3
ATOM      3  C   UNL     1       4.195  43.672  11.308  1.00  0.00     0.041 C 
ATOM      4  O   UNL     1       3.854  42.466  11.186  1.00  0.00    -0.550 OA
ATOM      5  O   UNL     1       4.693  44.127  12.522  1.00  0.00    -0.550 OA
ENDBRANCH   2   3
ENDBRANCH   1   2
BRANCH   1   6
ATOM      6  C   UNL     1       4.917  46.858   9.318  1.00  0.00     0.000 C 
BRANCH   6   7
ATOM      7  C   UNL     1       6.347  47.411   9.400  1.00  0.00    -0.003 C 
ATOM      8  C   UNL     1       6.382  48.897   9.054  1.00  0.00     0.004 C 
ENDBRANCH   6   7
ENDBRANCH   1   6
TORSDOF 4
ENDMDL
MODEL 4
REMARK VINA RESULT:    -3.908      5.888      7.380
REMARK INTER + INTRA:          -4.911
REMARK INTER:                  -4.836
REMARK INTRA:                  -0.074
REMARK UNBOUND:                -0.089
REMARK SMILES CCCCCC(=O)[O-]
REMARK SMILES IDX 4 1 5 2 6 3 7 4 8 5 3 6 2 7 1 8
REMARK H PARENT
REMARK Flexibility Score: inf
ROOT
ATOM      1  C   UNL     1       4.887  46.344  10.250  1.00  0.00     0.006 C 
ENDROOT
BRANCH   1   2
ATOM      2  C   UNL     1       4.966  47.368   9.110  1.00  0.00     0.053 C 
BRANCH   2   3
ATOM      3  C   UNL     1       6.288  48.067   9.126  1.00  0.00     0.041 C 
ATOM      4  O   UNL     1       6.373  49.269   8.762  1.00  0.00    -0.550 OA
ATOM      5  O   UNL     1       7.435  47.377   9.496  1.00  0.00    -0.550 OA
ENDBRANCH   2   3
ENDBRANCH   1   2
BRANCH   1   6
ATOM      6  C   UNL     1       4.125  45.072   9.851  1.00  0.00     0.000 C 
BRANCH   6   7
ATOM      7  C   UNL     1       3.459  44.380  11.050  1.00  0.00    -0.003 C 
ATOM      8  C   UNL     1       4.489  44.020  12.117  1.00  0.00     0.004 C 
ENDBRANCH   6   7
ENDBRANCH   1   6
TORSDOF 4
ENDMDL
MODEL 5
REMARK VINA RESULT:    -3.820      2.990      4.527
REMARK INTER + INTRA:          -4.802
REMARK INTER:                  -4.661
REMARK INTRA:                  -0.141
REMARK UNBOUND:                -0.089
REMARK SMILES CCCCCC(=O)[O-]
REMARK SMILES IDX 4 1 5 2 6 3 7 4 8 5 3 6 2 7 1 8
REMARK H PARENT
REMARK Flexibility Score: inf
ROOT
ATOM      1  C   UNL     1       2.912  42.178  10.920  1.00  0.00     0.006 C 
ENDROOT
BRANCH   1   2
ATOM      2  C   UNL     1       2.689  43.537  11.597  1.00  0.00     0.053 C 
BRANCH   2   3
ATOM      3  C   UNL     1       3.969  44.307  11.659  1.00  0.00     0.041 C 
ATOM      4  O   UNL     1       4.789  44.098  12.591  1.00  0.00    -0.550 OA
ATOM      5  O   UNL     1       4.236  45.290  10.715  1.00  0.00    -0.550 OA
ENDBRANCH   2   3
ENDBRANCH   1   2
BRANCH   1   6
ATOM      6  C   UNL     1       2.897  41.010  11.918  1.00  0.00     0.000 C 
BRANCH   6   7
ATOM      7  C   UNL     1       4.309  40.552  12.313  1.00  0.00    -0.003 C 
ATOM      8  C   UNL     1       4.292  39.123  12.850  1.00  0.00     0.004 C 
ENDBRANCH   6   7
ENDBRANCH   1   6
TORSDOF 4
ENDMDL
MODEL 6
REMARK VINA RESULT:    -3.792      3.000      3.799
REMARK INTER + INTRA:          -4.768
REMARK INTER:                  -4.652
REMARK INTRA:                  -0.117
REMARK UNBOUND:                -0.089
REMARK SMILES CCCCCC(=O)[O-]
REMARK SMILES IDX 4 1 5 2 6 3 7 4 8 5 3 6 2 7 1 8
REMARK H PARENT
REMARK Flexibility Score: inf
ROOT
ATOM      1  C   UNL     1       4.374  44.328  11.519  1.00  0.00     0.006 C 
ENDROOT
BRANCH   1   2
ATOM      2  C   UNL     1       3.076  43.578  11.845  1.00  0.00     0.053 C 
BRANCH   2   3
ATOM      3  C   UNL     1       2.957  42.349  11.002  1.00  0.00     0.041 C 
ATOM      4  O   UNL     1       3.058  41.208  11.526  1.00  0.00    -0.550 OA
ATOM      5  O   UNL     1       2.785  42.461   9.629  1.00  0.00    -0.550 OA
ENDBRANCH   2   3
ENDBRANCH   1   2
BRANCH   1   6
ATOM      6  C   UNL     1       4.118  45.731  10.947  1.00  0.00     0.000 C 
BRANCH   6   7
ATOM      7  C   UNL     1       4.562  45.862   9.482  1.00  0.00    -0.003 C 
ATOM      8  C   UNL     1       5.416  47.110   9.277  1.00  0.00     0.004 C 
ENDBRANCH   6   7
ENDBRANCH   1   6
TORSDOF 4
ENDMDL
MODEL 7
REMARK VINA RESULT:    -3.785      5.217      6.553
REMARK INTER + INTRA:          -4.759
REMARK INTER:                  -4.655
REMARK INTRA:                  -0.104
REMARK UNBOUND:                -0.089
REMARK SMILES CCCCCC(=O)[O-]
REMARK SMILES IDX 4 1 5 2 6 3 7 4 8 5 3 6 2 7 1 8
REMARK H PARENT
REMARK Flexibility Score: inf
ROOT
ATOM      1  C   UNL     1       4.196  45.686  10.997  1.00  0.00     0.006 C 
ENDROOT
BRANCH   1   2
ATOM      2  C   UNL     1       4.399  45.721   9.477  1.00  0.00     0.053 C 
BRANCH   2   3
ATOM      3  C   UNL     1       5.063  46.996   9.067  1.00  0.00     0.041 C 
ATOM      4  O   UNL     1       4.435  47.847   8.384  1.00  0.00    -0.550 OA
ATOM      5  O   UNL     1       6.393  47.225   9.397  1.00  0.00    -0.550 OA
ENDBRANCH   2   3
ENDBRANCH   1   2
BRANCH   1   6
ATOM      6  C   UNL     1       4.467  44.299  11.599  1.00  0.00     0.000 C 
BRANCH   6   7
ATOM      7  C   UNL     1       4.109  43.156  10.636  1.00  0.00    -0.003 C 
ATOM      8  C   UNL     1       3.260  42.097  11.333  1.00  0.00     0.004 C 
ENDBRANCH   6   7
ENDBRANCH   1   6
TORSDOF 4
ENDMDL
MODEL 8
REMARK VINA RESULT:    -3.729      5.554      6.875
REMARK INTER + INTRA:          -4.691
REMARK INTER:                  -4.518
REMARK INTRA:                  -0.173
REMARK UNBOUND:                -0.089
REMARK SMILES CCCCCC(=O)[O-]
REMARK SMILES IDX 4 1 5 2 6 3 7 4 8 5 3 6 2 7 1 8
REMARK H PARENT
REMARK Flexibility Score: inf
ROOT
ATOM      1  C   UNL     1       4.446  45.903  10.660  1.00  0.00     0.006 C 
ENDROOT
BRANCH   1   2
ATOM      2  C   UNL     1       4.571  46.249   9.170  1.00  0.00     0.053 C 
BRANCH   2   3
ATOM      3  C   UNL     1       3.490  47.197   8.761  1.00  0.00     0.041 C 
ATOM      4  O   UNL     1       2.427  47.274   9.432  1.00  0.00    -0.550 OA
ATOM      5  O   UNL     1       3.634  47.961   7.611  1.00  0.00    -0.550 OA
ENDBRANCH   2   3
ENDBRANCH   1   2
BRANCH   1   6
ATOM      6  C   UNL     1       3.987  44.456  10.896  1.00  0.00     0.000 C 
BRANCH   6   7
ATOM      7  C   UNL     1       3.929  43.636   9.599  1.00  0.00    -0.003 C 
ATOM      8  C   UNL     1       2.577  42.944   9.446  1.00  0.00     0.004 C 
ENDBRANCH   6   7
ENDBRANCH   1   6
TORSDOF 4
ENDMDL
MODEL 9
REMARK VINA RESULT:    -3.629      5.220      6.382
REMARK INTER + INTRA:          -4.567
REMARK INTER:                  -4.441
REMARK INTRA:                  -0.126
REMARK UNBOUND:                -0.089
REMARK SMILES CCCCCC(=O)[O-]
REMARK SMILES IDX 4 1 5 2 6 3 7 4 8 5 3 6 2 7 1 8
REMARK H PARENT
REMARK Flexibility Score: inf
ROOT
ATOM      1  C   UNL     1       3.288  45.001   9.997  1.00  0.00     0.006 C 
ENDROOT
BRANCH   1   2
ATOM      2  C   UNL     1       4.484  45.834  10.478  1.00  0.00     0.053 C 
BRANCH   2   3
ATOM      3  C   UNL     1       4.939  46.764   9.399  1.00  0.00     0.041 C 
ATOM      4  O   UNL     1       6.139  47.143   9.354  1.00  0.00    -0.550 OA
ATOM      5  O   UNL     1       4.029  47.253   8.472  1.00  0.00    -0.550 OA
ENDBRANCH   2   3
ENDBRANCH   1   2
BRANCH   1   6
ATOM      6  C   UNL     1       3.688  43.580   9.574  1.00  0.00     0.000 C 
BRANCH   6   7
ATOM      7  C   UNL     1       2.828  42.499  10.245  1.00  0.00    -0.003 C 
ATOM      8  C   UNL     1       1.986  43.089  11.373  1.00  0.00     0.004 C 
ENDBRANCH   6   7
ENDBRANCH   1   6
TORSDOF 4
ENDMDL
