MODEL 1
REMARK VINA RESULT:    93.821      0.000      0.000
REMARK INTER + INTRA:         102.451
REMARK INTER:                 102.048
REMARK INTRA:                   0.403
REMARK UNBOUND:                 0.403
REMARK SMILES CC1(C)CC[C@@]2(C(=O)[O-])CC[C@@]3(C)C(=CC[C@@H]4[C@@]5(C)CC[C@@H](O)C(C)(C)[C@@H]5CC[C@@]43C)[C@H]2C1
REMARK SMILES IDX 6 1 5 2 10 3 32 4 4 5 11 6 14 7 33 8 2 9 12 10 15 11 1 12
REMARK SMILES IDX 3 13 13 14 30 15 16 16 17 17 29 18 31 19 18 20 28 21 27 22
REMARK SMILES IDX 20 23 19 24 24 25 21 26 22 27 25 28 26 29 7 30 8 31 9 32
REMARK SMILES IDX 23 33
REMARK H PARENT 23 34
REMARK Flexibility Score: inf
ROOT
ATOM      1  C   UNL     1       9.786   6.935  11.723  1.00  0.00     0.017 C 
ATOM      2  C   UNL     1       9.774   6.659  10.182  1.00  0.00     0.014 C 
ATOM      3  C   UNL     1      10.409   8.353  11.882  1.00  0.00     0.014 C 
ATOM      4  C   UNL     1       8.320   6.794  12.349  1.00  0.00     0.028 C 
ATOM      5  C   UNL     1       9.105   5.337   9.792  1.00  0.00     0.007 C 
ATOM      6  C   UNL     1      10.066   8.995  13.214  1.00  0.00     0.013 C 
ATOM      7  C   UNL     1       7.792   7.975  13.202  1.00  0.00    -0.064 C 
ATOM      8  C   UNL     1       7.276   6.388  11.267  1.00  0.00     0.015 C 
ATOM      9  C   UNL     1       7.699   5.142  10.435  1.00  0.00    -0.035 C 
ATOM     10  C   UNL     1       8.546   9.293  13.380  1.00  0.00    -0.006 C 
ATOM     11  C   UNL     1       6.561   7.867  13.747  1.00  0.00    -0.027 C 
ATOM     12  C   UNL     1       7.724   3.877  11.343  1.00  0.00     0.011 C 
ATOM     13  C   UNL     1       6.654   4.918   9.327  1.00  0.00     0.011 C 
ATOM     14  C   UNL     1       8.097  10.224  12.212  1.00  0.00     0.017 C 
ATOM     15  C   UNL     1       8.250   9.935  14.855  1.00  0.00    -0.020 C 
ATOM     16  C   UNL     1       5.829   9.062  14.265  1.00  0.00     0.032 C 
ATOM     17  C   UNL     1       6.695   9.838  15.282  1.00  0.00     0.006 C 
ATOM     18  C   UNL     1       8.804  11.417  14.905  1.00  0.00     0.008 C 
ATOM     19  C   UNL     1       9.055   9.130  15.937  1.00  0.00     0.012 C 
ATOM     20  C   UNL     1       6.041  11.182  15.823  1.00  0.00    -0.025 C 
ATOM     21  C   UNL     1       8.353  12.316  16.076  1.00  0.00     0.005 C 
ATOM     22  C   UNL     1       7.088  11.818  16.808  1.00  0.00     0.003 C 
ATOM     23  C   UNL     1       4.706  10.907  16.607  1.00  0.00     0.010 C 
ATOM     24  C   UNL     1       5.665  12.117  14.628  1.00  0.00     0.012 C 
ATOM     25  C   UNL     1       6.507  12.760  17.938  1.00  0.00    -0.006 C 
ATOM     26  C   UNL     1       4.909  10.684  18.107  1.00  0.00     0.033 C 
ATOM     27  C   UNL     1       5.432  11.965  18.797  1.00  0.00     0.120 C 
ATOM     28  C   UNL     1       7.667  13.234  18.858  1.00  0.00     0.014 C 
ATOM     29  C   UNL     1       5.855  14.042  17.362  1.00  0.00     0.014 C 
ENDROOT
BRANCH   1  30
ATOM     30  C   UNL     1      10.740   5.943  12.396  1.00  0.00     0.048 C 
ATOM     31  O   UNL     1      11.125   4.902  11.797  1.00  0.00    -0.550 OA
ATOM     32  O   UNL     1      11.125   6.131  13.722  1.00  0.00    -0.550 OA
ENDBRANCH   1  30
BRANCH  27  33
ATOM     33  O   UNL     1       5.950  11.596  20.052  1.00  0.00    -0.393 OA
ATOM     34  H   UNL     1       6.079  10.610  20.041  1.00  0.00     0.210 HD
ENDBRANCH  27  33
TORSDOF 2
ENDMDL
