MODEL 1
REMARK VINA RESULT:    -5.244      0.000      0.000
REMARK INTER + INTRA:          -8.094
REMARK INTER:                  -7.084
REMARK INTRA:                  -1.010
REMARK UNBOUND:                -1.010
REMARK SMILES CC(=O)CCC=C(C)CCC=C(C)C
REMARK SMILES IDX 7 1 6 2 8 3 9 4 10 5 11 6 13 7 12 8 14 9 5 10 4 11 2 12 3 13
REMARK SMILES IDX 1 14
REMARK H PARENT
REMARK Flexibility Score: inf
ROOT
ATOM      1  C   UNL     1      18.053 -11.068  65.256  1.00  0.00    -0.077 C 
ATOM      2  C   UNL     1      17.821  -9.985  66.033  1.00  0.00    -0.028 C 
ATOM      3  C   UNL     1      18.273 -12.441  65.846  1.00  0.00     0.039 C 
ENDROOT
BRANCH   1   4
ATOM      4  C   UNL     1      18.075 -10.903  63.752  1.00  0.00     0.034 C 
BRANCH   4   5
ATOM      5  C   UNL     1      16.844 -11.559  63.115  1.00  0.00     0.032 C 
BRANCH   5   6
ATOM      6  C   UNL     1      15.750 -10.544  62.899  1.00  0.00    -0.028 C 
ATOM      7  C   UNL     1      13.582  -9.445  63.254  1.00  0.00     0.039 C 
ATOM      8  C   UNL     1      14.603 -10.493  63.611  1.00  0.00    -0.080 C 
ATOM      9  C   UNL     1      14.329 -11.440  64.756  1.00  0.00     0.039 C 
ENDBRANCH   5   6
ENDBRANCH   4   5
ENDBRANCH   1   4
BRANCH   2  10
ATOM     10  C   UNL     1      17.808 -10.003  67.541  1.00  0.00     0.035 C 
BRANCH  10  11
ATOM     11  C   UNL     1      19.066  -9.334  68.104  1.00  0.00     0.079 C 
BRANCH  11  12
ATOM     12  C   UNL     1      19.555 -10.061  69.327  1.00  0.00     0.130 C 
ATOM     13  O   UNL     1      19.553  -9.495  70.410  1.00  0.00    -0.300 OA
ATOM     14  C   UNL     1      20.023 -11.482  69.230  1.00  0.00     0.087 C 
ENDBRANCH  11  12
ENDBRANCH  10  11
ENDBRANCH   2  10
TORSDOF 6
ENDMDL
MODEL 2
REMARK VINA RESULT:    -5.226      1.221      1.881
REMARK INTER + INTRA:          -8.069
REMARK INTER:                  -7.193
REMARK INTRA:                  -0.877
REMARK UNBOUND:                -1.010
REMARK SMILES CC(=O)CCC=C(C)CCC=C(C)C
REMARK SMILES IDX 7 1 6 2 8 3 9 4 10 5 11 6 13 7 12 8 14 9 5 10 4 11 2 12 3 13
REMARK SMILES IDX 1 14
REMARK H PARENT
REMARK Flexibility Score: inf
ROOT
ATOM      1  C   UNL     1      16.631 -11.553  65.775  1.00  0.00    -0.077 C 
ATOM      2  C   UNL     1      17.143 -10.648  66.640  1.00  0.00    -0.028 C 
ATOM      3  C   UNL     1      17.485 -12.631  65.150  1.00  0.00     0.039 C 
ENDROOT
BRANCH   1   4
ATOM      4  C   UNL     1      15.157 -11.495  65.437  1.00  0.00     0.034 C 
BRANCH   4   5
ATOM      5  C   UNL     1      14.952 -11.286  63.932  1.00  0.00     0.032 C 
BRANCH   5   6
ATOM      6  C   UNL     1      14.699  -9.831  63.626  1.00  0.00    -0.028 C 
ATOM      7  C   UNL     1      15.250  -7.528  62.971  1.00  0.00     0.039 C 
ATOM      8  C   UNL     1      15.644  -8.964  63.199  1.00  0.00    -0.080 C 
ATOM      9  C   UNL     1      17.066  -9.398  62.932  1.00  0.00     0.039 C 
ENDBRANCH   5   6
ENDBRANCH   4   5
ENDBRANCH   1   4
BRANCH   2  10
ATOM     10  C   UNL     1      18.597 -10.570  67.034  1.00  0.00     0.035 C 
BRANCH  10  11
ATOM     11  C   UNL     1      18.810  -9.514  68.124  1.00  0.00     0.079 C 
BRANCH  11  12
ATOM     12  C   UNL     1      19.519 -10.108  69.310  1.00  0.00     0.130 C 
ATOM     13  O   UNL     1      19.620  -9.460  70.342  1.00  0.00    -0.300 OA
ATOM     14  C   UNL     1      20.082 -11.495  69.244  1.00  0.00     0.087 C 
ENDBRANCH  11  12
ENDBRANCH  10  11
ENDBRANCH   2  10
TORSDOF 6
ENDMDL
MODEL 3
REMARK VINA RESULT:    -5.081      1.007      1.456
REMARK INTER + INTRA:          -7.873
REMARK INTER:                  -6.799
REMARK INTRA:                  -1.074
REMARK UNBOUND:                -1.010
REMARK SMILES CC(=O)CCC=C(C)CCC=C(C)C
REMARK SMILES IDX 7 1 6 2 8 3 9 4 10 5 11 6 13 7 12 8 14 9 5 10 4 11 2 12 3 13
REMARK SMILES IDX 1 14
REMARK H PARENT
REMARK Flexibility Score: inf
ROOT
ATOM      1  C   UNL     1      17.949 -11.015  65.196  1.00  0.00    -0.077 C 
ATOM      2  C   UNL     1      17.585 -10.021  66.040  1.00  0.00    -0.028 C 
ATOM      3  C   UNL     1      18.511 -12.323  65.700  1.00  0.00     0.039 C 
ENDROOT
BRANCH   1   4
ATOM      4  C   UNL     1      17.772 -10.816  63.706  1.00  0.00     0.034 C 
BRANCH   4   5
ATOM      5  C   UNL     1      16.288 -10.676  63.350  1.00  0.00     0.032 C 
BRANCH   5   6
ATOM      6  C   UNL     1      15.641 -12.031  63.216  1.00  0.00    -0.028 C 
ATOM      7  C   UNL     1      14.228 -13.937  63.855  1.00  0.00     0.039 C 
ATOM      8  C   UNL     1      14.762 -12.550  64.102  1.00  0.00    -0.080 C 
ATOM      9  C   UNL     1      14.295 -11.776  65.312  1.00  0.00     0.039 C 
ENDBRANCH   5   6
ENDBRANCH   4   5
ENDBRANCH   1   4
BRANCH   2  10
ATOM     10  C   UNL     1      17.740 -10.074  67.539  1.00  0.00     0.035 C 
BRANCH  10  11
ATOM     11  C   UNL     1      19.064  -9.436  67.971  1.00  0.00     0.079 C 
BRANCH  11  12
ATOM     12  C   UNL     1      19.579 -10.077  69.232  1.00  0.00     0.130 C 
ATOM     13  O   UNL     1      19.606  -9.434  70.270  1.00  0.00    -0.300 OA
ATOM     14  C   UNL     1      20.036 -11.504  69.226  1.00  0.00     0.087 C 
ENDBRANCH  11  12
ENDBRANCH  10  11
ENDBRANCH   2  10
TORSDOF 6
ENDMDL
MODEL 4
REMARK VINA RESULT:    -4.955      1.468      2.226
REMARK INTER + INTRA:          -7.702
REMARK INTER:                  -6.898
REMARK INTRA:                  -0.805
REMARK UNBOUND:                -1.010
REMARK SMILES CC(=O)CCC=C(C)CCC=C(C)C
REMARK SMILES IDX 7 1 6 2 8 3 9 4 10 5 11 6 13 7 12 8 14 9 5 10 4 11 2 12 3 13
REMARK SMILES IDX 1 14
REMARK H PARENT
REMARK Flexibility Score: inf
ROOT
ATOM      1  C   UNL     1      16.862 -11.476  66.051  1.00  0.00    -0.077 C 
ATOM      2  C   UNL     1      17.422 -10.387  66.625  1.00  0.00    -0.028 C 
ATOM      3  C   UNL     1      17.683 -12.681  65.655  1.00  0.00     0.039 C 
ENDROOT
BRANCH   1   4
ATOM      4  C   UNL     1      15.367 -11.497  65.816  1.00  0.00     0.034 C 
BRANCH   4   5
ATOM      5  C   UNL     1      15.036 -11.067  64.382  1.00  0.00     0.032 C 
BRANCH   5   6
ATOM      6  C   UNL     1      14.465 -12.222  63.597  1.00  0.00    -0.028 C 
ATOM      7  C   UNL     1      14.387 -13.959  61.861  1.00  0.00     0.039 C 
ATOM      8  C   UNL     1      15.101 -12.843  62.580  1.00  0.00    -0.080 C 
ATOM      9  C   UNL     1      16.502 -12.464  62.160  1.00  0.00     0.039 C 
ENDBRANCH   5   6
ENDBRANCH   4   5
ENDBRANCH   1   4
BRANCH   2  10
ATOM     10  C   UNL     1      18.899 -10.221  66.882  1.00  0.00     0.035 C 
BRANCH  10  11
ATOM     11  C   UNL     1      19.143  -9.289  68.073  1.00  0.00     0.079 C 
BRANCH  11  12
ATOM     12  C   UNL     1      19.586 -10.070  69.280  1.00  0.00     0.130 C 
ATOM     13  O   UNL     1      19.623  -9.525  70.373  1.00  0.00    -0.300 OA
ATOM     14  C   UNL     1      19.958 -11.516  69.155  1.00  0.00     0.087 C 
ENDBRANCH  11  12
ENDBRANCH  10  11
ENDBRANCH   2  10
TORSDOF 6
ENDMDL
MODEL 5
REMARK VINA RESULT:    -4.901      2.224      3.971
REMARK INTER + INTRA:          -7.630
REMARK INTER:                  -6.553
REMARK INTRA:                  -1.076
REMARK UNBOUND:                -1.010
REMARK SMILES CC(=O)CCC=C(C)CCC=C(C)C
REMARK SMILES IDX 7 1 6 2 8 3 9 4 10 5 11 6 13 7 12 8 14 9 5 10 4 11 2 12 3 13
REMARK SMILES IDX 1 14
REMARK H PARENT
REMARK Flexibility Score: inf
ROOT
ATOM      1  C   UNL     1      17.531 -11.671  66.019  1.00  0.00    -0.077 C 
ATOM      2  C   UNL     1      18.583 -12.461  66.331  1.00  0.00    -0.028 C 
ATOM      3  C   UNL     1      16.502 -11.269  67.049  1.00  0.00     0.039 C 
ENDROOT
BRANCH   1   4
ATOM      4  C   UNL     1      17.390 -11.158  64.602  1.00  0.00     0.034 C 
BRANCH   4   5
ATOM      5  C   UNL     1      17.958  -9.740  64.478  1.00  0.00     0.032 C 
BRANCH   5   6
ATOM      6  C   UNL     1      19.257  -9.749  63.712  1.00  0.00    -0.028 C 
ATOM      7  C   UNL     1      21.691  -9.666  63.384  1.00  0.00     0.039 C 
ATOM      8  C   UNL     1      20.481  -9.688  64.282  1.00  0.00    -0.080 C 
ATOM      9  C   UNL     1      20.665  -9.658  65.781  1.00  0.00     0.039 C 
ENDBRANCH   5   6
ENDBRANCH   4   5
ENDBRANCH   1   4
BRANCH   2  10
ATOM     10  C   UNL     1      18.823 -13.067  67.691  1.00  0.00     0.035 C 
BRANCH  10  11
ATOM     11  C   UNL     1      20.285 -12.892  68.114  1.00  0.00     0.079 C 
BRANCH  11  12
ATOM     12  C   UNL     1      20.392 -11.955  69.287  1.00  0.00     0.130 C 
ATOM     13  O   UNL     1      21.087 -12.260  70.244  1.00  0.00    -0.300 OA
ATOM     14  C   UNL     1      19.671 -10.641  69.278  1.00  0.00     0.087 C 
ENDBRANCH  11  12
ENDBRANCH  10  11
ENDBRANCH   2  10
TORSDOF 6
ENDMDL
MODEL 6
REMARK VINA RESULT:    -4.828      1.654      2.122
REMARK INTER + INTRA:          -7.532
REMARK INTER:                  -6.972
REMARK INTRA:                  -0.560
REMARK UNBOUND:                -1.010
REMARK SMILES CC(=O)CCC=C(C)CCC=C(C)C
REMARK SMILES IDX 7 1 6 2 8 3 9 4 10 5 11 6 13 7 12 8 14 9 5 10 4 11 2 12 3 13
REMARK SMILES IDX 1 14
REMARK H PARENT
REMARK Flexibility Score: inf
ROOT
ATOM      1  C   UNL     1      19.013  -9.915  64.434  1.00  0.00    -0.077 C 
ATOM      2  C   UNL     1      18.707 -10.140  65.733  1.00  0.00    -0.028 C 
ATOM      3  C   UNL     1      20.423  -9.611  63.988  1.00  0.00     0.039 C 
ENDROOT
BRANCH   1   4
ATOM      4  C   UNL     1      17.913  -9.989  63.397  1.00  0.00     0.034 C 
BRANCH   4   5
ATOM      5  C   UNL     1      16.542  -9.758  64.042  1.00  0.00     0.032 C 
BRANCH   5   6
ATOM      6  C   UNL     1      15.975  -8.423  63.627  1.00  0.00    -0.028 C 
ATOM      7  C   UNL     1      14.686  -6.839  62.261  1.00  0.00     0.039 C 
ATOM      8  C   UNL     1      15.140  -8.240  62.580  1.00  0.00    -0.080 C 
ATOM      9  C   UNL     1      14.642  -9.394  61.741  1.00  0.00     0.039 C 
ENDBRANCH   5   6
ENDBRANCH   4   5
ENDBRANCH   1   4
BRANCH   2  10
ATOM     10  C   UNL     1      19.697 -10.063  66.869  1.00  0.00     0.035 C 
BRANCH  10  11
ATOM     11  C   UNL     1      19.049  -9.448  68.113  1.00  0.00     0.079 C 
BRANCH  11  12
ATOM     12  C   UNL     1      19.593 -10.079  69.366  1.00  0.00     0.130 C 
ATOM     13  O   UNL     1      19.587  -9.450  70.413  1.00  0.00    -0.300 OA
ATOM     14  C   UNL     1      20.121 -11.482  69.342  1.00  0.00     0.087 C 
ENDBRANCH  11  12
ENDBRANCH  10  11
ENDBRANCH   2  10
TORSDOF 6
ENDMDL
MODEL 7
REMARK VINA RESULT:    -4.765      2.752      4.772
REMARK INTER + INTRA:          -7.446
REMARK INTER:                  -6.235
REMARK INTRA:                  -1.212
REMARK UNBOUND:                -1.010
REMARK SMILES CC(=O)CCC=C(C)CCC=C(C)C
REMARK SMILES IDX 7 1 6 2 8 3 9 4 10 5 11 6 13 7 12 8 14 9 5 10 4 11 2 12 3 13
REMARK SMILES IDX 1 14
REMARK H PARENT
REMARK Flexibility Score: inf
ROOT
ATOM      1  C   UNL     1      18.827 -10.507  64.905  1.00  0.00    -0.077 C 
ATOM      2  C   UNL     1      18.723  -9.663  65.957  1.00  0.00    -0.028 C 
ATOM      3  C   UNL     1      18.239 -11.898  64.936  1.00  0.00     0.039 C 
ENDROOT
BRANCH   1   4
ATOM      4  C   UNL     1      19.538 -10.038  63.654  1.00  0.00     0.034 C 
BRANCH   4   5
ATOM      5  C   UNL     1      20.872  -9.369  64.006  1.00  0.00     0.032 C 
BRANCH   5   6
ATOM      6  C   UNL     1      22.015 -10.339  63.839  1.00  0.00    -0.028 C 
ATOM      7  C   UNL     1      23.810 -11.863  64.543  1.00  0.00     0.039 C 
ATOM      8  C   UNL     1      22.657 -10.947  64.862  1.00  0.00    -0.080 C 
ATOM      9  C   UNL     1      22.240 -10.747  66.300  1.00  0.00     0.039 C 
ENDBRANCH   5   6
ENDBRANCH   4   5
ENDBRANCH   1   4
BRANCH   2  10
ATOM     10  C   UNL     1      18.074 -10.014  67.273  1.00  0.00     0.035 C 
BRANCH  10  11
ATOM     11  C   UNL     1      19.026  -9.737  68.440  1.00  0.00     0.079 C 
BRANCH  11  12
ATOM     12  C   UNL     1      19.469 -11.023  69.084  1.00  0.00     0.130 C 
ATOM     13  O   UNL     1      20.244 -10.993  70.028  1.00  0.00    -0.300 OA
ATOM     14  C   UNL     1      18.947 -12.339  68.590  1.00  0.00     0.087 C 
ENDBRANCH  11  12
ENDBRANCH  10  11
ENDBRANCH   2  10
TORSDOF 6
ENDMDL
MODEL 8
REMARK VINA RESULT:    -4.671      2.024      2.706
REMARK INTER + INTRA:          -7.319
REMARK INTER:                  -6.084
REMARK INTRA:                  -1.236
REMARK UNBOUND:                -1.010
REMARK SMILES CC(=O)CCC=C(C)CCC=C(C)C
REMARK SMILES IDX 7 1 6 2 8 3 9 4 10 5 11 6 13 7 12 8 14 9 5 10 4 11 2 12 3 13
REMARK SMILES IDX 1 14
REMARK H PARENT
REMARK Flexibility Score: inf
ROOT
ATOM      1  C   UNL     1      17.167 -11.256  66.977  1.00  0.00    -0.077 C 
ATOM      2  C   UNL     1      17.552  -9.992  67.270  1.00  0.00    -0.028 C 
ATOM      3  C   UNL     1      18.080 -12.439  67.198  1.00  0.00     0.039 C 
ENDROOT
BRANCH   1   4
ATOM      4  C   UNL     1      15.776 -11.493  66.430  1.00  0.00     0.034 C 
BRANCH   4   5
ATOM      5  C   UNL     1      15.811 -11.639  64.904  1.00  0.00     0.032 C 
BRANCH   5   6
ATOM      6  C   UNL     1      15.417 -10.346  64.235  1.00  0.00    -0.028 C 
ATOM      7  C   UNL     1      15.751  -8.219  63.052  1.00  0.00     0.039 C 
ATOM      8  C   UNL     1      16.287  -9.496  63.646  1.00  0.00    -0.080 C 
ATOM      9  C   UNL     1      17.764  -9.797  63.554  1.00  0.00     0.039 C 
ENDBRANCH   5   6
ENDBRANCH   4   5
ENDBRANCH   1   4
BRANCH   2  10
ATOM     10  C   UNL     1      18.917  -9.612  67.785  1.00  0.00     0.035 C 
BRANCH  10  11
ATOM     11  C   UNL     1      19.834  -9.187  66.634  1.00  0.00     0.079 C 
BRANCH  11  12
ATOM     12  C   UNL     1      20.887 -10.230  66.377  1.00  0.00     0.130 C 
ATOM     13  O   UNL     1      21.346 -10.870  67.311  1.00  0.00    -0.300 OA
ATOM     14  C   UNL     1      21.359 -10.505  64.981  1.00  0.00     0.087 C 
ENDBRANCH  11  12
ENDBRANCH  10  11
ENDBRANCH   2  10
TORSDOF 6
ENDMDL
MODEL 9
REMARK VINA RESULT:    -4.656      3.052      6.163
REMARK INTER + INTRA:          -7.300
REMARK INTER:                  -6.342
REMARK INTRA:                  -0.957
REMARK UNBOUND:                -1.010
REMARK SMILES CC(=O)CCC=C(C)CCC=C(C)C
REMARK SMILES IDX 7 1 6 2 8 3 9 4 10 5 11 6 13 7 12 8 14 9 5 10 4 11 2 12 3 13
REMARK SMILES IDX 1 14
REMARK H PARENT
REMARK Flexibility Score: inf
ROOT
ATOM      1  C   UNL     1      15.862 -11.191  65.785  1.00  0.00    -0.077 C 
ATOM      2  C   UNL     1      16.196 -10.467  64.691  1.00  0.00    -0.028 C 
ATOM      3  C   UNL     1      14.559 -11.949  65.872  1.00  0.00     0.039 C 
ENDROOT
BRANCH   1   4
ATOM      4  C   UNL     1      16.832 -11.258  66.945  1.00  0.00     0.034 C 
BRANCH   4   5
ATOM      5  C   UNL     1      17.584  -9.932  67.102  1.00  0.00     0.032 C 
BRANCH   5   6
ATOM      6  C   UNL     1      19.062 -10.174  67.282  1.00  0.00    -0.028 C 
ATOM      7  C   UNL     1      21.422 -10.348  66.622  1.00  0.00     0.039 C 
ATOM      8  C   UNL     1      19.984 -10.031  66.304  1.00  0.00    -0.080 C 
ATOM      9  C   UNL     1      19.615  -9.550  64.920  1.00  0.00     0.039 C 
ENDBRANCH   5   6
ENDBRANCH   4   5
ENDBRANCH   1   4
BRANCH   2  10
ATOM     10  C   UNL     1      15.310 -10.287  63.483  1.00  0.00     0.035 C 
BRANCH  10  11
ATOM     11  C   UNL     1      16.044 -10.701  62.205  1.00  0.00     0.079 C 
BRANCH  11  12
ATOM     12  C   UNL     1      16.093 -12.200  62.079  1.00  0.00     0.130 C 
ATOM     13  O   UNL     1      17.160 -12.755  61.866  1.00  0.00    -0.300 OA
ATOM     14  C   UNL     1      14.847 -13.017  62.238  1.00  0.00     0.087 C 
ENDBRANCH  11  12
ENDBRANCH  10  11
ENDBRANCH   2  10
TORSDOF 6
ENDMDL
