MODEL 1
REMARK VINA RESULT:     4.284      0.000      0.000
REMARK INTER + INTRA:           4.997
REMARK INTER:                   5.036
REMARK INTRA:                  -0.039
REMARK UNBOUND:                -0.039
REMARK SMILES CCCCC(=O)[O-]
REMARK SMILES IDX 4 1 5 2 6 3 7 4 3 5 2 6 1 7
REMARK H PARENT
REMARK Flexibility Score: inf
ROOT
ATOM      1  C   UNL     1     -28.923 -19.722  -8.030  1.00  0.00     0.053 C 
ENDROOT
BRANCH   1   2
ATOM      2  C   UNL     1     -30.409 -19.873  -8.124  1.00  0.00     0.041 C 
ATOM      3  O   UNL     1     -31.125 -19.727  -7.099  1.00  0.00    -0.550 OA
ATOM      4  O   UNL     1     -31.007 -20.126  -9.351  1.00  0.00    -0.550 OA
ENDBRANCH   1   2
BRANCH   1   5
ATOM      5  C   UNL     1     -28.329 -19.406  -9.405  1.00  0.00     0.006 C 
BRANCH   5   6
ATOM      6  C   UNL     1     -26.847 -19.032  -9.291  1.00  0.00    -0.003 C 
ATOM      7  C   UNL     1     -26.442 -18.817  -7.836  1.00  0.00     0.004 C 
ENDBRANCH   5   6
ENDBRANCH   1   5
TORSDOF 3
ENDMDL
MODEL 2
REMARK VINA RESULT:     4.868     16.666     17.782
REMARK INTER + INTRA:           5.683
REMARK INTER:                   5.780
REMARK INTRA:                  -0.096
REMARK UNBOUND:                -0.039
REMARK SMILES CCCCC(=O)[O-]
REMARK SMILES IDX 4 1 5 2 6 3 7 4 3 5 2 6 1 7
REMARK H PARENT
REMARK Flexibility Score: inf
ROOT
ATOM      1  C   UNL     1     -22.355 -14.826 -24.010  1.00  0.00     0.053 C 
ENDROOT
BRANCH   1   2
ATOM      2  C   UNL     1     -22.328 -14.677 -22.521  1.00  0.00     0.041 C 
ATOM      3  O   UNL     1     -22.653 -15.643 -21.782  1.00  0.00    -0.550 OA
ATOM      4  O   UNL     1     -21.899 -13.487 -21.949  1.00  0.00    -0.550 OA
ENDBRANCH   1   2
BRANCH   1   5
ATOM      5  C   UNL     1     -21.784 -13.577 -24.684  1.00  0.00     0.006 C 
BRANCH   5   6
ATOM      6  C   UNL     1     -20.333 -13.805 -25.124  1.00  0.00    -0.003 C 
ATOM      7  C   UNL     1     -19.435 -12.655 -24.680  1.00  0.00     0.004 C 
ENDBRANCH   5   6
ENDBRANCH   1   5
TORSDOF 3
ENDMDL
MODEL 3
REMARK VINA RESULT:     5.105     23.716     24.833
REMARK INTER + INTRA:           5.961
REMARK INTER:                   6.050
REMARK INTRA:                  -0.089
REMARK UNBOUND:                -0.039
REMARK SMILES CCCCC(=O)[O-]
REMARK SMILES IDX 4 1 5 2 6 3 7 4 3 5 2 6 1 7
REMARK H PARENT
REMARK Flexibility Score: inf
ROOT
ATOM      1  C   UNL     1     -15.321  -7.376 -23.706  1.00  0.00     0.053 C 
ENDROOT
BRANCH   1   2
ATOM      2  C   UNL     1     -14.272  -8.339 -23.246  1.00  0.00     0.041 C 
ATOM      3  O   UNL     1     -14.242  -9.510 -23.708  1.00  0.00    -0.550 OA
ATOM      4  O   UNL     1     -13.299  -7.931 -22.344  1.00  0.00    -0.550 OA
ENDBRANCH   1   2
BRANCH   1   5
ATOM      5  C   UNL     1     -15.010  -6.881 -25.121  1.00  0.00     0.006 C 
BRANCH   5   6
ATOM      6  C   UNL     1     -14.718  -5.376 -25.125  1.00  0.00    -0.003 C 
ATOM      7  C   UNL     1     -13.255  -5.097 -24.792  1.00  0.00     0.004 C 
ENDBRANCH   5   6
ENDBRANCH   1   5
TORSDOF 3
ENDMDL
MODEL 4
REMARK VINA RESULT:     5.179      2.394      3.712
REMARK INTER + INTRA:           6.048
REMARK INTER:                   6.131
REMARK INTRA:                  -0.083
REMARK UNBOUND:                -0.039
REMARK SMILES CCCCC(=O)[O-]
REMARK SMILES IDX 4 1 5 2 6 3 7 4 3 5 2 6 1 7
REMARK H PARENT
REMARK Flexibility Score: inf
ROOT
ATOM      1  C   UNL     1     -28.621 -20.088  -7.684  1.00  0.00     0.053 C 
ENDROOT
BRANCH   1   2
ATOM      2  C   UNL     1     -27.550 -19.345  -8.420  1.00  0.00     0.041 C 
ATOM      3  O   UNL     1     -26.673 -18.704  -7.784  1.00  0.00    -0.550 OA
ATOM      4  O   UNL     1     -27.493 -19.400  -9.806  1.00  0.00    -0.550 OA
ENDBRANCH   1   2
BRANCH   1   5
ATOM      5  C   UNL     1     -29.788 -19.155  -7.351  1.00  0.00     0.006 C 
BRANCH   5   6
ATOM      6  C   UNL     1     -31.124 -19.772  -7.779  1.00  0.00    -0.003 C 
ATOM      7  C   UNL     1     -31.112 -20.144  -9.258  1.00  0.00     0.004 C 
ENDBRANCH   5   6
ENDBRANCH   1   5
TORSDOF 3
ENDMDL
MODEL 5
REMARK VINA RESULT:     5.772     22.423     23.311
REMARK INTER + INTRA:           6.746
REMARK INTER:                   6.763
REMARK INTRA:                  -0.017
REMARK UNBOUND:                -0.039
REMARK SMILES CCCCC(=O)[O-]
REMARK SMILES IDX 4 1 5 2 6 3 7 4 3 5 2 6 1 7
REMARK H PARENT
REMARK Flexibility Score: inf
ROOT
ATOM      1  C   UNL     1     -12.755  -8.472 -22.145  1.00  0.00     0.053 C 
ENDROOT
BRANCH   1   2
ATOM      2  C   UNL     1     -13.945  -8.604 -23.044  1.00  0.00     0.041 C 
ATOM      3  O   UNL     1     -14.713  -7.623 -23.225  1.00  0.00    -0.550 OA
ATOM      4  O   UNL     1     -14.179  -9.795 -23.718  1.00  0.00    -0.550 OA
ENDBRANCH   1   2
BRANCH   1   5
ATOM      5  C   UNL     1     -13.169  -7.892 -20.791  1.00  0.00     0.006 C 
BRANCH   5   6
ATOM      6  C   UNL     1     -12.316  -8.477 -19.659  1.00  0.00    -0.003 C 
ATOM      7  C   UNL     1     -12.987  -8.278 -18.304  1.00  0.00     0.004 C 
ENDBRANCH   5   6
ENDBRANCH   1   5
TORSDOF 3
ENDMDL
MODEL 6
REMARK VINA RESULT:     6.162     12.350     13.682
REMARK INTER + INTRA:           7.204
REMARK INTER:                   7.222
REMARK INTRA:                  -0.018
REMARK UNBOUND:                -0.039
REMARK SMILES CCCCC(=O)[O-]
REMARK SMILES IDX 4 1 5 2 6 3 7 4 3 5 2 6 1 7
REMARK H PARENT
REMARK Flexibility Score: inf
ROOT
ATOM      1  C   UNL     1     -18.542 -16.735 -15.593  1.00  0.00     0.053 C 
ENDROOT
BRANCH   1   2
ATOM      2  C   UNL     1     -17.301 -16.274 -16.290  1.00  0.00     0.041 C 
ATOM      3  O   UNL     1     -17.382 -15.511 -17.288  1.00  0.00    -0.550 OA
ATOM      4  O   UNL     1     -16.053 -16.647 -15.809  1.00  0.00    -0.550 OA
ENDBRANCH   1   2
BRANCH   1   5
ATOM      5  C   UNL     1     -19.450 -17.496 -16.563  1.00  0.00     0.006 C 
BRANCH   5   6
ATOM      6  C   UNL     1     -20.522 -18.287 -15.806  1.00  0.00    -0.003 C 
ATOM      7  C   UNL     1     -21.595 -17.361 -15.241  1.00  0.00     0.004 C 
ENDBRANCH   5   6
ENDBRANCH   1   5
TORSDOF 3
ENDMDL
MODEL 7
REMARK VINA RESULT:     6.348     17.539     18.738
REMARK INTER + INTRA:           7.422
REMARK INTER:                   7.495
REMARK INTRA:                  -0.073
REMARK UNBOUND:                -0.039
REMARK SMILES CCCCC(=O)[O-]
REMARK SMILES IDX 4 1 5 2 6 3 7 4 3 5 2 6 1 7
REMARK H PARENT
REMARK Flexibility Score: inf
ROOT
ATOM      1  C   UNL     1     -21.370 -13.062 -24.015  1.00  0.00     0.053 C 
ENDROOT
BRANCH   1   2
ATOM      2  C   UNL     1     -20.054 -13.008 -24.727  1.00  0.00     0.041 C 
ATOM      3  O   UNL     1     -19.489 -11.901 -24.930  1.00  0.00    -0.550 OA
ATOM      4  O   UNL     1     -19.429 -14.182 -25.125  1.00  0.00    -0.550 OA
ENDBRANCH   1   2
BRANCH   1   5
ATOM      5  C   UNL     1     -22.042 -14.419 -24.235  1.00  0.00     0.006 C 
BRANCH   5   6
ATOM      6  C   UNL     1     -22.501 -15.027 -22.904  1.00  0.00    -0.003 C 
ATOM      7  C   UNL     1     -22.112 -14.137 -21.728  1.00  0.00     0.004 C 
ENDBRANCH   5   6
ENDBRANCH   1   5
TORSDOF 3
ENDMDL
MODEL 8
REMARK VINA RESULT:     6.699     11.394     12.675
REMARK INTER + INTRA:           7.835
REMARK INTER:                   7.877
REMARK INTRA:                  -0.042
REMARK UNBOUND:                -0.039
REMARK SMILES CCCCC(=O)[O-]
REMARK SMILES IDX 4 1 5 2 6 3 7 4 3 5 2 6 1 7
REMARK H PARENT
REMARK Flexibility Score: inf
ROOT
ATOM      1  C   UNL     1     -19.316 -17.459 -16.488  1.00  0.00     0.053 C 
ENDROOT
BRANCH   1   2
ATOM      2  C   UNL     1     -20.619 -17.764 -15.816  1.00  0.00     0.041 C 
ATOM      3  O   UNL     1     -21.022 -18.953 -15.728  1.00  0.00    -0.550 OA
ATOM      4  O   UNL     1     -21.364 -16.740 -15.246  1.00  0.00    -0.550 OA
ENDBRANCH   1   2
BRANCH   1   5
ATOM      5  C   UNL     1     -18.378 -16.723 -15.528  1.00  0.00     0.006 C 
BRANCH   5   6
ATOM      6  C   UNL     1     -17.282 -15.976 -16.296  1.00  0.00    -0.003 C 
ATOM      7  C   UNL     1     -17.553 -15.988 -17.797  1.00  0.00     0.004 C 
ENDBRANCH   5   6
ENDBRANCH   1   5
TORSDOF 3
ENDMDL
