MODEL 1
REMARK VINA RESULT:    -4.282      0.000      0.000
REMARK INTER + INTRA:          -7.008
REMARK INTER:                  -6.284
REMARK INTRA:                  -0.724
REMARK UNBOUND:                -0.724
REMARK SMILES C=C1C=C[C@H](C(C)C)CCC(C)=CCC1
REMARK SMILES IDX 3 1 4 2 5 3 9 4 10 5 11 6 12 7 13 8 6 10 7 11 8 12 2 13 1 14
REMARK SMILES IDX 15 15 14 16
REMARK H PARENT
REMARK Flexibility Score: 70.00
ROOT
ATOM      1  C   UNL     1     -41.384 -48.476  26.866  1.00  0.00    -0.001 C 
ATOM      2  C   UNL     1     -40.504 -48.915  27.778  1.00  0.00    -0.023 C 
ENDROOT
BRANCH   2   3
ATOM      3  C   UNL     1     -40.421 -48.389  29.202  1.00  0.00     0.014 C 
BRANCH   3   4
ATOM      4  C   UNL     1     -40.903 -49.439  30.239  1.00  0.00     0.012 C 
BRANCH   4   5
ATOM      5  C   UNL     1     -41.869 -50.518  29.690  1.00  0.00     0.031 C 
BRANCH   5   6
ATOM      6  C   UNL     1     -43.338 -50.295  30.014  1.00  0.00    -0.077 C 
ATOM      7  C   UNL     1     -43.840 -50.751  31.364  1.00  0.00     0.039 C 
ATOM      8  C   UNL     1     -44.264 -49.823  29.141  1.00  0.00    -0.028 CG0
ATOM      9  G   UNL     1     -44.022 -49.141  27.813  1.00  0.00     0.000 G0
ENDBRANCH   5   6
ENDBRANCH   4   5
ENDBRANCH   3   4
BRANCH   3  10
ATOM     10  C   UNL     1     -39.004 -47.831  29.542  1.00  0.00    -0.010 C 
ATOM     11  C   UNL     1     -37.842 -48.580  28.864  1.00  0.00     0.008 C 
ATOM     12  C   UNL     1     -38.914 -46.331  29.211  1.00  0.00     0.008 C 
ENDBRANCH   3  10
ENDBRANCH   2   3
BRANCH   1  13
ATOM     13  C   UNL     1     -42.343 -47.381  27.111  1.00  0.00    -0.055 C 
ATOM     14  C   UNL     1     -42.051 -46.153  26.676  1.00  0.00     0.012 C 
BRANCH  13  15
ATOM     15  C   UNL     1     -43.647 -47.647  27.829  1.00  0.00     0.039 C 
BRANCH  15  16
ATOM     16  C   UNL     1     -44.028 -49.144  27.790  1.00  0.00     0.032 CG0
ATOM     17  G   UNL     1     -44.276 -49.797  29.131  1.00  0.00     0.000 G0
ENDBRANCH  15  16
ENDBRANCH  13  15
ENDBRANCH   1  13
TORSDOF 1
ENDMDL
MODEL 2
REMARK VINA RESULT:    -4.236     11.146     12.855
REMARK INTER + INTRA:          -6.942
REMARK INTER:                  -6.295
REMARK INTRA:                  -0.647
REMARK UNBOUND:                -0.724
REMARK SMILES C=C1C=C[C@H](C(C)C)CCC(C)=CCC1
REMARK SMILES IDX 3 1 4 2 5 3 9 4 10 5 11 6 12 7 13 8 6 10 7 11 8 12 2 13 1 14
REMARK SMILES IDX 15 15 14 16
REMARK H PARENT
REMARK Flexibility Score: 70.00
ROOT
ATOM      1  C   UNL     1     -48.709 -50.978  17.970  1.00  0.00    -0.001 C 
ATOM      2  C   UNL     1     -47.950 -49.933  18.334  1.00  0.00    -0.023 C 
ENDROOT
BRANCH   2   3
ATOM      3  C   UNL     1     -48.375 -48.481  18.184  1.00  0.00     0.014 C 
BRANCH   3   4
ATOM      4  C   UNL     1     -48.414 -47.743  19.549  1.00  0.00     0.012 C 
BRANCH   4   5
ATOM      5  C   UNL     1     -48.959 -48.574  20.737  1.00  0.00     0.031 C 
BRANCH   5   6
ATOM      6  C   UNL     1     -50.471 -48.547  20.905  1.00  0.00    -0.077 C 
ATOM      7  C   UNL     1     -51.078 -47.372  21.636  1.00  0.00     0.039 C 
ATOM      8  C   UNL     1     -51.311 -49.552  20.551  1.00  0.00    -0.028 CG0
ATOM      9  G   UNL     1     -51.011 -50.740  19.665  1.00  0.00     0.000 G0
ENDBRANCH   5   6
ENDBRANCH   4   5
ENDBRANCH   3   4
BRANCH   3  10
ATOM     10  C   UNL     1     -47.515 -47.722  17.127  1.00  0.00    -0.010 C 
ATOM     11  C   UNL     1     -47.361 -48.455  15.781  1.00  0.00     0.008 C 
ATOM     12  C   UNL     1     -48.072 -46.309  16.882  1.00  0.00     0.008 C 
ENDBRANCH   3  10
ENDBRANCH   2   3
BRANCH   1  13
ATOM     13  C   UNL     1     -50.028 -50.849  17.320  1.00  0.00    -0.055 C 
ATOM     14  C   UNL     1     -50.125 -51.044  16.003  1.00  0.00     0.012 C 
BRANCH  13  15
ATOM     15  C   UNL     1     -51.258 -50.516  18.136  1.00  0.00     0.039 C 
BRANCH  15  16
ATOM     16  C   UNL     1     -51.024 -50.749  19.646  1.00  0.00     0.032 CG0
ATOM     17  G   UNL     1     -51.304 -49.568  20.546  1.00  0.00     0.000 G0
ENDBRANCH  15  16
ENDBRANCH  13  15
ENDBRANCH   1  13
TORSDOF 1
ENDMDL
MODEL 3
REMARK VINA RESULT:    -3.944      2.159      5.502
REMARK INTER + INTRA:          -6.512
REMARK INTER:                  -6.153
REMARK INTRA:                  -0.360
REMARK UNBOUND:                -0.724
REMARK SMILES C=C1C=C[C@H](C(C)C)CCC(C)=CCC1
REMARK SMILES IDX 3 1 4 2 5 3 9 4 10 5 11 6 12 7 13 8 6 10 7 11 8 12 2 13 1 14
REMARK SMILES IDX 15 15 14 16
REMARK H PARENT
REMARK Flexibility Score: 70.00
ROOT
ATOM      1  C   UNL     1     -43.348 -51.432  30.060  1.00  0.00    -0.001 C 
ATOM      2  C   UNL     1     -44.644 -51.223  30.342  1.00  0.00    -0.023 C 
ENDROOT
BRANCH   2   3
ATOM      3  C   UNL     1     -45.144 -50.139  31.282  1.00  0.00     0.014 C 
BRANCH   3   4
ATOM      4  C   UNL     1     -45.396 -48.797  30.542  1.00  0.00     0.012 C 
BRANCH   4   5
ATOM      5  C   UNL     1     -45.105 -48.815  29.020  1.00  0.00     0.031 C 
BRANCH   5   6
ATOM      6  C   UNL     1     -44.034 -47.840  28.556  1.00  0.00    -0.077 C 
ATOM      7  C   UNL     1     -44.434 -46.397  28.354  1.00  0.00     0.039 C 
ATOM      8  C   UNL     1     -42.771 -48.185  28.198  1.00  0.00    -0.028 CG0
ATOM      9  G   UNL     1     -42.059 -49.493  28.459  1.00  0.00     0.000 G0
ENDBRANCH   5   6
ENDBRANCH   4   5
ENDBRANCH   3   4
BRANCH   3  10
ATOM     10  C   UNL     1     -46.386 -50.601  32.105  1.00  0.00    -0.010 C 
ATOM     11  C   UNL     1     -46.331 -52.065  32.580  1.00  0.00     0.008 C 
ATOM     12  C   UNL     1     -46.616 -49.676  33.313  1.00  0.00     0.008 C 
ENDBRANCH   3  10
ENDBRANCH   2   3
BRANCH   1  13
ATOM     13  C   UNL     1     -42.241 -50.676  30.677  1.00  0.00    -0.055 C 
ATOM     14  C   UNL     1     -41.933 -50.902  31.956  1.00  0.00     0.012 C 
BRANCH  13  15
ATOM     15  C   UNL     1     -41.453 -49.669  29.867  1.00  0.00     0.039 C 
BRANCH  15  16
ATOM     16  C   UNL     1     -42.047 -49.479  28.454  1.00  0.00     0.032 CG0
ATOM     17  G   UNL     1     -42.774 -48.175  28.213  1.00  0.00     0.000 G0
ENDBRANCH  15  16
ENDBRANCH  13  15
ENDBRANCH   1  13
TORSDOF 1
ENDMDL
MODEL 4
REMARK VINA RESULT:    -3.944      9.333     11.954
REMARK INTER + INTRA:          -6.512
REMARK INTER:                  -5.786
REMARK INTRA:                  -0.727
REMARK UNBOUND:                -0.724
REMARK SMILES C=C1C=C[C@H](C(C)C)CCC(C)=CCC1
REMARK SMILES IDX 3 1 4 2 5 3 9 4 10 5 11 6 12 7 13 8 6 10 7 11 8 12 2 13 1 14
REMARK SMILES IDX 15 15 14 16
REMARK H PARENT
REMARK Flexibility Score: 70.00
ROOT
ATOM      1  C   UNL     1     -50.708 -47.630  20.951  1.00  0.00    -0.001 C 
ATOM      2  C   UNL     1     -51.727 -47.305  21.762  1.00  0.00    -0.023 C 
ENDROOT
BRANCH   2   3
ATOM      3  C   UNL     1     -52.714 -48.310  22.333  1.00  0.00     0.014 C 
BRANCH   3   4
ATOM      4  C   UNL     1     -52.555 -48.473  23.869  1.00  0.00     0.012 C 
BRANCH   4   5
ATOM      5  C   UNL     1     -51.136 -48.196  24.423  1.00  0.00     0.031 C 
BRANCH   5   6
ATOM      6  C   UNL     1     -50.263 -49.428  24.609  1.00  0.00    -0.077 C 
ATOM      7  C   UNL     1     -50.474 -50.260  25.852  1.00  0.00     0.039 C 
ATOM      8  C   UNL     1     -49.227 -49.776  23.803  1.00  0.00    -0.028 CG0
ATOM      9  G   UNL     1     -48.905 -49.241  22.426  1.00  0.00     0.000 G0
ENDBRANCH   5   6
ENDBRANCH   4   5
ENDBRANCH   3   4
BRANCH   3  10
ATOM     10  C   UNL     1     -54.184 -47.991  21.922  1.00  0.00    -0.010 C 
ATOM     11  C   UNL     1     -54.570 -46.504  22.029  1.00  0.00     0.008 C 
ATOM     12  C   UNL     1     -54.476 -48.498  20.499  1.00  0.00     0.008 C 
ENDBRANCH   3  10
ENDBRANCH   2   3
BRANCH   1  13
ATOM     13  C   UNL     1     -50.455 -48.999  20.460  1.00  0.00    -0.055 C 
ATOM     14  C   UNL     1     -51.009 -49.388  19.308  1.00  0.00     0.012 C 
BRANCH  13  15
ATOM     15  C   UNL     1     -49.568 -49.944  21.239  1.00  0.00     0.039 C 
BRANCH  15  16
ATOM     16  C   UNL     1     -48.889 -49.238  22.435  1.00  0.00     0.032 CG0
ATOM     17  G   UNL     1     -49.228 -49.786  23.802  1.00  0.00     0.000 G0
ENDBRANCH  15  16
ENDBRANCH  13  15
ENDBRANCH   1  13
TORSDOF 1
ENDMDL
MODEL 5
REMARK VINA RESULT:    -3.931      1.103      3.374
REMARK INTER + INTRA:          -6.493
REMARK INTER:                  -6.201
REMARK INTRA:                  -0.292
REMARK UNBOUND:                -0.724
REMARK SMILES C=C1C=C[C@H](C(C)C)CCC(C)=CCC1
REMARK SMILES IDX 3 1 4 2 5 3 9 4 10 5 11 6 12 7 13 8 6 10 7 11 8 12 2 13 1 14
REMARK SMILES IDX 15 15 14 16
REMARK H PARENT
REMARK Flexibility Score: 70.00
ROOT
ATOM      1  C   UNL     1     -41.705 -49.912  30.794  1.00  0.00    -0.001 C 
ATOM      2  C   UNL     1     -40.660 -49.087  30.619  1.00  0.00    -0.023 C 
ENDROOT
BRANCH   2   3
ATOM      3  C   UNL     1     -40.100 -48.702  29.259  1.00  0.00     0.014 C 
BRANCH   3   4
ATOM      4  C   UNL     1     -41.051 -47.750  28.486  1.00  0.00     0.012 C 
BRANCH   4   5
ATOM      5  C   UNL     1     -41.225 -48.066  26.980  1.00  0.00     0.031 C 
BRANCH   5   6
ATOM      6  C   UNL     1     -42.646 -47.941  26.454  1.00  0.00    -0.077 C 
ATOM      7  C   UNL     1     -42.965 -46.768  25.556  1.00  0.00     0.039 C 
ATOM      8  C   UNL     1     -43.684 -48.737  26.819  1.00  0.00    -0.028 CG0
ATOM      9  G   UNL     1     -43.623 -50.061  27.546  1.00  0.00     0.000 G0
ENDBRANCH   5   6
ENDBRANCH   4   5
ENDBRANCH   3   4
BRANCH   3  10
ATOM     10  C   UNL     1     -38.650 -48.136  29.360  1.00  0.00    -0.010 C 
ATOM     11  C   UNL     1     -37.611 -48.877  28.498  1.00  0.00     0.008 C 
ATOM     12  C   UNL     1     -38.625 -46.635  29.021  1.00  0.00     0.008 C 
ENDBRANCH   3  10
ENDBRANCH   2   3
BRANCH   1  13
ATOM     13  C   UNL     1     -42.402 -50.600  29.689  1.00  0.00    -0.055 C 
ATOM     14  C   UNL     1     -41.918 -51.760  29.238  1.00  0.00     0.012 C 
BRANCH  13  15
ATOM     15  C   UNL     1     -43.657 -50.009  29.086  1.00  0.00     0.039 C 
BRANCH  15  16
ATOM     16  C   UNL     1     -43.636 -50.072  27.542  1.00  0.00     0.032 CG0
ATOM     17  G   UNL     1     -43.684 -48.741  26.827  1.00  0.00     0.000 G0
ENDBRANCH  15  16
ENDBRANCH  13  15
ENDBRANCH   1  13
TORSDOF 1
ENDMDL
MODEL 6
REMARK VINA RESULT:    -3.840     10.508     12.574
REMARK INTER + INTRA:          -6.359
REMARK INTER:                  -5.690
REMARK INTRA:                  -0.670
REMARK UNBOUND:                -0.724
REMARK SMILES C=C1C=C[C@H](C(C)C)CCC(C)=CCC1
REMARK SMILES IDX 3 1 4 2 5 3 9 4 10 5 11 6 12 7 13 8 6 10 7 11 8 12 2 13 1 14
REMARK SMILES IDX 15 15 14 16
REMARK H PARENT
REMARK Flexibility Score: 70.00
ROOT
ATOM      1  C   UNL     1     -49.273 -51.399  18.624  1.00  0.00    -0.001 C 
ATOM      2  C   UNL     1     -48.131 -50.781  18.282  1.00  0.00    -0.023 C 
ENDROOT
BRANCH   2   3
ATOM      3  C   UNL     1     -48.046 -49.321  17.868  1.00  0.00     0.014 C 
BRANCH   3   4
ATOM      4  C   UNL     1     -47.335 -48.452  18.941  1.00  0.00     0.012 C 
BRANCH   4   5
ATOM      5  C   UNL     1     -48.235 -47.414  19.656  1.00  0.00     0.031 C 
BRANCH   5   6
ATOM      6  C   UNL     1     -48.782 -47.853  21.006  1.00  0.00    -0.077 C 
ATOM      7  C   UNL     1     -47.937 -47.584  22.230  1.00  0.00     0.039 C 
ATOM      8  C   UNL     1     -49.918 -48.572  21.187  1.00  0.00    -0.028 CG0
ATOM      9  G   UNL     1     -51.024 -48.825  20.187  1.00  0.00     0.000 G0
ENDBRANCH   5   6
ENDBRANCH   4   5
ENDBRANCH   3   4
BRANCH   3  10
ATOM     10  C   UNL     1     -47.414 -49.146  16.453  1.00  0.00    -0.010 C 
ATOM     11  C   UNL     1     -47.788 -50.247  15.444  1.00  0.00     0.008 C 
ATOM     12  C   UNL     1     -47.762 -47.768  15.865  1.00  0.00     0.008 C 
ENDBRANCH   3  10
ENDBRANCH   2   3
BRANCH   1  13
ATOM     13  C   UNL     1     -50.599 -50.755  18.581  1.00  0.00    -0.055 C 
ATOM     14  C   UNL     1     -51.191 -50.564  17.399  1.00  0.00     0.012 C 
BRANCH  13  15
ATOM     15  C   UNL     1     -51.290 -50.330  19.859  1.00  0.00     0.039 C 
BRANCH  15  16
ATOM     16  C   UNL     1     -51.022 -48.845  20.189  1.00  0.00     0.032 CG0
ATOM     17  G   UNL     1     -49.914 -48.579  21.183  1.00  0.00     0.000 G0
ENDBRANCH  15  16
ENDBRANCH  13  15
ENDBRANCH   1  13
TORSDOF 1
ENDMDL
MODEL 7
REMARK VINA RESULT:    -3.825      9.849     12.668
REMARK INTER + INTRA:          -6.337
REMARK INTER:                  -5.766
REMARK INTRA:                  -0.572
REMARK UNBOUND:                -0.724
REMARK SMILES C=C1C=C[C@H](C(C)C)CCC(C)=CCC1
REMARK SMILES IDX 3 1 4 2 5 3 9 4 10 5 11 6 12 7 13 8 6 10 7 11 8 12 2 13 1 14
REMARK SMILES IDX 15 15 14 16
REMARK H PARENT
REMARK Flexibility Score: 70.00
ROOT
ATOM      1  C   UNL     1     -52.232 -48.396  23.981  1.00  0.00    -0.001 C 
ATOM      2  C   UNL     1     -52.934 -48.925  22.966  1.00  0.00    -0.023 C 
ENDROOT
BRANCH   2   3
ATOM      3  C   UNL     1     -52.998 -48.323  21.572  1.00  0.00     0.014 C 
BRANCH   3   4
ATOM      4  C   UNL     1     -52.458 -49.298  20.491  1.00  0.00     0.012 C 
BRANCH   4   5
ATOM      5  C   UNL     1     -51.164 -50.060  20.872  1.00  0.00     0.031 C 
BRANCH   5   6
ATOM      6  C   UNL     1     -49.874 -49.279  20.677  1.00  0.00    -0.077 C 
ATOM      7  C   UNL     1     -49.309 -49.188  19.278  1.00  0.00     0.039 C 
ATOM      8  C   UNL     1     -49.124 -48.753  21.679  1.00  0.00    -0.028 CG0
ATOM      9  G   UNL     1     -49.523 -48.545  23.122  1.00  0.00     0.000 G0
ENDBRANCH   5   6
ENDBRANCH   4   5
ENDBRANCH   3   4
BRANCH   3  10
ATOM     10  C   UNL     1     -54.422 -47.787  21.227  1.00  0.00    -0.010 C 
ATOM     11  C   UNL     1     -55.543 -48.838  21.330  1.00  0.00     0.008 C 
ATOM     12  C   UNL     1     -54.774 -46.570  22.099  1.00  0.00     0.008 C 
ENDBRANCH   3  10
ENDBRANCH   2   3
BRANCH   1  13
ATOM     13  C   UNL     1     -51.484 -47.128  23.889  1.00  0.00    -0.055 C 
ATOM     14  C   UNL     1     -52.110 -45.983  24.172  1.00  0.00     0.012 C 
BRANCH  13  15
ATOM     15  C   UNL     1     -50.023 -47.123  23.496  1.00  0.00     0.039 C 
BRANCH  15  16
ATOM     16  C   UNL     1     -49.524 -48.539  23.130  1.00  0.00     0.032 CG0
ATOM     17  G   UNL     1     -49.119 -48.743  21.687  1.00  0.00     0.000 G0
ENDBRANCH  15  16
ENDBRANCH  13  15
ENDBRANCH   1  13
TORSDOF 1
ENDMDL
MODEL 8
REMARK VINA RESULT:    -3.800      1.738      4.264
REMARK INTER + INTRA:          -6.301
REMARK INTER:                  -5.875
REMARK INTRA:                  -0.426
REMARK UNBOUND:                -0.724
REMARK SMILES C=C1C=C[C@H](C(C)C)CCC(C)=CCC1
REMARK SMILES IDX 3 1 4 2 5 3 9 4 10 5 11 6 12 7 13 8 6 10 7 11 8 12 2 13 1 14
REMARK SMILES IDX 15 15 14 16
REMARK H PARENT
REMARK Flexibility Score: 70.00
ROOT
ATOM      1  C   UNL     1     -44.265 -48.210  28.552  1.00  0.00    -0.001 C 
ATOM      2  C   UNL     1     -43.650 -48.761  29.611  1.00  0.00    -0.023 C 
ENDROOT
BRANCH   2   3
ATOM      3  C   UNL     1     -42.598 -49.854  29.510  1.00  0.00     0.014 C 
BRANCH   3   4
ATOM      4  C   UNL     1     -41.159 -49.291  29.658  1.00  0.00     0.012 C 
BRANCH   4   5
ATOM      5  C   UNL     1     -40.365 -49.142  28.336  1.00  0.00     0.031 C 
BRANCH   5   6
ATOM      6  C   UNL     1     -40.249 -47.720  27.809  1.00  0.00    -0.077 C 
ATOM      7  C   UNL     1     -39.265 -46.795  28.487  1.00  0.00     0.039 C 
ATOM      8  C   UNL     1     -41.043 -47.179  26.850  1.00  0.00    -0.028 CG0
ATOM      9  G   UNL     1     -41.970 -47.901  25.899  1.00  0.00     0.000 G0
ENDBRANCH   5   6
ENDBRANCH   4   5
ENDBRANCH   3   4
BRANCH   3  10
ATOM     10  C   UNL     1     -42.876 -51.031  30.494  1.00  0.00    -0.010 C 
ATOM     11  C   UNL     1     -42.129 -50.934  31.837  1.00  0.00     0.008 C 
ATOM     12  C   UNL     1     -44.385 -51.182  30.753  1.00  0.00     0.008 C 
ENDBRANCH   3  10
ENDBRANCH   2   3
BRANCH   1  13
ATOM     13  C   UNL     1     -44.042 -48.641  27.159  1.00  0.00    -0.055 C 
ATOM     14  C   UNL     1     -44.354 -49.891  26.808  1.00  0.00     0.012 C 
BRANCH  13  15
ATOM     15  C   UNL     1     -43.485 -47.676  26.135  1.00  0.00     0.039 C 
BRANCH  15  16
ATOM     16  C   UNL     1     -41.975 -47.900  25.899  1.00  0.00     0.032 CG0
ATOM     17  G   UNL     1     -41.046 -47.185  26.853  1.00  0.00     0.000 G0
ENDBRANCH  15  16
ENDBRANCH  13  15
ENDBRANCH   1  13
TORSDOF 1
ENDMDL
MODEL 9
REMARK VINA RESULT:    -3.754      2.294      4.336
REMARK INTER + INTRA:          -6.233
REMARK INTER:                  -5.760
REMARK INTRA:                  -0.473
REMARK UNBOUND:                -0.724
REMARK SMILES C=C1C=C[C@H](C(C)C)CCC(C)=CCC1
REMARK SMILES IDX 3 1 4 2 5 3 9 4 10 5 11 6 12 7 13 8 6 10 7 11 8 12 2 13 1 14
REMARK SMILES IDX 15 15 14 16
REMARK H PARENT
REMARK Flexibility Score: 70.00
ROOT
ATOM      1  C   UNL     1     -41.360 -49.593  29.907  1.00  0.00    -0.001 C 
ATOM      2  C   UNL     1     -41.944 -48.658  29.140  1.00  0.00    -0.023 C 
ENDROOT
BRANCH   2   3
ATOM      3  C   UNL     1     -43.374 -48.746  28.635  1.00  0.00     0.014 C 
BRANCH   3   4
ATOM      4  C   UNL     1     -44.403 -48.335  29.723  1.00  0.00     0.012 C 
BRANCH   4   5
ATOM      5  C   UNL     1     -45.513 -49.375  30.013  1.00  0.00     0.031 C 
BRANCH   5   6
ATOM      6  C   UNL     1     -45.749 -49.676  31.485  1.00  0.00    -0.077 C 
ATOM      7  C   UNL     1     -46.824 -48.894  32.201  1.00  0.00     0.039 C 
ATOM      8  C   UNL     1     -44.990 -50.513  32.238  1.00  0.00    -0.028 CG0
ATOM      9  G   UNL     1     -43.985 -51.535  31.759  1.00  0.00     0.000 G0
ENDBRANCH   5   6
ENDBRANCH   4   5
ENDBRANCH   3   4
BRANCH   3  10
ATOM     10  C   UNL     1     -43.578 -47.959  27.303  1.00  0.00    -0.010 C 
ATOM     11  C   UNL     1     -43.926 -46.470  27.486  1.00  0.00     0.008 C 
ATOM     12  C   UNL     1     -42.342 -48.091  26.396  1.00  0.00     0.008 C 
ENDBRANCH   3  10
ENDBRANCH   2   3
BRANCH   1  13
ATOM     13  C   UNL     1     -42.015 -50.854  30.305  1.00  0.00    -0.055 C 
ATOM     14  C   UNL     1     -42.155 -51.826  29.400  1.00  0.00     0.012 C 
BRANCH  13  15
ATOM     15  C   UNL     1     -42.505 -51.053  31.722  1.00  0.00     0.039 C 
BRANCH  15  16
ATOM     16  C   UNL     1     -43.973 -51.531  31.759  1.00  0.00     0.032 CG0
ATOM     17  G   UNL     1     -44.986 -50.515  32.237  1.00  0.00     0.000 G0
ENDBRANCH  15  16
ENDBRANCH  13  15
ENDBRANCH   1  13
TORSDOF 1
ENDMDL
