MODEL 1
REMARK VINA RESULT:    -4.536      0.000      0.000
REMARK INTER + INTRA:          -9.167
REMARK INTER:                  -8.249
REMARK INTRA:                  -0.918
REMARK UNBOUND:                -0.918
REMARK SMILES CCCCCCCCCCCCCCCC(=O)[O-]
REMARK SMILES IDX 9 1 10 2 11 3 12 4 13 5 14 6 15 7 16 8 17 9 18 10 8 11 7 12
REMARK SMILES IDX 6 13 5 14 4 15 3 16 2 17 1 18
REMARK H PARENT
REMARK Flexibility Score: inf
ROOT
ATOM      1  C   UNL     1      45.514  65.884  50.464  1.00  0.00     0.000 C 
ENDROOT
BRANCH   1   2
ATOM      2  C   UNL     1      44.428  66.875  50.009  1.00  0.00     0.000 C 
BRANCH   2   3
ATOM      3  C   UNL     1      44.026  66.675  48.538  1.00  0.00     0.000 C 
BRANCH   3   4
ATOM      4  C   UNL     1      42.948  67.668  48.076  1.00  0.00     0.000 C 
BRANCH   4   5
ATOM      5  C   UNL     1      41.596  67.351  48.730  1.00  0.00     0.000 C 
BRANCH   5   6
ATOM      6  C   UNL     1      40.544  66.854  47.721  1.00  0.00     0.006 C 
BRANCH   6   7
ATOM      7  C   UNL     1      41.134  66.322  46.404  1.00  0.00     0.053 C 
BRANCH   7   8
ATOM      8  C   UNL     1      41.419  64.854  46.470  1.00  0.00     0.041 C 
ATOM      9  O   UNL     1      42.501  64.396  46.019  1.00  0.00    -0.550 OA
ATOM     10  O   UNL     1      40.473  63.986  47.002  1.00  0.00    -0.550 OA
ENDBRANCH   7   8
ENDBRANCH   6   7
ENDBRANCH   5   6
ENDBRANCH   4   5
ENDBRANCH   3   4
ENDBRANCH   2   3
ENDBRANCH   1   2
BRANCH   1  11
ATOM     11  C   UNL     1      45.199  65.250  51.830  1.00  0.00     0.000 C 
BRANCH  11  12
ATOM     12  C   UNL     1      43.972  65.878  52.507  1.00  0.00    -0.000 C 
BRANCH  12  13
ATOM     13  C   UNL     1      43.479  65.005  53.671  1.00  0.00    -0.000 C 
BRANCH  13  14
ATOM     14  C   UNL     1      42.004  65.283  54.029  1.00  0.00    -0.000 C 
BRANCH  14  15
ATOM     15  C   UNL     1      41.716  65.227  55.539  1.00  0.00    -0.000 C 
BRANCH  15  16
ATOM     16  C   UNL     1      42.996  65.203  56.391  1.00  0.00    -0.000 C 
BRANCH  16  17
ATOM     17  C   UNL     1      43.174  63.880  57.150  1.00  0.00    -0.003 C 
ATOM     18  C   UNL     1      44.329  63.039  56.607  1.00  0.00     0.004 C 
ENDBRANCH  16  17
ENDBRANCH  15  16
ENDBRANCH  14  15
ENDBRANCH  13  14
ENDBRANCH  12  13
ENDBRANCH  11  12
ENDBRANCH   1  11
TORSDOF 14
ENDMDL
MODEL 2
REMARK VINA RESULT:    -4.445      3.421      7.523
REMARK INTER + INTRA:          -9.001
REMARK INTER:                  -7.684
REMARK INTRA:                  -1.317
REMARK UNBOUND:                -0.918
REMARK SMILES CCCCCCCCCCCCCCCC(=O)[O-]
REMARK SMILES IDX 9 1 10 2 11 3 12 4 13 5 14 6 15 7 16 8 17 9 18 10 8 11 7 12
REMARK SMILES IDX 6 13 5 14 4 15 3 16 2 17 1 18
REMARK H PARENT
REMARK Flexibility Score: inf
ROOT
ATOM      1  C   UNL     1      43.579  66.814  48.772  1.00  0.00     0.000 C 
ENDROOT
BRANCH   1   2
ATOM      2  C   UNL     1      44.449  67.028  50.023  1.00  0.00     0.000 C 
BRANCH   2   3
ATOM      3  C   UNL     1      45.450  65.883  50.250  1.00  0.00     0.000 C 
BRANCH   3   4
ATOM      4  C   UNL     1      45.198  65.124  51.561  1.00  0.00     0.000 C 
BRANCH   4   5
ATOM      5  C   UNL     1      44.166  65.859  52.430  1.00  0.00     0.000 C 
BRANCH   5   6
ATOM      6  C   UNL     1      43.676  65.015  53.621  1.00  0.00     0.006 C 
BRANCH   6   7
ATOM      7  C   UNL     1      42.354  65.500  54.238  1.00  0.00     0.053 C 
BRANCH   7   8
ATOM      8  C   UNL     1      42.214  65.076  55.667  1.00  0.00     0.041 C 
ATOM      9  O   UNL     1      41.072  64.904  56.169  1.00  0.00    -0.550 OA
ATOM     10  O   UNL     1      43.345  64.901  56.454  1.00  0.00    -0.550 OA
ENDBRANCH   7   8
ENDBRANCH   6   7
ENDBRANCH   5   6
ENDBRANCH   4   5
ENDBRANCH   3   4
ENDBRANCH   2   3
ENDBRANCH   1   2
BRANCH   1  11
ATOM     11  C   UNL     1      42.564  67.949  48.557  1.00  0.00     0.000 C 
BRANCH  11  12
ATOM     12  C   UNL     1      41.297  67.782  49.410  1.00  0.00    -0.000 C 
BRANCH  12  13
ATOM     13  C   UNL     1      40.042  67.731  48.525  1.00  0.00    -0.000 C 
BRANCH  13  14
ATOM     14  C   UNL     1      40.234  66.828  47.288  1.00  0.00    -0.000 C 
BRANCH  14  15
ATOM     15  C   UNL     1      40.014  65.333  47.578  1.00  0.00    -0.000 C 
BRANCH  15  16
ATOM     16  C   UNL     1      40.949  64.423  46.764  1.00  0.00    -0.000 C 
BRANCH  16  17
ATOM     17  C   UNL     1      41.890  65.216  45.845  1.00  0.00    -0.003 C 
ATOM     18  C   UNL     1      43.276  64.580  45.730  1.00  0.00     0.004 C 
ENDBRANCH  16  17
ENDBRANCH  15  16
ENDBRANCH  14  15
ENDBRANCH  13  14
ENDBRANCH  12  13
ENDBRANCH  11  12
ENDBRANCH   1  11
TORSDOF 14
ENDMDL
MODEL 3
REMARK VINA RESULT:    -4.324      1.844      3.815
REMARK INTER + INTRA:          -8.781
REMARK INTER:                  -7.561
REMARK INTRA:                  -1.220
REMARK UNBOUND:                -0.918
REMARK SMILES CCCCCCCCCCCCCCCC(=O)[O-]
REMARK SMILES IDX 9 1 10 2 11 3 12 4 13 5 14 6 15 7 16 8 17 9 18 10 8 11 7 12
REMARK SMILES IDX 6 13 5 14 4 15 3 16 2 17 1 18
REMARK H PARENT
REMARK Flexibility Score: inf
ROOT
ATOM      1  C   UNL     1      42.000  67.771  49.542  1.00  0.00     0.000 C 
ENDROOT
BRANCH   1   2
ATOM      2  C   UNL     1      40.638  67.705  48.827  1.00  0.00     0.000 C 
BRANCH   2   3
ATOM      3  C   UNL     1      40.616  66.665  47.695  1.00  0.00     0.000 C 
BRANCH   3   4
ATOM      4  C   UNL     1      40.601  67.307  46.299  1.00  0.00     0.000 C 
BRANCH   4   5
ATOM      5  C   UNL     1      41.435  66.481  45.308  1.00  0.00     0.000 C 
BRANCH   5   6
ATOM      6  C   UNL     1      41.939  65.156  45.911  1.00  0.00     0.006 C 
BRANCH   6   7
ATOM      7  C   UNL     1      43.417  64.850  45.616  1.00  0.00     0.053 C 
BRANCH   7   8
ATOM      8  C   UNL     1      43.875  65.477  44.335  1.00  0.00     0.041 C 
ATOM      9  O   UNL     1      43.365  65.125  43.239  1.00  0.00    -0.550 OA
ATOM     10  O   UNL     1      44.888  66.427  44.350  1.00  0.00    -0.550 OA
ENDBRANCH   7   8
ENDBRANCH   6   7
ENDBRANCH   5   6
ENDBRANCH   4   5
ENDBRANCH   3   4
ENDBRANCH   2   3
ENDBRANCH   1   2
BRANCH   1  11
ATOM     11  C   UNL     1      43.183  67.749  48.560  1.00  0.00     0.000 C 
BRANCH  11  12
ATOM     12  C   UNL     1      44.227  66.678  48.913  1.00  0.00    -0.000 C 
BRANCH  12  13
ATOM     13  C   UNL     1      44.775  66.891  50.332  1.00  0.00    -0.000 C 
BRANCH  13  14
ATOM     14  C   UNL     1      45.397  65.606  50.919  1.00  0.00    -0.000 C 
BRANCH  14  15
ATOM     15  C   UNL     1      44.743  65.152  52.235  1.00  0.00    -0.000 C 
BRANCH  15  16
ATOM     16  C   UNL     1      43.703  66.154  52.763  1.00  0.00    -0.000 C 
BRANCH  16  17
ATOM     17  C   UNL     1      42.938  65.621  53.983  1.00  0.00    -0.003 C 
ATOM     18  C   UNL     1      43.563  64.352  54.563  1.00  0.00     0.004 C 
ENDBRANCH  16  17
ENDBRANCH  15  16
ENDBRANCH  14  15
ENDBRANCH  13  14
ENDBRANCH  12  13
ENDBRANCH  11  12
ENDBRANCH   1  11
TORSDOF 14
ENDMDL
MODEL 4
REMARK VINA RESULT:    -4.283      1.211      1.829
REMARK INTER + INTRA:          -8.707
REMARK INTER:                  -7.610
REMARK INTRA:                  -1.096
REMARK UNBOUND:                -0.918
REMARK SMILES CCCCCCCCCCCCCCCC(=O)[O-]
REMARK SMILES IDX 9 1 10 2 11 3 12 4 13 5 14 6 15 7 16 8 17 9 18 10 8 11 7 12
REMARK SMILES IDX 6 13 5 14 4 15 3 16 2 17 1 18
REMARK H PARENT
REMARK Flexibility Score: inf
ROOT
ATOM      1  C   UNL     1      45.481  65.684  50.649  1.00  0.00     0.000 C 
ENDROOT
BRANCH   1   2
ATOM      2  C   UNL     1      44.853  66.940  50.018  1.00  0.00     0.000 C 
BRANCH   2   3
ATOM      3  C   UNL     1      44.045  66.621  48.749  1.00  0.00     0.000 C 
BRANCH   3   4
ATOM      4  C   UNL     1      42.618  67.188  48.795  1.00  0.00     0.000 C 
BRANCH   4   5
ATOM      5  C   UNL     1      42.012  67.259  47.386  1.00  0.00     0.000 C 
BRANCH   5   6
ATOM      6  C   UNL     1      40.900  66.218  47.160  1.00  0.00     0.006 C 
BRANCH   6   7
ATOM      7  C   UNL     1      41.411  64.826  46.754  1.00  0.00     0.053 C 
BRANCH   7   8
ATOM      8  C   UNL     1      42.462  64.902  45.690  1.00  0.00     0.041 C 
ATOM      9  O   UNL     1      43.598  64.397  45.882  1.00  0.00    -0.550 OA
ATOM     10  O   UNL     1      42.194  65.562  44.496  1.00  0.00    -0.550 OA
ENDBRANCH   7   8
ENDBRANCH   6   7
ENDBRANCH   5   6
ENDBRANCH   4   5
ENDBRANCH   3   4
ENDBRANCH   2   3
ENDBRANCH   1   2
BRANCH   1  11
ATOM     11  C   UNL     1      44.824  65.305  51.987  1.00  0.00     0.000 C 
BRANCH  11  12
ATOM     12  C   UNL     1      43.910  66.411  52.534  1.00  0.00    -0.000 C 
BRANCH  12  13
ATOM     13  C   UNL     1      42.942  65.853  53.589  1.00  0.00    -0.000 C 
BRANCH  13  14
ATOM     14  C   UNL     1      43.457  64.542  54.220  1.00  0.00    -0.000 C 
BRANCH  14  15
ATOM     15  C   UNL     1      43.241  64.465  55.741  1.00  0.00    -0.000 C 
BRANCH  15  16
ATOM     16  C   UNL     1      42.137  65.415  56.236  1.00  0.00    -0.000 C 
BRANCH  16  17
ATOM     17  C   UNL     1      40.808  64.690  56.495  1.00  0.00    -0.003 C 
ATOM     18  C   UNL     1      39.869  64.732  55.289  1.00  0.00     0.004 C 
ENDBRANCH  16  17
ENDBRANCH  15  16
ENDBRANCH  14  15
ENDBRANCH  13  14
ENDBRANCH  12  13
ENDBRANCH  11  12
ENDBRANCH   1  11
TORSDOF 14
ENDMDL
MODEL 5
REMARK VINA RESULT:    -4.281      3.423      5.854
REMARK INTER + INTRA:          -8.704
REMARK INTER:                  -6.906
REMARK INTRA:                  -1.798
REMARK UNBOUND:                -0.918
REMARK SMILES CCCCCCCCCCCCCCCC(=O)[O-]
REMARK SMILES IDX 9 1 10 2 11 3 12 4 13 5 14 6 15 7 16 8 17 9 18 10 8 11 7 12
REMARK SMILES IDX 6 13 5 14 4 15 3 16 2 17 1 18
REMARK H PARENT
REMARK Flexibility Score: inf
ROOT
ATOM      1  C   UNL     1      40.857  64.514  46.879  1.00  0.00     0.000 C 
ENDROOT
BRANCH   1   2
ATOM      2  C   UNL     1      41.644  65.077  45.683  1.00  0.00     0.000 C 
BRANCH   2   3
ATOM      3  C   UNL     1      43.044  64.455  45.553  1.00  0.00     0.000 C 
BRANCH   3   4
ATOM      4  C   UNL     1      44.062  65.410  44.909  1.00  0.00     0.000 C 
BRANCH   4   5
ATOM      5  C   UNL     1      43.379  66.705  44.445  1.00  0.00     0.000 C 
BRANCH   5   6
ATOM      6  C   UNL     1      43.439  66.899  42.919  1.00  0.00     0.006 C 
BRANCH   6   7
ATOM      7  C   UNL     1      42.244  66.300  42.158  1.00  0.00     0.053 C 
BRANCH   7   8
ATOM      8  C   UNL     1      42.657  65.169  41.268  1.00  0.00     0.041 C 
ATOM      9  O   UNL     1      43.861  64.806  41.218  1.00  0.00    -0.550 OA
ATOM     10  O   UNL     1      41.714  64.536  40.467  1.00  0.00    -0.550 OA
ENDBRANCH   7   8
ENDBRANCH   6   7
ENDBRANCH   5   6
ENDBRANCH   4   5
ENDBRANCH   3   4
ENDBRANCH   2   3
ENDBRANCH   1   2
BRANCH   1  11
ATOM     11  C   UNL     1      40.181  65.616  47.712  1.00  0.00     0.000 C 
BRANCH  11  12
ATOM     12  C   UNL     1      40.674  67.024  47.345  1.00  0.00    -0.000 C 
BRANCH  12  13
ATOM     13  C   UNL     1      41.606  67.581  48.431  1.00  0.00    -0.000 C 
BRANCH  13  14
ATOM     14  C   UNL     1      43.063  67.717  47.939  1.00  0.00    -0.000 C 
BRANCH  14  15
ATOM     15  C   UNL     1      44.000  66.624  48.480  1.00  0.00    -0.000 C 
BRANCH  15  16
ATOM     16  C   UNL     1      44.360  66.825  49.961  1.00  0.00    -0.000 C 
BRANCH  16  17
ATOM     17  C   UNL     1      45.461  65.865  50.436  1.00  0.00    -0.003 C 
ATOM     18  C   UNL     1      45.117  65.180  51.758  1.00  0.00     0.004 C 
ENDBRANCH  16  17
ENDBRANCH  15  16
ENDBRANCH  14  15
ENDBRANCH  13  14
ENDBRANCH  12  13
ENDBRANCH  11  12
ENDBRANCH   1  11
TORSDOF 14
ENDMDL
MODEL 6
REMARK VINA RESULT:    -4.244      9.483     12.184
REMARK INTER + INTRA:          -8.635
REMARK INTER:                  -7.698
REMARK INTRA:                  -0.937
REMARK UNBOUND:                -0.918
REMARK SMILES CCCCCCCCCCCCCCCC(=O)[O-]
REMARK SMILES IDX 9 1 10 2 11 3 12 4 13 5 14 6 15 7 16 8 17 9 18 10 8 11 7 12
REMARK SMILES IDX 6 13 5 14 4 15 3 16 2 17 1 18
REMARK H PARENT
REMARK Flexibility Score: inf
ROOT
ATOM      1  C   UNL     1      36.380  61.500  55.766  1.00  0.00     0.000 C 
ENDROOT
BRANCH   1   2
ATOM      2  C   UNL     1      36.364  60.015  56.168  1.00  0.00     0.000 C 
BRANCH   2   3
ATOM      3  C   UNL     1      37.113  59.123  55.162  1.00  0.00     0.000 C 
BRANCH   3   4
ATOM      4  C   UNL     1      37.300  57.684  55.667  1.00  0.00     0.000 C 
BRANCH   4   5
ATOM      5  C   UNL     1      37.370  57.648  57.201  1.00  0.00     0.000 C 
BRANCH   5   6
ATOM      6  C   UNL     1      37.048  56.258  57.782  1.00  0.00     0.006 C 
BRANCH   6   7
ATOM      7  C   UNL     1      36.842  55.163  56.723  1.00  0.00     0.053 C 
BRANCH   7   8
ATOM      8  C   UNL     1      35.546  54.438  56.911  1.00  0.00     0.041 C 
ATOM      9  O   UNL     1      34.820  54.684  57.910  1.00  0.00    -0.550 OA
ATOM     10  O   UNL     1      35.155  53.465  56.000  1.00  0.00    -0.550 OA
ENDBRANCH   7   8
ENDBRANCH   6   7
ENDBRANCH   5   6
ENDBRANCH   4   5
ENDBRANCH   3   4
ENDBRANCH   2   3
ENDBRANCH   1   2
BRANCH   1  11
ATOM     11  C   UNL     1      37.778  62.130  55.890  1.00  0.00     0.000 C 
BRANCH  11  12
ATOM     12  C   UNL     1      37.729  63.599  56.340  1.00  0.00    -0.000 C 
BRANCH  12  13
ATOM     13  C   UNL     1      36.509  63.859  57.236  1.00  0.00    -0.000 C 
BRANCH  13  14
ATOM     14  C   UNL     1      35.623  65.004  56.702  1.00  0.00    -0.000 C 
BRANCH  14  15
ATOM     15  C   UNL     1      35.682  65.165  55.173  1.00  0.00    -0.000 C 
BRANCH  15  16
ATOM     16  C   UNL     1      34.667  66.191  54.641  1.00  0.00    -0.000 C 
BRANCH  16  17
ATOM     17  C   UNL     1      33.438  66.332  55.552  1.00  0.00    -0.003 C 
ATOM     18  C   UNL     1      32.133  66.452  54.766  1.00  0.00     0.004 C 
ENDBRANCH  16  17
ENDBRANCH  15  16
ENDBRANCH  14  15
ENDBRANCH  13  14
ENDBRANCH  12  13
ENDBRANCH  11  12
ENDBRANCH   1  11
TORSDOF 14
ENDMDL
MODEL 7
REMARK VINA RESULT:    -4.237      9.276     11.921
REMARK INTER + INTRA:          -8.622
REMARK INTER:                  -7.753
REMARK INTRA:                  -0.869
REMARK UNBOUND:                -0.918
REMARK SMILES CCCCCCCCCCCCCCCC(=O)[O-]
REMARK SMILES IDX 9 1 10 2 11 3 12 4 13 5 14 6 15 7 16 8 17 9 18 10 8 11 7 12
REMARK SMILES IDX 6 13 5 14 4 15 3 16 2 17 1 18
REMARK H PARENT
REMARK Flexibility Score: inf
ROOT
ATOM      1  C   UNL     1      36.344  63.627  55.273  1.00  0.00     0.000 C 
ENDROOT
BRANCH   1   2
ATOM      2  C   UNL     1      37.347  63.048  56.285  1.00  0.00     0.000 C 
BRANCH   2   3
ATOM      3  C   UNL     1      36.908  61.681  56.835  1.00  0.00     0.000 C 
BRANCH   3   4
ATOM      4  C   UNL     1      36.224  60.805  55.775  1.00  0.00     0.000 C 
BRANCH   4   5
ATOM      5  C   UNL     1      36.974  59.477  55.594  1.00  0.00     0.000 C 
BRANCH   5   6
ATOM      6  C   UNL     1      37.300  58.788  56.932  1.00  0.00     0.006 C 
BRANCH   6   7
ATOM      7  C   UNL     1      37.881  57.372  56.788  1.00  0.00     0.053 C 
BRANCH   7   8
ATOM      8  C   UNL     1      36.877  56.316  57.134  1.00  0.00     0.041 C 
ATOM      9  O   UNL     1      36.059  56.501  58.072  1.00  0.00    -0.550 OA
ATOM     10  O   UNL     1      36.868  55.112  56.439  1.00  0.00    -0.550 OA
ENDBRANCH   7   8
ENDBRANCH   6   7
ENDBRANCH   5   6
ENDBRANCH   4   5
ENDBRANCH   3   4
ENDBRANCH   2   3
ENDBRANCH   1   2
BRANCH   1  11
ATOM     11  C   UNL     1      36.081  65.126  55.494  1.00  0.00     0.000 C 
BRANCH  11  12
ATOM     12  C   UNL     1      34.613  65.513  55.261  1.00  0.00    -0.000 C 
BRANCH  12  13
ATOM     13  C   UNL     1      34.203  66.684  56.166  1.00  0.00    -0.000 C 
BRANCH  13  14
ATOM     14  C   UNL     1      32.752  67.145  55.907  1.00  0.00    -0.000 C 
BRANCH  14  15
ATOM     15  C   UNL     1      32.020  66.304  54.848  1.00  0.00    -0.000 C 
BRANCH  15  16
ATOM     16  C   UNL     1      31.604  67.124  53.616  1.00  0.00    -0.000 C 
BRANCH  16  17
ATOM     17  C   UNL     1      32.767  67.939  53.030  1.00  0.00    -0.003 C 
ATOM     18  C   UNL     1      33.397  67.271  51.807  1.00  0.00     0.004 C 
ENDBRANCH  16  17
ENDBRANCH  15  16
ENDBRANCH  14  15
ENDBRANCH  13  14
ENDBRANCH  12  13
ENDBRANCH  11  12
ENDBRANCH   1  11
TORSDOF 14
ENDMDL
MODEL 8
REMARK VINA RESULT:    -4.223      9.935     12.964
REMARK INTER + INTRA:          -8.597
REMARK INTER:                  -7.926
REMARK INTRA:                  -0.671
REMARK UNBOUND:                -0.918
REMARK SMILES CCCCCCCCCCCCCCCC(=O)[O-]
REMARK SMILES IDX 9 1 10 2 11 3 12 4 13 5 14 6 15 7 16 8 17 9 18 10 8 11 7 12
REMARK SMILES IDX 6 13 5 14 4 15 3 16 2 17 1 18
REMARK H PARENT
REMARK Flexibility Score: inf
ROOT
ATOM      1  C   UNL     1      37.099  59.420  55.387  1.00  0.00     0.000 C 
ENDROOT
BRANCH   1   2
ATOM      2  C   UNL     1      37.231  57.901  55.591  1.00  0.00     0.000 C 
BRANCH   2   3
ATOM      3  C   UNL     1      37.895  57.540  56.930  1.00  0.00     0.000 C 
BRANCH   3   4
ATOM      4  C   UNL     1      37.075  56.532  57.749  1.00  0.00     0.000 C 
BRANCH   4   5
ATOM      5  C   UNL     1      36.679  55.322  56.889  1.00  0.00     0.000 C 
BRANCH   5   6
ATOM      6  C   UNL     1      35.456  54.569  57.444  1.00  0.00     0.006 C 
BRANCH   6   7
ATOM      7  C   UNL     1      35.347  53.108  56.975  1.00  0.00     0.053 C 
BRANCH   7   8
ATOM      8  C   UNL     1      34.494  52.974  55.753  1.00  0.00     0.041 C 
ATOM      9  O   UNL     1      33.611  53.834  55.497  1.00  0.00    -0.550 OA
ATOM     10  O   UNL     1      34.652  51.879  54.912  1.00  0.00    -0.550 OA
ENDBRANCH   7   8
ENDBRANCH   6   7
ENDBRANCH   5   6
ENDBRANCH   4   5
ENDBRANCH   3   4
ENDBRANCH   2   3
ENDBRANCH   1   2
BRANCH   1  11
ATOM     11  C   UNL     1      36.156  60.074  56.412  1.00  0.00     0.000 C 
BRANCH  11  12
ATOM     12  C   UNL     1      36.499  61.547  56.680  1.00  0.00    -0.000 C 
BRANCH  12  13
ATOM     13  C   UNL     1      36.197  62.415  55.449  1.00  0.00    -0.000 C 
BRANCH  13  14
ATOM     14  C   UNL     1      35.992  63.900  55.815  1.00  0.00    -0.000 C 
BRANCH  14  15
ATOM     15  C   UNL     1      36.268  64.865  54.650  1.00  0.00    -0.000 C 
BRANCH  15  16
ATOM     16  C   UNL     1      35.218  65.983  54.538  1.00  0.00    -0.000 C 
BRANCH  16  17
ATOM     17  C   UNL     1      34.122  65.871  55.608  1.00  0.00    -0.003 C 
ATOM     18  C   UNL     1      32.739  66.247  55.077  1.00  0.00     0.004 C 
ENDBRANCH  16  17
ENDBRANCH  15  16
ENDBRANCH  14  15
ENDBRANCH  13  14
ENDBRANCH  12  13
ENDBRANCH  11  12
ENDBRANCH   1  11
TORSDOF 14
ENDMDL
MODEL 9
REMARK VINA RESULT:    -4.177      3.323      8.005
REMARK INTER + INTRA:          -8.515
REMARK INTER:                  -7.450
REMARK INTRA:                  -1.065
REMARK UNBOUND:                -0.918
REMARK SMILES CCCCCCCCCCCCCCCC(=O)[O-]
REMARK SMILES IDX 9 1 10 2 11 3 12 4 13 5 14 6 15 7 16 8 17 9 18 10 8 11 7 12
REMARK SMILES IDX 6 13 5 14 4 15 3 16 2 17 1 18
REMARK H PARENT
REMARK Flexibility Score: inf
ROOT
ATOM      1  C   UNL     1      44.763  65.393  52.184  1.00  0.00     0.000 C 
ENDROOT
BRANCH   1   2
ATOM      2  C   UNL     1      43.650  66.257  52.803  1.00  0.00     0.000 C 
BRANCH   2   3
ATOM      3  C   UNL     1      42.904  65.535  53.937  1.00  0.00     0.000 C 
BRANCH   3   4
ATOM      4  C   UNL     1      43.617  64.254  54.397  1.00  0.00     0.000 C 
BRANCH   4   5
ATOM      5  C   UNL     1      43.601  64.140  55.929  1.00  0.00     0.000 C 
BRANCH   5   6
ATOM      6  C   UNL     1      42.616  65.121  56.591  1.00  0.00     0.006 C 
BRANCH   6   7
ATOM      7  C   UNL     1      41.545  64.448  57.465  1.00  0.00     0.053 C 
BRANCH   7   8
ATOM      8  C   UNL     1      40.257  64.258  56.726  1.00  0.00     0.041 C 
ATOM      9  O   UNL     1      39.497  63.296  57.013  1.00  0.00    -0.550 OA
ATOM     10  O   UNL     1      39.912  65.124  55.696  1.00  0.00    -0.550 OA
ENDBRANCH   7   8
ENDBRANCH   6   7
ENDBRANCH   5   6
ENDBRANCH   4   5
ENDBRANCH   3   4
ENDBRANCH   2   3
ENDBRANCH   1   2
BRANCH   1  11
ATOM     11  C   UNL     1      45.222  65.916  50.813  1.00  0.00     0.000 C 
BRANCH  11  12
ATOM     12  C   UNL     1      44.614  67.283  50.464  1.00  0.00    -0.000 C 
BRANCH  12  13
ATOM     13  C   UNL     1      43.719  67.186  49.220  1.00  0.00    -0.000 C 
BRANCH  13  14
ATOM     14  C   UNL     1      44.356  66.329  48.106  1.00  0.00    -0.000 C 
BRANCH  14  15
ATOM     15  C   UNL     1      43.400  66.028  46.939  1.00  0.00    -0.000 C 
BRANCH  15  16
ATOM     16  C   UNL     1      42.042  66.737  47.080  1.00  0.00    -0.000 C 
BRANCH  16  17
ATOM     17  C   UNL     1      40.871  65.750  47.191  1.00  0.00    -0.003 C 
ATOM     18  C   UNL     1      41.158  64.415  46.502  1.00  0.00     0.004 C 
ENDBRANCH  16  17
ENDBRANCH  15  16
ENDBRANCH  14  15
ENDBRANCH  13  14
ENDBRANCH  12  13
ENDBRANCH  11  12
ENDBRANCH   1  11
TORSDOF 14
ENDMDL
