MODEL 1
REMARK VINA RESULT:    -2.949      0.000      0.000
REMARK INTER + INTRA:          -4.858
REMARK INTER:                  -4.500
REMARK INTRA:                  -0.358
REMARK UNBOUND:                -0.358
REMARK SMILES CC1=CCC[C@H](C)C(=O)C[C@@H](C(C)C)C(=O)C1
REMARK SMILES IDX 8 1 9 2 6 3 7 4 5 5 4 6 3 7 2 8 1 9 10 11 11 12 15 13 16 14
REMARK SMILES IDX 17 15 12 17 13 18 14 19
REMARK H PARENT
REMARK Flexibility Score: 70.00
ROOT
ATOM      1  C   UNL     1      -6.801  30.481  57.562  1.00  0.00     0.136 C 
ATOM      2  O   UNL     1      -6.361  31.103  58.520  1.00  0.00    -0.299 OA
ENDROOT
BRANCH   1   3
ATOM      3  C   UNL     1      -6.292  29.086  57.276  1.00  0.00     0.053 C 
ATOM      4  C   UNL     1      -5.195  28.710  58.279  1.00  0.00     0.016 C 
BRANCH   3   5
ATOM      5  C   UNL     1      -7.435  28.052  57.306  1.00  0.00     0.015 C 
BRANCH   5   6
ATOM      6  C   UNL     1      -7.796  27.516  55.904  1.00  0.00     0.028 C 
BRANCH   6   7
ATOM      7  C   UNL     1      -9.287  27.315  55.755  1.00  0.00    -0.028 C 
ATOM      8  C   UNL     1     -10.200  28.212  55.309  1.00  0.00    -0.070 CG0
ATOM      9  C   UNL     1     -11.630  27.744  55.191  1.00  0.00     0.039 C 
ATOM     10  G   UNL     1      -9.888  29.651  54.932  1.00  0.00     0.000 G0
ENDBRANCH   6   7
ENDBRANCH   5   6
ENDBRANCH   3   5
ENDBRANCH   1   3
BRANCH   1  11
ATOM     11  C   UNL     1      -7.787  31.128  56.617  1.00  0.00     0.087 C 
BRANCH  11  12
ATOM     12  C   UNL     1      -9.256  31.057  57.109  1.00  0.00     0.066 C 
BRANCH  12  13
ATOM     13  C   UNL     1     -10.242  30.614  56.036  1.00  0.00     0.140 C 
ATOM     14  O   UNL     1     -11.356  31.117  56.040  1.00  0.00    -0.299 OA
BRANCH  13  15
ATOM     15  C   UNL     1      -9.888  29.656  54.920  1.00  0.00     0.106 CG0
ATOM     16  G   UNL     1     -10.197  28.220  55.309  1.00  0.00     0.000 G0
ENDBRANCH  13  15
ENDBRANCH  12  13
BRANCH  12  17
ATOM     17  C   UNL     1      -9.752  32.352  57.823  1.00  0.00    -0.006 C 
ATOM     18  C   UNL     1      -8.989  33.623  57.416  1.00  0.00     0.008 C 
ATOM     19  C   UNL     1      -9.749  32.205  59.354  1.00  0.00     0.008 C 
ENDBRANCH  12  17
ENDBRANCH  11  12
ENDBRANCH   1  11
TORSDOF 1
ENDMDL
MODEL 2
REMARK VINA RESULT:    -2.761     15.208     16.518
REMARK INTER + INTRA:          -4.571
REMARK INTER:                  -4.268
REMARK INTRA:                  -0.303
REMARK UNBOUND:                -0.358
REMARK SMILES CC1=CCC[C@H](C)C(=O)C[C@@H](C(C)C)C(=O)C1
REMARK SMILES IDX 8 1 9 2 6 3 7 4 5 5 4 6 3 7 2 8 1 9 10 11 11 12 15 13 16 14
REMARK SMILES IDX 17 15 12 17 13 18 14 19
REMARK H PARENT
REMARK Flexibility Score: 70.00
ROOT
ATOM      1  C   UNL     1      -4.835  33.883  42.612  1.00  0.00     0.136 C 
ATOM      2  O   UNL     1      -4.396  32.755  42.792  1.00  0.00    -0.299 OA
ENDROOT
BRANCH   1   3
ATOM      3  C   UNL     1      -5.875  34.441  43.558  1.00  0.00     0.053 C 
ATOM      4  C   UNL     1      -7.125  33.553  43.551  1.00  0.00     0.016 C 
BRANCH   3   5
ATOM      5  C   UNL     1      -5.317  34.586  44.987  1.00  0.00     0.015 C 
BRANCH   5   6
ATOM      6  C   UNL     1      -4.668  35.964  45.241  1.00  0.00     0.028 C 
BRANCH   6   7
ATOM      7  C   UNL     1      -5.495  37.083  44.651  1.00  0.00    -0.028 C 
ATOM      8  C   UNL     1      -5.137  37.941  43.665  1.00  0.00    -0.070 CG0
ATOM      9  C   UNL     1      -6.174  38.937  43.204  1.00  0.00     0.039 C 
ATOM     10  G   UNL     1      -3.770  37.977  43.002  1.00  0.00     0.000 G0
ENDBRANCH   6   7
ENDBRANCH   5   6
ENDBRANCH   3   5
ENDBRANCH   1   3
BRANCH   1  11
ATOM     11  C   UNL     1      -4.407  34.688  41.408  1.00  0.00     0.087 C 
BRANCH  11  12
ATOM     12  C   UNL     1      -3.261  35.690  41.707  1.00  0.00     0.066 C 
BRANCH  12  13
ATOM     13  C   UNL     1      -3.708  37.146  41.727  1.00  0.00     0.140 C 
ATOM     14  O   UNL     1      -4.117  37.634  40.683  1.00  0.00    -0.299 OA
BRANCH  13  15
ATOM     15  C   UNL     1      -3.756  37.987  42.983  1.00  0.00     0.106 CG0
ATOM     16  G   UNL     1      -5.131  37.936  43.628  1.00  0.00     0.000 G0
ENDBRANCH  13  15
ENDBRANCH  12  13
BRANCH  12  17
ATOM     17  C   UNL     1      -2.002  35.505  40.805  1.00  0.00    -0.006 C 
ATOM     18  C   UNL     1      -1.338  34.125  40.931  1.00  0.00     0.008 C 
ATOM     19  C   UNL     1      -0.960  36.613  41.034  1.00  0.00     0.008 C 
ENDBRANCH  12  17
ENDBRANCH  11  12
ENDBRANCH   1  11
TORSDOF 1
ENDMDL
MODEL 3
REMARK VINA RESULT:    -2.756     12.724     14.237
REMARK INTER + INTRA:          -4.564
REMARK INTER:                  -4.297
REMARK INTRA:                  -0.267
REMARK UNBOUND:                -0.358
REMARK SMILES CC1=CCC[C@H](C)C(=O)C[C@@H](C(C)C)C(=O)C1
REMARK SMILES IDX 8 1 9 2 6 3 7 4 5 5 4 6 3 7 2 8 1 9 10 11 11 12 15 13 16 14
REMARK SMILES IDX 17 15 12 17 13 18 14 19
REMARK H PARENT
REMARK Flexibility Score: 70.00
ROOT
ATOM      1  C   UNL     1      -5.083  33.972  43.071  1.00  0.00     0.136 C 
ATOM      2  O   UNL     1      -4.989  33.563  41.921  1.00  0.00    -0.299 OA
ENDROOT
BRANCH   1   3
ATOM      3  C   UNL     1      -4.157  35.064  43.556  1.00  0.00     0.053 C 
ATOM      4  C   UNL     1      -2.696  34.645  43.353  1.00  0.00     0.016 C 
BRANCH   3   5
ATOM      5  C   UNL     1      -4.443  36.402  42.846  1.00  0.00     0.015 C 
BRANCH   5   6
ATOM      6  C   UNL     1      -5.615  37.180  43.481  1.00  0.00     0.028 C 
BRANCH   6   7
ATOM      7  C   UNL     1      -5.502  37.220  44.988  1.00  0.00    -0.028 C 
ATOM      8  C   UNL     1      -6.411  36.788  45.895  1.00  0.00    -0.070 CG0
ATOM      9  C   UNL     1      -6.032  36.879  47.353  1.00  0.00     0.039 C 
ATOM     10  G   UNL     1      -7.782  36.231  45.550  1.00  0.00     0.000 G0
ENDBRANCH   6   7
ENDBRANCH   5   6
ENDBRANCH   3   5
ENDBRANCH   1   3
BRANCH   1  11
ATOM     11  C   UNL     1      -6.062  33.337  44.032  1.00  0.00     0.087 C 
BRANCH  11  12
ATOM     12  C   UNL     1      -7.447  34.034  44.057  1.00  0.00     0.066 C 
BRANCH  12  13
ATOM     13  C   UNL     1      -7.768  34.711  45.383  1.00  0.00     0.140 C 
ATOM     14  O   UNL     1      -7.938  34.001  46.363  1.00  0.00    -0.299 OA
BRANCH  13  15
ATOM     15  C   UNL     1      -7.800  36.213  45.568  1.00  0.00     0.106 CG0
ATOM     16  G   UNL     1      -6.420  36.756  45.899  1.00  0.00     0.000 G0
ENDBRANCH  13  15
ENDBRANCH  12  13
BRANCH  12  17
ATOM     17  C   UNL     1      -8.626  33.125  43.595  1.00  0.00    -0.006 C 
ATOM     18  C   UNL     1      -8.604  31.713  44.202  1.00  0.00     0.008 C 
ATOM     19  C   UNL     1      -8.720  33.036  42.062  1.00  0.00     0.008 C 
ENDBRANCH  12  17
ENDBRANCH  11  12
ENDBRANCH   1  11
TORSDOF 1
ENDMDL
MODEL 4
REMARK VINA RESULT:    -2.729      1.895      4.247
REMARK INTER + INTRA:          -4.523
REMARK INTER:                  -4.599
REMARK INTRA:                   0.076
REMARK UNBOUND:                -0.358
REMARK SMILES CC1=CCC[C@H](C)C(=O)C[C@@H](C(C)C)C(=O)C1
REMARK SMILES IDX 8 1 9 2 6 3 7 4 5 5 4 6 3 7 2 8 1 9 10 11 11 12 15 13 16 14
REMARK SMILES IDX 17 15 12 17 13 18 14 19
REMARK H PARENT
REMARK Flexibility Score: 70.00
ROOT
ATOM      1  C   UNL     1      -6.188  29.571  58.153  1.00  0.00     0.136 C 
ATOM      2  O   UNL     1      -5.108  29.104  57.815  1.00  0.00    -0.299 OA
ENDROOT
BRANCH   1   3
ATOM      3  C   UNL     1      -6.246  30.593  59.266  1.00  0.00     0.053 C 
ATOM      4  C   UNL     1      -4.859  31.208  59.489  1.00  0.00     0.016 C 
BRANCH   3   5
ATOM      5  C   UNL     1      -7.288  31.690  58.970  1.00  0.00     0.015 C 
BRANCH   5   6
ATOM      6  C   UNL     1      -6.959  32.503  57.701  1.00  0.00     0.028 C 
BRANCH   6   7
ATOM      7  C   UNL     1      -8.195  33.154  57.123  1.00  0.00    -0.028 C 
ATOM      8  C   UNL     1      -9.312  32.539  56.664  1.00  0.00    -0.070 CG0
ATOM      9  C   UNL     1     -10.444  33.420  56.193  1.00  0.00     0.039 C 
ATOM     10  G   UNL     1      -9.500  31.033  56.581  1.00  0.00     0.000 G0
ENDBRANCH   6   7
ENDBRANCH   5   6
ENDBRANCH   3   5
ENDBRANCH   1   3
BRANCH   1  11
ATOM     11  C   UNL     1      -7.468  29.073  57.524  1.00  0.00     0.087 C 
BRANCH  11  12
ATOM     12  C   UNL     1      -7.545  29.320  55.995  1.00  0.00     0.066 C 
BRANCH  12  13
ATOM     13  C   UNL     1      -8.560  30.382  55.595  1.00  0.00     0.140 C 
ATOM     14  O   UNL     1      -8.640  30.682  54.412  1.00  0.00    -0.299 OA
BRANCH  13  15
ATOM     15  C   UNL     1      -9.531  31.017  56.566  1.00  0.00     0.106 CG0
ATOM     16  G   UNL     1      -9.315  32.519  56.657  1.00  0.00     0.000 G0
ENDBRANCH  13  15
ENDBRANCH  12  13
BRANCH  12  17
ATOM     17  C   UNL     1      -7.730  28.023  55.148  1.00  0.00    -0.006 C 
ATOM     18  C   UNL     1      -9.071  27.309  55.383  1.00  0.00     0.008 C 
ATOM     19  C   UNL     1      -6.567  27.036  55.343  1.00  0.00     0.008 C 
ENDBRANCH  12  17
ENDBRANCH  11  12
ENDBRANCH   1  11
TORSDOF 1
ENDMDL
MODEL 5
REMARK VINA RESULT:    -2.688     14.389     15.698
REMARK INTER + INTRA:          -4.460
REMARK INTER:                  -4.492
REMARK INTRA:                   0.032
REMARK UNBOUND:                -0.358
REMARK SMILES CC1=CCC[C@H](C)C(=O)C[C@@H](C(C)C)C(=O)C1
REMARK SMILES IDX 8 1 9 2 6 3 7 4 5 5 4 6 3 7 2 8 1 9 10 11 11 12 15 13 16 14
REMARK SMILES IDX 17 15 12 17 13 18 14 19
REMARK H PARENT
REMARK Flexibility Score: 70.00
ROOT
ATOM      1  C   UNL     1      -1.671  28.505  44.470  1.00  0.00     0.136 C 
ATOM      2  O   UNL     1      -0.704  28.484  45.219  1.00  0.00    -0.299 OA
ENDROOT
BRANCH   1   3
ATOM      3  C   UNL     1      -3.064  28.360  45.041  1.00  0.00     0.053 C 
ATOM      4  C   UNL     1      -3.215  26.995  45.722  1.00  0.00     0.016 C 
BRANCH   3   5
ATOM      5  C   UNL     1      -3.391  29.500  46.025  1.00  0.00     0.015 C 
BRANCH   5   6
ATOM      6  C   UNL     1      -3.838  30.796  45.316  1.00  0.00     0.028 C 
BRANCH   6   7
ATOM      7  C   UNL     1      -2.723  31.816  45.271  1.00  0.00    -0.028 C 
ATOM      8  C   UNL     1      -1.977  32.174  44.198  1.00  0.00    -0.070 CG0
ATOM      9  C   UNL     1      -0.960  33.272  44.398  1.00  0.00     0.039 C 
ATOM     10  G   UNL     1      -2.082  31.544  42.819  1.00  0.00     0.000 G0
ENDBRANCH   6   7
ENDBRANCH   5   6
ENDBRANCH   3   5
ENDBRANCH   1   3
BRANCH   1  11
ATOM     11  C   UNL     1      -1.478  28.593  42.974  1.00  0.00     0.087 C 
BRANCH  11  12
ATOM     12  C   UNL     1      -0.322  29.536  42.551  1.00  0.00     0.066 C 
BRANCH  12  13
ATOM     13  C   UNL     1      -0.757  30.978  42.325  1.00  0.00     0.140 C 
ATOM     14  O   UNL     1      -0.028  31.698  41.660  1.00  0.00    -0.299 OA
BRANCH  13  15
ATOM     15  C   UNL     1      -2.080  31.535  42.804  1.00  0.00     0.106 CG0
ATOM     16  G   UNL     1      -1.953  32.137  44.194  1.00  0.00     0.000 G0
ENDBRANCH  13  15
ENDBRANCH  12  13
BRANCH  12  17
ATOM     17  C   UNL     1       0.519  29.012  41.347  1.00  0.00    -0.006 C 
ATOM     18  C   UNL     1       0.268  27.535  41.003  1.00  0.00     0.008 C 
ATOM     19  C   UNL     1       2.025  29.256  41.545  1.00  0.00     0.008 C 
ENDBRANCH  12  17
ENDBRANCH  11  12
ENDBRANCH   1  11
TORSDOF 1
ENDMDL
MODEL 6
REMARK VINA RESULT:    -2.595     15.116     16.305
REMARK INTER + INTRA:          -4.318
REMARK INTER:                  -4.197
REMARK INTRA:                  -0.122
REMARK UNBOUND:                -0.358
REMARK SMILES CC1=CCC[C@H](C)C(=O)C[C@@H](C(C)C)C(=O)C1
REMARK SMILES IDX 8 1 9 2 6 3 7 4 5 5 4 6 3 7 2 8 1 9 10 11 11 12 15 13 16 14
REMARK SMILES IDX 17 15 12 17 13 18 14 19
REMARK H PARENT
REMARK Flexibility Score: 70.00
ROOT
ATOM      1  C   UNL     1      -4.929  34.422  42.701  1.00  0.00     0.136 C 
ATOM      2  O   UNL     1      -5.606  33.476  42.320  1.00  0.00    -0.299 OA
ENDROOT
BRANCH   1   3
ATOM      3  C   UNL     1      -3.696  34.821  41.923  1.00  0.00     0.053 C 
ATOM      4  C   UNL     1      -2.793  33.602  41.704  1.00  0.00     0.016 C 
BRANCH   3   5
ATOM      5  C   UNL     1      -4.066  35.474  40.576  1.00  0.00     0.015 C 
BRANCH   5   6
ATOM      6  C   UNL     1      -3.984  37.015  40.614  1.00  0.00     0.028 C 
BRANCH   6   7
ATOM      7  C   UNL     1      -2.798  37.487  41.424  1.00  0.00    -0.028 C 
ATOM      8  C   UNL     1      -2.818  38.176  42.590  1.00  0.00    -0.070 CG0
ATOM      9  C   UNL     1      -1.489  38.477  43.240  1.00  0.00     0.039 C 
ATOM     10  G   UNL     1      -4.077  38.675  43.281  1.00  0.00     0.000 G0
ENDBRANCH   6   7
ENDBRANCH   5   6
ENDBRANCH   3   5
ENDBRANCH   1   3
BRANCH   1  11
ATOM     11  C   UNL     1      -5.271  35.139  43.987  1.00  0.00     0.087 C 
BRANCH  11  12
ATOM     12  C   UNL     1      -5.707  36.613  43.777  1.00  0.00     0.066 C 
BRANCH  12  13
ATOM     13  C   UNL     1      -4.662  37.630  44.217  1.00  0.00     0.140 C 
ATOM     14  O   UNL     1      -4.220  37.542  45.353  1.00  0.00    -0.299 OA
BRANCH  13  15
ATOM     15  C   UNL     1      -4.082  38.682  43.297  1.00  0.00     0.106 CG0
ATOM     16  G   UNL     1      -2.832  38.174  42.599  1.00  0.00     0.000 G0
ENDBRANCH  13  15
ENDBRANCH  12  13
BRANCH  12  17
ATOM     17  C   UNL     1      -7.105  36.954  44.377  1.00  0.00    -0.006 C 
ATOM     18  C   UNL     1      -7.273  38.429  44.775  1.00  0.00     0.008 C 
ATOM     19  C   UNL     1      -7.461  36.046  45.566  1.00  0.00     0.008 C 
ENDBRANCH  12  17
ENDBRANCH  11  12
ENDBRANCH   1  11
TORSDOF 1
ENDMDL
MODEL 7
REMARK VINA RESULT:    -2.506     13.364     14.809
REMARK INTER + INTRA:          -4.183
REMARK INTER:                  -3.963
REMARK INTRA:                  -0.221
REMARK UNBOUND:                -0.358
REMARK SMILES CC1=CCC[C@H](C)C(=O)C[C@@H](C(C)C)C(=O)C1
REMARK SMILES IDX 8 1 9 2 6 3 7 4 5 5 4 6 3 7 2 8 1 9 10 11 11 12 15 13 16 14
REMARK SMILES IDX 17 15 12 17 13 18 14 19
REMARK H PARENT
REMARK Flexibility Score: 70.00
ROOT
ATOM      1  C   UNL     1      -4.819  38.400  43.633  1.00  0.00     0.136 C 
ATOM      2  O   UNL     1      -4.365  38.624  42.519  1.00  0.00    -0.299 OA
ENDROOT
BRANCH   1   3
ATOM      3  C   UNL     1      -5.593  39.478  44.358  1.00  0.00     0.053 C 
ATOM      4  C   UNL     1      -6.872  39.819  43.585  1.00  0.00     0.016 C 
BRANCH   3   5
ATOM      5  C   UNL     1      -5.925  39.059  45.804  1.00  0.00     0.015 C 
BRANCH   5   6
ATOM      6  C   UNL     1      -7.370  38.541  45.962  1.00  0.00     0.028 C 
BRANCH   6   7
ATOM      7  C   UNL     1      -7.428  37.323  46.855  1.00  0.00    -0.028 C 
ATOM      8  C   UNL     1      -7.437  36.022  46.476  1.00  0.00    -0.070 CG0
ATOM      9  C   UNL     1      -7.433  34.982  47.570  1.00  0.00     0.039 C 
ATOM     10  G   UNL     1      -7.463  35.540  45.035  1.00  0.00     0.000 G0
ENDBRANCH   6   7
ENDBRANCH   5   6
ENDBRANCH   3   5
ENDBRANCH   1   3
BRANCH   1  11
ATOM     11  C   UNL     1      -4.544  37.083  44.321  1.00  0.00     0.087 C 
BRANCH  11  12
ATOM     12  C   UNL     1      -5.214  35.868  43.628  1.00  0.00     0.066 C 
BRANCH  12  13
ATOM     13  C   UNL     1      -6.117  35.058  44.548  1.00  0.00     0.140 C 
ATOM     14  O   UNL     1      -5.688  34.001  44.987  1.00  0.00    -0.299 OA
BRANCH  13  15
ATOM     15  C   UNL     1      -7.476  35.533  45.015  1.00  0.00     0.106 CG0
ATOM     16  G   UNL     1      -7.424  36.020  46.453  1.00  0.00     0.000 G0
ENDBRANCH  13  15
ENDBRANCH  12  13
BRANCH  12  17
ATOM     17  C   UNL     1      -4.219  34.941  42.865  1.00  0.00    -0.006 C 
ATOM     18  C   UNL     1      -2.747  35.144  43.258  1.00  0.00     0.008 C 
ATOM     19  C   UNL     1      -4.376  35.057  41.339  1.00  0.00     0.008 C 
ENDBRANCH  12  17
ENDBRANCH  11  12
ENDBRANCH   1  11
TORSDOF 1
ENDMDL
MODEL 8
REMARK VINA RESULT:    -2.458     14.323     15.486
REMARK INTER + INTRA:          -4.109
REMARK INTER:                  -3.732
REMARK INTRA:                  -0.377
REMARK UNBOUND:                -0.358
REMARK SMILES CC1=CCC[C@H](C)C(=O)C[C@@H](C(C)C)C(=O)C1
REMARK SMILES IDX 8 1 9 2 6 3 7 4 5 5 4 6 3 7 2 8 1 9 10 11 11 12 15 13 16 14
REMARK SMILES IDX 17 15 12 17 13 18 14 19
REMARK H PARENT
REMARK Flexibility Score: 70.00
ROOT
ATOM      1  C   UNL     1       0.123  29.521  42.790  1.00  0.00     0.136 C 
ATOM      2  O   UNL     1      -0.525  29.572  41.753  1.00  0.00    -0.299 OA
ENDROOT
BRANCH   1   3
ATOM      3  C   UNL     1       1.631  29.623  42.737  1.00  0.00     0.053 C 
ATOM      4  C   UNL     1       2.109  29.605  41.280  1.00  0.00     0.016 C 
BRANCH   3   5
ATOM      5  C   UNL     1       2.137  30.887  43.461  1.00  0.00     0.015 C 
BRANCH   5   6
ATOM      6  C   UNL     1       2.732  30.583  44.852  1.00  0.00     0.028 C 
BRANCH   6   7
ATOM      7  C   UNL     1       2.325  31.626  45.868  1.00  0.00    -0.028 C 
ATOM      8  C   UNL     1       1.329  31.541  46.783  1.00  0.00    -0.070 CG0
ATOM      9  C   UNL     1       1.163  32.701  47.736  1.00  0.00     0.039 C 
ATOM     10  G   UNL     1       0.366  30.373  46.909  1.00  0.00     0.000 G0
ENDBRANCH   6   7
ENDBRANCH   5   6
ENDBRANCH   3   5
ENDBRANCH   1   3
BRANCH   1  11
ATOM     11  C   UNL     1      -0.566  29.277  44.113  1.00  0.00     0.087 C 
BRANCH  11  12
ATOM     12  C   UNL     1      -1.181  30.557  44.737  1.00  0.00     0.066 C 
BRANCH  12  13
ATOM     13  C   UNL     1      -0.963  30.671  46.240  1.00  0.00     0.140 C 
ATOM     14  O   UNL     1      -1.927  30.948  46.939  1.00  0.00    -0.299 OA
BRANCH  13  15
ATOM     15  C   UNL     1       0.357  30.375  46.918  1.00  0.00     0.106 CG0
ATOM     16  G   UNL     1       1.325  31.536  46.768  1.00  0.00     0.000 G0
ENDBRANCH  13  15
ENDBRANCH  12  13
BRANCH  12  17
ATOM     17  C   UNL     1      -2.679  30.787  44.371  1.00  0.00    -0.006 C 
ATOM     18  C   UNL     1      -3.431  29.507  43.974  1.00  0.00     0.008 C 
ATOM     19  C   UNL     1      -2.849  31.856  43.279  1.00  0.00     0.008 C 
ENDBRANCH  12  17
ENDBRANCH  11  12
ENDBRANCH   1  11
TORSDOF 1
ENDMDL
MODEL 9
REMARK VINA RESULT:    -2.384     10.231     12.149
REMARK INTER + INTRA:          -3.997
REMARK INTER:                  -3.707
REMARK INTRA:                  -0.290
REMARK UNBOUND:                -0.358
REMARK SMILES CC1=CCC[C@H](C)C(=O)C[C@@H](C(C)C)C(=O)C1
REMARK SMILES IDX 8 1 9 2 6 3 7 4 5 5 4 6 3 7 2 8 1 9 10 11 11 12 15 13 16 14
REMARK SMILES IDX 17 15 12 17 13 18 14 19
REMARK H PARENT
REMARK Flexibility Score: 70.00
ROOT
ATOM      1  C   UNL     1      -8.343  32.617  43.496  1.00  0.00     0.136 C 
ATOM      2  O   UNL     1      -8.962  32.994  42.509  1.00  0.00    -0.299 OA
ENDROOT
BRANCH   1   3
ATOM      3  C   UNL     1      -7.151  33.411  43.980  1.00  0.00     0.053 C 
ATOM      4  C   UNL     1      -6.150  33.610  42.836  1.00  0.00     0.016 C 
BRANCH   3   5
ATOM      5  C   UNL     1      -7.580  34.769  44.571  1.00  0.00     0.015 C 
BRANCH   5   6
ATOM      6  C   UNL     1      -7.769  34.724  46.102  1.00  0.00     0.028 C 
BRANCH   6   7
ATOM      7  C   UNL     1      -6.610  34.033  46.784  1.00  0.00    -0.028 C 
ATOM      8  C   UNL     1      -6.643  32.887  47.506  1.00  0.00    -0.070 CG0
ATOM      9  C   UNL     1      -5.329  32.363  48.034  1.00  0.00     0.039 C 
ATOM     10  G   UNL     1      -7.904  32.102  47.829  1.00  0.00     0.000 G0
ENDBRANCH   6   7
ENDBRANCH   5   6
ENDBRANCH   3   5
ENDBRANCH   1   3
BRANCH   1  11
ATOM     11  C   UNL     1      -8.713  31.323  44.184  1.00  0.00     0.087 C 
BRANCH  11  12
ATOM     12  C   UNL     1      -9.277  31.521  45.615  1.00  0.00     0.066 C 
BRANCH  12  13
ATOM     13  C   UNL     1      -8.294  31.151  46.718  1.00  0.00     0.140 C 
ATOM     14  O   UNL     1      -7.735  30.067  46.647  1.00  0.00    -0.299 OA
BRANCH  13  15
ATOM     15  C   UNL     1      -7.910  32.088  47.842  1.00  0.00     0.106 CG0
ATOM     16  G   UNL     1      -6.647  32.863  47.504  1.00  0.00     0.000 G0
ENDBRANCH  13  15
ENDBRANCH  12  13
BRANCH  12  17
ATOM     17  C   UNL     1     -10.662  30.844  45.852  1.00  0.00    -0.006 C 
ATOM     18  C   UNL     1     -11.552  30.783  44.600  1.00  0.00     0.008 C 
ATOM     19  C   UNL     1     -11.432  31.497  47.012  1.00  0.00     0.008 C 
ENDBRANCH  12  17
ENDBRANCH  11  12
ENDBRANCH   1  11
TORSDOF 1
ENDMDL
