MODEL 1
REMARK VINA RESULT:    -6.005      0.000      0.000
REMARK INTER + INTRA:          -6.005
REMARK INTER:                  -6.005
REMARK INTRA:                   0.000
REMARK UNBOUND:                 0.000
REMARK SMILES C=C1CCC[C@]2(C)CC(=O)C(=C(C)C)C[C@H]12
REMARK SMILES IDX 13 1 12 2 11 3 15 4 16 5 2 6 1 7 3 8 4 9 5 10 6 11 8 12 9 13
REMARK SMILES IDX 10 14 7 15 14 16
REMARK H PARENT
REMARK Flexibility Score: inf
ROOT
ATOM      1  C   UNL     1     -62.696 -79.249 226.620  1.00  0.00     0.039 C 
ATOM      2  C   UNL     1     -63.990 -78.970 225.892  1.00  0.00    -0.070 C 
ATOM      3  C   UNL     1     -63.997 -78.524 224.604  1.00  0.00    -0.006 C 
ATOM      4  C   UNL     1     -62.717 -78.276 223.829  1.00  0.00     0.047 C 
ATOM      5  C   UNL     1     -62.840 -78.594 222.317  1.00  0.00     0.025 C 
ATOM      6  C   UNL     1     -61.595 -78.086 221.609  1.00  0.00    -0.073 C 
ATOM      7  C   UNL     1     -60.586 -78.922 221.319  1.00  0.00     0.008 C 
ATOM      8  C   UNL     1     -61.445 -76.597 221.379  1.00  0.00     0.031 C 
ATOM      9  C   UNL     1     -62.730 -75.980 220.809  1.00  0.00     0.005 C 
ATOM     10  C   UNL     1     -63.994 -76.440 221.559  1.00  0.00     0.008 C 
ATOM     11  C   UNL     1     -64.116 -77.991 221.645  1.00  0.00    -0.018 C 
ATOM     12  C   UNL     1     -65.384 -78.382 222.449  1.00  0.00     0.088 C 
ATOM     13  C   UNL     1     -65.241 -78.117 223.914  1.00  0.00     0.159 C 
ATOM     14  O   UNL     1     -66.182 -77.553 224.535  1.00  0.00    -0.295 OA
ATOM     15  C   UNL     1     -64.286 -78.585 220.221  1.00  0.00     0.012 C 
ATOM     16  C   UNL     1     -65.276 -79.245 226.638  1.00  0.00     0.039 C 
ENDROOT
TORSDOF 0
ENDMDL
MODEL 2
REMARK VINA RESULT:    -5.994      2.094      5.218
REMARK INTER + INTRA:          -5.994
REMARK INTER:                  -5.994
REMARK INTRA:                   0.000
REMARK UNBOUND:                 0.000
REMARK SMILES C=C1CCC[C@]2(C)CC(=O)C(=C(C)C)C[C@H]12
REMARK SMILES IDX 13 1 12 2 11 3 15 4 16 5 2 6 1 7 3 8 4 9 5 10 6 11 8 12 9 13
REMARK SMILES IDX 10 14 7 15 14 16
REMARK H PARENT
REMARK Flexibility Score: inf
ROOT
ATOM      1  C   UNL     1     -63.241 -75.522 221.113  1.00  0.00     0.039 C 
ATOM      2  C   UNL     1     -62.296 -76.680 221.329  1.00  0.00    -0.070 C 
ATOM      3  C   UNL     1     -62.492 -77.576 222.338  1.00  0.00    -0.006 C 
ATOM      4  C   UNL     1     -63.658 -77.465 223.300  1.00  0.00     0.047 C 
ATOM      5  C   UNL     1     -64.207 -78.839 223.765  1.00  0.00     0.025 C 
ATOM      6  C   UNL     1     -65.197 -78.611 224.895  1.00  0.00    -0.073 C 
ATOM      7  C   UNL     1     -66.517 -78.587 224.652  1.00  0.00     0.008 C 
ATOM      8  C   UNL     1     -64.665 -78.255 226.267  1.00  0.00     0.031 C 
ATOM      9  C   UNL     1     -63.510 -79.176 226.683  1.00  0.00     0.005 C 
ATOM     10  C   UNL     1     -62.468 -79.365 225.564  1.00  0.00     0.008 C 
ATOM     11  C   UNL     1     -63.100 -79.841 224.223  1.00  0.00    -0.018 C 
ATOM     12  C   UNL     1     -62.004 -79.968 223.132  1.00  0.00     0.088 C 
ATOM     13  C   UNL     1     -61.511 -78.639 222.654  1.00  0.00     0.159 C 
ATOM     14  O   UNL     1     -60.272 -78.447 222.529  1.00  0.00    -0.295 OA
ATOM     15  C   UNL     1     -63.717 -81.254 224.404  1.00  0.00     0.012 C 
ATOM     16  C   UNL     1     -61.147 -76.826 220.358  1.00  0.00     0.039 C 
ENDROOT
TORSDOF 0
ENDMDL
MODEL 3
REMARK VINA RESULT:    -5.898      2.085      3.795
REMARK INTER + INTRA:          -5.898
REMARK INTER:                  -5.898
REMARK INTRA:                   0.000
REMARK UNBOUND:                 0.000
REMARK SMILES C=C1CCC[C@]2(C)CC(=O)C(=C(C)C)C[C@H]12
REMARK SMILES IDX 13 1 12 2 11 3 15 4 16 5 2 6 1 7 3 8 4 9 5 10 6 11 8 12 9 13
REMARK SMILES IDX 10 14 7 15 14 16
REMARK H PARENT
REMARK Flexibility Score: inf
ROOT
ATOM      1  C   UNL     1     -62.215 -79.260 226.485  1.00  0.00     0.039 C 
ATOM      2  C   UNL     1     -61.384 -78.841 225.296  1.00  0.00    -0.070 C 
ATOM      3  C   UNL     1     -61.959 -78.565 224.091  1.00  0.00    -0.006 C 
ATOM      4  C   UNL     1     -63.455 -78.667 223.870  1.00  0.00     0.047 C 
ATOM      5  C   UNL     1     -64.004 -77.614 222.872  1.00  0.00     0.025 C 
ATOM      6  C   UNL     1     -65.447 -77.959 222.544  1.00  0.00    -0.073 C 
ATOM      7  C   UNL     1     -66.456 -77.337 223.174  1.00  0.00     0.008 C 
ATOM      8  C   UNL     1     -65.724 -79.121 221.615  1.00  0.00     0.031 C 
ATOM      9  C   UNL     1     -64.841 -79.066 220.360  1.00  0.00     0.005 C 
ATOM     10  C   UNL     1     -63.363 -78.778 220.686  1.00  0.00     0.008 C 
ATOM     11  C   UNL     1     -63.173 -77.498 221.553  1.00  0.00    -0.018 C 
ATOM     12  C   UNL     1     -61.670 -77.294 221.880  1.00  0.00     0.088 C 
ATOM     13  C   UNL     1     -61.158 -78.283 222.878  1.00  0.00     0.159 C 
ATOM     14  O   UNL     1     -60.056 -78.858 222.670  1.00  0.00    -0.295 OA
ATOM     15  C   UNL     1     -63.632 -76.249 220.755  1.00  0.00     0.012 C 
ATOM     16  C   UNL     1     -59.894 -78.701 225.509  1.00  0.00     0.039 C 
ENDROOT
TORSDOF 0
ENDMDL
MODEL 4
REMARK VINA RESULT:    -5.841      5.174      7.515
REMARK INTER + INTRA:          -5.841
REMARK INTER:                  -5.841
REMARK INTRA:                   0.000
REMARK UNBOUND:                 0.000
REMARK SMILES C=C1CCC[C@]2(C)CC(=O)C(=C(C)C)C[C@H]12
REMARK SMILES IDX 13 1 12 2 11 3 15 4 16 5 2 6 1 7 3 8 4 9 5 10 6 11 8 12 9 13
REMARK SMILES IDX 10 14 7 15 14 16
REMARK H PARENT
REMARK Flexibility Score: inf
ROOT
ATOM      1  C   UNL     1     -62.214 -76.247 220.034  1.00  0.00     0.039 C 
ATOM      2  C   UNL     1     -61.233 -77.391 219.928  1.00  0.00    -0.070 C 
ATOM      3  C   UNL     1     -60.249 -77.395 218.984  1.00  0.00    -0.006 C 
ATOM      4  C   UNL     1     -60.082 -76.263 217.988  1.00  0.00     0.047 C 
ATOM      5  C   UNL     1     -58.603 -75.985 217.614  1.00  0.00     0.025 C 
ATOM      6  C   UNL     1     -58.571 -75.013 216.446  1.00  0.00    -0.073 C 
ATOM      7  C   UNL     1     -58.373 -73.702 216.654  1.00  0.00     0.008 C 
ATOM      8  C   UNL     1     -58.922 -75.525 215.065  1.00  0.00     0.031 C 
ATOM      9  C   UNL     1     -58.197 -76.840 214.747  1.00  0.00     0.005 C 
ATOM     10  C   UNL     1     -58.275 -77.856 215.902  1.00  0.00     0.008 C 
ATOM     11  C   UNL     1     -57.787 -77.269 217.259  1.00  0.00    -0.018 C 
ATOM     12  C   UNL     1     -57.936 -78.329 218.382  1.00  0.00     0.088 C 
ATOM     13  C   UNL     1     -59.360 -78.559 218.772  1.00  0.00     0.159 C 
ATOM     14  O   UNL     1     -59.781 -79.740 218.913  1.00  0.00    -0.295 OA
ATOM     15  C   UNL     1     -56.277 -76.920 217.168  1.00  0.00     0.012 C 
ATOM     16  C   UNL     1     -61.364 -78.510 220.935  1.00  0.00     0.039 C 
ENDROOT
TORSDOF 0
ENDMDL
MODEL 5
REMARK VINA RESULT:    -5.736      2.531      5.157
REMARK INTER + INTRA:          -5.736
REMARK INTER:                  -5.736
REMARK INTRA:                   0.000
REMARK UNBOUND:                 0.000
REMARK SMILES C=C1CCC[C@]2(C)CC(=O)C(=C(C)C)C[C@H]12
REMARK SMILES IDX 13 1 12 2 11 3 15 4 16 5 2 6 1 7 3 8 4 9 5 10 6 11 8 12 9 13
REMARK SMILES IDX 10 14 7 15 14 16
REMARK H PARENT
REMARK Flexibility Score: inf
ROOT
ATOM      1  C   UNL     1     -63.480 -75.296 221.732  1.00  0.00     0.039 C 
ATOM      2  C   UNL     1     -62.786 -76.398 220.968  1.00  0.00    -0.070 C 
ATOM      3  C   UNL     1     -62.198 -77.446 221.613  1.00  0.00    -0.006 C 
ATOM      4  C   UNL     1     -62.200 -77.567 223.124  1.00  0.00     0.047 C 
ATOM      5  C   UNL     1     -62.286 -79.032 223.625  1.00  0.00     0.025 C 
ATOM      6  C   UNL     1     -62.039 -79.049 225.125  1.00  0.00    -0.073 C 
ATOM      7  C   UNL     1     -63.068 -79.089 225.986  1.00  0.00     0.008 C 
ATOM      8  C   UNL     1     -60.624 -78.860 225.630  1.00  0.00     0.031 C 
ATOM      9  C   UNL     1     -59.627 -79.743 224.867  1.00  0.00     0.005 C 
ATOM     10  C   UNL     1     -59.830 -79.685 223.341  1.00  0.00     0.008 C 
ATOM     11  C   UNL     1     -61.293 -80.004 222.912  1.00  0.00    -0.018 C 
ATOM     12  C   UNL     1     -61.435 -79.885 221.372  1.00  0.00     0.088 C 
ATOM     13  C   UNL     1     -61.399 -78.467 220.899  1.00  0.00     0.159 C 
ATOM     14  O   UNL     1     -60.689 -78.165 219.901  1.00  0.00    -0.295 OA
ATOM     15  C   UNL     1     -61.642 -81.471 223.283  1.00  0.00     0.012 C 
ATOM     16  C   UNL     1     -62.805 -76.312 219.459  1.00  0.00     0.039 C 
ENDROOT
TORSDOF 0
ENDMDL
MODEL 6
REMARK VINA RESULT:    -5.733      9.173     11.432
REMARK INTER + INTRA:          -5.733
REMARK INTER:                  -5.733
REMARK INTRA:                   0.000
REMARK UNBOUND:                 0.000
REMARK SMILES C=C1CCC[C@]2(C)CC(=O)C(=C(C)C)C[C@H]12
REMARK SMILES IDX 13 1 12 2 11 3 15 4 16 5 2 6 1 7 3 8 4 9 5 10 6 11 8 12 9 13
REMARK SMILES IDX 10 14 7 15 14 16
REMARK H PARENT
REMARK Flexibility Score: inf
ROOT
ATOM      1  C   UNL     1     -71.783 -71.900 215.281  1.00  0.00     0.039 C 
ATOM      2  C   UNL     1     -72.458 -73.250 215.234  1.00  0.00    -0.070 C 
ATOM      3  C   UNL     1     -71.735 -74.400 215.122  1.00  0.00    -0.006 C 
ATOM      4  C   UNL     1     -70.221 -74.396 215.034  1.00  0.00     0.047 C 
ATOM      5  C   UNL     1     -69.559 -75.618 215.721  1.00  0.00     0.025 C 
ATOM      6  C   UNL     1     -68.082 -75.637 215.365  1.00  0.00    -0.073 C 
ATOM      7  C   UNL     1     -67.169 -75.139 216.214  1.00  0.00     0.008 C 
ATOM      8  C   UNL     1     -67.675 -76.080 213.976  1.00  0.00     0.031 C 
ATOM      9  C   UNL     1     -68.388 -77.374 213.562  1.00  0.00     0.005 C 
ATOM     10  C   UNL     1     -69.899 -77.342 213.863  1.00  0.00     0.008 C 
ATOM     11  C   UNL     1     -70.213 -76.987 215.346  1.00  0.00    -0.018 C 
ATOM     12  C   UNL     1     -71.748 -76.928 215.566  1.00  0.00     0.088 C 
ATOM     13  C   UNL     1     -72.374 -75.723 214.941  1.00  0.00     0.159 C 
ATOM     14  O   UNL     1     -73.434 -75.853 214.271  1.00  0.00    -0.295 OA
ATOM     15  C   UNL     1     -69.668 -78.100 216.281  1.00  0.00     0.012 C 
ATOM     16  C   UNL     1     -73.965 -73.275 215.357  1.00  0.00     0.039 C 
ENDROOT
TORSDOF 0
ENDMDL
MODEL 7
REMARK VINA RESULT:    -5.655      2.984      5.689
REMARK INTER + INTRA:          -5.655
REMARK INTER:                  -5.655
REMARK INTRA:                   0.000
REMARK UNBOUND:                 0.000
REMARK SMILES C=C1CCC[C@]2(C)CC(=O)C(=C(C)C)C[C@H]12
REMARK SMILES IDX 13 1 12 2 11 3 15 4 16 5 2 6 1 7 3 8 4 9 5 10 6 11 8 12 9 13
REMARK SMILES IDX 10 14 7 15 14 16
REMARK H PARENT
REMARK Flexibility Score: inf
ROOT
ATOM      1  C   UNL     1     -58.572 -77.720 218.420  1.00  0.00     0.039 C 
ATOM      2  C   UNL     1     -59.785 -76.822 218.373  1.00  0.00    -0.070 C 
ATOM      3  C   UNL     1     -60.829 -76.996 219.234  1.00  0.00    -0.006 C 
ATOM      4  C   UNL     1     -60.838 -78.094 220.278  1.00  0.00     0.047 C 
ATOM      5  C   UNL     1     -61.555 -77.689 221.592  1.00  0.00     0.025 C 
ATOM      6  C   UNL     1     -61.716 -78.926 222.461  1.00  0.00    -0.073 C 
ATOM      7  C   UNL     1     -60.848 -79.181 223.453  1.00  0.00     0.008 C 
ATOM      8  C   UNL     1     -62.773 -79.943 222.088  1.00  0.00     0.031 C 
ATOM      9  C   UNL     1     -64.119 -79.273 221.776  1.00  0.00     0.005 C 
ATOM     10  C   UNL     1     -63.974 -78.054 220.847  1.00  0.00     0.008 C 
ATOM     11  C   UNL     1     -62.944 -77.010 221.373  1.00  0.00    -0.018 C 
ATOM     12  C   UNL     1     -62.816 -75.834 220.369  1.00  0.00     0.088 C 
ATOM     13  C   UNL     1     -62.084 -76.218 219.123  1.00  0.00     0.159 C 
ATOM     14  O   UNL     1     -62.546 -75.874 218.002  1.00  0.00    -0.295 OA
ATOM     15  C   UNL     1     -63.447 -76.404 222.711  1.00  0.00     0.012 C 
ATOM     16  C   UNL     1     -59.778 -75.700 217.360  1.00  0.00     0.039 C 
ENDROOT
TORSDOF 0
ENDMDL
MODEL 8
REMARK VINA RESULT:    -5.483      9.491     11.648
REMARK INTER + INTRA:          -5.483
REMARK INTER:                  -5.483
REMARK INTRA:                   0.000
REMARK UNBOUND:                 0.000
REMARK SMILES C=C1CCC[C@]2(C)CC(=O)C(=C(C)C)C[C@H]12
REMARK SMILES IDX 13 1 12 2 11 3 15 4 16 5 2 6 1 7 3 8 4 9 5 10 6 11 8 12 9 13
REMARK SMILES IDX 10 14 7 15 14 16
REMARK H PARENT
REMARK Flexibility Score: inf
ROOT
ATOM      1  C   UNL     1     -68.746 -78.041 212.637  1.00  0.00     0.039 C 
ATOM      2  C   UNL     1     -68.161 -77.093 213.657  1.00  0.00    -0.070 C 
ATOM      3  C   UNL     1     -68.958 -76.281 214.408  1.00  0.00    -0.006 C 
ATOM      4  C   UNL     1     -70.467 -76.275 214.265  1.00  0.00     0.047 C 
ATOM      5  C   UNL     1     -71.212 -76.016 215.600  1.00  0.00     0.025 C 
ATOM      6  C   UNL     1     -72.685 -75.792 215.301  1.00  0.00    -0.073 C 
ATOM      7  C   UNL     1     -73.568 -76.793 215.437  1.00  0.00     0.008 C 
ATOM      8  C   UNL     1     -73.112 -74.471 214.698  1.00  0.00     0.031 C 
ATOM      9  C   UNL     1     -72.482 -73.281 215.436  1.00  0.00     0.005 C 
ATOM     10  C   UNL     1     -70.975 -73.471 215.690  1.00  0.00     0.008 C 
ATOM     11  C   UNL     1     -70.647 -74.809 216.417  1.00  0.00    -0.018 C 
ATOM     12  C   UNL     1     -69.113 -74.954 216.600  1.00  0.00     0.088 C 
ATOM     13  C   UNL     1     -68.405 -75.251 215.317  1.00  0.00     0.159 C 
ATOM     14  O   UNL     1     -67.352 -74.620 215.030  1.00  0.00    -0.295 OA
ATOM     15  C   UNL     1     -71.270 -74.802 217.838  1.00  0.00     0.012 C 
ATOM     16  C   UNL     1     -66.660 -77.111 213.837  1.00  0.00     0.039 C 
ENDROOT
TORSDOF 0
ENDMDL
MODEL 9
REMARK VINA RESULT:    -5.449      2.054      4.614
REMARK INTER + INTRA:          -5.449
REMARK INTER:                  -5.449
REMARK INTRA:                   0.000
REMARK UNBOUND:                 0.000
REMARK SMILES C=C1CCC[C@]2(C)CC(=O)C(=C(C)C)C[C@H]12
REMARK SMILES IDX 13 1 12 2 11 3 15 4 16 5 2 6 1 7 3 8 4 9 5 10 6 11 8 12 9 13
REMARK SMILES IDX 10 14 7 15 14 16
REMARK H PARENT
REMARK Flexibility Score: inf
ROOT
ATOM      1  C   UNL     1     -61.178 -76.647 220.535  1.00  0.00     0.039 C 
ATOM      2  C   UNL     1     -62.421 -76.645 221.393  1.00  0.00    -0.070 C 
ATOM      3  C   UNL     1     -62.587 -77.549 222.400  1.00  0.00    -0.006 C 
ATOM      4  C   UNL     1     -61.547 -78.606 222.716  1.00  0.00     0.047 C 
ATOM      5  C   UNL     1     -61.447 -78.940 224.227  1.00  0.00     0.025 C 
ATOM      6  C   UNL     1     -60.562 -80.164 224.397  1.00  0.00    -0.073 C 
ATOM      7  C   UNL     1     -59.267 -80.030 224.724  1.00  0.00     0.008 C 
ATOM      8  C   UNL     1     -61.124 -81.523 224.038  1.00  0.00     0.031 C 
ATOM      9  C   UNL     1     -62.524 -81.732 224.630  1.00  0.00     0.005 C 
ATOM     10  C   UNL     1     -63.449 -80.521 224.410  1.00  0.00     0.008 C 
ATOM     11  C   UNL     1     -62.829 -79.185 224.914  1.00  0.00    -0.018 C 
ATOM     12  C   UNL     1     -63.792 -78.004 224.620  1.00  0.00     0.088 C 
ATOM     13  C   UNL     1     -63.849 -77.655 223.168  1.00  0.00     0.159 C 
ATOM     14  O   UNL     1     -64.968 -77.458 222.622  1.00  0.00    -0.295 OA
ATOM     15  C   UNL     1     -62.643 -79.239 226.454  1.00  0.00     0.012 C 
ATOM     16  C   UNL     1     -63.453 -75.577 221.114  1.00  0.00     0.039 C 
ENDROOT
TORSDOF 0
ENDMDL
