MODEL 1
REMARK VINA RESULT:    -3.863      0.000      0.000
REMARK INTER + INTRA:          -4.869
REMARK INTER:                  -4.767
REMARK INTRA:                  -0.103
REMARK UNBOUND:                -0.103
REMARK SMILES CCCCCC(=O)[O-]
REMARK SMILES IDX 4 1 5 2 6 3 7 4 8 5 3 6 2 7 1 8
REMARK H PARENT
REMARK Flexibility Score: inf
ROOT
ATOM      1  C   UNL     1      -2.629 -37.557  20.629  1.00  0.00     0.006 C 
ENDROOT
BRANCH   1   2
ATOM      2  C   UNL     1      -3.055 -36.440  21.590  1.00  0.00     0.053 C 
BRANCH   2   3
ATOM      3  C   UNL     1      -1.953 -35.443  21.758  1.00  0.00     0.041 C 
ATOM      4  O   UNL     1      -0.939 -35.488  21.013  1.00  0.00    -0.550 OA
ATOM      5  O   UNL     1      -2.067 -34.432  22.704  1.00  0.00    -0.550 OA
ENDBRANCH   2   3
ENDBRANCH   1   2
BRANCH   1   6
ATOM      6  C   UNL     1      -3.820 -38.124  19.827  1.00  0.00     0.000 C 
BRANCH   6   7
ATOM      7  C   UNL     1      -3.677 -37.953  18.306  1.00  0.00    -0.003 C 
ATOM      8  C   UNL     1      -4.382 -36.708  17.775  1.00  0.00     0.004 C 
ENDBRANCH   6   7
ENDBRANCH   1   6
TORSDOF 4
ENDMDL
MODEL 2
REMARK VINA RESULT:    -3.797      2.616      3.813
REMARK INTER + INTRA:          -4.788
REMARK INTER:                  -4.741
REMARK INTRA:                  -0.047
REMARK UNBOUND:                -0.103
REMARK SMILES CCCCCC(=O)[O-]
REMARK SMILES IDX 4 1 5 2 6 3 7 4 8 5 3 6 2 7 1 8
REMARK H PARENT
REMARK Flexibility Score: inf
ROOT
ATOM      1  C   UNL     1      -1.713 -34.404  22.511  1.00  0.00     0.006 C 
ENDROOT
BRANCH   1   2
ATOM      2  C   UNL     1      -2.344 -33.177  23.182  1.00  0.00     0.053 C 
BRANCH   2   3
ATOM      3  C   UNL     1      -1.482 -32.690  24.303  1.00  0.00     0.041 C 
ATOM      4  O   UNL     1      -1.643 -33.140  25.469  1.00  0.00    -0.550 OA
ATOM      5  O   UNL     1      -0.465 -31.777  24.053  1.00  0.00    -0.550 OA
ENDBRANCH   2   3
ENDBRANCH   1   2
BRANCH   1   6
ATOM      6  C   UNL     1      -2.759 -35.487  22.171  1.00  0.00     0.000 C 
BRANCH   6   7
ATOM      7  C   UNL     1      -2.321 -36.433  21.041  1.00  0.00    -0.003 C 
ATOM      8  C   UNL     1      -3.267 -37.617  20.852  1.00  0.00     0.004 C 
ENDBRANCH   6   7
ENDBRANCH   1   6
TORSDOF 4
ENDMDL
MODEL 3
REMARK VINA RESULT:    -3.415      2.261      3.178
REMARK INTER + INTRA:          -4.316
REMARK INTER:                  -4.210
REMARK INTRA:                  -0.106
REMARK UNBOUND:                -0.103
REMARK SMILES CCCCCC(=O)[O-]
REMARK SMILES IDX 4 1 5 2 6 3 7 4 8 5 3 6 2 7 1 8
REMARK H PARENT
REMARK Flexibility Score: inf
ROOT
ATOM      1  C   UNL     1      -1.074 -35.554  21.245  1.00  0.00     0.006 C 
ENDROOT
BRANCH   1   2
ATOM      2  C   UNL     1       0.002 -36.608  20.954  1.00  0.00     0.053 C 
BRANCH   2   3
ATOM      3  C   UNL     1       1.324 -35.954  20.707  1.00  0.00     0.041 C 
ATOM      4  O   UNL     1       1.742 -35.793  19.530  1.00  0.00    -0.550 OA
ATOM      5  O   UNL     1       2.074 -35.476  21.775  1.00  0.00    -0.550 OA
ENDBRANCH   2   3
ENDBRANCH   1   2
BRANCH   1   6
ATOM      6  C   UNL     1      -2.501 -36.132  21.150  1.00  0.00     0.000 C 
BRANCH   6   7
ATOM      7  C   UNL     1      -2.537 -37.659  20.973  1.00  0.00    -0.003 C 
ATOM      8  C   UNL     1      -3.622 -38.125  20.006  1.00  0.00     0.004 C 
ENDBRANCH   6   7
ENDBRANCH   1   6
TORSDOF 4
ENDMDL
MODEL 4
REMARK VINA RESULT:    -3.388      2.694      3.940
REMARK INTER + INTRA:          -4.283
REMARK INTER:                  -4.180
REMARK INTRA:                  -0.103
REMARK UNBOUND:                -0.103
REMARK SMILES CCCCCC(=O)[O-]
REMARK SMILES IDX 4 1 5 2 6 3 7 4 8 5 3 6 2 7 1 8
REMARK H PARENT
REMARK Flexibility Score: inf
ROOT
ATOM      1  C   UNL     1      -0.442 -36.536  21.027  1.00  0.00     0.006 C 
ENDROOT
BRANCH   1   2
ATOM      2  C   UNL     1       0.812 -35.858  20.460  1.00  0.00     0.053 C 
BRANCH   2   3
ATOM      3  C   UNL     1       1.963 -36.010  21.404  1.00  0.00     0.041 C 
ATOM      4  O   UNL     1       2.218 -35.106  22.243  1.00  0.00    -0.550 OA
ATOM      5  O   UNL     1       2.723 -37.172  21.391  1.00  0.00    -0.550 OA
ENDBRANCH   2   3
ENDBRANCH   1   2
BRANCH   1   6
ATOM      6  C   UNL     1      -1.533 -35.517  21.416  1.00  0.00     0.000 C 
BRANCH   6   7
ATOM      7  C   UNL     1      -2.903 -36.157  21.695  1.00  0.00    -0.003 C 
ATOM      8  C   UNL     1      -3.119 -37.464  20.936  1.00  0.00     0.004 C 
ENDBRANCH   6   7
ENDBRANCH   1   6
TORSDOF 4
ENDMDL
MODEL 5
REMARK VINA RESULT:    -3.383      2.871      4.050
REMARK INTER + INTRA:          -4.277
REMARK INTER:                  -4.153
REMARK INTRA:                  -0.124
REMARK UNBOUND:                -0.103
REMARK SMILES CCCCCC(=O)[O-]
REMARK SMILES IDX 4 1 5 2 6 3 7 4 8 5 3 6 2 7 1 8
REMARK H PARENT
REMARK Flexibility Score: inf
ROOT
ATOM      1  C   UNL     1      -0.673 -36.992  20.992  1.00  0.00     0.006 C 
ENDROOT
BRANCH   1   2
ATOM      2  C   UNL     1      -1.037 -35.503  21.040  1.00  0.00     0.053 C 
BRANCH   2   3
ATOM      3  C   UNL     1      -2.123 -35.260  22.040  1.00  0.00     0.041 C 
ATOM      4  O   UNL     1      -2.057 -34.273  22.820  1.00  0.00    -0.550 OA
ATOM      5  O   UNL     1      -3.233 -36.094  22.077  1.00  0.00    -0.550 OA
ENDBRANCH   2   3
ENDBRANCH   1   2
BRANCH   1   6
ATOM      6  C   UNL     1       0.853 -37.222  20.989  1.00  0.00     0.000 C 
BRANCH   6   7
ATOM      7  C   UNL     1       1.669 -35.944  20.729  1.00  0.00    -0.003 C 
ATOM      8  C   UNL     1       2.360 -35.941  19.368  1.00  0.00     0.004 C 
ENDBRANCH   6   7
ENDBRANCH   1   6
TORSDOF 4
ENDMDL
MODEL 6
REMARK VINA RESULT:    -3.370      3.754      4.664
REMARK INTER + INTRA:          -4.261
REMARK INTER:                  -4.192
REMARK INTRA:                  -0.069
REMARK UNBOUND:                -0.103
REMARK SMILES CCCCCC(=O)[O-]
REMARK SMILES IDX 4 1 5 2 6 3 7 4 8 5 3 6 2 7 1 8
REMARK H PARENT
REMARK Flexibility Score: inf
ROOT
ATOM      1  C   UNL     1       0.913 -35.602  20.275  1.00  0.00     0.006 C 
ENDROOT
BRANCH   1   2
ATOM      2  C   UNL     1      -0.100 -36.482  21.018  1.00  0.00     0.053 C 
BRANCH   2   3
ATOM      3  C   UNL     1      -1.416 -35.781  21.138  1.00  0.00     0.041 C 
ATOM      4  O   UNL     1      -1.552 -34.821  21.942  1.00  0.00    -0.550 OA
ATOM      5  O   UNL     1      -2.479 -36.154  20.326  1.00  0.00    -0.550 OA
ENDBRANCH   2   3
ENDBRANCH   1   2
BRANCH   1   6
ATOM      6  C   UNL     1       2.253 -36.327  20.034  1.00  0.00     0.000 C 
BRANCH   6   7
ATOM      7  C   UNL     1       2.913 -35.975  18.691  1.00  0.00    -0.003 C 
ATOM      8  C   UNL     1       2.652 -37.015  17.605  1.00  0.00     0.004 C 
ENDBRANCH   6   7
ENDBRANCH   1   6
TORSDOF 4
ENDMDL
MODEL 7
REMARK VINA RESULT:    -3.362      2.878      4.312
REMARK INTER + INTRA:          -4.251
REMARK INTER:                  -4.132
REMARK INTRA:                  -0.118
REMARK UNBOUND:                -0.103
REMARK SMILES CCCCCC(=O)[O-]
REMARK SMILES IDX 4 1 5 2 6 3 7 4 8 5 3 6 2 7 1 8
REMARK H PARENT
REMARK Flexibility Score: inf
ROOT
ATOM      1  C   UNL     1      -0.721 -36.942  21.024  1.00  0.00     0.006 C 
ENDROOT
BRANCH   1   2
ATOM      2  C   UNL     1      -1.088 -35.453  21.049  1.00  0.00     0.053 C 
BRANCH   2   3
ATOM      3  C   UNL     1      -2.149 -35.191  22.070  1.00  0.00     0.041 C 
ATOM      4  O   UNL     1      -3.148 -35.952  22.156  1.00  0.00    -0.550 OA
ATOM      5  O   UNL     1      -2.010 -34.135  22.961  1.00  0.00    -0.550 OA
ENDBRANCH   2   3
ENDBRANCH   1   2
BRANCH   1   6
ATOM      6  C   UNL     1       0.806 -37.169  21.017  1.00  0.00     0.000 C 
BRANCH   6   7
ATOM      7  C   UNL     1       1.621 -35.868  20.937  1.00  0.00    -0.003 C 
ATOM      8  C   UNL     1       2.916 -35.922  21.744  1.00  0.00     0.004 C 
ENDBRANCH   6   7
ENDBRANCH   1   6
TORSDOF 4
ENDMDL
MODEL 8
REMARK VINA RESULT:    -3.290      5.171      5.918
REMARK INTER + INTRA:          -4.162
REMARK INTER:                  -3.985
REMARK INTRA:                  -0.177
REMARK UNBOUND:                -0.103
REMARK SMILES CCCCCC(=O)[O-]
REMARK SMILES IDX 4 1 5 2 6 3 7 4 8 5 3 6 2 7 1 8
REMARK H PARENT
REMARK Flexibility Score: inf
ROOT
ATOM      1  C   UNL     1       1.815 -35.853  19.677  1.00  0.00     0.006 C 
ENDROOT
BRANCH   1   2
ATOM      2  C   UNL     1       1.638 -36.009  21.193  1.00  0.00     0.053 C 
BRANCH   2   3
ATOM      3  C   UNL     1       2.847 -35.508  21.917  1.00  0.00     0.041 C 
ATOM      4  O   UNL     1       2.720 -34.731  22.900  1.00  0.00    -0.550 OA
ATOM      5  O   UNL     1       4.113 -35.938  21.539  1.00  0.00    -0.550 OA
ENDBRANCH   2   3
ENDBRANCH   1   2
BRANCH   1   6
ATOM      6  C   UNL     1       1.928 -37.213  18.958  1.00  0.00     0.000 C 
BRANCH   6   7
ATOM      7  C   UNL     1       2.870 -37.191  17.742  1.00  0.00    -0.003 C 
ATOM      8  C   UNL     1       4.182 -36.460  18.014  1.00  0.00     0.004 C 
ENDBRANCH   6   7
ENDBRANCH   1   6
TORSDOF 4
ENDMDL
MODEL 9
REMARK VINA RESULT:    -1.451      2.758      4.162
REMARK INTER + INTRA:          -1.893
REMARK INTER:                  -1.799
REMARK INTRA:                  -0.094
REMARK UNBOUND:                -0.103
REMARK SMILES CCCCCC(=O)[O-]
REMARK SMILES IDX 4 1 5 2 6 3 7 4 8 5 3 6 2 7 1 8
REMARK H PARENT
REMARK Flexibility Score: inf
ROOT
ATOM      1  C   UNL     1      -1.214 -35.400  21.291  1.00  0.00     0.006 C 
ENDROOT
BRANCH   1   2
ATOM      2  C   UNL     1      -2.547 -36.047  21.686  1.00  0.00     0.053 C 
BRANCH   2   3
ATOM      3  C   UNL     1      -3.133 -36.793  20.530  1.00  0.00     0.041 C 
ATOM      4  O   UNL     1      -3.253 -36.231  19.409  1.00  0.00    -0.550 OA
ATOM      5  O   UNL     1      -3.499 -38.125  20.675  1.00  0.00    -0.550 OA
ENDBRANCH   2   3
ENDBRANCH   1   2
BRANCH   1   6
ATOM      6  C   UNL     1      -0.127 -36.448  20.973  1.00  0.00     0.000 C 
BRANCH   6   7
ATOM      7  C   UNL     1       1.299 -35.873  20.958  1.00  0.00    -0.003 C 
ATOM      8  C   UNL     1       1.969 -35.966  19.589  1.00  0.00     0.004 C 
ENDBRANCH   6   7
ENDBRANCH   1   6
TORSDOF 4
ENDMDL
