MODEL 1
REMARK VINA RESULT:    76.315      0.000      0.000
REMARK INTER + INTRA:         134.043
REMARK INTER:                 120.928
REMARK INTRA:                  13.115
REMARK UNBOUND:                13.115
REMARK SMILES C[C@@H]1O[C@@H](O[C@@H]2CC[C@]3(C)[C@@H](CC[C@]4(C)[C@H]3C=C[C@]35OC[C@@]6(CCC(C)(C)C[C@@H]63)[C@H](O)C[C@]54C)[C@@]2(C)CO)[C@H](O)[C@@H](O[C@H]2O[C@H](CO)[C@@H](O)[C@H](O)[C@@H]2O)[C@H]1O
REMARK SMILES IDX 1 1 2 2 54 3 41 4 39 5 4 6 3 7 55 8 42 10 43 11 52 12 44 13
REMARK SMILES IDX 50 14 45 15 48 16 53 17 51 19 46 21 47 22 49 24 5 26 6 27
REMARK SMILES IDX 7 28 35 29 8 30 11 31 36 32 9 33 12 34 10 35 16 36 13 37
REMARK SMILES IDX 14 38 17 39 15 40 33 41 18 42 19 43 32 44 34 45 29 46 20 47
REMARK SMILES IDX 30 48 22 49 28 50 21 51 23 52 25 53 24 54 26 55 27 56 37 57
REMARK SMILES IDX 38 58 31 60 40 62
REMARK H PARENT 55 9 53 18 51 20 47 23 49 25 38 59 31 61 40 63
REMARK Flexibility Score: inf
ROOT
ATOM      1  C   UNL     1      23.177  36.405  26.545  1.00  0.00     0.041 C 
ATOM      2  C   UNL     1      24.395  37.301  26.262  1.00  0.00     0.150 C 
ATOM      3  C   UNL     1      24.972  37.997  27.544  1.00  0.00     0.175 C 
ATOM      4  C   UNL     1      26.500  38.196  27.410  1.00  0.00     0.186 C 
ATOM      5  C   UNL     1      27.123  36.776  27.274  1.00  0.00     0.202 C 
ATOM      6  C   UNL     1      26.252  35.848  26.341  1.00  0.00     0.282 C 
ATOM      7  O   UNL     1      25.377  36.616  25.514  1.00  0.00    -0.344 OA
ENDROOT
BRANCH   3   8
ATOM      8  O   UNL     1      24.367  39.228  27.784  1.00  0.00    -0.388 OA
ATOM      9  H   UNL     1      23.410  39.190  27.458  1.00  0.00     0.211 HD
ENDBRANCH   3   8
BRANCH   4  10
ATOM     10  O   UNL     1      26.692  38.956  26.231  1.00  0.00    -0.341 OA
BRANCH  10  11
ATOM     11  C   UNL     1      27.323  40.219  26.398  1.00  0.00     0.282 C 
ATOM     12  C   UNL     1      26.365  41.265  25.839  1.00  0.00     0.202 C 
ATOM     13  O   UNL     1      28.512  40.331  25.630  1.00  0.00    -0.341 OA
ATOM     14  C   UNL     1      25.940  40.833  24.408  1.00  0.00     0.179 C 
ATOM     15  C   UNL     1      28.309  39.749  24.335  1.00  0.00     0.178 C 
ATOM     16  C   UNL     1      27.199  40.508  23.550  1.00  0.00     0.177 C 
BRANCH  12  17
ATOM     17  O   UNL     1      26.966  42.558  25.885  1.00  0.00    -0.385 OA
ATOM     18  H   UNL     1      27.963  42.540  26.024  1.00  0.00     0.211 HD
ENDBRANCH  12  17
BRANCH  14  19
ATOM     19  O   UNL     1      25.239  41.933  23.845  1.00  0.00    -0.387 OA
ATOM     20  H   UNL     1      25.910  42.509  23.376  1.00  0.00     0.211 HD
ENDBRANCH  14  19
BRANCH  15  21
ATOM     21  C   UNL     1      29.684  39.622  23.674  1.00  0.00     0.191 C 
BRANCH  21  22
ATOM     22  O   UNL     1      30.132  40.739  22.936  1.00  0.00    -0.394 OA
ATOM     23  H   UNL     1      30.853  41.177  23.443  1.00  0.00     0.210 HD
ENDBRANCH  21  22
ENDBRANCH  15  21
BRANCH  16  24
ATOM     24  O   UNL     1      26.840  39.884  22.347  1.00  0.00    -0.387 OA
ATOM     25  H   UNL     1      25.844  39.842  22.261  1.00  0.00     0.211 HD
ENDBRANCH  16  24
ENDBRANCH  10  11
ENDBRANCH   4  10
BRANCH   6  26
ATOM     26  O   UNL     1      27.108  35.099  25.491  1.00  0.00    -0.346 OA
BRANCH  26  27
ATOM     27  C   UNL     1      27.926  34.168  26.208  1.00  0.00     0.130 C 
ATOM     28  C   UNL     1      27.887  34.548  27.698  1.00  0.00     0.033 C 
ATOM     29  C   UNL     1      29.388  34.085  25.616  1.00  0.00     0.020 C 
ATOM     30  C   UNL     1      29.170  35.268  28.160  1.00  0.00     0.010 C 
ATOM     31  C   UNL     1      30.098  35.503  25.757  1.00  0.00     0.006 C 
ATOM     32  C   UNL     1      29.236  33.713  24.127  1.00  0.00     0.017 C 
ATOM     33  C   UNL     1      29.842  36.240  27.150  1.00  0.00    -0.022 C 
ATOM     34  C   UNL     1      31.601  35.482  25.391  1.00  0.00     0.005 C 
ATOM     35  C   UNL     1      28.796  37.371  26.903  1.00  0.00     0.012 C 
ATOM     36  C   UNL     1      31.181  36.797  27.835  1.00  0.00     0.024 C 
ATOM     37  C   UNL     1      32.225  36.917  25.452  1.00  0.00     0.008 C 
ATOM     38  C   UNL     1      32.311  37.465  26.930  1.00  0.00    -0.017 C 
ATOM     39  C   UNL     1      30.939  37.605  29.113  1.00  0.00    -0.024 C 
ATOM     40  C   UNL     1      33.660  36.904  27.507  1.00  0.00     0.013 C 
ATOM     41  C   UNL     1      32.270  39.101  27.010  1.00  0.00     0.009 C 
ATOM     42  C   UNL     1      31.538  38.760  29.429  1.00  0.00     0.005 C 
ATOM     43  C   UNL     1      32.479  39.575  28.506  1.00  0.00     0.096 C 
ATOM     44  C   UNL     1      33.391  39.798  26.135  1.00  0.00     0.043 C 
ATOM     45  C   UNL     1      30.896  39.647  26.443  1.00  0.00     0.015 C 
ATOM     46  C   UNL     1      32.272  41.128  28.654  1.00  0.00     0.037 C 
ATOM     47  O   UNL     1      33.816  39.336  28.920  1.00  0.00    -0.369 OA
ATOM     48  C   UNL     1      33.610  41.309  26.495  1.00  0.00     0.124 C 
ATOM     49  C   UNL     1      33.577  41.564  28.045  1.00  0.00     0.026 C 
ATOM     50  C   UNL     1      32.073  41.560  30.147  1.00  0.00     0.014 C 
ATOM     51  C   UNL     1      34.510  40.572  28.749  1.00  0.00     0.171 C 
ATOM     52  C   UNL     1      33.896  43.057  28.341  1.00  0.00     0.013 C 
ATOM     53  C   UNL     1      32.266  43.068  30.360  1.00  0.00    -0.035 C 
ATOM     54  C   UNL     1      33.671  43.479  29.808  1.00  0.00     0.007 C 
ATOM     55  C   UNL     1      31.133  43.881  29.672  1.00  0.00     0.011 C 
ATOM     56  C   UNL     1      32.225  43.353  31.881  1.00  0.00     0.011 C 
BRANCH  29  57
ATOM     57  C   UNL     1      30.239  32.943  26.301  1.00  0.00     0.165 C 
BRANCH  57  58
ATOM     58  O   UNL     1      29.794  31.665  25.916  1.00  0.00    -0.396 OA
ATOM     59  H   UNL     1      30.453  31.008  26.252  1.00  0.00     0.210 HD
ENDBRANCH  57  58
ENDBRANCH  29  57
BRANCH  48  60
ATOM     60  O   UNL     1      32.657  42.095  25.849  1.00  0.00    -0.392 OA
ATOM     61  H   UNL     1      33.078  42.687  25.187  1.00  0.00     0.210 HD
ENDBRANCH  48  60
ENDBRANCH  26  27
ENDBRANCH   6  26
BRANCH   5  62
ATOM     62  O   UNL     1      27.116  36.189  28.556  1.00  0.00    -0.385 OA
ATOM     63  H   UNL     1      27.723  35.405  28.502  1.00  0.00     0.211 HD
ENDBRANCH   5  62
TORSDOF 14
ENDMDL
MODEL 2
REMARK VINA RESULT:    78.095      2.632      6.392
REMARK INTER + INTRA:         136.863
REMARK INTER:                 123.389
REMARK INTRA:                  13.474
REMARK UNBOUND:                13.115
REMARK SMILES C[C@@H]1O[C@@H](O[C@@H]2CC[C@]3(C)[C@@H](CC[C@]4(C)[C@H]3C=C[C@]35OC[C@@]6(CCC(C)(C)C[C@@H]63)[C@H](O)C[C@]54C)[C@@]2(C)CO)[C@H](O)[C@@H](O[C@H]2O[C@H](CO)[C@@H](O)[C@H](O)[C@@H]2O)[C@H]1O
REMARK SMILES IDX 1 1 2 2 54 3 41 4 39 5 4 6 3 7 55 8 42 10 43 11 52 12 44 13
REMARK SMILES IDX 50 14 45 15 48 16 53 17 51 19 46 21 47 22 49 24 5 26 6 27
REMARK SMILES IDX 7 28 35 29 8 30 11 31 36 32 9 33 12 34 10 35 16 36 13 37
REMARK SMILES IDX 14 38 17 39 15 40 33 41 18 42 19 43 32 44 34 45 29 46 20 47
REMARK SMILES IDX 30 48 22 49 28 50 21 51 23 52 25 53 24 54 26 55 27 56 37 57
REMARK SMILES IDX 38 58 31 60 40 62
REMARK H PARENT 55 9 53 18 51 20 47 23 49 25 38 59 31 61 40 63
REMARK Flexibility Score: inf
ROOT
ATOM      1  C   UNL     1      23.268  38.022  28.423  1.00  0.00     0.041 C 
ATOM      2  C   UNL     1      24.462  37.351  27.725  1.00  0.00     0.150 C 
ATOM      3  C   UNL     1      24.959  38.123  26.453  1.00  0.00     0.175 C 
ATOM      4  C   UNL     1      26.483  37.934  26.267  1.00  0.00     0.186 C 
ATOM      5  C   UNL     1      27.163  38.538  27.530  1.00  0.00     0.202 C 
ATOM      6  C   UNL     1      26.367  38.179  28.844  1.00  0.00     0.282 C 
ATOM      7  O   UNL     1      25.500  37.063  28.639  1.00  0.00    -0.344 OA
ENDROOT
BRANCH   3   8
ATOM      8  O   UNL     1      24.300  37.705  25.300  1.00  0.00    -0.388 OA
ATOM      9  H   UNL     1      24.934  37.784  24.516  1.00  0.00     0.211 HD
ENDBRANCH   3   8
BRANCH   4  10
ATOM     10  O   UNL     1      26.696  36.537  26.188  1.00  0.00    -0.341 OA
BRANCH  10  11
ATOM     11  C   UNL     1      27.273  36.061  24.979  1.00  0.00     0.282 C 
ATOM     12  C   UNL     1      26.256  35.117  24.348  1.00  0.00     0.202 C 
ATOM     13  O   UNL     1      28.437  35.280  25.210  1.00  0.00    -0.341 OA
ATOM     14  C   UNL     1      25.816  34.078  25.418  1.00  0.00     0.179 C 
ATOM     15  C   UNL     1      28.229  34.424  26.341  1.00  0.00     0.178 C 
ATOM     16  C   UNL     1      27.067  33.422  26.075  1.00  0.00     0.177 C 
BRANCH  12  17
ATOM     17  O   UNL     1      26.799  34.521  23.171  1.00  0.00    -0.385 OA
ATOM     18  H   UNL     1      27.620  34.988  22.819  1.00  0.00     0.211 HD
ENDBRANCH  12  17
BRANCH  14  19
ATOM     19  O   UNL     1      25.052  33.093  24.735  1.00  0.00    -0.387 OA
ATOM     20  H   UNL     1      24.086  33.272  24.932  1.00  0.00     0.211 HD
ENDBRANCH  14  19
BRANCH  15  21
ATOM     21  C   UNL     1      29.592  33.843  26.727  1.00  0.00     0.191 C 
BRANCH  21  22
ATOM     22  O   UNL     1      30.080  32.794  25.917  1.00  0.00    -0.394 OA
ATOM     23  H   UNL     1      29.469  32.028  26.001  1.00  0.00     0.210 HD
ENDBRANCH  21  22
ENDBRANCH  15  21
BRANCH  16  24
ATOM     24  O   UNL     1      26.706  32.672  27.204  1.00  0.00    -0.387 OA
ATOM     25  H   UNL     1      25.779  32.907  27.495  1.00  0.00     0.211 HD
ENDBRANCH  16  24
ENDBRANCH  10  11
ENDBRANCH   4  10
BRANCH   6  26
ATOM     26  O   UNL     1      27.285  37.832  29.871  1.00  0.00    -0.346 OA
BRANCH  26  27
ATOM     27  C   UNL     1      28.139  38.920  30.241  1.00  0.00     0.130 C 
ATOM     28  C   UNL     1      28.050  39.993  29.142  1.00  0.00     0.033 C 
ATOM     29  C   UNL     1      29.615  38.440  30.536  1.00  0.00     0.020 C 
ATOM     30  C   UNL     1      29.280  39.994  28.214  1.00  0.00     0.010 C 
ATOM     31  C   UNL     1      30.241  37.811  29.214  1.00  0.00     0.006 C 
ATOM     32  C   UNL     1      29.514  37.367  31.639  1.00  0.00     0.017 C 
ATOM     33  C   UNL     1      29.917  38.617  27.875  1.00  0.00    -0.022 C 
ATOM     34  C   UNL     1      31.750  37.491  29.336  1.00  0.00     0.005 C 
ATOM     35  C   UNL     1      28.814  37.829  27.102  1.00  0.00     0.012 C 
ATOM     36  C   UNL     1      31.209  38.893  26.965  1.00  0.00     0.024 C 
ATOM     37  C   UNL     1      32.291  36.786  28.046  1.00  0.00     0.008 C 
ATOM     38  C   UNL     1      32.317  37.758  26.804  1.00  0.00    -0.017 C 
ATOM     39  C   UNL     1      30.896  39.564  25.625  1.00  0.00    -0.024 C 
ATOM     40  C   UNL     1      33.684  38.527  26.901  1.00  0.00     0.013 C 
ATOM     41  C   UNL     1      32.183  36.973  25.372  1.00  0.00     0.009 C 
ATOM     42  C   UNL     1      31.423  39.223  24.442  1.00  0.00     0.005 C 
ATOM     43  C   UNL     1      32.335  37.999  24.176  1.00  0.00     0.096 C 
ATOM     44  C   UNL     1      33.280  35.848  25.171  1.00  0.00     0.043 C 
ATOM     45  C   UNL     1      30.791  36.222  25.283  1.00  0.00     0.015 C 
ATOM     46  C   UNL     1      32.038  37.316  22.789  1.00  0.00     0.037 C 
ATOM     47  O   UNL     1      33.675  38.459  24.086  1.00  0.00    -0.369 OA
ATOM     48  C   UNL     1      33.406  35.364  23.685  1.00  0.00     0.124 C 
ATOM     49  C   UNL     1      33.328  36.552  22.660  1.00  0.00     0.026 C 
ATOM     50  C   UNL     1      31.786  38.366  21.654  1.00  0.00     0.014 C 
ATOM     51  C   UNL     1      34.301  37.659  23.082  1.00  0.00     0.171 C 
ATOM     52  C   UNL     1      33.557  36.021  21.217  1.00  0.00     0.013 C 
ATOM     53  C   UNL     1      31.889  37.758  20.248  1.00  0.00    -0.035 C 
ATOM     54  C   UNL     1      33.280  37.055  20.105  1.00  0.00     0.007 C 
ATOM     55  C   UNL     1      30.727  36.760  19.981  1.00  0.00     0.011 C 
ATOM     56  C   UNL     1      31.802  38.906  19.214  1.00  0.00     0.011 C 
BRANCH  29  57
ATOM     57  C   UNL     1      30.515  39.610  31.101  1.00  0.00     0.165 C 
BRANCH  57  58
ATOM     58  O   UNL     1      30.116  39.991  32.395  1.00  0.00    -0.396 OA
ATOM     59  H   UNL     1      29.821  40.934  32.349  1.00  0.00     0.210 HD
ENDBRANCH  57  58
ENDBRANCH  29  57
BRANCH  48  60
ATOM     60  O   UNL     1      32.424  34.414  23.408  1.00  0.00    -0.392 OA
ATOM     61  H   UNL     1      32.824  33.541  23.203  1.00  0.00     0.210 HD
ENDBRANCH  48  60
ENDBRANCH  26  27
ENDBRANCH   6  26
BRANCH   5  62
ATOM     62  O   UNL     1      27.125  39.941  27.399  1.00  0.00    -0.385 OA
ATOM     63  H   UNL     1      26.217  40.160  27.060  1.00  0.00     0.211 HD
ENDBRANCH   5  62
TORSDOF 14
ENDMDL
MODEL 3
REMARK VINA RESULT:    78.747      1.981      3.673
REMARK INTER + INTRA:         137.897
REMARK INTER:                 106.754
REMARK INTRA:                  31.143
REMARK UNBOUND:                13.115
REMARK SMILES C[C@@H]1O[C@@H](O[C@@H]2CC[C@]3(C)[C@@H](CC[C@]4(C)[C@H]3C=C[C@]35OC[C@@]6(CCC(C)(C)C[C@@H]63)[C@H](O)C[C@]54C)[C@@]2(C)CO)[C@H](O)[C@@H](O[C@H]2O[C@H](CO)[C@@H](O)[C@H](O)[C@@H]2O)[C@H]1O
REMARK SMILES IDX 1 1 2 2 54 3 41 4 39 5 4 6 3 7 55 8 42 10 43 11 52 12 44 13
REMARK SMILES IDX 50 14 45 15 48 16 53 17 51 19 46 21 47 22 49 24 5 26 6 27
REMARK SMILES IDX 7 28 35 29 8 30 11 31 36 32 9 33 12 34 10 35 16 36 13 37
REMARK SMILES IDX 14 38 17 39 15 40 33 41 18 42 19 43 32 44 34 45 29 46 20 47
REMARK SMILES IDX 30 48 22 49 28 50 21 51 23 52 25 53 24 54 26 55 27 56 37 57
REMARK SMILES IDX 38 58 31 60 40 62
REMARK H PARENT 55 9 53 18 51 20 47 23 49 25 38 59 31 61 40 63
REMARK Flexibility Score: inf
ROOT
ATOM      1  C   UNL     1      28.502  37.530  24.355  1.00  0.00     0.041 C 
ATOM      2  C   UNL     1      28.003  37.832  25.778  1.00  0.00     0.150 C 
ATOM      3  C   UNL     1      26.609  38.551  25.814  1.00  0.00     0.175 C 
ATOM      4  C   UNL     1      25.825  38.148  27.085  1.00  0.00     0.186 C 
ATOM      5  C   UNL     1      25.606  36.609  27.001  1.00  0.00     0.202 C 
ATOM      6  C   UNL     1      26.892  35.869  26.466  1.00  0.00     0.282 C 
ATOM      7  O   UNL     1      28.056  36.685  26.599  1.00  0.00    -0.344 OA
ENDROOT
BRANCH   3   8
ATOM      8  O   UNL     1      26.737  39.937  25.774  1.00  0.00    -0.388 OA
ATOM      9  H   UNL     1      26.042  40.346  26.385  1.00  0.00     0.211 HD
ENDBRANCH   3   8
BRANCH   4  10
ATOM     10  O   UNL     1      26.655  38.489  28.180  1.00  0.00    -0.341 OA
BRANCH  10  11
ATOM     11  C   UNL     1      27.159  37.401  28.944  1.00  0.00     0.282 C 
ATOM     12  C   UNL     1      26.176  37.172  30.086  1.00  0.00     0.202 C 
ATOM     13  O   UNL     1      28.403  37.707  29.557  1.00  0.00    -0.341 OA
ATOM     14  C   UNL     1      25.928  38.528  30.803  1.00  0.00     0.179 C 
ATOM     15  C   UNL     1      28.375  39.046  30.069  1.00  0.00     0.178 C 
ATOM     16  C   UNL     1      27.286  39.196  31.172  1.00  0.00     0.177 C 
BRANCH  12  17
ATOM     17  O   UNL     1      26.661  36.151  30.957  1.00  0.00    -0.385 OA
ATOM     18  H   UNL     1      26.665  35.232  30.544  1.00  0.00     0.211 HD
ENDBRANCH  12  17
BRANCH  14  19
ATOM     19  O   UNL     1      25.195  38.232  31.984  1.00  0.00    -0.387 OA
ATOM     20  H   UNL     1      24.974  37.255  31.964  1.00  0.00     0.211 HD
ENDBRANCH  14  19
BRANCH  15  21
ATOM     21  C   UNL     1      29.813  39.422  30.436  1.00  0.00     0.191 C 
BRANCH  21  22
ATOM     22  O   UNL     1      30.136  39.404  31.810  1.00  0.00    -0.394 OA
ATOM     23  H   UNL     1      30.273  38.469  32.084  1.00  0.00     0.210 HD
ENDBRANCH  21  22
ENDBRANCH  15  21
BRANCH  16  24
ATOM     24  O   UNL     1      27.096  40.521  31.592  1.00  0.00    -0.387 OA
ATOM     25  H   UNL     1      26.839  40.546  32.559  1.00  0.00     0.211 HD
ENDBRANCH  16  24
ENDBRANCH  10  11
ENDBRANCH   4  10
BRANCH   6  26
ATOM     26  O   UNL     1      27.103  34.684  27.221  1.00  0.00    -0.346 OA
BRANCH  26  27
ATOM     27  C   UNL     1      28.265  33.960  26.802  1.00  0.00     0.130 C 
ATOM     28  C   UNL     1      29.221  33.854  28.003  1.00  0.00     0.033 C 
ATOM     29  C   UNL     1      28.931  34.600  25.520  1.00  0.00     0.020 C 
ATOM     30  C   UNL     1      30.407  34.834  27.904  1.00  0.00     0.010 C 
ATOM     31  C   UNL     1      29.423  36.076  25.859  1.00  0.00     0.006 C 
ATOM     32  C   UNL     1      27.837  34.642  24.434  1.00  0.00     0.017 C 
ATOM     33  C   UNL     1      30.125  36.232  27.285  1.00  0.00    -0.022 C 
ATOM     34  C   UNL     1      30.268  36.720  24.735  1.00  0.00     0.005 C 
ATOM     35  C   UNL     1      29.102  36.913  28.245  1.00  0.00     0.012 C 
ATOM     36  C   UNL     1      31.517  37.025  27.229  1.00  0.00     0.024 C 
ATOM     37  C   UNL     1      30.641  38.202  25.078  1.00  0.00     0.008 C 
ATOM     38  C   UNL     1      31.665  38.294  26.276  1.00  0.00    -0.017 C 
ATOM     39  C   UNL     1      32.145  37.282  28.602  1.00  0.00    -0.024 C 
ATOM     40  C   UNL     1      33.087  38.135  25.625  1.00  0.00     0.013 C 
ATOM     41  C   UNL     1      31.552  39.701  27.108  1.00  0.00     0.009 C 
ATOM     42  C   UNL     1      32.699  38.434  29.002  1.00  0.00     0.005 C 
ATOM     43  C   UNL     1      32.684  39.767  28.213  1.00  0.00     0.096 C 
ATOM     44  C   UNL     1      31.711  40.984  26.193  1.00  0.00     0.043 C 
ATOM     45  C   UNL     1      30.121  39.835  27.773  1.00  0.00     0.015 C 
ATOM     46  C   UNL     1      32.504  41.020  29.149  1.00  0.00     0.037 C 
ATOM     47  O   UNL     1      33.958  39.935  27.608  1.00  0.00    -0.369 OA
ATOM     48  C   UNL     1      31.988  42.296  27.006  1.00  0.00     0.124 C 
ATOM     49  C   UNL     1      32.999  42.065  28.186  1.00  0.00     0.026 C 
ATOM     50  C   UNL     1      33.340  40.900  30.468  1.00  0.00     0.014 C 
ATOM     51  C   UNL     1      34.241  41.333  27.663  1.00  0.00     0.171 C 
ATOM     52  C   UNL     1      33.307  43.417  28.890  1.00  0.00     0.013 C 
ATOM     53  C   UNL     1      33.499  42.242  31.197  1.00  0.00    -0.035 C 
ATOM     54  C   UNL     1      34.109  43.285  30.203  1.00  0.00     0.007 C 
ATOM     55  C   UNL     1      32.138  42.737  31.763  1.00  0.00     0.011 C 
ATOM     56  C   UNL     1      34.482  42.042  32.375  1.00  0.00     0.011 C 
BRANCH  29  57
ATOM     57  C   UNL     1      30.112  33.711  24.962  1.00  0.00     0.165 C 
BRANCH  57  58
ATOM     58  O   UNL     1      30.007  32.378  25.398  1.00  0.00    -0.396 OA
ATOM     59  H   UNL     1      29.291  32.344  26.080  1.00  0.00     0.210 HD
ENDBRANCH  57  58
ENDBRANCH  29  57
BRANCH  48  60
ATOM     60  O   UNL     1      30.789  42.821  27.485  1.00  0.00    -0.392 OA
ATOM     61  H   UNL     1      30.072  42.728  26.820  1.00  0.00     0.210 HD
ENDBRANCH  48  60
ENDBRANCH  26  27
ENDBRANCH   6  26
BRANCH   5  62
ATOM     62  O   UNL     1      24.581  36.380  26.061  1.00  0.00    -0.385 OA
ATOM     63  H   UNL     1      24.991  35.842  25.334  1.00  0.00     0.211 HD
ENDBRANCH   5  62
TORSDOF 14
ENDMDL
MODEL 4
REMARK VINA RESULT:    79.120      2.165      4.904
REMARK INTER + INTRA:         138.488
REMARK INTER:                 103.568
REMARK INTRA:                  34.920
REMARK UNBOUND:                13.115
REMARK SMILES C[C@@H]1O[C@@H](O[C@@H]2CC[C@]3(C)[C@@H](CC[C@]4(C)[C@H]3C=C[C@]35OC[C@@]6(CCC(C)(C)C[C@@H]63)[C@H](O)C[C@]54C)[C@@]2(C)CO)[C@H](O)[C@@H](O[C@H]2O[C@H](CO)[C@@H](O)[C@H](O)[C@@H]2O)[C@H]1O
REMARK SMILES IDX 1 1 2 2 54 3 41 4 39 5 4 6 3 7 55 8 42 10 43 11 52 12 44 13
REMARK SMILES IDX 50 14 45 15 48 16 53 17 51 19 46 21 47 22 49 24 5 26 6 27
REMARK SMILES IDX 7 28 35 29 8 30 11 31 36 32 9 33 12 34 10 35 16 36 13 37
REMARK SMILES IDX 14 38 17 39 15 40 33 41 18 42 19 43 32 44 34 45 29 46 20 47
REMARK SMILES IDX 30 48 22 49 28 50 21 51 23 52 25 53 24 54 26 55 27 56 37 57
REMARK SMILES IDX 38 58 31 60 40 62
REMARK H PARENT 55 9 53 18 51 20 47 23 49 25 38 59 31 61 40 63
REMARK Flexibility Score: inf
ROOT
ATOM      1  C   UNL     1      27.568  34.186  28.208  1.00  0.00     0.041 C 
ATOM      2  C   UNL     1      28.701  34.991  27.549  1.00  0.00     0.150 C 
ATOM      3  C   UNL     1      30.068  34.223  27.500  1.00  0.00     0.175 C 
ATOM      4  C   UNL     1      30.879  34.641  26.251  1.00  0.00     0.186 C 
ATOM      5  C   UNL     1      30.023  34.244  25.012  1.00  0.00     0.202 C 
ATOM      6  C   UNL     1      28.494  34.560  25.239  1.00  0.00     0.282 C 
ATOM      7  O   UNL     1      28.309  35.505  26.294  1.00  0.00    -0.344 OA
ENDROOT
BRANCH   3   8
ATOM      8  O   UNL     1      30.834  34.449  28.641  1.00  0.00    -0.388 OA
ATOM      9  H   UNL     1      31.284  35.351  28.557  1.00  0.00     0.211 HD
ENDBRANCH   3   8
BRANCH   4  10
ATOM     10  O   UNL     1      31.033  36.046  26.338  1.00  0.00    -0.341 OA
BRANCH  10  11
ATOM     11  C   UNL     1      32.370  36.527  26.366  1.00  0.00     0.282 C 
ATOM     12  C   UNL     1      32.309  37.968  26.859  1.00  0.00     0.202 C 
ATOM     13  O   UNL     1      32.948  36.583  25.069  1.00  0.00    -0.341 OA
ATOM     14  C   UNL     1      31.263  38.738  26.005  1.00  0.00     0.179 C 
ATOM     15  C   UNL     1      31.983  37.076  24.130  1.00  0.00     0.178 C 
ATOM     16  C   UNL     1      31.550  38.529  24.488  1.00  0.00     0.177 C 
BRANCH  12  17
ATOM     17  O   UNL     1      33.609  38.556  26.827  1.00  0.00    -0.385 OA
ATOM     18  H   UNL     1      33.608  39.535  26.586  1.00  0.00     0.211 HD
ENDBRANCH  12  17
BRANCH  14  19
ATOM     19  O   UNL     1      31.400  40.112  26.340  1.00  0.00    -0.387 OA
ATOM     20  H   UNL     1      31.194  40.206  27.316  1.00  0.00     0.211 HD
ENDBRANCH  14  19
BRANCH  15  21
ATOM     21  C   UNL     1      32.547  36.830  22.729  1.00  0.00     0.191 C 
BRANCH  21  22
ATOM     22  O   UNL     1      31.616  36.826  21.668  1.00  0.00    -0.394 OA
ATOM     23  H   UNL     1      31.822  37.581  21.072  1.00  0.00     0.210 HD
ENDBRANCH  21  22
ENDBRANCH  15  21
BRANCH  16  24
ATOM     24  O   UNL     1      30.486  39.003  23.706  1.00  0.00    -0.387 OA
ATOM     25  H   UNL     1      29.770  39.387  24.289  1.00  0.00     0.211 HD
ENDBRANCH  16  24
ENDBRANCH  10  11
ENDBRANCH   4  10
BRANCH   6  26
ATOM     26  O   UNL     1      27.948  35.120  24.054  1.00  0.00    -0.346 OA
BRANCH  26  27
ATOM     27  C   UNL     1      26.715  35.811  24.285  1.00  0.00     0.130 C 
ATOM     28  C   UNL     1      26.940  37.302  23.983  1.00  0.00     0.033 C 
ATOM     29  C   UNL     1      26.148  35.540  25.735  1.00  0.00     0.020 C 
ATOM     30  C   UNL     1      27.081  38.152  25.261  1.00  0.00     0.010 C 
ATOM     31  C   UNL     1      27.177  36.088  26.818  1.00  0.00     0.006 C 
ATOM     32  C   UNL     1      26.001  34.010  25.868  1.00  0.00     0.017 C 
ATOM     33  C   UNL     1      27.821  37.506  26.466  1.00  0.00    -0.022 C 
ATOM     34  C   UNL     1      26.630  36.054  28.265  1.00  0.00     0.005 C 
ATOM     35  C   UNL     1      29.279  37.255  25.971  1.00  0.00     0.012 C 
ATOM     36  C   UNL     1      27.770  38.551  27.681  1.00  0.00     0.024 C 
ATOM     37  C   UNL     1      27.715  36.511  29.298  1.00  0.00     0.008 C 
ATOM     38  C   UNL     1      28.049  38.048  29.168  1.00  0.00    -0.017 C 
ATOM     39  C   UNL     1      28.486  39.875  27.396  1.00  0.00    -0.024 C 
ATOM     40  C   UNL     1      26.972  38.786  30.042  1.00  0.00     0.013 C 
ATOM     41  C   UNL     1      29.566  38.419  29.664  1.00  0.00     0.009 C 
ATOM     42  C   UNL     1      29.297  40.520  28.244  1.00  0.00     0.005 C 
ATOM     43  C   UNL     1      29.784  39.986  29.614  1.00  0.00     0.096 C 
ATOM     44  C   UNL     1      29.872  37.946  31.145  1.00  0.00     0.043 C 
ATOM     45  C   UNL     1      30.637  37.682  28.759  1.00  0.00     0.015 C 
ATOM     46  C   UNL     1      31.280  40.370  29.915  1.00  0.00     0.037 C 
ATOM     47  O   UNL     1      29.024  40.623  30.630  1.00  0.00    -0.369 OA
ATOM     48  C   UNL     1      31.150  38.617  31.758  1.00  0.00     0.124 C 
ATOM     49  C   UNL     1      31.252  40.144  31.402  1.00  0.00     0.026 C 
ATOM     50  C   UNL     1      31.612  41.839  29.484  1.00  0.00     0.014 C 
ATOM     51  C   UNL     1      29.921  40.836  31.721  1.00  0.00     0.171 C 
ATOM     52  C   UNL     1      32.482  40.772  32.117  1.00  0.00     0.013 C 
ATOM     53  C   UNL     1      32.912  42.364  30.112  1.00  0.00    -0.035 C 
ATOM     54  C   UNL     1      32.817  42.210  31.666  1.00  0.00     0.007 C 
ATOM     55  C   UNL     1      34.150  41.611  29.549  1.00  0.00     0.011 C 
ATOM     56  C   UNL     1      33.046  43.866  29.767  1.00  0.00     0.011 C 
BRANCH  29  57
ATOM     57  C   UNL     1      24.711  36.168  25.933  1.00  0.00     0.165 C 
BRANCH  57  58
ATOM     58  O   UNL     1      24.737  37.246  26.835  1.00  0.00    -0.396 OA
ATOM     59  H   UNL     1      23.800  37.458  27.071  1.00  0.00     0.210 HD
ENDBRANCH  57  58
ENDBRANCH  29  57
BRANCH  48  60
ATOM     60  O   UNL     1      32.293  37.939  31.336  1.00  0.00    -0.392 OA
ATOM     61  H   UNL     1      32.781  37.561  32.100  1.00  0.00     0.210 HD
ENDBRANCH  48  60
ENDBRANCH  26  27
ENDBRANCH   6  26
BRANCH   5  62
ATOM     62  O   UNL     1      30.133  32.847  24.856  1.00  0.00    -0.385 OA
ATOM     63  H   UNL     1      29.516  32.605  24.116  1.00  0.00     0.211 HD
ENDBRANCH   5  62
TORSDOF 14
ENDMDL
MODEL 5
REMARK VINA RESULT:    79.126      2.593      6.327
REMARK INTER + INTRA:         138.497
REMARK INTER:                 122.752
REMARK INTRA:                  15.745
REMARK UNBOUND:                13.115
REMARK SMILES C[C@@H]1O[C@@H](O[C@@H]2CC[C@]3(C)[C@@H](CC[C@]4(C)[C@H]3C=C[C@]35OC[C@@]6(CCC(C)(C)C[C@@H]63)[C@H](O)C[C@]54C)[C@@]2(C)CO)[C@H](O)[C@@H](O[C@H]2O[C@H](CO)[C@@H](O)[C@H](O)[C@@H]2O)[C@H]1O
REMARK SMILES IDX 1 1 2 2 54 3 41 4 39 5 4 6 3 7 55 8 42 10 43 11 52 12 44 13
REMARK SMILES IDX 50 14 45 15 48 16 53 17 51 19 46 21 47 22 49 24 5 26 6 27
REMARK SMILES IDX 7 28 35 29 8 30 11 31 36 32 9 33 12 34 10 35 16 36 13 37
REMARK SMILES IDX 14 38 17 39 15 40 33 41 18 42 19 43 32 44 34 45 29 46 20 47
REMARK SMILES IDX 30 48 22 49 28 50 21 51 23 52 25 53 24 54 26 55 27 56 37 57
REMARK SMILES IDX 38 58 31 60 40 62
REMARK H PARENT 55 9 53 18 51 20 47 23 49 25 38 59 31 61 40 63
REMARK Flexibility Score: inf
ROOT
ATOM      1  C   UNL     1      23.252  38.550  26.111  1.00  0.00     0.041 C 
ATOM      2  C   UNL     1      24.522  38.383  26.962  1.00  0.00     0.150 C 
ATOM      3  C   UNL     1      25.137  36.942  26.893  1.00  0.00     0.175 C 
ATOM      4  C   UNL     1      26.675  37.002  27.051  1.00  0.00     0.186 C 
ATOM      5  C   UNL     1      27.211  37.844  25.856  1.00  0.00     0.202 C 
ATOM      6  C   UNL     1      26.288  39.090  25.566  1.00  0.00     0.282 C 
ATOM      7  O   UNL     1      25.463  39.400  26.690  1.00  0.00    -0.344 OA
ENDROOT
BRANCH   3   8
ATOM      8  O   UNL     1      24.608  36.103  27.871  1.00  0.00    -0.388 OA
ATOM      9  H   UNL     1      23.779  35.656  27.501  1.00  0.00     0.211 HD
ENDBRANCH   3   8
BRANCH   4  10
ATOM     10  O   UNL     1      26.916  37.651  28.286  1.00  0.00    -0.341 OA
BRANCH  10  11
ATOM     11  C   UNL     1      27.517  36.858  29.301  1.00  0.00     0.282 C 
ATOM     12  C   UNL     1      26.526  36.800  30.458  1.00  0.00     0.202 C 
ATOM     13  O   UNL     1      28.692  37.459  29.825  1.00  0.00    -0.341 OA
ATOM     14  C   UNL     1      26.092  38.250  30.810  1.00  0.00     0.179 C 
ATOM     15  C   UNL     1      28.486  38.869  29.985  1.00  0.00     0.178 C 
ATOM     16  C   UNL     1      27.347  39.152  31.008  1.00  0.00     0.177 C 
BRANCH  12  17
ATOM     17  O   UNL     1      27.096  36.096  31.560  1.00  0.00    -0.385 OA
ATOM     18  H   UNL     1      27.546  35.232  31.303  1.00  0.00     0.211 HD
ENDBRANCH  12  17
BRANCH  14  19
ATOM     19  O   UNL     1      25.356  38.168  32.023  1.00  0.00    -0.387 OA
ATOM     20  H   UNL     1      25.420  39.060  32.474  1.00  0.00     0.211 HD
ENDBRANCH  14  19
BRANCH  15  21
ATOM     21  C   UNL     1      29.855  39.499  30.255  1.00  0.00     0.191 C 
BRANCH  21  22
ATOM     22  O   UNL     1      30.372  39.345  31.560  1.00  0.00    -0.394 OA
ATOM     23  H   UNL     1      30.367  40.225  32.000  1.00  0.00     0.210 HD
ENDBRANCH  21  22
ENDBRANCH  15  21
BRANCH  16  24
ATOM     24  O   UNL     1      26.986  40.506  31.081  1.00  0.00    -0.387 OA
ATOM     25  H   UNL     1      27.776  41.062  31.344  1.00  0.00     0.211 HD
ENDBRANCH  16  24
ENDBRANCH  10  11
ENDBRANCH   4  10
BRANCH   6  26
ATOM     26  O   UNL     1      27.099  40.225  25.297  1.00  0.00    -0.346 OA
BRANCH  26  27
ATOM     27  C   UNL     1      27.905  40.064  24.124  1.00  0.00     0.130 C 
ATOM     28  C   UNL     1      27.841  38.587  23.700  1.00  0.00     0.033 C 
ATOM     29  C   UNL     1      29.377  40.596  24.341  1.00  0.00     0.020 C 
ATOM     30  C   UNL     1      29.116  37.807  24.079  1.00  0.00     0.010 C 
ATOM     31  C   UNL     1      30.083  39.748  25.488  1.00  0.00     0.006 C 
ATOM     32  C   UNL     1      29.250  42.071  24.773  1.00  0.00     0.017 C 
ATOM     33  C   UNL     1      29.804  38.177  25.422  1.00  0.00    -0.022 C 
ATOM     34  C   UNL     1      31.592  40.052  25.642  1.00  0.00     0.005 C 
ATOM     35  C   UNL     1      28.762  37.834  26.531  1.00  0.00     0.012 C 
ATOM     36  C   UNL     1      31.131  37.286  25.547  1.00  0.00     0.024 C 
ATOM     37  C   UNL     1      32.214  39.266  26.846  1.00  0.00     0.008 C 
ATOM     38  C   UNL     1      32.275  37.712  26.571  1.00  0.00    -0.017 C 
ATOM     39  C   UNL     1      30.867  35.778  25.601  1.00  0.00    -0.024 C 
ATOM     40  C   UNL     1      33.615  37.478  25.785  1.00  0.00     0.013 C 
ATOM     41  C   UNL     1      32.232  36.817  27.943  1.00  0.00     0.009 C 
ATOM     42  C   UNL     1      31.461  34.913  26.433  1.00  0.00     0.005 C 
ATOM     43  C   UNL     1      32.416  35.284  27.595  1.00  0.00     0.096 C 
ATOM     44  C   UNL     1      33.367  37.205  28.978  1.00  0.00     0.043 C 
ATOM     45  C   UNL     1      30.867  37.051  28.712  1.00  0.00     0.015 C 
ATOM     46  C   UNL     1      32.206  34.375  28.862  1.00  0.00     0.037 C 
ATOM     47  O   UNL     1      33.746  35.029  27.169  1.00  0.00    -0.369 OA
ATOM     48  C   UNL     1      33.579  36.128  30.098  1.00  0.00     0.124 C 
ATOM     49  C   UNL     1      33.520  34.662  29.536  1.00  0.00     0.026 C 
ATOM     50  C   UNL     1      31.982  32.872  28.483  1.00  0.00     0.014 C 
ATOM     51  C   UNL     1      34.442  34.541  28.317  1.00  0.00     0.171 C 
ATOM     52  C   UNL     1      33.834  33.648  30.673  1.00  0.00     0.013 C 
ATOM     53  C   UNL     1      32.170  31.923  29.675  1.00  0.00    -0.035 C 
ATOM     54  C   UNL     1      33.584  32.171  30.297  1.00  0.00     0.007 C 
ATOM     55  C   UNL     1      31.049  32.123  30.734  1.00  0.00     0.011 C 
ATOM     56  C   UNL     1      32.104  30.468  29.153  1.00  0.00     0.011 C 
BRANCH  29  57
ATOM     57  C   UNL     1      30.216  40.570  23.002  1.00  0.00     0.165 C 
BRANCH  57  58
ATOM     58  O   UNL     1      29.653  41.405  22.021  1.00  0.00    -0.396 OA
ATOM     59  H   UNL     1      28.853  40.946  21.664  1.00  0.00     0.210 HD
ENDBRANCH  57  58
ENDBRANCH  29  57
BRANCH  48  60
ATOM     60  O   UNL     1      32.637  36.302  31.110  1.00  0.00    -0.392 OA
ATOM     61  H   UNL     1      32.980  36.896  31.814  1.00  0.00     0.210 HD
ENDBRANCH  48  60
ENDBRANCH  26  27
ENDBRANCH   6  26
BRANCH   5  62
ATOM     62  O   UNL     1      27.166  37.026  24.710  1.00  0.00    -0.385 OA
ATOM     63  H   UNL     1      26.348  36.469  24.802  1.00  0.00     0.211 HD
ENDBRANCH   5  62
TORSDOF 14
ENDMDL
