MODEL 1
REMARK VINA RESULT:    -6.074      0.000      0.000
REMARK INTER + INTRA:          -7.602
REMARK INTER:                  -7.316
REMARK INTRA:                  -0.285
REMARK UNBOUND:                -0.285
REMARK SMILES O=c1c(O)c(-c2ccc(O)cc2O)oc2cc(O)cc(O)c12
REMARK SMILES IDX 5 1 3 2 2 3 1 4 22 5 20 6 19 7 17 8 16 9 15 10 14 11 6 12
REMARK SMILES IDX 8 13 7 14 9 15 11 16 12 17 10 18 13 20 4 22 21 24 18 26
REMARK H PARENT 10 19 13 21 4 23 21 25 18 27
REMARK Flexibility Score: inf
ROOT
ATOM      1  C   UNL     1      15.595  -7.575 -31.721  1.00  0.00     0.184 A 
ATOM      2  C   UNL     1      14.882  -7.134 -32.847  1.00  0.00     0.208 A 
ATOM      3  C   UNL     1      15.593  -6.724 -33.986  1.00  0.00     0.238 A 
ATOM      4  O   UNL     1      14.947  -6.388 -35.012  1.00  0.00    -0.285 OA
ATOM      5  C   UNL     1      17.010  -6.734 -33.972  1.00  0.00     0.111 A 
ATOM      6  C   UNL     1      17.835  -6.303 -35.054  1.00  0.00     0.134 A 
ATOM      7  C   UNL     1      19.222  -6.472 -34.975  1.00  0.00     0.093 A 
ATOM      8  C   UNL     1      19.820  -6.996 -33.830  1.00  0.00     0.123 A 
ATOM      9  C   UNL     1      19.028  -7.367 -32.742  1.00  0.00     0.094 A 
ATOM     10  C   UNL     1      17.638  -7.245 -32.806  1.00  0.00     0.146 A 
ATOM     11  O   UNL     1      16.920  -7.623 -31.754  1.00  0.00    -0.451 OA
ENDROOT
BRANCH   1  12
ATOM     12  C   UNL     1      14.899  -7.997 -30.487  1.00  0.00     0.063 A 
ATOM     13  C   UNL     1      14.224  -9.789 -28.983  1.00  0.00     0.047 A 
ATOM     14  C   UNL     1      14.919  -9.353 -30.114  1.00  0.00     0.020 A 
ATOM     15  C   UNL     1      13.492  -8.877 -28.214  1.00  0.00     0.119 A 
ATOM     16  C   UNL     1      13.463  -7.528 -28.579  1.00  0.00     0.093 A 
ATOM     17  C   UNL     1      14.165  -7.077 -29.703  1.00  0.00     0.130 A 
BRANCH  15  18
ATOM     18  O   UNL     1      12.790  -9.301 -27.088  1.00  0.00    -0.508 OA
ATOM     19  H   UNL     1      12.900 -10.238 -26.717  1.00  0.00     0.293 HD
ENDBRANCH  15  18
BRANCH  17  20
ATOM     20  O   UNL     1      14.130  -5.712 -29.999  1.00  0.00    -0.507 OA
ATOM     21  H   UNL     1      14.573  -5.312 -30.815  1.00  0.00     0.293 HD
ENDBRANCH  17  20
ENDBRANCH   1  12
BRANCH   2  22
ATOM     22  O   UNL     1      13.484  -7.131 -32.831  1.00  0.00    -0.502 OA
ATOM     23  H   UNL     1      12.932  -7.367 -33.646  1.00  0.00     0.293 HD
ENDBRANCH   2  22
BRANCH   6  24
ATOM     24  O   UNL     1      17.346  -5.683 -36.209  1.00  0.00    -0.507 OA
ATOM     25  H   UNL     1      17.479  -4.711 -36.441  1.00  0.00     0.293 HD
ENDBRANCH   6  24
BRANCH   8  26
ATOM     26  O   UNL     1      21.205  -7.136 -33.780  1.00  0.00    -0.508 OA
ATOM     27  H   UNL     1      21.688  -7.329 -32.910  1.00  0.00     0.293 HD
ENDBRANCH   8  26
TORSDOF 6
ENDMDL
MODEL 2
REMARK VINA RESULT:    -5.895      1.915      6.613
REMARK INTER + INTRA:          -7.386
REMARK INTER:                  -7.105
REMARK INTRA:                  -0.281
REMARK UNBOUND:                -0.285
REMARK SMILES O=c1c(O)c(-c2ccc(O)cc2O)oc2cc(O)cc(O)c12
REMARK SMILES IDX 5 1 3 2 2 3 1 4 22 5 20 6 19 7 17 8 16 9 15 10 14 11 6 12
REMARK SMILES IDX 8 13 7 14 9 15 11 16 12 17 10 18 13 20 4 22 21 24 18 26
REMARK H PARENT 10 19 13 21 4 23 21 25 18 27
REMARK Flexibility Score: inf
ROOT
ATOM      1  C   UNL     1      15.815  -6.188 -31.233  1.00  0.00     0.184 A 
ATOM      2  C   UNL     1      15.160  -5.030 -31.681  1.00  0.00     0.208 A 
ATOM      3  C   UNL     1      13.919  -4.691 -31.120  1.00  0.00     0.238 A 
ATOM      4  O   UNL     1      13.366  -3.619 -31.481  1.00  0.00    -0.285 OA
ATOM      5  C   UNL     1      13.336  -5.530 -30.139  1.00  0.00     0.111 A 
ATOM      6  C   UNL     1      12.064  -5.306 -29.531  1.00  0.00     0.134 A 
ATOM      7  C   UNL     1      11.643  -6.136 -28.485  1.00  0.00     0.093 A 
ATOM      8  C   UNL     1      12.415  -7.218 -28.069  1.00  0.00     0.123 A 
ATOM      9  C   UNL     1      13.634  -7.483 -28.695  1.00  0.00     0.094 A 
ATOM     10  C   UNL     1      14.099  -6.651 -29.716  1.00  0.00     0.146 A 
ATOM     11  O   UNL     1      15.270  -6.929 -30.277  1.00  0.00    -0.451 OA
ENDROOT
BRANCH   1  12
ATOM     12  C   UNL     1      17.113  -6.607 -31.804  1.00  0.00     0.063 A 
ATOM     13  C   UNL     1      19.516  -6.890 -31.531  1.00  0.00     0.047 A 
ATOM     14  C   UNL     1      18.267  -6.554 -31.002  1.00  0.00     0.020 A 
ATOM     15  C   UNL     1      19.629  -7.276 -32.872  1.00  0.00     0.119 A 
ATOM     16  C   UNL     1      18.489  -7.330 -33.677  1.00  0.00     0.093 A 
ATOM     17  C   UNL     1      17.230  -7.005 -33.156  1.00  0.00     0.130 A 
BRANCH  15  18
ATOM     18  O   UNL     1      20.870  -7.609 -33.411  1.00  0.00    -0.508 OA
ATOM     19  H   UNL     1      21.324  -8.488 -33.193  1.00  0.00     0.293 HD
ENDBRANCH  15  18
BRANCH  17  20
ATOM     20  O   UNL     1      16.120  -7.112 -33.998  1.00  0.00    -0.507 OA
ATOM     21  H   UNL     1      15.668  -6.311 -34.418  1.00  0.00     0.293 HD
ENDBRANCH  17  20
ENDBRANCH   1  12
BRANCH   2  22
ATOM     22  O   UNL     1      15.757  -4.222 -32.653  1.00  0.00    -0.502 OA
ATOM     23  H   UNL     1      16.405  -3.481 -32.419  1.00  0.00     0.293 HD
ENDBRANCH   2  22
BRANCH   6  24
ATOM     24  O   UNL     1      11.173  -4.306 -29.933  1.00  0.00    -0.507 OA
ATOM     25  H   UNL     1      10.201  -4.456 -30.155  1.00  0.00     0.293 HD
ENDBRANCH   6  24
BRANCH   8  26
ATOM     26  O   UNL     1      11.957  -8.032 -27.035  1.00  0.00    -0.508 OA
ATOM     27  H   UNL     1      10.968  -8.202 -26.892  1.00  0.00     0.293 HD
ENDBRANCH   8  26
TORSDOF 6
ENDMDL
MODEL 3
REMARK VINA RESULT:    -5.867      1.557      6.707
REMARK INTER + INTRA:          -7.353
REMARK INTER:                  -7.052
REMARK INTRA:                  -0.301
REMARK UNBOUND:                -0.285
REMARK SMILES O=c1c(O)c(-c2ccc(O)cc2O)oc2cc(O)cc(O)c12
REMARK SMILES IDX 5 1 3 2 2 3 1 4 22 5 20 6 19 7 17 8 16 9 15 10 14 11 6 12
REMARK SMILES IDX 8 13 7 14 9 15 11 16 12 17 10 18 13 20 4 22 21 24 18 26
REMARK H PARENT 10 19 13 21 4 23 21 25 18 27
REMARK Flexibility Score: inf
ROOT
ATOM      1  C   UNL     1      15.280  -7.585 -31.160  1.00  0.00     0.184 A 
ATOM      2  C   UNL     1      14.202  -6.789 -30.743  1.00  0.00     0.208 A 
ATOM      3  C   UNL     1      13.509  -7.137 -29.573  1.00  0.00     0.238 A 
ATOM      4  O   UNL     1      12.584  -6.384 -29.172  1.00  0.00    -0.285 OA
ATOM      5  C   UNL     1      13.887  -8.296 -28.851  1.00  0.00     0.111 A 
ATOM      6  C   UNL     1      13.231  -8.767 -27.674  1.00  0.00     0.134 A 
ATOM      7  C   UNL     1      13.766  -9.856 -26.974  1.00  0.00     0.093 A 
ATOM      8  C   UNL     1      14.894 -10.529 -27.442  1.00  0.00     0.123 A 
ATOM      9  C   UNL     1      15.509 -10.113 -28.623  1.00  0.00     0.094 A 
ATOM     10  C   UNL     1      15.021  -9.008 -29.323  1.00  0.00     0.146 A 
ATOM     11  O   UNL     1      15.644  -8.636 -30.436  1.00  0.00    -0.451 OA
ENDROOT
BRANCH   1  12
ATOM     12  C   UNL     1      16.031  -7.279 -32.395  1.00  0.00     0.063 A 
ATOM     13  C   UNL     1      16.037  -6.987 -34.812  1.00  0.00     0.047 A 
ATOM     14  C   UNL     1      15.345  -7.219 -33.622  1.00  0.00     0.020 A 
ATOM     15  C   UNL     1      17.427  -6.820 -34.795  1.00  0.00     0.119 A 
ATOM     16  C   UNL     1      18.118  -6.880 -33.582  1.00  0.00     0.093 A 
ATOM     17  C   UNL     1      17.434  -7.101 -32.381  1.00  0.00     0.130 A 
BRANCH  15  18
ATOM     18  O   UNL     1      18.128  -6.593 -35.978  1.00  0.00    -0.508 OA
ATOM     19  H   UNL     1      17.722  -6.799 -36.883  1.00  0.00     0.293 HD
ENDBRANCH  15  18
BRANCH  17  20
ATOM     20  O   UNL     1      18.172  -7.116 -31.195  1.00  0.00    -0.507 OA
ATOM     21  H   UNL     1      18.558  -6.281 -30.775  1.00  0.00     0.293 HD
ENDBRANCH  17  20
ENDBRANCH   1  12
BRANCH   2  22
ATOM     22  O   UNL     1      13.849  -5.653 -31.478  1.00  0.00    -0.502 OA
ATOM     23  H   UNL     1      12.889  -5.435 -31.713  1.00  0.00     0.293 HD
ENDBRANCH   2  22
BRANCH   6  24
ATOM     24  O   UNL     1      12.045  -8.223 -27.170  1.00  0.00    -0.507 OA
ATOM     25  H   UNL     1      11.995  -7.528 -26.442  1.00  0.00     0.293 HD
ENDBRANCH   6  24
BRANCH   8  26
ATOM     26  O   UNL     1      15.390 -11.617 -26.728  1.00  0.00    -0.508 OA
ATOM     27  H   UNL     1      15.836 -12.399 -27.194  1.00  0.00     0.293 HD
ENDBRANCH   8  26
TORSDOF 6
ENDMDL
MODEL 4
REMARK VINA RESULT:    -5.864      1.947      6.931
REMARK INTER + INTRA:          -7.349
REMARK INTER:                  -6.951
REMARK INTRA:                  -0.398
REMARK UNBOUND:                -0.285
REMARK SMILES O=c1c(O)c(-c2ccc(O)cc2O)oc2cc(O)cc(O)c12
REMARK SMILES IDX 5 1 3 2 2 3 1 4 22 5 20 6 19 7 17 8 16 9 15 10 14 11 6 12
REMARK SMILES IDX 8 13 7 14 9 15 11 16 12 17 10 18 13 20 4 22 21 24 18 26
REMARK H PARENT 10 19 13 21 4 23 21 25 18 27
REMARK Flexibility Score: inf
ROOT
ATOM      1  C   UNL     1      15.590  -7.050 -30.693  1.00  0.00     0.184 A 
ATOM      2  C   UNL     1      15.211  -8.112 -29.857  1.00  0.00     0.208 A 
ATOM      3  C   UNL     1      14.020  -8.008 -29.122  1.00  0.00     0.238 A 
ATOM      4  O   UNL     1      13.655  -8.989 -28.422  1.00  0.00    -0.285 OA
ATOM      5  C   UNL     1      13.239  -6.830 -29.210  1.00  0.00     0.111 A 
ATOM      6  C   UNL     1      12.034  -6.599 -28.480  1.00  0.00     0.134 A 
ATOM      7  C   UNL     1      11.280  -5.448 -28.738  1.00  0.00     0.093 A 
ATOM      8  C   UNL     1      11.717  -4.490 -29.652  1.00  0.00     0.123 A 
ATOM      9  C   UNL     1      12.923  -4.677 -30.330  1.00  0.00     0.094 A 
ATOM     10  C   UNL     1      13.679  -5.833 -30.120  1.00  0.00     0.146 A 
ATOM     11  O   UNL     1      14.813  -5.979 -30.796  1.00  0.00    -0.451 OA
ENDROOT
BRANCH   1  12
ATOM     12  C   UNL     1      16.845  -7.095 -31.473  1.00  0.00     0.063 A 
ATOM     13  C   UNL     1      19.276  -6.970 -31.520  1.00  0.00     0.047 A 
ATOM     14  C   UNL     1      18.077  -6.988 -30.803  1.00  0.00     0.020 A 
ATOM     15  C   UNL     1      19.260  -7.052 -32.916  1.00  0.00     0.119 A 
ATOM     16  C   UNL     1      18.041  -7.157 -33.592  1.00  0.00     0.093 A 
ATOM     17  C   UNL     1      16.833  -7.186 -32.884  1.00  0.00     0.130 A 
BRANCH  15  18
ATOM     18  O   UNL     1      20.450  -7.031 -33.642  1.00  0.00    -0.508 OA
ATOM     19  H   UNL     1      20.837  -7.874 -34.049  1.00  0.00     0.293 HD
ENDBRANCH  15  18
BRANCH  17  20
ATOM     20  O   UNL     1      15.647  -7.328 -33.609  1.00  0.00    -0.507 OA
ATOM     21  H   UNL     1      14.978  -8.066 -33.433  1.00  0.00     0.293 HD
ENDBRANCH  17  20
ENDBRANCH   1  12
BRANCH   2  22
ATOM     22  O   UNL     1      16.003  -9.262 -29.786  1.00  0.00    -0.502 OA
ATOM     23  H   UNL     1      16.592  -9.467 -28.989  1.00  0.00     0.293 HD
ENDBRANCH   2  22
BRANCH   6  24
ATOM     24  O   UNL     1      11.553  -7.448 -27.479  1.00  0.00    -0.507 OA
ATOM     25  H   UNL     1      12.046  -8.249 -27.117  1.00  0.00     0.293 HD
ENDBRANCH   6  24
BRANCH   8  26
ATOM     26  O   UNL     1      10.949  -3.349 -29.873  1.00  0.00    -0.508 OA
ATOM     27  H   UNL     1      10.927  -2.891 -30.777  1.00  0.00     0.293 HD
ENDBRANCH   8  26
TORSDOF 6
ENDMDL
MODEL 5
REMARK VINA RESULT:    -5.855      1.258      2.838
REMARK INTER + INTRA:          -7.338
REMARK INTER:                  -6.939
REMARK INTRA:                  -0.399
REMARK UNBOUND:                -0.285
REMARK SMILES O=c1c(O)c(-c2ccc(O)cc2O)oc2cc(O)cc(O)c12
REMARK SMILES IDX 5 1 3 2 2 3 1 4 22 5 20 6 19 7 17 8 16 9 15 10 14 11 6 12
REMARK SMILES IDX 8 13 7 14 9 15 11 16 12 17 10 18 13 20 4 22 21 24 18 26
REMARK H PARENT 10 19 13 21 4 23 21 25 18 27
REMARK Flexibility Score: inf
ROOT
ATOM      1  C   UNL     1      16.000  -7.620 -31.518  1.00  0.00     0.184 A 
ATOM      2  C   UNL     1      17.374  -7.367 -31.384  1.00  0.00     0.208 A 
ATOM      3  C   UNL     1      18.114  -7.005 -32.521  1.00  0.00     0.238 A 
ATOM      4  O   UNL     1      19.332  -6.720 -32.383  1.00  0.00    -0.285 OA
ATOM      5  C   UNL     1      17.474  -6.929 -33.782  1.00  0.00     0.111 A 
ATOM      6  C   UNL     1      18.132  -6.611 -35.008  1.00  0.00     0.134 A 
ATOM      7  C   UNL     1      17.376  -6.445 -36.176  1.00  0.00     0.093 A 
ATOM      8  C   UNL     1      15.997  -6.648 -36.175  1.00  0.00     0.123 A 
ATOM      9  C   UNL     1      15.350  -7.017 -34.995  1.00  0.00     0.094 A 
ATOM     10  C   UNL     1      16.072  -7.153 -33.807  1.00  0.00     0.146 A 
ATOM     11  O   UNL     1      15.416  -7.492 -32.702  1.00  0.00    -0.451 OA
ENDROOT
BRANCH   1  12
ATOM     12  C   UNL     1      15.177  -8.026 -30.360  1.00  0.00     0.063 A 
ATOM     13  C   UNL     1      14.393  -9.790 -28.875  1.00  0.00     0.047 A 
ATOM     14  C   UNL     1      15.203  -9.365 -29.931  1.00  0.00     0.020 A 
ATOM     15  C   UNL     1      13.538  -8.883 -28.238  1.00  0.00     0.119 A 
ATOM     16  C   UNL     1      13.502  -7.551 -28.658  1.00  0.00     0.093 A 
ATOM     17  C   UNL     1      14.317  -7.111 -29.708  1.00  0.00     0.130 A 
BRANCH  15  18
ATOM     18  O   UNL     1      12.722  -9.297 -27.188  1.00  0.00    -0.508 OA
ATOM     19  H   UNL     1      13.102  -9.765 -26.374  1.00  0.00     0.293 HD
ENDBRANCH  15  18
BRANCH  17  20
ATOM     20  O   UNL     1      14.266  -5.760 -30.062  1.00  0.00    -0.507 OA
ATOM     21  H   UNL     1      13.996  -5.440 -30.982  1.00  0.00     0.293 HD
ENDBRANCH  17  20
ENDBRANCH   1  12
BRANCH   2  22
ATOM     22  O   UNL     1      17.981  -7.453 -30.128  1.00  0.00    -0.502 OA
ATOM     23  H   UNL     1      17.463  -7.339 -29.266  1.00  0.00     0.293 HD
ENDBRANCH   2  22
BRANCH   6  24
ATOM     24  O   UNL     1      19.518  -6.476 -35.138  1.00  0.00    -0.507 OA
ATOM     25  H   UNL     1      20.144  -6.225 -34.390  1.00  0.00     0.293 HD
ENDBRANCH   6  24
BRANCH   8  26
ATOM     26  O   UNL     1      15.279  -6.489 -37.358  1.00  0.00    -0.508 OA
ATOM     27  H   UNL     1      14.819  -5.615 -37.586  1.00  0.00     0.293 HD
ENDBRANCH   8  26
TORSDOF 6
ENDMDL
MODEL 6
REMARK VINA RESULT:    -5.646      1.662      1.669
REMARK INTER + INTRA:          -7.086
REMARK INTER:                  -6.721
REMARK INTRA:                  -0.365
REMARK UNBOUND:                -0.285
REMARK SMILES O=c1c(O)c(-c2ccc(O)cc2O)oc2cc(O)cc(O)c12
REMARK SMILES IDX 5 1 3 2 2 3 1 4 22 5 20 6 19 7 17 8 16 9 15 10 14 11 6 12
REMARK SMILES IDX 8 13 7 14 9 15 11 16 12 17 10 18 13 20 4 22 21 24 18 26
REMARK H PARENT 10 19 13 21 4 23 21 25 18 27
REMARK Flexibility Score: inf
ROOT
ATOM      1  C   UNL     1      15.936  -7.105 -31.234  1.00  0.00     0.184 A 
ATOM      2  C   UNL     1      15.681  -7.430 -32.575  1.00  0.00     0.208 A 
ATOM      3  C   UNL     1      16.465  -6.839 -33.579  1.00  0.00     0.238 A 
ATOM      4  O   UNL     1      16.272  -7.181 -34.775  1.00  0.00    -0.285 OA
ATOM      5  C   UNL     1      17.474  -5.908 -33.228  1.00  0.00     0.111 A 
ATOM      6  C   UNL     1      18.302  -5.218 -34.165  1.00  0.00     0.134 A 
ATOM      7  C   UNL     1      19.348  -4.413 -33.699  1.00  0.00     0.093 A 
ATOM      8  C   UNL     1      19.558  -4.222 -32.334  1.00  0.00     0.123 A 
ATOM      9  C   UNL     1      18.718  -4.846 -31.409  1.00  0.00     0.094 A 
ATOM     10  C   UNL     1      17.689  -5.684 -31.843  1.00  0.00     0.146 A 
ATOM     11  O   UNL     1      16.921  -6.270 -30.931  1.00  0.00    -0.451 OA
ENDROOT
BRANCH   1  12
ATOM     12  C   UNL     1      15.129  -7.679 -30.137  1.00  0.00     0.063 A 
ATOM     13  C   UNL     1      14.480  -9.623 -28.823  1.00  0.00     0.047 A 
ATOM     14  C   UNL     1      15.270  -9.041 -29.817  1.00  0.00     0.020 A 
ATOM     15  C   UNL     1      13.531  -8.854 -28.140  1.00  0.00     0.119 A 
ATOM     16  C   UNL     1      13.381  -7.500 -28.452  1.00  0.00     0.093 A 
ATOM     17  C   UNL     1      14.174  -6.902 -29.439  1.00  0.00     0.130 A 
BRANCH  15  18
ATOM     18  O   UNL     1      12.734  -9.425 -27.150  1.00  0.00    -0.508 OA
ATOM     19  H   UNL     1      11.920  -9.983 -27.382  1.00  0.00     0.293 HD
ENDBRANCH  15  18
BRANCH  17  20
ATOM     20  O   UNL     1      14.006  -5.538 -29.684  1.00  0.00    -0.507 OA
ATOM     21  H   UNL     1      13.700  -4.883 -28.976  1.00  0.00     0.293 HD
ENDBRANCH  17  20
ENDBRANCH   1  12
BRANCH   2  22
ATOM     22  O   UNL     1      14.677  -8.348 -32.893  1.00  0.00    -0.502 OA
ATOM     23  H   UNL     1      14.016  -8.689 -32.206  1.00  0.00     0.293 HD
ENDBRANCH   2  22
BRANCH   6  24
ATOM     24  O   UNL     1      18.122  -5.268 -35.551  1.00  0.00    -0.507 OA
ATOM     25  H   UNL     1      17.231  -5.207 -36.018  1.00  0.00     0.293 HD
ENDBRANCH   6  24
BRANCH   8  26
ATOM     26  O   UNL     1      20.599  -3.402 -31.907  1.00  0.00    -0.508 OA
ATOM     27  H   UNL     1      21.144  -3.623 -31.080  1.00  0.00     0.293 HD
ENDBRANCH   8  26
TORSDOF 6
ENDMDL
MODEL 7
REMARK VINA RESULT:    -5.429      1.888      6.759
REMARK INTER + INTRA:          -6.825
REMARK INTER:                  -6.411
REMARK INTRA:                  -0.414
REMARK UNBOUND:                -0.285
REMARK SMILES O=c1c(O)c(-c2ccc(O)cc2O)oc2cc(O)cc(O)c12
REMARK SMILES IDX 5 1 3 2 2 3 1 4 22 5 20 6 19 7 17 8 16 9 15 10 14 11 6 12
REMARK SMILES IDX 8 13 7 14 9 15 11 16 12 17 10 18 13 20 4 22 21 24 18 26
REMARK H PARENT 10 19 13 21 4 23 21 25 18 27
REMARK Flexibility Score: inf
ROOT
ATOM      1  C   UNL     1      16.774  -6.703 -31.278  1.00  0.00     0.184 A 
ATOM      2  C   UNL     1      16.277  -5.478 -30.807  1.00  0.00     0.208 A 
ATOM      3  C   UNL     1      15.206  -5.481 -29.900  1.00  0.00     0.238 A 
ATOM      4  O   UNL     1      14.805  -4.382 -29.435  1.00  0.00    -0.285 OA
ATOM      5  C   UNL     1      14.628  -6.710 -29.498  1.00  0.00     0.111 A 
ATOM      6  C   UNL     1      13.514  -6.832 -28.614  1.00  0.00     0.134 A 
ATOM      7  C   UNL     1      13.103  -8.102 -28.190  1.00  0.00     0.093 A 
ATOM      8  C   UNL     1      13.724  -9.256 -28.667  1.00  0.00     0.123 A 
ATOM      9  C   UNL     1      14.777  -9.151 -29.576  1.00  0.00     0.094 A 
ATOM     10  C   UNL     1      15.233  -7.897 -29.989  1.00  0.00     0.146 A 
ATOM     11  O   UNL     1      16.247  -7.841 -30.845  1.00  0.00    -0.451 OA
ENDROOT
BRANCH   1  12
ATOM     12  C   UNL     1      17.885  -6.759 -32.251  1.00  0.00     0.063 A 
ATOM     13  C   UNL     1      18.624  -6.981 -34.560  1.00  0.00     0.047 A 
ATOM     14  C   UNL     1      17.595  -6.869 -33.623  1.00  0.00     0.020 A 
ATOM     15  C   UNL     1      19.959  -6.993 -34.139  1.00  0.00     0.119 A 
ATOM     16  C   UNL     1      20.258  -6.887 -32.778  1.00  0.00     0.093 A 
ATOM     17  C   UNL     1      19.236  -6.763 -31.830  1.00  0.00     0.130 A 
BRANCH  15  18
ATOM     18  O   UNL     1      20.994  -7.109 -35.065  1.00  0.00    -0.508 OA
ATOM     19  H   UNL     1      21.956  -6.920 -34.810  1.00  0.00     0.293 HD
ENDBRANCH  15  18
BRANCH  17  20
ATOM     20  O   UNL     1      19.595  -6.624 -30.487  1.00  0.00    -0.507 OA
ATOM     21  H   UNL     1      20.386  -6.072 -30.181  1.00  0.00     0.293 HD
ENDBRANCH  17  20
ENDBRANCH   1  12
BRANCH   2  22
ATOM     22  O   UNL     1      16.865  -4.280 -31.224  1.00  0.00    -0.502 OA
ATOM     23  H   UNL     1      16.813  -3.431 -30.675  1.00  0.00     0.293 HD
ENDBRANCH   2  22
BRANCH   6  24
ATOM     24  O   UNL     1      12.764  -5.747 -28.149  1.00  0.00    -0.507 OA
ATOM     25  H   UNL     1      11.854  -5.486 -28.493  1.00  0.00     0.293 HD
ENDBRANCH   6  24
BRANCH   8  26
ATOM     26  O   UNL     1      13.280 -10.503 -28.235  1.00  0.00    -0.508 OA
ATOM     27  H   UNL     1      13.618 -10.918 -27.374  1.00  0.00     0.293 HD
ENDBRANCH   8  26
TORSDOF 6
ENDMDL
MODEL 8
REMARK VINA RESULT:    -5.328      1.799      3.076
REMARK INTER + INTRA:          -6.704
REMARK INTER:                  -6.392
REMARK INTRA:                  -0.311
REMARK UNBOUND:                -0.285
REMARK SMILES O=c1c(O)c(-c2ccc(O)cc2O)oc2cc(O)cc(O)c12
REMARK SMILES IDX 5 1 3 2 2 3 1 4 22 5 20 6 19 7 17 8 16 9 15 10 14 11 6 12
REMARK SMILES IDX 8 13 7 14 9 15 11 16 12 17 10 18 13 20 4 22 21 24 18 26
REMARK H PARENT 10 19 13 21 4 23 21 25 18 27
REMARK Flexibility Score: inf
ROOT
ATOM      1  C   UNL     1      15.929  -6.441 -30.985  1.00  0.00     0.184 A 
ATOM      2  C   UNL     1      17.006  -5.628 -30.603  1.00  0.00     0.208 A 
ATOM      3  C   UNL     1      17.985  -5.302 -31.556  1.00  0.00     0.238 A 
ATOM      4  O   UNL     1      18.915  -4.522 -31.224  1.00  0.00    -0.285 OA
ATOM      5  C   UNL     1      17.887  -5.821 -32.871  1.00  0.00     0.111 A 
ATOM      6  C   UNL     1      18.842  -5.590 -33.907  1.00  0.00     0.134 A 
ATOM      7  C   UNL     1      18.580  -6.051 -35.202  1.00  0.00     0.093 A 
ATOM      8  C   UNL     1      17.432  -6.789 -35.486  1.00  0.00     0.123 A 
ATOM      9  C   UNL     1      16.519  -7.071 -34.468  1.00  0.00     0.094 A 
ATOM     10  C   UNL     1      16.735  -6.592 -33.174  1.00  0.00     0.146 A 
ATOM     11  O   UNL     1      15.835  -6.871 -32.237  1.00  0.00    -0.451 OA
ENDROOT
BRANCH   1  12
ATOM     12  C   UNL     1      14.881  -6.834 -30.019  1.00  0.00     0.063 A 
ATOM     13  C   UNL     1      13.127  -6.177 -28.464  1.00  0.00     0.047 A 
ATOM     14  C   UNL     1      14.086  -5.840 -29.422  1.00  0.00     0.020 A 
ATOM     15  C   UNL     1      12.954  -7.512 -28.083  1.00  0.00     0.119 A 
ATOM     16  C   UNL     1      13.742  -8.508 -28.668  1.00  0.00     0.093 A 
ATOM     17  C   UNL     1      14.699  -8.184 -29.638  1.00  0.00     0.130 A 
BRANCH  15  18
ATOM     18  O   UNL     1      12.004  -7.860 -27.125  1.00  0.00    -0.508 OA
ATOM     19  H   UNL     1      12.255  -7.980 -26.150  1.00  0.00     0.293 HD
ENDBRANCH  15  18
BRANCH  17  20
ATOM     20  O   UNL     1      15.431  -9.224 -30.215  1.00  0.00    -0.507 OA
ATOM     21  H   UNL     1      16.193  -9.070 -30.862  1.00  0.00     0.293 HD
ENDBRANCH  17  20
ENDBRANCH   1  12
BRANCH   2  22
ATOM     22  O   UNL     1      17.080  -5.133 -29.298  1.00  0.00    -0.502 OA
ATOM     23  H   UNL     1      17.460  -4.220 -29.084  1.00  0.00     0.293 HD
ENDBRANCH   2  22
BRANCH   6  24
ATOM     24  O   UNL     1      20.065  -4.942 -33.710  1.00  0.00    -0.507 OA
ATOM     25  H   UNL     1      20.774  -4.823 -34.417  1.00  0.00     0.293 HD
ENDBRANCH   6  24
BRANCH   8  26
ATOM     26  O   UNL     1      17.211  -7.246 -36.783  1.00  0.00    -0.508 OA
ATOM     27  H   UNL     1      16.641  -6.724 -37.440  1.00  0.00     0.293 HD
ENDBRANCH   8  26
TORSDOF 6
ENDMDL
MODEL 9
REMARK VINA RESULT:    -5.085      2.373      6.699
REMARK INTER + INTRA:          -6.411
REMARK INTER:                  -6.010
REMARK INTRA:                  -0.401
REMARK UNBOUND:                -0.285
REMARK SMILES O=c1c(O)c(-c2ccc(O)cc2O)oc2cc(O)cc(O)c12
REMARK SMILES IDX 5 1 3 2 2 3 1 4 22 5 20 6 19 7 17 8 16 9 15 10 14 11 6 12
REMARK SMILES IDX 8 13 7 14 9 15 11 16 12 17 10 18 13 20 4 22 21 24 18 26
REMARK H PARENT 10 19 13 21 4 23 21 25 18 27
REMARK Flexibility Score: inf
ROOT
ATOM      1  C   UNL     1      16.627  -6.206 -31.095  1.00  0.00     0.184 A 
ATOM      2  C   UNL     1      15.514  -7.054 -30.993  1.00  0.00     0.208 A 
ATOM      3  C   UNL     1      14.519  -6.761 -30.047  1.00  0.00     0.238 A 
ATOM      4  O   UNL     1      13.494  -7.490 -30.003  1.00  0.00    -0.285 OA
ATOM      5  C   UNL     1      14.667  -5.640 -29.194  1.00  0.00     0.111 A 
ATOM      6  C   UNL     1      13.742  -5.270 -28.172  1.00  0.00     0.134 A 
ATOM      7  C   UNL     1      13.928  -4.073 -27.471  1.00  0.00     0.093 A 
ATOM      8  C   UNL     1      15.039  -3.264 -27.710  1.00  0.00     0.123 A 
ATOM      9  C   UNL     1      15.981  -3.645 -28.666  1.00  0.00     0.094 A 
ATOM     10  C   UNL     1      15.803  -4.815 -29.408  1.00  0.00     0.146 A 
ATOM     11  O   UNL     1      16.716  -5.134 -30.318  1.00  0.00    -0.451 OA
ENDROOT
BRANCH   1  12
ATOM     12  C   UNL     1      17.716  -6.478 -32.057  1.00  0.00     0.063 A 
ATOM     13  C   UNL     1      19.946  -7.354 -32.489  1.00  0.00     0.047 A 
ATOM     14  C   UNL     1      18.879  -7.134 -31.616  1.00  0.00     0.020 A 
ATOM     15  C   UNL     1      19.869  -6.914 -33.815  1.00  0.00     0.119 A 
ATOM     16  C   UNL     1      18.720  -6.258 -34.263  1.00  0.00     0.093 A 
ATOM     17  C   UNL     1      17.639  -6.041 -33.400  1.00  0.00     0.130 A 
BRANCH  15  18
ATOM     18  O   UNL     1      20.930  -7.122 -34.695  1.00  0.00    -0.508 OA
ATOM     19  H   UNL     1      21.873  -7.283 -34.359  1.00  0.00     0.293 HD
ENDBRANCH  15  18
BRANCH  17  20
ATOM     20  O   UNL     1      16.501  -5.413 -33.912  1.00  0.00    -0.507 OA
ATOM     21  H   UNL     1      16.335  -4.419 -33.830  1.00  0.00     0.293 HD
ENDBRANCH  17  20
ENDBRANCH   1  12
BRANCH   2  22
ATOM     22  O   UNL     1      15.395  -8.156 -31.845  1.00  0.00    -0.502 OA
ATOM     23  H   UNL     1      15.174  -9.083 -31.505  1.00  0.00     0.293 HD
ENDBRANCH   2  22
BRANCH   6  24
ATOM     24  O   UNL     1      12.647  -6.052 -27.791  1.00  0.00    -0.507 OA
ATOM     25  H   UNL     1      12.597  -6.601 -26.947  1.00  0.00     0.293 HD
ENDBRANCH   6  24
BRANCH   8  26
ATOM     26  O   UNL     1      15.201  -2.087 -26.983  1.00  0.00    -0.508 OA
ATOM     27  H   UNL     1      15.093  -2.067 -25.975  1.00  0.00     0.293 HD
ENDBRANCH   8  26
TORSDOF 6
ENDMDL
