MODEL 1
REMARK VINA RESULT:    -5.092      0.000      0.000
REMARK INTER + INTRA:          -5.241
REMARK INTER:                  -5.241
REMARK INTRA:                   0.000
REMARK UNBOUND:                 0.000
REMARK SMILES CC1(C)CC[C@@]2(C)CC[C@@]3(C)C(=CC[C@H]4[C@@]5(C)CC[C@H](O)C(C)(C)[C@H]5CC[C@]43C)[C@H]2C1
REMARK SMILES IDX 1 1 2 2 4 3 5 4 6 5 8 6 9 7 10 8 12 9 13 10 14 11 15 12
REMARK SMILES IDX 28 13 27 14 26 15 25 16 16 17 18 18 19 19 20 20 22 21 23 22
REMARK SMILES IDX 24 23 17 24 29 25 30 26 31 27 11 28 7 29 3 30 21 31
REMARK H PARENT 21 32
REMARK Flexibility Score: inf
ROOT
ATOM      1  C   UNL     1      -8.379   5.225  -2.996  1.00  0.00     0.011 C 
ATOM      2  C   UNL     1      -7.905   6.691  -3.110  1.00  0.00    -0.035 C 
ATOM      3  C   UNL     1      -8.479   7.308  -4.428  1.00  0.00     0.007 C 
ATOM      4  C   UNL     1      -7.584   8.430  -4.977  1.00  0.00     0.008 C 
ATOM      5  C   UNL     1      -6.148   7.926  -5.361  1.00  0.00    -0.026 C 
ATOM      6  C   UNL     1      -5.151   9.079  -5.096  1.00  0.00     0.008 C 
ATOM      7  C   UNL     1      -3.696   8.695  -5.376  1.00  0.00     0.012 C 
ATOM      8  C   UNL     1      -3.171   7.451  -4.571  1.00  0.00    -0.006 C 
ATOM      9  C   UNL     1      -4.250   6.363  -4.496  1.00  0.00    -0.064 C 
ATOM     10  C   UNL     1      -3.900   5.088  -4.232  1.00  0.00    -0.027 C 
ATOM     11  C   UNL     1      -2.507   4.546  -4.327  1.00  0.00     0.032 C 
ATOM     12  C   UNL     1      -1.352   5.589  -4.390  1.00  0.00     0.006 C 
ATOM     13  C   UNL     1      -1.812   6.854  -5.215  1.00  0.00    -0.020 C 
ATOM     14  C   UNL     1      -2.027   6.367  -6.675  1.00  0.00     0.008 C 
ATOM     15  C   UNL     1      -0.830   5.639  -7.317  1.00  0.00     0.005 C 
ATOM     16  C   UNL     1       0.275   4.972  -6.415  1.00  0.00     0.003 C 
ATOM     17  C   UNL     1       0.036   4.929  -4.836  1.00  0.00    -0.025 C 
ATOM     18  C   UNL     1       0.149   3.453  -4.309  1.00  0.00     0.010 C 
ATOM     19  C   UNL     1       1.444   2.719  -4.704  1.00  0.00     0.033 C 
ATOM     20  C   UNL     1       1.919   3.004  -6.147  1.00  0.00     0.120 C 
ATOM     21  C   UNL     1       0.807   3.619  -7.056  1.00  0.00    -0.006 C 
ATOM     22  C   UNL     1       1.447   3.920  -8.444  1.00  0.00     0.014 C 
ATOM     23  C   UNL     1      -0.332   2.564  -7.276  1.00  0.00     0.014 C 
ATOM     24  C   UNL     1       1.191   5.688  -4.092  1.00  0.00     0.012 C 
ATOM     25  C   UNL     1      -0.725   7.968  -5.254  1.00  0.00     0.012 C 
ATOM     26  C   UNL     1      -5.750   6.668  -4.522  1.00  0.00     0.022 C 
ATOM     27  C   UNL     1      -6.343   6.736  -3.096  1.00  0.00     0.015 C 
ATOM     28  C   UNL     1      -2.938   7.928  -3.102  1.00  0.00     0.017 C 
ATOM     29  C   UNL     1      -6.143   7.555  -6.867  1.00  0.00     0.012 C 
ATOM     30  C   UNL     1      -8.446   7.471  -1.891  1.00  0.00     0.011 C 
ENDROOT
BRANCH  20  31
ATOM     31  O   UNL     1       3.041   3.856  -6.101  1.00  0.00    -0.393 OA
ATOM     32  H   UNL     1       3.296   3.964  -5.146  1.00  0.00     0.210 HD
ENDBRANCH  20  31
TORSDOF 1
ENDMDL
MODEL 2
REMARK VINA RESULT:    -4.859      2.720      8.466
REMARK INTER + INTRA:          -5.001
REMARK INTER:                  -5.001
REMARK INTRA:                   0.000
REMARK UNBOUND:                 0.000
REMARK SMILES CC1(C)CC[C@@]2(C)CC[C@@]3(C)C(=CC[C@H]4[C@@]5(C)CC[C@H](O)C(C)(C)[C@H]5CC[C@]43C)[C@H]2C1
REMARK SMILES IDX 1 1 2 2 4 3 5 4 6 5 8 6 9 7 10 8 12 9 13 10 14 11 15 12
REMARK SMILES IDX 28 13 27 14 26 15 25 16 16 17 18 18 19 19 20 20 22 21 23 22
REMARK SMILES IDX 24 23 17 24 29 25 30 26 31 27 11 28 7 29 3 30 21 31
REMARK H PARENT 21 32
REMARK Flexibility Score: inf
ROOT
ATOM      1  C   UNL     1       5.083   3.249  -2.794  1.00  0.00     0.011 C 
ATOM      2  C   UNL     1       5.051   2.873  -4.292  1.00  0.00    -0.035 C 
ATOM      3  C   UNL     1       5.917   3.903  -5.091  1.00  0.00     0.007 C 
ATOM      4  C   UNL     1       5.435   4.057  -6.542  1.00  0.00     0.008 C 
ATOM      5  C   UNL     1       3.967   4.606  -6.638  1.00  0.00    -0.026 C 
ATOM      6  C   UNL     1       3.306   3.984  -7.891  1.00  0.00     0.008 C 
ATOM      7  C   UNL     1       1.842   4.395  -8.068  1.00  0.00     0.012 C 
ATOM      8  C   UNL     1       0.907   4.057  -6.851  1.00  0.00    -0.006 C 
ATOM      9  C   UNL     1       1.626   4.335  -5.524  1.00  0.00    -0.064 C 
ATOM     10  C   UNL     1       0.909   4.516  -4.397  1.00  0.00    -0.027 C 
ATOM     11  C   UNL     1      -0.561   4.805  -4.355  1.00  0.00     0.032 C 
ATOM     12  C   UNL     1      -1.366   4.531  -5.659  1.00  0.00     0.006 C 
ATOM     13  C   UNL     1      -0.485   4.881  -6.922  1.00  0.00    -0.020 C 
ATOM     14  C   UNL     1      -0.252   6.417  -6.878  1.00  0.00     0.008 C 
ATOM     15  C   UNL     1      -1.526   7.279  -6.782  1.00  0.00     0.005 C 
ATOM     16  C   UNL     1      -2.865   6.666  -6.227  1.00  0.00     0.003 C 
ATOM     17  C   UNL     1      -2.824   5.189  -5.620  1.00  0.00    -0.025 C 
ATOM     18  C   UNL     1      -3.400   5.185  -4.158  1.00  0.00     0.010 C 
ATOM     19  C   UNL     1      -4.796   5.819  -4.007  1.00  0.00     0.033 C 
ATOM     20  C   UNL     1      -5.010   7.091  -4.861  1.00  0.00     0.120 C 
ATOM     21  C   UNL     1      -3.677   7.728  -5.369  1.00  0.00    -0.006 C 
ATOM     22  C   UNL     1      -4.051   8.944  -6.268  1.00  0.00     0.014 C 
ATOM     23  C   UNL     1      -2.859   8.273  -4.147  1.00  0.00     0.014 C 
ATOM     24  C   UNL     1      -3.799   4.249  -6.414  1.00  0.00     0.012 C 
ATOM     25  C   UNL     1      -1.208   4.559  -8.262  1.00  0.00     0.012 C 
ATOM     26  C   UNL     1       3.145   4.239  -5.360  1.00  0.00     0.022 C 
ATOM     27  C   UNL     1       3.571   2.864  -4.795  1.00  0.00     0.015 C 
ATOM     28  C   UNL     1       0.654   2.516  -6.888  1.00  0.00     0.017 C 
ATOM     29  C   UNL     1       4.027   6.149  -6.779  1.00  0.00     0.012 C 
ATOM     30  C   UNL     1       5.648   1.457  -4.449  1.00  0.00     0.011 C 
ENDROOT
BRANCH  20  31
ATOM     31  O   UNL     1      -5.849   6.777  -5.948  1.00  0.00    -0.393 OA
ATOM     32  H   UNL     1      -5.371   7.034  -6.781  1.00  0.00     0.210 HD
ENDBRANCH  20  31
TORSDOF 1
ENDMDL
MODEL 3
REMARK VINA RESULT:    -4.769     11.991     14.330
REMARK INTER + INTRA:          -4.909
REMARK INTER:                  -4.909
REMARK INTRA:                   0.000
REMARK UNBOUND:                 0.000
REMARK SMILES CC1(C)CC[C@@]2(C)CC[C@@]3(C)C(=CC[C@H]4[C@@]5(C)CC[C@H](O)C(C)(C)[C@H]5CC[C@]43C)[C@H]2C1
REMARK SMILES IDX 1 1 2 2 4 3 5 4 6 5 8 6 9 7 10 8 12 9 13 10 14 11 15 12
REMARK SMILES IDX 28 13 27 14 26 15 25 16 16 17 18 18 19 19 20 20 22 21 23 22
REMARK SMILES IDX 24 23 17 24 29 25 30 26 31 27 11 28 7 29 3 30 21 31
REMARK H PARENT 21 32
REMARK Flexibility Score: inf
ROOT
ATOM      1  C   UNL     1       1.915  -9.355  -0.757  1.00  0.00     0.011 C 
ATOM      2  C   UNL     1       1.656  -8.599   0.565  1.00  0.00    -0.035 C 
ATOM      3  C   UNL     1       0.312  -7.807   0.441  1.00  0.00     0.007 C 
ATOM      4  C   UNL     1       0.294  -6.558   1.336  1.00  0.00     0.008 C 
ATOM      5  C   UNL     1       1.410  -5.522   0.951  1.00  0.00    -0.026 C 
ATOM      6  C   UNL     1       1.866  -4.810   2.246  1.00  0.00     0.008 C 
ATOM      7  C   UNL     1       3.001  -3.809   2.016  1.00  0.00     0.012 C 
ATOM      8  C   UNL     1       4.293  -4.411   1.353  1.00  0.00    -0.006 C 
ATOM      9  C   UNL     1       3.918  -5.410   0.251  1.00  0.00    -0.064 C 
ATOM     10  C   UNL     1       4.815  -5.724  -0.706  1.00  0.00    -0.027 C 
ATOM     11  C   UNL     1       6.056  -4.939  -1.004  1.00  0.00     0.032 C 
ATOM     12  C   UNL     1       6.513  -3.914   0.075  1.00  0.00     0.006 C 
ATOM     13  C   UNL     1       5.254  -3.251   0.759  1.00  0.00    -0.020 C 
ATOM     14  C   UNL     1       4.545  -2.420  -0.346  1.00  0.00     0.008 C 
ATOM     15  C   UNL     1       5.433  -1.396  -1.079  1.00  0.00     0.005 C 
ATOM     16  C   UNL     1       6.998  -1.565  -1.098  1.00  0.00     0.003 C 
ATOM     17  C   UNL     1       7.620  -2.901  -0.482  1.00  0.00    -0.025 C 
ATOM     18  C   UNL     1       8.544  -3.608  -1.538  1.00  0.00     0.010 C 
ATOM     19  C   UNL     1       9.633  -2.710  -2.154  1.00  0.00     0.033 C 
ATOM     20  C   UNL     1       9.168  -1.268  -2.459  1.00  0.00     0.120 C 
ATOM     21  C   UNL     1       7.614  -1.112  -2.490  1.00  0.00    -0.006 C 
ATOM     22  C   UNL     1       7.298   0.395  -2.730  1.00  0.00     0.014 C 
ATOM     23  C   UNL     1       7.032  -1.918  -3.702  1.00  0.00     0.014 C 
ATOM     24  C   UNL     1       8.593  -2.553   0.699  1.00  0.00     0.012 C 
ATOM     25  C   UNL     1       5.644  -2.267   1.901  1.00  0.00     0.012 C 
ATOM     26  C   UNL     1       2.625  -6.231   0.270  1.00  0.00     0.022 C 
ATOM     27  C   UNL     1       2.854  -7.641   0.860  1.00  0.00     0.015 C 
ATOM     28  C   UNL     1       5.023  -5.241   2.455  1.00  0.00     0.017 C 
ATOM     29  C   UNL     1       0.803  -4.491  -0.036  1.00  0.00     0.012 C 
ATOM     30  C   UNL     1       1.545  -9.638   1.702  1.00  0.00     0.011 C 
ENDROOT
BRANCH  20  31
ATOM     31  O   UNL     1       9.729  -0.394  -1.506  1.00  0.00    -0.393 OA
ATOM     32  H   UNL     1      10.715  -0.521  -1.527  1.00  0.00     0.210 HD
ENDBRANCH  20  31
TORSDOF 1
ENDMDL
MODEL 4
REMARK VINA RESULT:    -4.702     11.495     15.298
REMARK INTER + INTRA:          -4.839
REMARK INTER:                  -4.839
REMARK INTRA:                   0.000
REMARK UNBOUND:                 0.000
REMARK SMILES CC1(C)CC[C@@]2(C)CC[C@@]3(C)C(=CC[C@H]4[C@@]5(C)CC[C@H](O)C(C)(C)[C@H]5CC[C@]43C)[C@H]2C1
REMARK SMILES IDX 1 1 2 2 4 3 5 4 6 5 8 6 9 7 10 8 12 9 13 10 14 11 15 12
REMARK SMILES IDX 28 13 27 14 26 15 25 16 16 17 18 18 19 19 20 20 22 21 23 22
REMARK SMILES IDX 24 23 17 24 29 25 30 26 31 27 11 28 7 29 3 30 21 31
REMARK H PARENT 21 32
REMARK Flexibility Score: inf
ROOT
ATOM      1  C   UNL     1       5.149   1.462  -0.040  1.00  0.00     0.011 C 
ATOM      2  C   UNL     1       6.433   0.779   0.478  1.00  0.00    -0.035 C 
ATOM      3  C   UNL     1       7.467   0.687  -0.693  1.00  0.00     0.007 C 
ATOM      4  C   UNL     1       8.425  -0.502  -0.524  1.00  0.00     0.008 C 
ATOM      5  C   UNL     1       7.682  -1.885  -0.534  1.00  0.00    -0.026 C 
ATOM      6  C   UNL     1       8.453  -2.847   0.401  1.00  0.00     0.008 C 
ATOM      7  C   UNL     1       7.793  -4.223   0.527  1.00  0.00     0.012 C 
ATOM      8  C   UNL     1       6.305  -4.201   1.031  1.00  0.00    -0.006 C 
ATOM      9  C   UNL     1       5.535  -3.039   0.390  1.00  0.00    -0.064 C 
ATOM     10  C   UNL     1       4.188  -3.069   0.344  1.00  0.00    -0.027 C 
ATOM     11  C   UNL     1       3.353  -4.293   0.564  1.00  0.00     0.032 C 
ATOM     12  C   UNL     1       4.058  -5.513   1.228  1.00  0.00     0.006 C 
ATOM     13  C   UNL     1       5.555  -5.605   0.735  1.00  0.00    -0.020 C 
ATOM     14  C   UNL     1       5.495  -5.921  -0.785  1.00  0.00     0.008 C 
ATOM     15  C   UNL     1       4.663  -7.158  -1.174  1.00  0.00     0.005 C 
ATOM     16  C   UNL     1       3.547  -7.705  -0.207  1.00  0.00     0.003 C 
ATOM     17  C   UNL     1       3.195  -6.855   1.098  1.00  0.00    -0.025 C 
ATOM     18  C   UNL     1       1.657  -6.538   1.142  1.00  0.00     0.010 C 
ATOM     19  C   UNL     1       0.736  -7.764   1.003  1.00  0.00     0.033 C 
ATOM     20  C   UNL     1       1.224  -8.809  -0.026  1.00  0.00     0.120 C 
ATOM     21  C   UNL     1       2.294  -8.250  -1.018  1.00  0.00    -0.006 C 
ATOM     22  C   UNL     1       2.742  -9.426  -1.936  1.00  0.00     0.014 C 
ATOM     23  C   UNL     1       1.640  -7.156  -1.930  1.00  0.00     0.014 C 
ATOM     24  C   UNL     1       3.443  -7.713   2.388  1.00  0.00     0.012 C 
ATOM     25  C   UNL     1       6.338  -6.764   1.419  1.00  0.00     0.012 C 
ATOM     26  C   UNL     1       6.204  -1.732  -0.047  1.00  0.00     0.022 C 
ATOM     27  C   UNL     1       6.081  -0.638   1.037  1.00  0.00     0.015 C 
ATOM     28  C   UNL     1       6.349  -3.895   2.562  1.00  0.00     0.017 C 
ATOM     29  C   UNL     1       7.687  -2.435  -1.984  1.00  0.00     0.012 C 
ATOM     30  C   UNL     1       7.014   1.643   1.619  1.00  0.00     0.011 C 
ENDROOT
BRANCH  20  31
ATOM     31  O   UNL     1       1.731  -9.929   0.663  1.00  0.00    -0.393 OA
ATOM     32  H   UNL     1       1.050 -10.650   0.606  1.00  0.00     0.210 HD
ENDBRANCH  20  31
TORSDOF 1
ENDMDL
MODEL 5
REMARK VINA RESULT:    -4.668     10.986     14.885
REMARK INTER + INTRA:          -4.804
REMARK INTER:                  -4.804
REMARK INTRA:                   0.000
REMARK UNBOUND:                 0.000
REMARK SMILES CC1(C)CC[C@@]2(C)CC[C@@]3(C)C(=CC[C@H]4[C@@]5(C)CC[C@H](O)C(C)(C)[C@H]5CC[C@]43C)[C@H]2C1
REMARK SMILES IDX 1 1 2 2 4 3 5 4 6 5 8 6 9 7 10 8 12 9 13 10 14 11 15 12
REMARK SMILES IDX 28 13 27 14 26 15 25 16 16 17 18 18 19 19 20 20 22 21 23 22
REMARK SMILES IDX 24 23 17 24 29 25 30 26 31 27 11 28 7 29 3 30 21 31
REMARK H PARENT 21 32
REMARK Flexibility Score: inf
ROOT
ATOM      1  C   UNL     1       5.243   1.967  -1.038  1.00  0.00     0.011 C 
ATOM      2  C   UNL     1       6.623   1.274  -1.051  1.00  0.00    -0.035 C 
ATOM      3  C   UNL     1       7.075   1.074  -2.536  1.00  0.00     0.007 C 
ATOM      4  C   UNL     1       8.010  -0.135  -2.695  1.00  0.00     0.008 C 
ATOM      5  C   UNL     1       7.322  -1.490  -2.298  1.00  0.00    -0.026 C 
ATOM      6  C   UNL     1       8.407  -2.418  -1.701  1.00  0.00     0.008 C 
ATOM      7  C   UNL     1       7.851  -3.759  -1.215  1.00  0.00     0.012 C 
ATOM      8  C   UNL     1       6.707  -3.655  -0.143  1.00  0.00    -0.006 C 
ATOM      9  C   UNL     1       5.747  -2.508  -0.488  1.00  0.00    -0.064 C 
ATOM     10  C   UNL     1       4.503  -2.495   0.031  1.00  0.00    -0.027 C 
ATOM     11  C   UNL     1       3.828  -3.673   0.664  1.00  0.00     0.032 C 
ATOM     12  C   UNL     1       4.737  -4.873   1.060  1.00  0.00     0.006 C 
ATOM     13  C   UNL     1       5.894  -5.047  -0.000  1.00  0.00    -0.020 C 
ATOM     14  C   UNL     1       5.205  -5.455  -1.332  1.00  0.00     0.008 C 
ATOM     15  C   UNL     1       4.280  -6.685  -1.253  1.00  0.00     0.005 C 
ATOM     16  C   UNL     1       3.664  -7.131   0.126  1.00  0.00     0.003 C 
ATOM     17  C   UNL     1       3.891  -6.190   1.395  1.00  0.00    -0.025 C 
ATOM     18  C   UNL     1       2.513  -5.817   2.051  1.00  0.00     0.010 C 
ATOM     19  C   UNL     1       1.610  -7.016   2.393  1.00  0.00     0.033 C 
ATOM     20  C   UNL     1       1.620  -8.141   1.331  1.00  0.00     0.120 C 
ATOM     21  C   UNL     1       2.184  -7.682  -0.051  1.00  0.00    -0.006 C 
ATOM     22  C   UNL     1       2.203  -8.927  -0.987  1.00  0.00     0.014 C 
ATOM     23  C   UNL     1       1.216  -6.624  -0.686  1.00  0.00     0.014 C 
ATOM     24  C   UNL     1       4.648  -6.974   2.525  1.00  0.00     0.012 C 
ATOM     25  C   UNL     1       6.884  -6.188   0.378  1.00  0.00     0.012 C 
ATOM     26  C   UNL     1       6.181  -1.256  -1.255  1.00  0.00     0.022 C 
ATOM     27  C   UNL     1       6.526  -0.092  -0.298  1.00  0.00     0.015 C 
ATOM     28  C   UNL     1       7.385  -3.256   1.206  1.00  0.00     0.017 C 
ATOM     29  C   UNL     1       6.721  -2.129  -3.576  1.00  0.00     0.012 C 
ATOM     30  C   UNL     1       7.630   2.186  -0.318  1.00  0.00     0.011 C 
ENDROOT
BRANCH  20  31
ATOM     31  O   UNL     1       2.362  -9.232   1.826  1.00  0.00    -0.393 OA
ATOM     32  H   UNL     1       2.101 -10.034   1.301  1.00  0.00     0.210 HD
ENDBRANCH  20  31
TORSDOF 1
ENDMDL
MODEL 6
REMARK VINA RESULT:    -4.556      3.344      9.039
REMARK INTER + INTRA:          -4.690
REMARK INTER:                  -4.690
REMARK INTRA:                   0.000
REMARK UNBOUND:                 0.000
REMARK SMILES CC1(C)CC[C@@]2(C)CC[C@@]3(C)C(=CC[C@H]4[C@@]5(C)CC[C@H](O)C(C)(C)[C@H]5CC[C@]43C)[C@H]2C1
REMARK SMILES IDX 1 1 2 2 4 3 5 4 6 5 8 6 9 7 10 8 12 9 13 10 14 11 15 12
REMARK SMILES IDX 28 13 27 14 26 15 25 16 16 17 18 18 19 19 20 20 22 21 23 22
REMARK SMILES IDX 24 23 17 24 29 25 30 26 31 27 11 28 7 29 3 30 21 31
REMARK H PARENT 21 32
REMARK Flexibility Score: inf
ROOT
ATOM      1  C   UNL     1       5.853   0.814  -2.864  1.00  0.00     0.011 C 
ATOM      2  C   UNL     1       6.403   1.879  -3.838  1.00  0.00    -0.035 C 
ATOM      3  C   UNL     1       6.885   3.118  -3.013  1.00  0.00     0.007 C 
ATOM      4  C   UNL     1       6.801   4.419  -3.826  1.00  0.00     0.008 C 
ATOM      5  C   UNL     1       5.332   4.770  -4.259  1.00  0.00    -0.026 C 
ATOM      6  C   UNL     1       5.396   5.486  -5.628  1.00  0.00     0.008 C 
ATOM      7  C   UNL     1       4.016   5.831  -6.194  1.00  0.00     0.012 C 
ATOM      8  C   UNL     1       3.047   4.607  -6.370  1.00  0.00    -0.006 C 
ATOM      9  C   UNL     1       3.169   3.646  -5.180  1.00  0.00    -0.064 C 
ATOM     10  C   UNL     1       2.172   2.777  -4.913  1.00  0.00    -0.027 C 
ATOM     11  C   UNL     1       0.784   2.872  -5.468  1.00  0.00     0.032 C 
ATOM     12  C   UNL     1       0.581   3.815  -6.690  1.00  0.00     0.006 C 
ATOM     13  C   UNL     1       1.511   5.083  -6.554  1.00  0.00    -0.020 C 
ATOM     14  C   UNL     1       0.996   5.871  -5.318  1.00  0.00     0.008 C 
ATOM     15  C   UNL     1      -0.503   6.230  -5.335  1.00  0.00     0.005 C 
ATOM     16  C   UNL     1      -1.509   5.410  -6.227  1.00  0.00     0.003 C 
ATOM     17  C   UNL     1      -0.966   4.110  -6.977  1.00  0.00    -0.025 C 
ATOM     18  C   UNL     1      -1.850   2.863  -6.613  1.00  0.00     0.010 C 
ATOM     19  C   UNL     1      -3.362   3.051  -6.832  1.00  0.00     0.033 C 
ATOM     20  C   UNL     1      -3.892   4.448  -6.433  1.00  0.00     0.120 C 
ATOM     21  C   UNL     1      -2.915   5.239  -5.507  1.00  0.00    -0.006 C 
ATOM     22  C   UNL     1      -3.541   6.643  -5.253  1.00  0.00     0.014 C 
ATOM     23  C   UNL     1      -2.802   4.511  -4.123  1.00  0.00     0.014 C 
ATOM     24  C   UNL     1      -1.147   4.262  -8.529  1.00  0.00     0.012 C 
ATOM     25  C   UNL     1       1.408   6.033  -7.784  1.00  0.00     0.012 C 
ATOM     26  C   UNL     1       4.456   3.479  -4.367  1.00  0.00     0.022 C 
ATOM     27  C   UNL     1       5.290   2.275  -4.860  1.00  0.00     0.015 C 
ATOM     28  C   UNL     1       3.545   3.811  -7.618  1.00  0.00     0.017 C 
ATOM     29  C   UNL     1       4.718   5.714  -3.193  1.00  0.00     0.012 C 
ATOM     30  C   UNL     1       7.598   1.265  -4.602  1.00  0.00     0.011 C 
ENDROOT
BRANCH  20  31
ATOM     31  O   UNL     1      -4.165   5.186  -7.603  1.00  0.00    -0.393 OA
ATOM     32  H   UNL     1      -4.081   4.566  -8.375  1.00  0.00     0.210 HD
ENDBRANCH  20  31
TORSDOF 1
ENDMDL
MODEL 7
REMARK VINA RESULT:    -4.504      3.695      6.867
REMARK INTER + INTRA:          -4.636
REMARK INTER:                  -4.636
REMARK INTRA:                   0.000
REMARK UNBOUND:                 0.000
REMARK SMILES CC1(C)CC[C@@]2(C)CC[C@@]3(C)C(=CC[C@H]4[C@@]5(C)CC[C@H](O)C(C)(C)[C@H]5CC[C@]43C)[C@H]2C1
REMARK SMILES IDX 1 1 2 2 4 3 5 4 6 5 8 6 9 7 10 8 12 9 13 10 14 11 15 12
REMARK SMILES IDX 28 13 27 14 26 15 25 16 16 17 18 18 19 19 20 20 22 21 23 22
REMARK SMILES IDX 24 23 17 24 29 25 30 26 31 27 11 28 7 29 3 30 21 31
REMARK H PARENT 21 32
REMARK Flexibility Score: inf
ROOT
ATOM      1  C   UNL     1      -2.924   6.552  -3.895  1.00  0.00     0.011 C 
ATOM      2  C   UNL     1      -2.677   5.626  -5.106  1.00  0.00    -0.035 C 
ATOM      3  C   UNL     1      -3.032   4.157  -4.701  1.00  0.00     0.007 C 
ATOM      4  C   UNL     1      -2.228   3.126  -5.508  1.00  0.00     0.008 C 
ATOM      5  C   UNL     1      -0.680   3.246  -5.273  1.00  0.00    -0.026 C 
ATOM      6  C   UNL     1       0.034   2.853  -6.589  1.00  0.00     0.008 C 
ATOM      7  C   UNL     1       1.557   2.987  -6.511  1.00  0.00     0.012 C 
ATOM      8  C   UNL     1       2.079   4.417  -6.124  1.00  0.00    -0.006 C 
ATOM      9  C   UNL     1       1.200   5.035  -5.029  1.00  0.00    -0.064 C 
ATOM     10  C   UNL     1       1.681   6.038  -4.267  1.00  0.00    -0.027 C 
ATOM     11  C   UNL     1       3.128   6.407  -4.154  1.00  0.00     0.032 C 
ATOM     12  C   UNL     1       4.085   5.833  -5.240  1.00  0.00     0.006 C 
ATOM     13  C   UNL     1       3.626   4.379  -5.650  1.00  0.00    -0.020 C 
ATOM     14  C   UNL     1       3.826   3.489  -4.392  1.00  0.00     0.008 C 
ATOM     15  C   UNL     1       5.237   3.516  -3.775  1.00  0.00     0.005 C 
ATOM     16  C   UNL     1       6.203   4.730  -4.046  1.00  0.00     0.003 C 
ATOM     17  C   UNL     1       5.626   5.993  -4.836  1.00  0.00    -0.025 C 
ATOM     18  C   UNL     1       5.852   7.305  -4.002  1.00  0.00     0.010 C 
ATOM     19  C   UNL     1       7.302   7.542  -3.543  1.00  0.00     0.033 C 
ATOM     20  C   UNL     1       8.038   6.263  -3.082  1.00  0.00     0.120 C 
ATOM     21  C   UNL     1       7.075   5.075  -2.764  1.00  0.00    -0.006 C 
ATOM     22  C   UNL     1       7.955   3.845  -2.390  1.00  0.00     0.014 C 
ATOM     23  C   UNL     1       6.199   5.432  -1.514  1.00  0.00     0.014 C 
ATOM     24  C   UNL     1       6.446   6.232  -6.152  1.00  0.00     0.012 C 
ATOM     25  C   UNL     1       4.501   3.776  -6.788  1.00  0.00     0.012 C 
ATOM     26  C   UNL     1      -0.286   4.701  -4.861  1.00  0.00     0.022 C 
ATOM     27  C   UNL     1      -1.186   5.746  -5.559  1.00  0.00     0.015 C 
ATOM     28  C   UNL     1       1.896   5.322  -7.384  1.00  0.00     0.017 C 
ATOM     29  C   UNL     1      -0.278   2.268  -4.139  1.00  0.00     0.012 C 
ATOM     30  C   UNL     1      -3.596   6.084  -6.261  1.00  0.00     0.011 C 
ENDROOT
BRANCH  20  31
ATOM     31  O   UNL     1       8.970   5.888  -4.071  1.00  0.00    -0.393 OA
ATOM     32  H   UNL     1       9.401   5.044  -3.772  1.00  0.00     0.210 HD
ENDBRANCH  20  31
TORSDOF 1
ENDMDL
MODEL 8
REMARK VINA RESULT:    -4.496      2.210      4.926
REMARK INTER + INTRA:          -4.628
REMARK INTER:                  -4.628
REMARK INTRA:                   0.000
REMARK UNBOUND:                 0.000
REMARK SMILES CC1(C)CC[C@@]2(C)CC[C@@]3(C)C(=CC[C@H]4[C@@]5(C)CC[C@H](O)C(C)(C)[C@H]5CC[C@]43C)[C@H]2C1
REMARK SMILES IDX 1 1 2 2 4 3 5 4 6 5 8 6 9 7 10 8 12 9 13 10 14 11 15 12
REMARK SMILES IDX 28 13 27 14 26 15 25 16 16 17 18 18 19 19 20 20 22 21 23 22
REMARK SMILES IDX 24 23 17 24 29 25 30 26 31 27 11 28 7 29 3 30 21 31
REMARK H PARENT 21 32
REMARK Flexibility Score: inf
ROOT
ATOM      1  C   UNL     1      -3.645   9.355  -5.305  1.00  0.00     0.011 C 
ATOM      2  C   UNL     1      -4.176   8.101  -6.033  1.00  0.00    -0.035 C 
ATOM      3  C   UNL     1      -4.915   7.189  -4.999  1.00  0.00     0.007 C 
ATOM      4  C   UNL     1      -4.873   5.707  -5.403  1.00  0.00     0.008 C 
ATOM      5  C   UNL     1      -3.410   5.138  -5.469  1.00  0.00    -0.026 C 
ATOM      6  C   UNL     1      -3.365   4.067  -6.585  1.00  0.00     0.008 C 
ATOM      7  C   UNL     1      -1.970   3.472  -6.793  1.00  0.00     0.012 C 
ATOM      8  C   UNL     1      -0.846   4.518  -7.127  1.00  0.00    -0.006 C 
ATOM      9  C   UNL     1      -1.019   5.785  -6.279  1.00  0.00    -0.064 C 
ATOM     10  C   UNL     1       0.027   6.616  -6.091  1.00  0.00    -0.027 C 
ATOM     11  C   UNL     1       1.458   6.262  -6.356  1.00  0.00     0.032 C 
ATOM     12  C   UNL     1       1.718   4.996  -7.225  1.00  0.00     0.006 C 
ATOM     13  C   UNL     1       0.632   3.894  -6.912  1.00  0.00    -0.020 C 
ATOM     14  C   UNL     1       0.868   3.457  -5.439  1.00  0.00     0.008 C 
ATOM     15  C   UNL     1       2.300   2.996  -5.104  1.00  0.00     0.005 C 
ATOM     16  C   UNL     1       3.514   3.447  -6.000  1.00  0.00     0.003 C 
ATOM     17  C   UNL     1       3.243   4.516  -7.155  1.00  0.00    -0.025 C 
ATOM     18  C   UNL     1       4.209   5.745  -6.997  1.00  0.00     0.010 C 
ATOM     19  C   UNL     1       5.704   5.389  -6.897  1.00  0.00     0.033 C 
ATOM     20  C   UNL     1       6.000   4.128  -6.052  1.00  0.00     0.120 C 
ATOM     21  C   UNL     1       4.814   3.711  -5.125  1.00  0.00    -0.006 C 
ATOM     22  C   UNL     1       5.225   2.395  -4.399  1.00  0.00     0.014 C 
ATOM     23  C   UNL     1       4.594   4.810  -4.030  1.00  0.00     0.014 C 
ATOM     24  C   UNL     1       3.623   3.913  -8.553  1.00  0.00     0.012 C 
ATOM     25  C   UNL     1       0.794   2.627  -7.803  1.00  0.00     0.012 C 
ATOM     26  C   UNL     1      -2.379   6.273  -5.772  1.00  0.00     0.022 C 
ATOM     27  C   UNL     1      -2.984   7.346  -6.706  1.00  0.00     0.015 C 
ATOM     28  C   UNL     1      -1.062   4.959  -8.609  1.00  0.00     0.017 C 
ATOM     29  C   UNL     1      -3.071   4.494  -4.100  1.00  0.00     0.012 C 
ATOM     30  C   UNL     1      -5.167   8.559  -7.126  1.00  0.00     0.011 C 
ENDROOT
BRANCH  20  31
ATOM     31  O   UNL     1       6.346   3.068  -6.914  1.00  0.00    -0.393 OA
ATOM     32  H   UNL     1       5.538   2.502  -7.032  1.00  0.00     0.210 HD
ENDBRANCH  20  31
TORSDOF 1
ENDMDL
MODEL 9
REMARK VINA RESULT:    -4.471      2.697      7.941
REMARK INTER + INTRA:          -4.602
REMARK INTER:                  -4.602
REMARK INTRA:                   0.000
REMARK UNBOUND:                 0.000
REMARK SMILES CC1(C)CC[C@@]2(C)CC[C@@]3(C)C(=CC[C@H]4[C@@]5(C)CC[C@H](O)C(C)(C)[C@H]5CC[C@]43C)[C@H]2C1
REMARK SMILES IDX 1 1 2 2 4 3 5 4 6 5 8 6 9 7 10 8 12 9 13 10 14 11 15 12
REMARK SMILES IDX 28 13 27 14 26 15 25 16 16 17 18 18 19 19 20 20 22 21 23 22
REMARK SMILES IDX 24 23 17 24 29 25 30 26 31 27 11 28 7 29 3 30 21 31
REMARK H PARENT 21 32
REMARK Flexibility Score: inf
ROOT
ATOM      1  C   UNL     1       0.775   2.237  -4.996  1.00  0.00     0.011 C 
ATOM      2  C   UNL     1       1.011   3.519  -5.824  1.00  0.00    -0.035 C 
ATOM      3  C   UNL     1       2.110   4.382  -5.121  1.00  0.00     0.007 C 
ATOM      4  C   UNL     1       1.947   5.880  -5.422  1.00  0.00     0.008 C 
ATOM      5  C   UNL     1       0.584   6.458  -4.897  1.00  0.00    -0.026 C 
ATOM      6  C   UNL     1       0.135   7.577  -5.867  1.00  0.00     0.008 C 
ATOM      7  C   UNL     1      -1.220   8.187  -5.498  1.00  0.00     0.012 C 
ATOM      8  C   UNL     1      -2.407   7.162  -5.412  1.00  0.00    -0.006 C 
ATOM      9  C   UNL     1      -1.948   5.858  -4.746  1.00  0.00    -0.064 C 
ATOM     10  C   UNL     1      -2.858   5.025  -4.201  1.00  0.00    -0.027 C 
ATOM     11  C   UNL     1      -4.273   5.397  -3.879  1.00  0.00     0.032 C 
ATOM     12  C   UNL     1      -4.821   6.700  -4.532  1.00  0.00     0.006 C 
ATOM     13  C   UNL     1      -3.675   7.783  -4.620  1.00  0.00    -0.020 C 
ATOM     14  C   UNL     1      -3.317   8.157  -3.155  1.00  0.00     0.008 C 
ATOM     15  C   UNL     1      -4.499   8.610  -2.276  1.00  0.00     0.005 C 
ATOM     16  C   UNL     1      -5.973   8.203  -2.651  1.00  0.00     0.003 C 
ATOM     17  C   UNL     1      -6.191   7.184  -3.861  1.00  0.00    -0.025 C 
ATOM     18  C   UNL     1      -7.047   5.954  -3.388  1.00  0.00     0.010 C 
ATOM     19  C   UNL     1      -8.380   6.313  -2.706  1.00  0.00     0.033 C 
ATOM     20  C   UNL     1      -8.301   7.537  -1.765  1.00  0.00     0.120 C 
ATOM     21  C   UNL     1      -6.841   7.909  -1.353  1.00  0.00    -0.006 C 
ATOM     22  C   UNL     1      -6.913   9.194  -0.475  1.00  0.00     0.014 C 
ATOM     23  C   UNL     1      -6.239   6.762  -0.470  1.00  0.00     0.014 C 
ATOM     24  C   UNL     1      -7.067   7.849  -4.980  1.00  0.00     0.012 C 
ATOM     25  C   UNL     1      -4.141   9.087  -5.331  1.00  0.00     0.012 C 
ATOM     26  C   UNL     1      -0.508   5.342  -4.821  1.00  0.00     0.022 C 
ATOM     27  C   UNL     1      -0.332   4.308  -5.956  1.00  0.00     0.015 C 
ATOM     28  C   UNL     1      -2.788   6.784  -6.879  1.00  0.00     0.017 C 
ATOM     29  C   UNL     1       0.812   7.044  -3.479  1.00  0.00     0.012 C 
ATOM     30  C   UNL     1       1.495   3.104  -7.231  1.00  0.00     0.011 C 
ENDROOT
BRANCH  20  31
ATOM     31  O   UNL     1      -8.930   8.635  -2.386  1.00  0.00    -0.393 OA
ATOM     32  H   UNL     1      -9.016   8.423  -3.353  1.00  0.00     0.210 HD
ENDBRANCH  20  31
TORSDOF 1
ENDMDL
