MODEL 1
REMARK VINA RESULT:    -6.830      0.000      0.000
REMARK INTER + INTRA:          -7.068
REMARK INTER:                  -7.229
REMARK INTRA:                   0.161
REMARK UNBOUND:                 0.161
REMARK SMILES C=C1CC[C@@]2(C(C)C)C[C@@H]12
REMARK SMILES IDX 5 1 4 2 3 3 2 4 1 5 10 6 9 7 6 8 7 9 8 10
REMARK H PARENT
REMARK Flexibility Score: inf
ROOT
ATOM      1  C   UNL     1       5.253   7.238  13.247  1.00  0.00    -0.020 C 
ATOM      2  C   UNL     1       4.603   8.224  14.237  1.00  0.00     0.012 C 
ATOM      3  C   UNL     1       3.901   9.320  13.431  1.00  0.00     0.031 C 
ATOM      4  C   UNL     1       4.170   8.976  12.010  1.00  0.00    -0.074 C 
ATOM      5  C   UNL     1       3.707   9.692  10.982  1.00  0.00     0.008 C 
ATOM      6  C   UNL     1       4.977   7.742  11.835  1.00  0.00     0.021 C 
ATOM      7  C   UNL     1       4.314   6.456  12.326  1.00  0.00     0.016 C 
ENDROOT
BRANCH   1   8
ATOM      8  C   UNL     1       6.679   6.683  13.567  1.00  0.00    -0.011 C 
ATOM      9  C   UNL     1       7.375   6.251  12.267  1.00  0.00     0.008 C 
ATOM     10  C   UNL     1       7.620   7.630  14.339  1.00  0.00     0.008 C 
ENDBRANCH   1   8
TORSDOF 1
ENDMDL
MODEL 2
REMARK VINA RESULT:    -6.508      1.115      2.469
REMARK INTER + INTRA:          -6.728
REMARK INTER:                  -6.542
REMARK INTRA:                  -0.186
REMARK UNBOUND:                 0.161
REMARK SMILES C=C1CC[C@@]2(C(C)C)C[C@@H]12
REMARK SMILES IDX 5 1 4 2 3 3 2 4 1 5 10 6 9 7 6 8 7 9 8 10
REMARK H PARENT
REMARK Flexibility Score: inf
ROOT
ATOM      1  C   UNL     1       5.164   7.251  13.030  1.00  0.00    -0.020 C 
ATOM      2  C   UNL     1       4.982   7.880  11.635  1.00  0.00     0.012 C 
ATOM      3  C   UNL     1       4.077   9.106  11.777  1.00  0.00     0.031 C 
ATOM      4  C   UNL     1       3.730   9.157  13.221  1.00  0.00    -0.074 C 
ATOM      5  C   UNL     1       2.957  10.105  13.757  1.00  0.00     0.008 C 
ATOM      6  C   UNL     1       4.349   8.070  14.023  1.00  0.00     0.021 C 
ATOM      7  C   UNL     1       5.875   8.098  14.088  1.00  0.00     0.016 C 
ENDROOT
BRANCH   1   8
ATOM      8  C   UNL     1       5.138   5.693  13.161  1.00  0.00    -0.011 C 
ATOM      9  C   UNL     1       3.976   5.120  12.335  1.00  0.00     0.008 C 
ATOM     10  C   UNL     1       6.434   4.956  12.767  1.00  0.00     0.008 C 
ENDBRANCH   1   8
TORSDOF 1
ENDMDL
MODEL 3
REMARK VINA RESULT:    -5.944      1.109      4.046
REMARK INTER + INTRA:          -6.130
REMARK INTER:                  -6.167
REMARK INTRA:                   0.037
REMARK UNBOUND:                 0.161
REMARK SMILES C=C1CC[C@@]2(C(C)C)C[C@@H]12
REMARK SMILES IDX 5 1 4 2 3 3 2 4 1 5 10 6 9 7 6 8 7 9 8 10
REMARK H PARENT
REMARK Flexibility Score: inf
ROOT
ATOM      1  C   UNL     1       4.049   8.701  12.889  1.00  0.00    -0.020 C 
ATOM      2  C   UNL     1       4.380   7.595  11.867  1.00  0.00     0.012 C 
ATOM      3  C   UNL     1       5.609   6.834  12.367  1.00  0.00     0.031 C 
ATOM      4  C   UNL     1       5.984   7.510  13.636  1.00  0.00    -0.074 C 
ATOM      5  C   UNL     1       7.013   7.125  14.396  1.00  0.00     0.008 C 
ATOM      6  C   UNL     1       5.089   8.638  14.000  1.00  0.00     0.021 C 
ATOM      7  C   UNL     1       3.641   8.250  14.293  1.00  0.00     0.016 C 
ENDROOT
BRANCH   1   8
ATOM      8  C   UNL     1       3.617  10.107  12.361  1.00  0.00    -0.011 C 
ATOM      9  C   UNL     1       3.986  10.243  10.875  1.00  0.00     0.008 C 
ATOM     10  C   UNL     1       2.129  10.472  12.534  1.00  0.00     0.008 C 
ENDBRANCH   1   8
TORSDOF 1
ENDMDL
MODEL 4
REMARK VINA RESULT:    -5.904      1.016      3.807
REMARK INTER + INTRA:          -6.088
REMARK INTER:                  -5.833
REMARK INTRA:                  -0.254
REMARK UNBOUND:                 0.161
REMARK SMILES C=C1CC[C@@]2(C(C)C)C[C@@H]12
REMARK SMILES IDX 5 1 4 2 3 3 2 4 1 5 10 6 9 7 6 8 7 9 8 10
REMARK H PARENT
REMARK Flexibility Score: inf
ROOT
ATOM      1  C   UNL     1       5.168   7.428  13.251  1.00  0.00    -0.020 C 
ATOM      2  C   UNL     1       4.318   6.161  13.031  1.00  0.00     0.012 C 
ATOM      3  C   UNL     1       5.252   5.023  12.615  1.00  0.00     0.031 C 
ATOM      4  C   UNL     1       6.605   5.638  12.575  1.00  0.00    -0.074 C 
ATOM      5  C   UNL     1       7.711   4.957  12.265  1.00  0.00     0.008 C 
ATOM      6  C   UNL     1       6.619   7.076  12.943  1.00  0.00     0.021 C 
ATOM      7  C   UNL     1       6.201   7.385  14.380  1.00  0.00     0.016 C 
ENDROOT
BRANCH   1   8
ATOM      8  C   UNL     1       4.617   8.800  12.744  1.00  0.00    -0.011 C 
ATOM      9  C   UNL     1       4.304   8.714  11.242  1.00  0.00     0.008 C 
ATOM     10  C   UNL     1       3.375   9.346  13.477  1.00  0.00     0.008 C 
ENDBRANCH   1   8
TORSDOF 1
ENDMDL
MODEL 5
REMARK VINA RESULT:    -5.620      1.708      3.265
REMARK INTER + INTRA:          -5.787
REMARK INTER:                  -5.797
REMARK INTRA:                   0.010
REMARK UNBOUND:                 0.161
REMARK SMILES C=C1CC[C@@]2(C(C)C)C[C@@H]12
REMARK SMILES IDX 5 1 4 2 3 3 2 4 1 5 10 6 9 7 6 8 7 9 8 10
REMARK H PARENT
REMARK Flexibility Score: inf
ROOT
ATOM      1  C   UNL     1       3.680   9.566  12.858  1.00  0.00    -0.020 C 
ATOM      2  C   UNL     1       3.999  10.147  11.466  1.00  0.00     0.012 C 
ATOM      3  C   UNL     1       2.716  10.752  10.894  1.00  0.00     0.031 C 
ATOM      4  C   UNL     1       1.681  10.497  11.930  1.00  0.00    -0.074 C 
ATOM      5  C   UNL     1       0.411  10.892  11.810  1.00  0.00     0.008 C 
ATOM      6  C   UNL     1       2.196   9.788  13.128  1.00  0.00     0.021 C 
ATOM      7  C   UNL     1       3.238  10.555  13.940  1.00  0.00     0.016 C 
ENDROOT
BRANCH   1   8
ATOM      8  C   UNL     1       4.306   8.192  13.260  1.00  0.00    -0.011 C 
ATOM      9  C   UNL     1       4.754   7.433  12.001  1.00  0.00     0.008 C 
ATOM     10  C   UNL     1       5.488   8.246  14.249  1.00  0.00     0.008 C 
ENDBRANCH   1   8
TORSDOF 1
ENDMDL
MODEL 6
REMARK VINA RESULT:    -5.491      2.022      4.962
REMARK INTER + INTRA:          -5.651
REMARK INTER:                  -5.764
REMARK INTRA:                   0.113
REMARK UNBOUND:                 0.161
REMARK SMILES C=C1CC[C@@]2(C(C)C)C[C@@H]12
REMARK SMILES IDX 5 1 4 2 3 3 2 4 1 5 10 6 9 7 6 8 7 9 8 10
REMARK H PARENT
REMARK Flexibility Score: inf
ROOT
ATOM      1  C   UNL     1       2.741  10.313  12.142  1.00  0.00    -0.020 C 
ATOM      2  C   UNL     1       2.912  10.127  13.663  1.00  0.00     0.012 C 
ATOM      3  C   UNL     1       3.923   9.002  13.897  1.00  0.00     0.031 C 
ATOM      4  C   UNL     1       4.300   8.541  12.534  1.00  0.00    -0.074 C 
ATOM      5  C   UNL     1       5.185   7.567  12.308  1.00  0.00     0.008 C 
ATOM      6  C   UNL     1       3.623   9.286  11.443  1.00  0.00     0.021 C 
ATOM      7  C   UNL     1       3.971  10.770  11.354  1.00  0.00     0.016 C 
ENDROOT
BRANCH   1   8
ATOM      8  C   UNL     1       1.307  10.565  11.573  1.00  0.00    -0.011 C 
ATOM      9  C   UNL     1       0.266  10.409  12.692  1.00  0.00     0.008 C 
ATOM     10  C   UNL     1       1.081  11.922  10.875  1.00  0.00     0.008 C 
ENDBRANCH   1   8
TORSDOF 1
ENDMDL
MODEL 7
REMARK VINA RESULT:    -5.484      1.179      3.777
REMARK INTER + INTRA:          -5.643
REMARK INTER:                  -5.602
REMARK INTRA:                  -0.041
REMARK UNBOUND:                 0.161
REMARK SMILES C=C1CC[C@@]2(C(C)C)C[C@@H]12
REMARK SMILES IDX 5 1 4 2 3 3 2 4 1 5 10 6 9 7 6 8 7 9 8 10
REMARK H PARENT
REMARK Flexibility Score: inf
ROOT
ATOM      1  C   UNL     1       4.879   8.097  13.357  1.00  0.00    -0.020 C 
ATOM      2  C   UNL     1       6.185   8.262  14.160  1.00  0.00     0.012 C 
ATOM      3  C   UNL     1       7.008   6.981  14.003  1.00  0.00     0.031 C 
ATOM      4  C   UNL     1       6.174   6.096  13.149  1.00  0.00    -0.074 C 
ATOM      5  C   UNL     1       6.555   4.875  12.766  1.00  0.00     0.008 C 
ATOM      6  C   UNL     1       4.886   6.708  12.733  1.00  0.00     0.021 C 
ATOM      7  C   UNL     1       5.010   7.941  11.841  1.00  0.00     0.016 C 
ENDROOT
BRANCH   1   8
ATOM      8  C   UNL     1       3.544   8.621  13.980  1.00  0.00    -0.011 C 
ATOM      9  C   UNL     1       3.654   8.638  15.512  1.00  0.00     0.008 C 
ATOM     10  C   UNL     1       3.070  10.009  13.504  1.00  0.00     0.008 C 
ENDBRANCH   1   8
TORSDOF 1
ENDMDL
