MODEL 1
REMARK VINA RESULT:    -3.190      0.000      0.000
REMARK INTER + INTRA:          -5.184
REMARK INTER:                  -4.869
REMARK INTRA:                  -0.315
REMARK UNBOUND:                -0.315
REMARK SMILES CC1=CCC[C@@H](C)C(=O)C[C@@H](C(C)C)C(=O)C1
REMARK SMILES IDX 8 1 9 2 6 3 7 4 5 5 4 6 3 7 2 8 1 9 10 11 11 12 15 13 16 14
REMARK SMILES IDX 17 15 12 17 13 18 14 19
REMARK H PARENT
REMARK Flexibility Score: 70.00
ROOT
ATOM      1  C   UNL     1      17.405  28.545  41.969  1.00  0.00     0.136 C 
ATOM      2  O   UNL     1      17.931  29.433  41.315  1.00  0.00    -0.299 OA
ENDROOT
BRANCH   1   3
ATOM      3  C   UNL     1      17.629  28.487  43.468  1.00  0.00     0.053 C 
ATOM      4  C   UNL     1      16.835  29.610  44.141  1.00  0.00     0.016 C 
BRANCH   3   5
ATOM      5  C   UNL     1      19.128  28.595  43.842  1.00  0.00     0.015 C 
BRANCH   5   6
ATOM      6  C   UNL     1      19.935  27.310  43.592  1.00  0.00     0.028 C 
BRANCH   6   7
ATOM      7  C   UNL     1      20.860  27.458  42.406  1.00  0.00    -0.028 C 
ATOM      8  C   UNL     1      20.783  26.735  41.266  1.00  0.00    -0.070 CG0
ATOM      9  C   UNL     1      21.800  27.005  40.185  1.00  0.00     0.039 C 
ATOM     10  G   UNL     1      19.732  25.663  41.034  1.00  0.00     0.000 G0
ENDBRANCH   6   7
ENDBRANCH   5   6
ENDBRANCH   3   5
ENDBRANCH   1   3
BRANCH   1  11
ATOM     11  C   UNL     1      16.501  27.553  41.269  1.00  0.00     0.087 C 
BRANCH  11  12
ATOM     12  C   UNL     1      17.116  26.133  41.176  1.00  0.00     0.066 C 
BRANCH  12  13
ATOM     13  C   UNL     1      18.435  26.144  40.415  1.00  0.00     0.140 C 
ATOM     14  O   UNL     1      18.449  26.502  39.245  1.00  0.00    -0.299 OA
BRANCH  13  15
ATOM     15  C   UNL     1      19.731  25.659  41.028  1.00  0.00     0.106 CG0
ATOM     16  G   UNL     1      20.753  26.759  41.256  1.00  0.00     0.000 G0
ENDBRANCH  13  15
ENDBRANCH  12  13
BRANCH  12  17
ATOM     17  C   UNL     1      16.147  25.062  40.586  1.00  0.00    -0.006 C 
ATOM     18  C   UNL     1      16.383  23.675  41.202  1.00  0.00     0.008 C 
ATOM     19  C   UNL     1      14.658  25.436  40.690  1.00  0.00     0.008 C 
ENDBRANCH  12  17
ENDBRANCH  11  12
ENDBRANCH   1  11
TORSDOF 1
ENDMDL
MODEL 2
REMARK VINA RESULT:    -3.163      1.822      4.066
REMARK INTER + INTRA:          -5.142
REMARK INTER:                  -5.470
REMARK INTRA:                   0.328
REMARK UNBOUND:                -0.315
REMARK SMILES CC1=CCC[C@@H](C)C(=O)C[C@@H](C(C)C)C(=O)C1
REMARK SMILES IDX 8 1 9 2 6 3 7 4 5 5 4 6 3 7 2 8 1 9 10 11 11 12 15 13 16 14
REMARK SMILES IDX 17 15 12 17 13 18 14 19
REMARK H PARENT
REMARK Flexibility Score: 70.00
ROOT
ATOM      1  C   UNL     1      18.304  28.314  43.436  1.00  0.00     0.136 C 
ATOM      2  O   UNL     1      18.285  29.421  43.953  1.00  0.00    -0.299 OA
ENDROOT
BRANCH   1   3
ATOM      3  C   UNL     1      17.134  27.868  42.580  1.00  0.00     0.053 C 
ATOM      4  C   UNL     1      15.839  28.462  43.143  1.00  0.00     0.016 C 
BRANCH   3   5
ATOM      5  C   UNL     1      17.020  26.325  42.499  1.00  0.00     0.015 C 
BRANCH   5   6
ATOM      6  C   UNL     1      17.704  25.706  41.269  1.00  0.00     0.028 C 
BRANCH   6   7
ATOM      7  C   UNL     1      17.837  26.707  40.145  1.00  0.00    -0.028 C 
ATOM      8  C   UNL     1      18.972  27.366  39.821  1.00  0.00    -0.070 CG0
ATOM      9  C   UNL     1      18.920  28.345  38.674  1.00  0.00     0.039 C 
ATOM     10  G   UNL     1      20.283  27.173  40.564  1.00  0.00     0.000 G0
ENDBRANCH   6   7
ENDBRANCH   5   6
ENDBRANCH   3   5
ENDBRANCH   1   3
BRANCH   1  11
ATOM     11  C   UNL     1      19.521  27.436  43.623  1.00  0.00     0.087 C 
BRANCH  11  12
ATOM     12  C   UNL     1      20.809  28.043  43.008  1.00  0.00     0.066 C 
BRANCH  12  13
ATOM     13  C   UNL     1      20.653  28.283  41.513  1.00  0.00     0.140 C 
ATOM     14  O   UNL     1      20.769  29.417  41.073  1.00  0.00    -0.299 OA
BRANCH  13  15
ATOM     15  C   UNL     1      20.287  27.177  40.547  1.00  0.00     0.106 CG0
ATOM     16  G   UNL     1      18.957  27.389  39.844  1.00  0.00     0.000 G0
ENDBRANCH  13  15
ENDBRANCH  12  13
BRANCH  12  17
ATOM     17  C   UNL     1      22.100  27.219  43.304  1.00  0.00    -0.006 C 
ATOM     18  C   UNL     1      21.834  25.707  43.272  1.00  0.00     0.008 C 
ATOM     19  C   UNL     1      23.290  27.563  42.391  1.00  0.00     0.008 C 
ENDBRANCH  12  17
ENDBRANCH  11  12
ENDBRANCH   1  11
TORSDOF 1
ENDMDL
MODEL 3
REMARK VINA RESULT:    -3.108      2.212      4.403
REMARK INTER + INTRA:          -5.059
REMARK INTER:                  -4.783
REMARK INTRA:                  -0.276
REMARK UNBOUND:                -0.315
REMARK SMILES CC1=CCC[C@@H](C)C(=O)C[C@@H](C(C)C)C(=O)C1
REMARK SMILES IDX 8 1 9 2 6 3 7 4 5 5 4 6 3 7 2 8 1 9 10 11 11 12 15 13 16 14
REMARK SMILES IDX 17 15 12 17 13 18 14 19
REMARK H PARENT
REMARK Flexibility Score: 70.00
ROOT
ATOM      1  C   UNL     1      21.332  26.197  42.434  1.00  0.00     0.136 C 
ATOM      2  O   UNL     1      21.902  25.524  43.280  1.00  0.00    -0.299 OA
ENDROOT
BRANCH   1   3
ATOM      3  C   UNL     1      21.287  27.705  42.584  1.00  0.00     0.053 C 
ATOM      4  C   UNL     1      22.688  28.222  42.924  1.00  0.00     0.016 C 
BRANCH   3   5
ATOM      5  C   UNL     1      20.275  28.157  43.667  1.00  0.00     0.015 C 
BRANCH   5   6
ATOM      6  C   UNL     1      18.801  27.991  43.261  1.00  0.00     0.028 C 
BRANCH   6   7
ATOM      7  C   UNL     1      18.433  28.909  42.119  1.00  0.00    -0.028 C 
ATOM      8  C   UNL     1      18.143  28.507  40.861  1.00  0.00    -0.070 CG0
ATOM      9  C   UNL     1      17.810  29.565  39.838  1.00  0.00     0.039 C 
ATOM     10  G   UNL     1      18.152  27.049  40.435  1.00  0.00     0.000 G0
ENDBRANCH   6   7
ENDBRANCH   5   6
ENDBRANCH   3   5
ENDBRANCH   1   3
BRANCH   1  11
ATOM     11  C   UNL     1      20.728  25.508  41.230  1.00  0.00     0.087 C 
BRANCH  11  12
ATOM     12  C   UNL     1      20.710  26.403  39.964  1.00  0.00     0.066 C 
BRANCH  12  13
ATOM     13  C   UNL     1      19.289  26.658  39.481  1.00  0.00     0.140 C 
ATOM     14  O   UNL     1      19.048  26.624  38.282  1.00  0.00    -0.299 OA
BRANCH  13  15
ATOM     15  C   UNL     1      18.164  27.026  40.424  1.00  0.00     0.106 CG0
ATOM     16  G   UNL     1      18.165  28.486  40.843  1.00  0.00     0.000 G0
ENDBRANCH  13  15
ENDBRANCH  12  13
BRANCH  12  17
ATOM     17  C   UNL     1      21.602  25.871  38.800  1.00  0.00    -0.006 C 
ATOM     18  C   UNL     1      22.178  27.014  37.951  1.00  0.00     0.008 C 
ATOM     19  C   UNL     1      22.734  24.932  39.254  1.00  0.00     0.008 C 
ENDBRANCH  12  17
ENDBRANCH  11  12
ENDBRANCH   1  11
TORSDOF 1
ENDMDL
MODEL 4
REMARK VINA RESULT:    -3.108      2.667      5.160
REMARK INTER + INTRA:          -5.058
REMARK INTER:                  -4.568
REMARK INTRA:                  -0.490
REMARK UNBOUND:                -0.315
REMARK SMILES CC1=CCC[C@@H](C)C(=O)C[C@@H](C(C)C)C(=O)C1
REMARK SMILES IDX 8 1 9 2 6 3 7 4 5 5 4 6 3 7 2 8 1 9 10 11 11 12 15 13 16 14
REMARK SMILES IDX 17 15 12 17 13 18 14 19
REMARK H PARENT
REMARK Flexibility Score: 70.00
ROOT
ATOM      1  C   UNL     1      20.956  26.590  43.387  1.00  0.00     0.136 C 
ATOM      2  O   UNL     1      20.688  25.949  44.393  1.00  0.00    -0.299 OA
ENDROOT
BRANCH   1   3
ATOM      3  C   UNL     1      19.942  27.573  42.835  1.00  0.00     0.053 C 
ATOM      4  C   UNL     1      19.598  28.605  43.914  1.00  0.00     0.016 C 
BRANCH   3   5
ATOM      5  C   UNL     1      18.653  26.871  42.340  1.00  0.00     0.015 C 
BRANCH   5   6
ATOM      6  C   UNL     1      18.889  25.821  41.241  1.00  0.00     0.028 C 
BRANCH   6   7
ATOM      7  C   UNL     1      19.130  26.469  39.897  1.00  0.00    -0.028 C 
ATOM      8  C   UNL     1      20.321  26.509  39.257  1.00  0.00    -0.070 CG0
ATOM      9  C   UNL     1      20.385  27.213  37.924  1.00  0.00     0.039 C 
ATOM     10  G   UNL     1      21.588  25.892  39.824  1.00  0.00     0.000 G0
ENDBRANCH   6   7
ENDBRANCH   5   6
ENDBRANCH   3   5
ENDBRANCH   1   3
BRANCH   1  11
ATOM     11  C   UNL     1      22.316  26.419  42.746  1.00  0.00     0.087 C 
BRANCH  11  12
ATOM     12  C   UNL     1      22.619  27.495  41.671  1.00  0.00     0.066 C 
BRANCH  12  13
ATOM     13  C   UNL     1      22.640  26.896  40.272  1.00  0.00     0.140 C 
ATOM     14  O   UNL     1      23.481  27.276  39.470  1.00  0.00    -0.299 OA
BRANCH  13  15
ATOM     15  C   UNL     1      21.610  25.891  39.804  1.00  0.00     0.106 CG0
ATOM     16  G   UNL     1      20.331  26.519  39.279  1.00  0.00     0.000 G0
ENDBRANCH  13  15
ENDBRANCH  12  13
BRANCH  12  17
ATOM     17  C   UNL     1      23.921  28.310  41.943  1.00  0.00    -0.006 C 
ATOM     18  C   UNL     1      23.664  29.506  42.872  1.00  0.00     0.008 C 
ATOM     19  C   UNL     1      25.090  27.467  42.484  1.00  0.00     0.008 C 
ENDBRANCH  12  17
ENDBRANCH  11  12
ENDBRANCH   1  11
TORSDOF 1
ENDMDL
MODEL 5
REMARK VINA RESULT:    -3.090      2.064      3.907
REMARK INTER + INTRA:          -5.031
REMARK INTER:                  -5.040
REMARK INTRA:                   0.009
REMARK UNBOUND:                -0.315
REMARK SMILES CC1=CCC[C@@H](C)C(=O)C[C@@H](C(C)C)C(=O)C1
REMARK SMILES IDX 8 1 9 2 6 3 7 4 5 5 4 6 3 7 2 8 1 9 10 11 11 12 15 13 16 14
REMARK SMILES IDX 17 15 12 17 13 18 14 19
REMARK H PARENT
REMARK Flexibility Score: 70.00
ROOT
ATOM      1  C   UNL     1      21.266  27.782  42.798  1.00  0.00     0.136 C 
ATOM      2  O   UNL     1      22.311  28.415  42.803  1.00  0.00    -0.299 OA
ENDROOT
BRANCH   1   3
ATOM      3  C   UNL     1      21.306  26.272  42.673  1.00  0.00     0.053 C 
ATOM      4  C   UNL     1      22.191  25.696  43.782  1.00  0.00     0.016 C 
BRANCH   3   5
ATOM      5  C   UNL     1      21.821  25.811  41.287  1.00  0.00     0.015 C 
BRANCH   5   6
ATOM      6  C   UNL     1      20.715  25.608  40.238  1.00  0.00     0.028 C 
BRANCH   6   7
ATOM      7  C   UNL     1      20.769  26.668  39.163  1.00  0.00    -0.028 C 
ATOM      8  C   UNL     1      19.779  27.547  38.886  1.00  0.00    -0.070 CG0
ATOM      9  C   UNL     1      19.998  28.532  37.765  1.00  0.00     0.039 C 
ATOM     10  G   UNL     1      18.462  27.575  39.642  1.00  0.00     0.000 G0
ENDBRANCH   6   7
ENDBRANCH   5   6
ENDBRANCH   3   5
ENDBRANCH   1   3
BRANCH   1  11
ATOM     11  C   UNL     1      19.957  28.523  42.968  1.00  0.00     0.087 C 
BRANCH  11  12
ATOM     12  C   UNL     1      18.764  27.815  42.274  1.00  0.00     0.066 C 
BRANCH  12  13
ATOM     13  C   UNL     1      18.485  28.408  40.901  1.00  0.00     0.140 C 
ATOM     14  O   UNL     1      18.208  29.595  40.805  1.00  0.00    -0.299 OA
BRANCH  13  15
ATOM     15  C   UNL     1      18.466  27.567  39.642  1.00  0.00     0.106 CG0
ATOM     16  G   UNL     1      19.787  27.550  38.893  1.00  0.00     0.000 G0
ENDBRANCH  13  15
ENDBRANCH  12  13
BRANCH  12  17
ATOM     17  C   UNL     1      17.464  27.778  43.136  1.00  0.00    -0.006 C 
ATOM     18  C   UNL     1      17.052  29.180  43.609  1.00  0.00     0.008 C 
ATOM     19  C   UNL     1      16.274  27.084  42.450  1.00  0.00     0.008 C 
ENDBRANCH  12  17
ENDBRANCH  11  12
ENDBRANCH   1  11
TORSDOF 1
ENDMDL
MODEL 6
REMARK VINA RESULT:    -3.082      2.285      4.582
REMARK INTER + INTRA:          -5.018
REMARK INTER:                  -4.680
REMARK INTRA:                  -0.338
REMARK UNBOUND:                -0.315
REMARK SMILES CC1=CCC[C@@H](C)C(=O)C[C@@H](C(C)C)C(=O)C1
REMARK SMILES IDX 8 1 9 2 6 3 7 4 5 5 4 6 3 7 2 8 1 9 10 11 11 12 15 13 16 14
REMARK SMILES IDX 17 15 12 17 13 18 14 19
REMARK H PARENT
REMARK Flexibility Score: 70.00
ROOT
ATOM      1  C   UNL     1      19.529  26.382  39.897  1.00  0.00     0.136 C 
ATOM      2  O   UNL     1      18.918  26.234  38.850  1.00  0.00    -0.299 OA
ENDROOT
BRANCH   1   3
ATOM      3  C   UNL     1      18.912  25.905  41.198  1.00  0.00     0.053 C 
ATOM      4  C   UNL     1      17.554  25.258  40.906  1.00  0.00     0.016 C 
BRANCH   3   5
ATOM      5  C   UNL     1      18.746  27.052  42.224  1.00  0.00     0.015 C 
BRANCH   5   6
ATOM      6  C   UNL     1      19.718  26.979  43.415  1.00  0.00     0.028 C 
BRANCH   6   7
ATOM      7  C   UNL     1      20.678  28.146  43.418  1.00  0.00    -0.028 C 
ATOM      8  C   UNL     1      21.993  28.072  43.112  1.00  0.00    -0.070 CG0
ATOM      9  C   UNL     1      22.810  29.338  43.181  1.00  0.00     0.039 C 
ATOM     10  G   UNL     1      22.679  26.775  42.717  1.00  0.00     0.000 G0
ENDBRANCH   6   7
ENDBRANCH   5   6
ENDBRANCH   3   5
ENDBRANCH   1   3
BRANCH   1  11
ATOM     11  C   UNL     1      20.912  26.996  39.861  1.00  0.00     0.087 C 
BRANCH  11  12
ATOM     12  C   UNL     1      22.029  26.001  40.271  1.00  0.00     0.066 C 
BRANCH  12  13
ATOM     13  C   UNL     1      23.002  26.629  41.258  1.00  0.00     0.140 C 
ATOM     14  O   UNL     1      24.102  26.993  40.866  1.00  0.00    -0.299 OA
BRANCH  13  15
ATOM     15  C   UNL     1      22.691  26.760  42.733  1.00  0.00     0.106 CG0
ATOM     16  G   UNL     1      22.002  28.062  43.104  1.00  0.00     0.000 G0
ENDBRANCH  13  15
ENDBRANCH  12  13
BRANCH  12  17
ATOM     17  C   UNL     1      22.793  25.376  39.062  1.00  0.00    -0.006 C 
ATOM     18  C   UNL     1      22.620  23.851  39.003  1.00  0.00     0.008 C 
ATOM     19  C   UNL     1      22.434  25.999  37.701  1.00  0.00     0.008 C 
ENDBRANCH  12  17
ENDBRANCH  11  12
ENDBRANCH   1  11
TORSDOF 1
ENDMDL
MODEL 7
REMARK VINA RESULT:    -2.941      2.714      5.177
REMARK INTER + INTRA:          -4.804
REMARK INTER:                  -4.570
REMARK INTRA:                  -0.233
REMARK UNBOUND:                -0.315
REMARK SMILES CC1=CCC[C@@H](C)C(=O)C[C@@H](C(C)C)C(=O)C1
REMARK SMILES IDX 8 1 9 2 6 3 7 4 5 5 4 6 3 7 2 8 1 9 10 11 11 12 15 13 16 14
REMARK SMILES IDX 17 15 12 17 13 18 14 19
REMARK H PARENT
REMARK Flexibility Score: 70.00
ROOT
ATOM      1  C   UNL     1      21.984  25.115  39.922  1.00  0.00     0.136 C 
ATOM      2  O   UNL     1      22.638  24.126  39.627  1.00  0.00    -0.299 OA
ENDROOT
BRANCH   1   3
ATOM      3  C   UNL     1      22.213  26.414  39.173  1.00  0.00     0.053 C 
ATOM      4  C   UNL     1      21.480  26.359  37.829  1.00  0.00     0.016 C 
BRANCH   3   5
ATOM      5  C   UNL     1      23.717  26.704  38.948  1.00  0.00     0.015 C 
BRANCH   5   6
ATOM      6  C   UNL     1      24.533  26.847  40.244  1.00  0.00     0.028 C 
BRANCH   6   7
ATOM      7  C   UNL     1      24.075  28.034  41.060  1.00  0.00    -0.028 C 
ATOM      8  C   UNL     1      23.446  27.959  42.255  1.00  0.00    -0.070 CG0
ATOM      9  C   UNL     1      23.046  29.249  42.926  1.00  0.00     0.039 C 
ATOM     10  G   UNL     1      23.118  26.643  42.938  1.00  0.00     0.000 G0
ENDBRANCH   6   7
ENDBRANCH   5   6
ENDBRANCH   3   5
ENDBRANCH   1   3
BRANCH   1  11
ATOM     11  C   UNL     1      20.924  25.002  40.996  1.00  0.00     0.087 C 
BRANCH  11  12
ATOM     12  C   UNL     1      20.746  26.308  41.813  1.00  0.00     0.066 C 
BRANCH  12  13
ATOM     13  C   UNL     1      21.648  26.327  43.039  1.00  0.00     0.140 C 
ATOM     14  O   UNL     1      21.160  26.139  44.144  1.00  0.00    -0.299 OA
BRANCH  13  15
ATOM     15  C   UNL     1      23.126  26.642  42.956  1.00  0.00     0.106 CG0
ATOM     16  G   UNL     1      23.437  27.949  42.247  1.00  0.00     0.000 G0
ENDBRANCH  13  15
ENDBRANCH  12  13
BRANCH  12  17
ATOM     17  C   UNL     1      19.268  26.610  42.209  1.00  0.00    -0.006 C 
ATOM     18  C   UNL     1      18.990  28.118  42.277  1.00  0.00     0.008 C 
ATOM     19  C   UNL     1      18.223  25.923  41.310  1.00  0.00     0.008 C 
ENDBRANCH  12  17
ENDBRANCH  11  12
ENDBRANCH   1  11
TORSDOF 1
ENDMDL
MODEL 8
REMARK VINA RESULT:    -2.916      2.118      4.822
REMARK INTER + INTRA:          -4.765
REMARK INTER:                  -4.318
REMARK INTRA:                  -0.447
REMARK UNBOUND:                -0.315
REMARK SMILES CC1=CCC[C@@H](C)C(=O)C[C@@H](C(C)C)C(=O)C1
REMARK SMILES IDX 8 1 9 2 6 3 7 4 5 5 4 6 3 7 2 8 1 9 10 11 11 12 15 13 16 14
REMARK SMILES IDX 17 15 12 17 13 18 14 19
REMARK H PARENT
REMARK Flexibility Score: 70.00
ROOT
ATOM      1  C   UNL     1      20.967  25.637  41.541  1.00  0.00     0.136 C 
ATOM      2  O   UNL     1      21.004  24.422  41.660  1.00  0.00    -0.299 OA
ENDROOT
BRANCH   1   3
ATOM      3  C   UNL     1      21.450  26.516  42.679  1.00  0.00     0.053 C 
ATOM      4  C   UNL     1      22.759  25.948  43.236  1.00  0.00     0.016 C 
BRANCH   3   5
ATOM      5  C   UNL     1      20.400  26.641  43.811  1.00  0.00     0.015 C 
BRANCH   5   6
ATOM      6  C   UNL     1      19.468  27.856  43.676  1.00  0.00     0.028 C 
BRANCH   6   7
ATOM      7  C   UNL     1      18.098  27.452  43.183  1.00  0.00    -0.028 C 
ATOM      8  C   UNL     1      17.514  27.904  42.050  1.00  0.00    -0.070 CG0
ATOM      9  C   UNL     1      16.131  27.404  41.717  1.00  0.00     0.039 C 
ATOM     10  G   UNL     1      18.183  28.894  41.112  1.00  0.00     0.000 G0
ENDBRANCH   6   7
ENDBRANCH   5   6
ENDBRANCH   3   5
ENDBRANCH   1   3
BRANCH   1  11
ATOM     11  C   UNL     1      20.483  26.234  40.238  1.00  0.00     0.087 C 
BRANCH  11  12
ATOM     12  C   UNL     1      20.426  27.784  40.264  1.00  0.00     0.066 C 
BRANCH  12  13
ATOM     13  C   UNL     1      19.012  28.294  40.022  1.00  0.00     0.140 C 
ATOM     14  O   UNL     1      18.546  28.257  38.892  1.00  0.00    -0.299 OA
BRANCH  13  15
ATOM     15  C   UNL     1      18.175  28.917  41.119  1.00  0.00     0.106 CG0
ATOM     16  G   UNL     1      17.513  27.906  42.038  1.00  0.00     0.000 G0
ENDBRANCH  13  15
ENDBRANCH  12  13
BRANCH  12  17
ATOM     17  C   UNL     1      21.435  28.470  39.292  1.00  0.00    -0.006 C 
ATOM     18  C   UNL     1      22.554  29.198  40.051  1.00  0.00     0.008 C 
ATOM     19  C   UNL     1      22.042  27.522  38.243  1.00  0.00     0.008 C 
ENDBRANCH  12  17
ENDBRANCH  11  12
ENDBRANCH   1  11
TORSDOF 1
ENDMDL
MODEL 9
REMARK VINA RESULT:    -2.886      2.059      4.145
REMARK INTER + INTRA:          -4.719
REMARK INTER:                  -4.906
REMARK INTRA:                   0.187
REMARK UNBOUND:                -0.315
REMARK SMILES CC1=CCC[C@@H](C)C(=O)C[C@@H](C(C)C)C(=O)C1
REMARK SMILES IDX 8 1 9 2 6 3 7 4 5 5 4 6 3 7 2 8 1 9 10 11 11 12 15 13 16 14
REMARK SMILES IDX 17 15 12 17 13 18 14 19
REMARK H PARENT
REMARK Flexibility Score: 70.00
ROOT
ATOM      1  C   UNL     1      18.993  27.916  43.682  1.00  0.00     0.136 C 
ATOM      2  O   UNL     1      19.387  28.715  44.520  1.00  0.00    -0.299 OA
ENDROOT
BRANCH   1   3
ATOM      3  C   UNL     1      17.636  28.117  43.036  1.00  0.00     0.053 C 
ATOM      4  C   UNL     1      17.121  26.773  42.512  1.00  0.00     0.016 C 
BRANCH   3   5
ATOM      5  C   UNL     1      17.681  29.155  41.888  1.00  0.00     0.015 C 
BRANCH   5   6
ATOM      6  C   UNL     1      17.886  28.543  40.492  1.00  0.00     0.028 C 
BRANCH   6   7
ATOM      7  C   UNL     1      19.167  29.030  39.856  1.00  0.00    -0.028 C 
ATOM      8  C   UNL     1      20.182  28.237  39.445  1.00  0.00    -0.070 CG0
ATOM      9  C   UNL     1      21.398  28.896  38.843  1.00  0.00     0.039 C 
ATOM     10  G   UNL     1      20.155  26.724  39.576  1.00  0.00     0.000 G0
ENDBRANCH   6   7
ENDBRANCH   5   6
ENDBRANCH   3   5
ENDBRANCH   1   3
BRANCH   1  11
ATOM     11  C   UNL     1      19.896  26.772  43.276  1.00  0.00     0.087 C 
BRANCH  11  12
ATOM     12  C   UNL     1      20.859  27.141  42.118  1.00  0.00     0.066 C 
BRANCH  12  13
ATOM     13  C   UNL     1      20.668  26.222  40.919  1.00  0.00     0.140 C 
ATOM     14  O   UNL     1      20.976  25.042  41.013  1.00  0.00    -0.299 OA
BRANCH  13  15
ATOM     15  C   UNL     1      20.174  26.726  39.580  1.00  0.00     0.106 CG0
ATOM     16  G   UNL     1      20.178  28.239  39.453  1.00  0.00     0.000 G0
ENDBRANCH  13  15
ENDBRANCH  12  13
BRANCH  12  17
ATOM     17  C   UNL     1      22.360  27.197  42.538  1.00  0.00    -0.006 C 
ATOM     18  C   UNL     1      22.792  28.618  42.930  1.00  0.00     0.008 C 
ATOM     19  C   UNL     1      22.740  26.206  43.652  1.00  0.00     0.008 C 
ENDBRANCH  12  17
ENDBRANCH  11  12
ENDBRANCH   1  11
TORSDOF 1
ENDMDL
