MODEL 1
REMARK VINA RESULT:    -4.269      0.000      0.000
REMARK INTER + INTRA:          -4.542
REMARK INTER:                  -4.519
REMARK INTRA:                  -0.024
REMARK UNBOUND:                -0.024
REMARK SMILES O=C([O-])c1cccnc1
REMARK SMILES IDX 4 1 5 2 9 3 6 4 8 5 7 6 2 7 1 8 3 9
REMARK H PARENT
REMARK Flexibility Score: inf
ROOT
ATOM      1  C   UNL     1       2.258 -27.694  -0.269  1.00  0.00     0.016 A 
ATOM      2  C   UNL     1       1.912 -27.953   1.067  1.00  0.00     0.013 A 
ATOM      3  C   UNL     1       3.456 -28.235  -0.767  1.00  0.00     0.120 A 
ATOM      4  C   UNL     1       2.748 -28.731   1.870  1.00  0.00     0.021 A 
ATOM      5  N   UNL     1       4.253 -28.991   0.036  1.00  0.00    -0.264 NA
ATOM      6  C   UNL     1       3.928 -29.247   1.330  1.00  0.00     0.111 A 
ENDROOT
BRANCH   1   7
ATOM      7  C   UNL     1       1.380 -26.870  -1.129  1.00  0.00     0.073 C 
ATOM      8  O   UNL     1       1.719 -26.589  -2.308  1.00  0.00    -0.545 OA
ATOM      9  O   UNL     1       0.166 -26.395  -0.644  1.00  0.00    -0.545 OA
ENDBRANCH   1   7
TORSDOF 1
ENDMDL
MODEL 2
REMARK VINA RESULT:    -4.265      5.235      6.072
REMARK INTER + INTRA:          -4.538
REMARK INTER:                  -4.522
REMARK INTRA:                  -0.016
REMARK UNBOUND:                -0.024
REMARK SMILES O=C([O-])c1cccnc1
REMARK SMILES IDX 4 1 5 2 9 3 6 4 8 5 7 6 2 7 1 8 3 9
REMARK H PARENT
REMARK Flexibility Score: inf
ROOT
ATOM      1  C   UNL     1       3.531 -29.857   4.916  1.00  0.00     0.016 A 
ATOM      2  C   UNL     1       3.203 -29.430   3.620  1.00  0.00     0.013 A 
ATOM      3  C   UNL     1       4.834 -30.327   5.156  1.00  0.00     0.120 A 
ATOM      4  C   UNL     1       4.158 -29.475   2.603  1.00  0.00     0.021 A 
ATOM      5  N   UNL     1       5.747 -30.360   4.147  1.00  0.00    -0.264 NA
ATOM      6  C   UNL     1       5.439 -29.949   2.889  1.00  0.00     0.111 A 
ENDROOT
BRANCH   1   7
ATOM      7  C   UNL     1       2.526 -29.815   6.001  1.00  0.00     0.073 C 
ATOM      8  O   UNL     1       2.462 -28.824   6.776  1.00  0.00    -0.545 OA
ATOM      9  O   UNL     1       1.638 -30.869   6.179  1.00  0.00    -0.545 OA
ENDBRANCH   1   7
TORSDOF 1
ENDMDL
MODEL 3
REMARK VINA RESULT:    -4.211      2.010      2.754
REMARK INTER + INTRA:          -4.481
REMARK INTER:                  -4.459
REMARK INTRA:                  -0.022
REMARK UNBOUND:                -0.024
REMARK SMILES O=C([O-])c1cccnc1
REMARK SMILES IDX 4 1 5 2 9 3 6 4 8 5 7 6 2 7 1 8 3 9
REMARK H PARENT
REMARK Flexibility Score: inf
ROOT
ATOM      1  C   UNL     1       2.466 -27.359  -1.460  1.00  0.00     0.016 A 
ATOM      2  C   UNL     1       3.220 -28.192  -0.618  1.00  0.00     0.013 A 
ATOM      3  C   UNL     1       1.272 -26.810  -0.964  1.00  0.00     0.120 A 
ATOM      4  C   UNL     1       2.780 -28.459   0.681  1.00  0.00     0.021 A 
ATOM      5  N   UNL     1       0.866 -27.085   0.305  1.00  0.00    -0.264 NA
ATOM      6  C   UNL     1       1.587 -27.890   1.129  1.00  0.00     0.111 A 
ENDROOT
BRANCH   1   7
ATOM      7  C   UNL     1       2.922 -27.070  -2.838  1.00  0.00     0.073 C 
ATOM      8  O   UNL     1       2.089 -26.824  -3.749  1.00  0.00    -0.545 OA
ATOM      9  O   UNL     1       4.278 -27.065  -3.143  1.00  0.00    -0.545 OA
ENDBRANCH   1   7
TORSDOF 1
ENDMDL
MODEL 4
REMARK VINA RESULT:    -4.210      3.219      4.044
REMARK INTER + INTRA:          -4.480
REMARK INTER:                  -4.456
REMARK INTRA:                  -0.024
REMARK UNBOUND:                -0.024
REMARK SMILES O=C([O-])c1cccnc1
REMARK SMILES IDX 4 1 5 2 9 3 6 4 8 5 7 6 2 7 1 8 3 9
REMARK H PARENT
REMARK Flexibility Score: inf
ROOT
ATOM      1  C   UNL     1       3.348 -28.818   1.439  1.00  0.00     0.016 A 
ATOM      2  C   UNL     1       2.090 -28.195   1.458  1.00  0.00     0.013 A 
ATOM      3  C   UNL     1       4.048 -28.877   0.221  1.00  0.00     0.120 A 
ATOM      4  C   UNL     1       1.559 -27.651   0.287  1.00  0.00     0.021 A 
ATOM      5  N   UNL     1       3.507 -28.338  -0.906  1.00  0.00    -0.264 NA
ATOM      6  C   UNL     1       2.291 -27.734  -0.899  1.00  0.00     0.111 A 
ENDROOT
BRANCH   1   7
ATOM      7  C   UNL     1       3.921 -29.398   2.674  1.00  0.00     0.073 C 
ATOM      8  O   UNL     1       3.409 -29.148   3.796  1.00  0.00    -0.545 OA
ATOM      9  O   UNL     1       5.033 -30.230   2.609  1.00  0.00    -0.545 OA
ENDBRANCH   1   7
TORSDOF 1
ENDMDL
MODEL 5
REMARK VINA RESULT:    -4.200      1.492      2.052
REMARK INTER + INTRA:          -4.469
REMARK INTER:                  -4.447
REMARK INTRA:                  -0.022
REMARK UNBOUND:                -0.024
REMARK SMILES O=C([O-])c1cccnc1
REMARK SMILES IDX 4 1 5 2 9 3 6 4 8 5 7 6 2 7 1 8 3 9
REMARK H PARENT
REMARK Flexibility Score: inf
ROOT
ATOM      1  C   UNL     1       2.920 -27.705  -1.137  1.00  0.00     0.016 A 
ATOM      2  C   UNL     1       1.737 -27.298  -0.499  1.00  0.00     0.013 A 
ATOM      3  C   UNL     1       3.795 -28.558  -0.443  1.00  0.00     0.120 A 
ATOM      4  C   UNL     1       1.451 -27.740   0.795  1.00  0.00     0.021 A 
ATOM      5  N   UNL     1       3.492 -28.974   0.817  1.00  0.00    -0.264 NA
ATOM      6  C   UNL     1       2.351 -28.586   1.443  1.00  0.00     0.111 A 
ENDROOT
BRANCH   1   7
ATOM      7  C   UNL     1       3.234 -27.243  -2.507  1.00  0.00     0.073 C 
ATOM      8  O   UNL     1       4.430 -27.105  -2.878  1.00  0.00    -0.545 OA
ATOM      9  O   UNL     1       2.212 -26.957  -3.404  1.00  0.00    -0.545 OA
ENDBRANCH   1   7
TORSDOF 1
ENDMDL
MODEL 6
REMARK VINA RESULT:    -4.192      1.946      2.535
REMARK INTER + INTRA:          -4.460
REMARK INTER:                  -4.441
REMARK INTRA:                  -0.020
REMARK UNBOUND:                -0.024
REMARK SMILES O=C([O-])c1cccnc1
REMARK SMILES IDX 4 1 5 2 9 3 6 4 8 5 7 6 2 7 1 8 3 9
REMARK H PARENT
REMARK Flexibility Score: inf
ROOT
ATOM      1  C   UNL     1       0.581 -26.890  -0.317  1.00  0.00     0.016 A 
ATOM      2  C   UNL     1       1.153 -27.703   0.674  1.00  0.00     0.013 A 
ATOM      3  C   UNL     1       1.298 -26.683  -1.508  1.00  0.00     0.120 A 
ATOM      4  C   UNL     1       2.404 -28.287   0.467  1.00  0.00     0.021 A 
ATOM      5  N   UNL     1       2.516 -27.264  -1.685  1.00  0.00    -0.264 NA
ATOM      6  C   UNL     1       3.078 -28.053  -0.733  1.00  0.00     0.111 A 
ENDROOT
BRANCH   1   7
ATOM      7  C   UNL     1      -0.744 -26.266  -0.108  1.00  0.00     0.073 C 
ATOM      8  O   UNL     1      -1.701 -26.936   0.361  1.00  0.00    -0.545 OA
ATOM      9  O   UNL     1      -0.949 -24.928  -0.426  1.00  0.00    -0.545 OA
ENDBRANCH   1   7
TORSDOF 1
ENDMDL
MODEL 7
REMARK VINA RESULT:    -4.120      4.997      6.215
REMARK INTER + INTRA:          -4.385
REMARK INTER:                  -4.366
REMARK INTRA:                  -0.019
REMARK UNBOUND:                -0.024
REMARK SMILES O=C([O-])c1cccnc1
REMARK SMILES IDX 4 1 5 2 9 3 6 4 8 5 7 6 2 7 1 8 3 9
REMARK H PARENT
REMARK Flexibility Score: inf
ROOT
ATOM      1  C   UNL     1      -1.956 -25.432  -0.054  1.00  0.00     0.016 A 
ATOM      2  C   UNL     1      -2.225 -24.056   0.004  1.00  0.00     0.013 A 
ATOM      3  C   UNL     1      -2.870 -26.319   0.541  1.00  0.00     0.120 A 
ATOM      4  C   UNL     1      -3.379 -23.593   0.639  1.00  0.00     0.021 A 
ATOM      5  N   UNL     1      -3.988 -25.841   1.154  1.00  0.00    -0.264 NA
ATOM      6  C   UNL     1      -4.258 -24.511   1.215  1.00  0.00     0.111 A 
ENDROOT
BRANCH   1   7
ATOM      7  C   UNL     1      -0.736 -25.934  -0.724  1.00  0.00     0.073 C 
ATOM      8  O   UNL     1      -0.464 -25.587  -1.903  1.00  0.00    -0.545 OA
ATOM      9  O   UNL     1       0.128 -26.796  -0.058  1.00  0.00    -0.545 OA
ENDBRANCH   1   7
TORSDOF 1
ENDMDL
MODEL 8
REMARK VINA RESULT:    -4.113      5.251      6.386
REMARK INTER + INTRA:          -4.377
REMARK INTER:                  -4.358
REMARK INTRA:                  -0.019
REMARK UNBOUND:                -0.024
REMARK SMILES O=C([O-])c1cccnc1
REMARK SMILES IDX 4 1 5 2 9 3 6 4 8 5 7 6 2 7 1 8 3 9
REMARK H PARENT
REMARK Flexibility Score: inf
ROOT
ATOM      1  C   UNL     1      -3.126 -24.948   0.441  1.00  0.00     0.016 A 
ATOM      2  C   UNL     1      -2.087 -24.257  -0.202  1.00  0.00     0.013 A 
ATOM      3  C   UNL     1      -2.953 -26.317   0.709  1.00  0.00     0.120 A 
ATOM      4  C   UNL     1      -0.916 -24.926  -0.561  1.00  0.00     0.021 A 
ATOM      5  N   UNL     1      -1.801 -26.946   0.348  1.00  0.00    -0.264 NA
ATOM      6  C   UNL     1      -0.790 -26.286  -0.275  1.00  0.00     0.111 A 
ENDROOT
BRANCH   1   7
ATOM      7  C   UNL     1      -4.372 -24.249   0.826  1.00  0.00     0.073 C 
ATOM      8  O   UNL     1      -5.496 -24.754   0.565  1.00  0.00    -0.545 OA
ATOM      9  O   UNL     1      -4.318 -23.025   1.482  1.00  0.00    -0.545 OA
ENDBRANCH   1   7
TORSDOF 1
ENDMDL
MODEL 9
REMARK VINA RESULT:    -4.020      3.962      5.167
REMARK INTER + INTRA:          -4.279
REMARK INTER:                  -4.257
REMARK INTRA:                  -0.022
REMARK UNBOUND:                -0.024
REMARK SMILES O=C([O-])c1cccnc1
REMARK SMILES IDX 4 1 5 2 9 3 6 4 8 5 7 6 2 7 1 8 3 9
REMARK H PARENT
REMARK Flexibility Score: inf
ROOT
ATOM      1  C   UNL     1      -0.715 -26.237  -0.501  1.00  0.00     0.016 A 
ATOM      2  C   UNL     1      -1.734 -26.696   0.348  1.00  0.00     0.013 A 
ATOM      3  C   UNL     1      -1.031 -25.256  -1.457  1.00  0.00     0.120 A 
ATOM      4  C   UNL     1      -3.027 -26.181   0.235  1.00  0.00     0.021 A 
ATOM      5  N   UNL     1      -2.299 -24.770  -1.546  1.00  0.00    -0.264 NA
ATOM      6  C   UNL     1      -3.293 -25.208  -0.729  1.00  0.00     0.111 A 
ENDROOT
BRANCH   1   7
ATOM      7  C   UNL     1       0.659 -26.776  -0.391  1.00  0.00     0.073 C 
ATOM      8  O   UNL     1       1.452 -26.713  -1.367  1.00  0.00    -0.545 OA
ATOM      9  O   UNL     1       1.092 -27.360   0.794  1.00  0.00    -0.545 OA
ENDBRANCH   1   7
TORSDOF 1
ENDMDL
