MODEL 1
REMARK VINA RESULT:    -5.268      0.000      0.000
REMARK INTER + INTRA:          -5.964
REMARK INTER:                  -5.884
REMARK INTRA:                  -0.079
REMARK UNBOUND:                -0.079
REMARK SMILES O=C([O-])c1ccccc1C(=O)[O-]
REMARK SMILES IDX 4 1 9 2 5 3 8 4 6 5 7 6 2 7 1 8 3 9 10 10 11 11 12 12
REMARK H PARENT
REMARK Flexibility Score: inf
ROOT
ATOM      1  C   UNL     1     152.362 142.879 133.263  1.00  0.00     0.006 A 
ATOM      2  C   UNL     1     152.721 144.256 133.311  1.00  0.00     0.006 A 
ATOM      3  C   UNL     1     151.519 142.429 132.231  1.00  0.00     0.010 A 
ATOM      4  C   UNL     1     152.278 145.115 132.289  1.00  0.00     0.010 A 
ATOM      5  C   UNL     1     151.072 143.304 131.241  1.00  0.00     0.001 A 
ATOM      6  C   UNL     1     151.459 144.641 131.263  1.00  0.00     0.001 A 
ENDROOT
BRANCH   1   7
ATOM      7  C   UNL     1     152.891 141.873 134.213  1.00  0.00     0.072 C 
ATOM      8  O   UNL     1     153.679 140.972 133.826  1.00  0.00    -0.545 OA
ATOM      9  O   UNL     1     152.466 141.876 135.537  1.00  0.00    -0.545 OA
ENDBRANCH   1   7
BRANCH   2  10
ATOM     10  C   UNL     1     153.490 144.851 134.428  1.00  0.00     0.072 C 
ATOM     11  O   UNL     1     152.950 145.054 135.547  1.00  0.00    -0.545 OA
ATOM     12  O   UNL     1     154.806 145.255 134.231  1.00  0.00    -0.545 OA
ENDBRANCH   2  10
TORSDOF 2
ENDMDL
MODEL 2
REMARK VINA RESULT:    -5.268      0.055      3.156
REMARK INTER + INTRA:          -5.963
REMARK INTER:                  -5.903
REMARK INTRA:                  -0.060
REMARK UNBOUND:                -0.079
REMARK SMILES O=C([O-])c1ccccc1C(=O)[O-]
REMARK SMILES IDX 4 1 9 2 5 3 8 4 6 5 7 6 2 7 1 8 3 9 10 10 11 11 12 12
REMARK H PARENT
REMARK Flexibility Score: inf
ROOT
ATOM      1  C   UNL     1     152.759 144.262 133.303  1.00  0.00     0.006 A 
ATOM      2  C   UNL     1     152.365 142.894 133.278  1.00  0.00     0.006 A 
ATOM      3  C   UNL     1     152.329 145.116 132.271  1.00  0.00     0.010 A 
ATOM      4  C   UNL     1     151.502 142.450 132.260  1.00  0.00     0.010 A 
ATOM      5  C   UNL     1     151.492 144.647 131.258  1.00  0.00     0.001 A 
ATOM      6  C   UNL     1     151.071 143.320 131.258  1.00  0.00     0.001 A 
ENDROOT
BRANCH   1   7
ATOM      7  C   UNL     1     153.549 144.854 134.407  1.00  0.00     0.072 C 
ATOM      8  O   UNL     1     153.024 145.082 135.528  1.00  0.00    -0.545 OA
ATOM      9  O   UNL     1     154.871 145.229 134.193  1.00  0.00    -0.545 OA
ENDBRANCH   1   7
BRANCH   2  10
ATOM     10  C   UNL     1     152.873 141.890 134.241  1.00  0.00     0.072 C 
ATOM     11  O   UNL     1     153.620 140.951 133.859  1.00  0.00    -0.545 OA
ATOM     12  O   UNL     1     152.474 141.936 135.572  1.00  0.00    -0.545 OA
ENDBRANCH   2  10
TORSDOF 2
ENDMDL
MODEL 3
REMARK VINA RESULT:    -5.265      2.157      3.489
REMARK INTER + INTRA:          -5.960
REMARK INTER:                  -5.736
REMARK INTRA:                  -0.224
REMARK UNBOUND:                -0.079
REMARK SMILES O=C([O-])c1ccccc1C(=O)[O-]
REMARK SMILES IDX 4 1 9 2 5 3 8 4 6 5 7 6 2 7 1 8 3 9 10 10 11 11 12 12
REMARK H PARENT
REMARK Flexibility Score: inf
ROOT
ATOM      1  C   UNL     1     152.946 144.756 133.372  1.00  0.00     0.006 A 
ATOM      2  C   UNL     1     152.209 145.121 132.210  1.00  0.00     0.006 A 
ATOM      3  C   UNL     1     152.931 143.415 133.797  1.00  0.00     0.010 A 
ATOM      4  C   UNL     1     151.542 144.120 131.481  1.00  0.00     0.010 A 
ATOM      5  C   UNL     1     152.243 142.443 133.071  1.00  0.00     0.001 A 
ATOM      6  C   UNL     1     151.559 142.793 131.909  1.00  0.00     0.001 A 
ENDROOT
BRANCH   1   7
ATOM      7  C   UNL     1     153.790 145.711 134.126  1.00  0.00     0.072 C 
ATOM      8  O   UNL     1     153.362 146.268 135.170  1.00  0.00    -0.545 OA
ATOM      9  O   UNL     1     155.049 146.055 133.646  1.00  0.00    -0.545 OA
ENDBRANCH   1   7
BRANCH   2  10
ATOM     10  C   UNL     1     152.052 146.524 131.761  1.00  0.00     0.072 C 
ATOM     11  O   UNL     1     151.067 147.214 132.132  1.00  0.00    -0.545 OA
ATOM     12  O   UNL     1     152.963 147.075 130.866  1.00  0.00    -0.545 OA
ENDBRANCH   2  10
TORSDOF 2
ENDMDL
MODEL 4
REMARK VINA RESULT:    -5.246      2.117      3.566
REMARK INTER + INTRA:          -5.939
REMARK INTER:                  -5.715
REMARK INTRA:                  -0.224
REMARK UNBOUND:                -0.079
REMARK SMILES O=C([O-])c1ccccc1C(=O)[O-]
REMARK SMILES IDX 4 1 9 2 5 3 8 4 6 5 7 6 2 7 1 8 3 9 10 10 11 11 12 12
REMARK H PARENT
REMARK Flexibility Score: inf
ROOT
ATOM      1  C   UNL     1     152.271 145.126 132.291  1.00  0.00     0.006 A 
ATOM      2  C   UNL     1     152.984 144.721 133.455  1.00  0.00     0.006 A 
ATOM      3  C   UNL     1     151.597 144.153 131.530  1.00  0.00     0.010 A 
ATOM      4  C   UNL     1     152.939 143.372 133.850  1.00  0.00     0.010 A 
ATOM      5  C   UNL     1     151.587 142.816 131.927  1.00  0.00     0.001 A 
ATOM      6  C   UNL     1     152.247 142.428 133.090  1.00  0.00     0.001 A 
ENDROOT
BRANCH   1   7
ATOM      7  C   UNL     1     152.145 146.541 131.874  1.00  0.00     0.072 C 
ATOM      8  O   UNL     1     151.142 147.225 132.205  1.00  0.00    -0.545 OA
ATOM      9  O   UNL     1     153.108 147.112 131.049  1.00  0.00    -0.545 OA
ENDBRANCH   1   7
BRANCH   2  10
ATOM     10  C   UNL     1     153.832 145.644 134.244  1.00  0.00     0.072 C 
ATOM     11  O   UNL     1     153.388 146.199 135.284  1.00  0.00    -0.545 OA
ATOM     12  O   UNL     1     155.112 145.961 133.805  1.00  0.00    -0.545 OA
ENDBRANCH   2  10
TORSDOF 2
ENDMDL
MODEL 5
REMARK VINA RESULT:    -5.152      1.722      3.134
REMARK INTER + INTRA:          -5.834
REMARK INTER:                  -5.857
REMARK INTRA:                   0.023
REMARK UNBOUND:                -0.079
REMARK SMILES O=C([O-])c1ccccc1C(=O)[O-]
REMARK SMILES IDX 4 1 9 2 5 3 8 4 6 5 7 6 2 7 1 8 3 9 10 10 11 11 12 12
REMARK H PARENT
REMARK Flexibility Score: inf
ROOT
ATOM      1  C   UNL     1     152.309 143.510 132.746  1.00  0.00     0.006 A 
ATOM      2  C   UNL     1     152.859 143.385 134.053  1.00  0.00     0.006 A 
ATOM      3  C   UNL     1     152.403 144.747 132.081  1.00  0.00     0.010 A 
ATOM      4  C   UNL     1     153.539 144.479 134.618  1.00  0.00     0.010 A 
ATOM      5  C   UNL     1     153.061 145.827 132.671  1.00  0.00     0.001 A 
ATOM      6  C   UNL     1     153.637 145.690 133.931  1.00  0.00     0.001 A 
ENDROOT
BRANCH   1   7
ATOM      7  C   UNL     1     151.698 142.377 132.014  1.00  0.00     0.072 C 
ATOM      8  O   UNL     1     150.448 142.263 131.928  1.00  0.00    -0.545 OA
ATOM      9  O   UNL     1     152.505 141.385 131.469  1.00  0.00    -0.545 OA
ENDBRANCH   1   7
BRANCH   2  10
ATOM     10  C   UNL     1     152.693 142.170 134.885  1.00  0.00     0.072 C 
ATOM     11  O   UNL     1     152.130 142.230 136.009  1.00  0.00    -0.545 OA
ATOM     12  O   UNL     1     153.222 140.957 134.459  1.00  0.00    -0.545 OA
ENDBRANCH   2  10
TORSDOF 2
ENDMDL
MODEL 6
REMARK VINA RESULT:    -5.105      2.311      3.573
REMARK INTER + INTRA:          -5.781
REMARK INTER:                  -6.123
REMARK INTRA:                   0.342
REMARK UNBOUND:                -0.079
REMARK SMILES O=C([O-])c1ccccc1C(=O)[O-]
REMARK SMILES IDX 4 1 9 2 5 3 8 4 6 5 7 6 2 7 1 8 3 9 10 10 11 11 12 12
REMARK H PARENT
REMARK Flexibility Score: inf
ROOT
ATOM      1  C   UNL     1     152.234 142.111 132.346  1.00  0.00     0.006 A 
ATOM      2  C   UNL     1     152.777 142.069 133.662  1.00  0.00     0.006 A 
ATOM      3  C   UNL     1     152.494 141.045 131.466  1.00  0.00     0.010 A 
ATOM      4  C   UNL     1     153.502 140.934 134.067  1.00  0.00     0.010 A 
ATOM      5  C   UNL     1     153.236 139.939 131.882  1.00  0.00     0.001 A 
ATOM      6  C   UNL     1     153.730 139.879 133.182  1.00  0.00     0.001 A 
ENDROOT
BRANCH   1   7
ATOM      7  C   UNL     1     151.344 143.197 131.875  1.00  0.00     0.072 C 
ATOM      8  O   UNL     1     150.135 142.970 131.609  1.00  0.00    -0.545 OA
ATOM      9  O   UNL     1     151.856 144.471 131.657  1.00  0.00    -0.545 OA
ENDBRANCH   1   7
BRANCH   2  10
ATOM     10  C   UNL     1     152.674 143.199 134.614  1.00  0.00     0.072 C 
ATOM     11  O   UNL     1     153.012 144.363 134.273  1.00  0.00    -0.545 OA
ATOM     12  O   UNL     1     152.263 142.972 135.923  1.00  0.00    -0.545 OA
ENDBRANCH   2  10
TORSDOF 2
ENDMDL
MODEL 7
REMARK VINA RESULT:    -5.088      1.689      3.316
REMARK INTER + INTRA:          -5.762
REMARK INTER:                  -5.799
REMARK INTRA:                   0.037
REMARK UNBOUND:                -0.079
REMARK SMILES O=C([O-])c1ccccc1C(=O)[O-]
REMARK SMILES IDX 4 1 9 2 5 3 8 4 6 5 7 6 2 7 1 8 3 9 10 10 11 11 12 12
REMARK H PARENT
REMARK Flexibility Score: inf
ROOT
ATOM      1  C   UNL     1     152.909 143.534 133.910  1.00  0.00     0.006 A 
ATOM      2  C   UNL     1     152.297 143.755 132.644  1.00  0.00     0.006 A 
ATOM      3  C   UNL     1     153.633 144.580 134.511  1.00  0.00     0.010 A 
ATOM      4  C   UNL     1     152.376 145.032 132.060  1.00  0.00     0.010 A 
ATOM      5  C   UNL     1     153.718 145.832 133.901  1.00  0.00     0.001 A 
ATOM      6  C   UNL     1     153.082 146.062 132.684  1.00  0.00     0.001 A 
ENDROOT
BRANCH   1   7
ATOM      7  C   UNL     1     152.764 142.269 134.667  1.00  0.00     0.072 C 
ATOM      8  O   UNL     1     152.113 142.231 135.743  1.00  0.00    -0.545 OA
ATOM      9  O   UNL     1     153.407 141.118 134.227  1.00  0.00    -0.545 OA
ENDBRANCH   1   7
BRANCH   2  10
ATOM     10  C   UNL     1     151.631 142.682 131.871  1.00  0.00     0.072 C 
ATOM     11  O   UNL     1     152.289 141.710 131.417  1.00  0.00    -0.545 OA
ATOM     12  O   UNL     1     150.274 142.772 131.580  1.00  0.00    -0.545 OA
ENDBRANCH   2  10
TORSDOF 2
ENDMDL
MODEL 8
REMARK VINA RESULT:    -4.934      2.874      3.790
REMARK INTER + INTRA:          -5.590
REMARK INTER:                  -5.689
REMARK INTRA:                   0.099
REMARK UNBOUND:                -0.079
REMARK SMILES O=C([O-])c1ccccc1C(=O)[O-]
REMARK SMILES IDX 4 1 9 2 5 3 8 4 6 5 7 6 2 7 1 8 3 9 10 10 11 11 12 12
REMARK H PARENT
REMARK Flexibility Score: inf
ROOT
ATOM      1  C   UNL     1     151.645 143.595 131.853  1.00  0.00     0.006 A 
ATOM      2  C   UNL     1     152.271 144.652 132.573  1.00  0.00     0.006 A 
ATOM      3  C   UNL     1     151.826 142.270 132.291  1.00  0.00     0.010 A 
ATOM      4  C   UNL     1     152.997 144.350 133.740  1.00  0.00     0.010 A 
ATOM      5  C   UNL     1     152.570 141.992 133.438  1.00  0.00     0.001 A 
ATOM      6  C   UNL     1     153.145 143.030 134.167  1.00  0.00     0.001 A 
ENDROOT
BRANCH   1   7
ATOM      7  C   UNL     1     150.749 143.826 130.697  1.00  0.00     0.072 C 
ATOM      8  O   UNL     1     149.665 143.196 130.584  1.00  0.00    -0.545 OA
ATOM      9  O   UNL     1     151.132 144.698 129.684  1.00  0.00    -0.545 OA
ENDBRANCH   1   7
BRANCH   2  10
ATOM     10  C   UNL     1     152.252 146.061 132.117  1.00  0.00     0.072 C 
ATOM     11  O   UNL     1     153.244 146.561 131.524  1.00  0.00    -0.545 OA
ATOM     12  O   UNL     1     151.158 146.871 132.400  1.00  0.00    -0.545 OA
ENDBRANCH   2  10
TORSDOF 2
ENDMDL
MODEL 9
REMARK VINA RESULT:    -4.877      2.710      4.362
REMARK INTER + INTRA:          -5.527
REMARK INTER:                  -5.315
REMARK INTRA:                  -0.212
REMARK UNBOUND:                -0.079
REMARK SMILES O=C([O-])c1ccccc1C(=O)[O-]
REMARK SMILES IDX 4 1 9 2 5 3 8 4 6 5 7 6 2 7 1 8 3 9 10 10 11 11 12 12
REMARK H PARENT
REMARK Flexibility Score: inf
ROOT
ATOM      1  C   UNL     1     153.599 146.254 132.387  1.00  0.00     0.006 A 
ATOM      2  C   UNL     1     154.108 145.847 133.653  1.00  0.00     0.006 A 
ATOM      3  C   UNL     1     154.475 146.841 131.455  1.00  0.00     0.010 A 
ATOM      4  C   UNL     1     155.483 145.982 133.913  1.00  0.00     0.010 A 
ATOM      5  C   UNL     1     155.832 146.987 131.745  1.00  0.00     0.001 A 
ATOM      6  C   UNL     1     156.337 146.549 132.966  1.00  0.00     0.001 A 
ENDROOT
BRANCH   1   7
ATOM      7  C   UNL     1     152.196 146.026 131.969  1.00  0.00     0.072 C 
ATOM      8  O   UNL     1     151.368 146.973 131.943  1.00  0.00    -0.545 OA
ATOM      9  O   UNL     1     151.761 144.741 131.664  1.00  0.00    -0.545 OA
ENDBRANCH   1   7
BRANCH   2  10
ATOM     10  C   UNL     1     153.244 145.345 134.746  1.00  0.00     0.072 C 
ATOM     11  O   UNL     1     153.030 144.112 134.886  1.00  0.00    -0.545 OA
ATOM     12  O   UNL     1     152.602 146.241 135.594  1.00  0.00    -0.545 OA
ENDBRANCH   2  10
TORSDOF 2
ENDMDL
