MODEL 1
REMARK VINA RESULT:    -4.343      0.000      0.000
REMARK INTER + INTRA:          -5.117
REMARK INTER:                  -4.978
REMARK INTRA:                  -0.139
REMARK UNBOUND:                -0.139
REMARK SMILES O=C([O-])C=Cc1ccc(O)cc1
REMARK SMILES IDX 6 1 7 2 12 3 8 4 11 5 9 6 5 7 4 8 2 9 1 10 3 11 10 12
REMARK H PARENT 10 13
REMARK Flexibility Score: inf
ROOT
ATOM      1  C   UNL     1      28.568  32.408  23.652  1.00  0.00    -0.025 A 
ATOM      2  C   UNL     1      27.978  33.675  23.844  1.00  0.00     0.012 A 
ATOM      3  C   UNL     1      29.125  32.103  22.399  1.00  0.00     0.012 A 
ATOM      4  C   UNL     1      27.971  34.615  22.810  1.00  0.00     0.047 A 
ATOM      5  C   UNL     1      29.117  33.048  21.367  1.00  0.00     0.047 A 
ATOM      6  C   UNL     1      28.543  34.305  21.570  1.00  0.00     0.115 A 
ENDROOT
BRANCH   1   7
ATOM      7  C   UNL     1      28.593  31.368  24.711  1.00  0.00     0.010 C 
ATOM      8  C   UNL     1      27.826  30.270  24.694  1.00  0.00     0.025 C 
BRANCH   8   9
ATOM      9  C   UNL     1      27.877  29.269  25.771  1.00  0.00     0.064 C 
ATOM     10  O   UNL     1      26.950  28.423  25.878  1.00  0.00    -0.545 OA
ATOM     11  O   UNL     1      28.933  29.240  26.676  1.00  0.00    -0.545 OA
ENDBRANCH   8   9
ENDBRANCH   1   7
BRANCH   6  12
ATOM     12  O   UNL     1      28.542  35.237  20.534  1.00  0.00    -0.508 OA
ATOM     13  H   UNL     1      28.667  36.227  20.712  1.00  0.00     0.293 HD
ENDBRANCH   6  12
TORSDOF 3
ENDMDL
MODEL 2
REMARK VINA RESULT:    -4.151      2.253      6.824
REMARK INTER + INTRA:          -4.896
REMARK INTER:                  -4.743
REMARK INTRA:                  -0.153
REMARK UNBOUND:                -0.139
REMARK SMILES O=C([O-])C=Cc1ccc(O)cc1
REMARK SMILES IDX 6 1 7 2 12 3 8 4 11 5 9 6 5 7 4 8 2 9 1 10 3 11 10 12
REMARK H PARENT 10 13
REMARK Flexibility Score: inf
ROOT
ATOM      1  C   UNL     1      28.447  34.475  21.600  1.00  0.00    -0.025 A 
ATOM      2  C   UNL     1      29.045  33.222  21.347  1.00  0.00     0.012 A 
ATOM      3  C   UNL     1      27.885  34.713  22.865  1.00  0.00     0.012 A 
ATOM      4  C   UNL     1      29.094  32.248  22.348  1.00  0.00     0.047 A 
ATOM      5  C   UNL     1      27.938  33.736  23.864  1.00  0.00     0.047 A 
ATOM      6  C   UNL     1      28.544  32.504  23.610  1.00  0.00     0.115 A 
ENDROOT
BRANCH   1   7
ATOM      7  C   UNL     1      28.357  35.540  20.571  1.00  0.00     0.010 C 
ATOM      8  C   UNL     1      27.493  36.563  20.632  1.00  0.00     0.025 C 
BRANCH   8   9
ATOM      9  C   UNL     1      27.431  37.593  19.583  1.00  0.00     0.064 C 
ATOM     10  O   UNL     1      28.446  37.817  18.872  1.00  0.00    -0.545 OA
ATOM     11  O   UNL     1      26.269  38.325  19.362  1.00  0.00    -0.545 OA
ENDBRANCH   8   9
ENDBRANCH   1   7
BRANCH   6  12
ATOM     12  O   UNL     1      28.590  31.539  24.614  1.00  0.00    -0.508 OA
ATOM     13  H   UNL     1      27.981  31.587  25.423  1.00  0.00     0.293 HD
ENDBRANCH   6  12
TORSDOF 3
ENDMDL
MODEL 3
REMARK VINA RESULT:    -4.026      1.906      6.000
REMARK INTER + INTRA:          -4.753
REMARK INTER:                  -4.611
REMARK INTRA:                  -0.141
REMARK UNBOUND:                -0.139
REMARK SMILES O=C([O-])C=Cc1ccc(O)cc1
REMARK SMILES IDX 6 1 7 2 12 3 8 4 11 5 9 6 5 7 4 8 2 9 1 10 3 11 10 12
REMARK H PARENT 10 13
REMARK Flexibility Score: inf
ROOT
ATOM      1  C   UNL     1      28.437  30.105  24.968  1.00  0.00    -0.025 A 
ATOM      2  C   UNL     1      27.473  29.400  24.218  1.00  0.00     0.012 A 
ATOM      3  C   UNL     1      29.125  29.429  25.991  1.00  0.00     0.012 A 
ATOM      4  C   UNL     1      27.227  28.048  24.475  1.00  0.00     0.047 A 
ATOM      5  C   UNL     1      28.875  28.077  26.244  1.00  0.00     0.047 A 
ATOM      6  C   UNL     1      27.929  27.383  25.487  1.00  0.00     0.115 A 
ENDROOT
BRANCH   1   7
ATOM      7  C   UNL     1      28.731  31.542  24.746  1.00  0.00     0.010 C 
ATOM      8  C   UNL     1      28.024  32.327  23.921  1.00  0.00     0.025 C 
BRANCH   8   9
ATOM      9  C   UNL     1      28.357  33.746  23.723  1.00  0.00     0.064 C 
ATOM     10  O   UNL     1      28.975  34.372  24.625  1.00  0.00    -0.545 OA
ATOM     11  O   UNL     1      28.002  34.411  22.554  1.00  0.00    -0.545 OA
ENDBRANCH   8   9
ENDBRANCH   1   7
BRANCH   6  12
ATOM     12  O   UNL     1      27.691  26.036  25.750  1.00  0.00    -0.508 OA
ATOM     13  H   UNL     1      27.504  25.376  25.004  1.00  0.00     0.293 HD
ENDBRANCH   6  12
TORSDOF 3
ENDMDL
MODEL 4
REMARK VINA RESULT:    -3.952      3.657      5.314
REMARK INTER + INTRA:          -4.668
REMARK INTER:                  -4.530
REMARK INTRA:                  -0.138
REMARK UNBOUND:                -0.139
REMARK SMILES O=C([O-])C=Cc1ccc(O)cc1
REMARK SMILES IDX 6 1 7 2 12 3 8 4 11 5 9 6 5 7 4 8 2 9 1 10 3 11 10 12
REMARK H PARENT 10 13
REMARK Flexibility Score: inf
ROOT
ATOM      1  C   UNL     1      28.001  36.341  20.288  1.00  0.00    -0.025 A 
ATOM      2  C   UNL     1      26.806  37.014  20.619  1.00  0.00     0.012 A 
ATOM      3  C   UNL     1      28.803  36.855  19.255  1.00  0.00     0.012 A 
ATOM      4  C   UNL     1      26.443  38.183  19.945  1.00  0.00     0.047 A 
ATOM      5  C   UNL     1      28.436  38.026  18.584  1.00  0.00     0.047 A 
ATOM      6  C   UNL     1      27.258  38.693  18.927  1.00  0.00     0.115 A 
ENDROOT
BRANCH   1   7
ATOM      7  C   UNL     1      28.428  35.091  20.963  1.00  0.00     0.010 C 
ATOM      8  C   UNL     1      28.078  34.763  22.214  1.00  0.00     0.025 C 
BRANCH   8   9
ATOM      9  C   UNL     1      28.534  33.516  22.848  1.00  0.00     0.064 C 
ATOM     10  O   UNL     1      28.428  33.377  24.095  1.00  0.00    -0.545 OA
ATOM     11  O   UNL     1      29.082  32.484  22.092  1.00  0.00    -0.545 OA
ENDBRANCH   8   9
ENDBRANCH   1   7
BRANCH   6  12
ATOM     12  O   UNL     1      26.905  39.859  18.251  1.00  0.00    -0.508 OA
ATOM     13  H   UNL     1      26.724  39.858  17.254  1.00  0.00     0.293 HD
ENDBRANCH   6  12
TORSDOF 3
ENDMDL
MODEL 5
REMARK VINA RESULT:    -3.945      2.896      6.901
REMARK INTER + INTRA:          -4.660
REMARK INTER:                  -4.522
REMARK INTRA:                  -0.138
REMARK UNBOUND:                -0.139
REMARK SMILES O=C([O-])C=Cc1ccc(O)cc1
REMARK SMILES IDX 6 1 7 2 12 3 8 4 11 5 9 6 5 7 4 8 2 9 1 10 3 11 10 12
REMARK H PARENT 10 13
REMARK Flexibility Score: inf
ROOT
ATOM      1  C   UNL     1      28.001  35.127  21.400  1.00  0.00    -0.025 A 
ATOM      2  C   UNL     1      27.639  35.006  22.758  1.00  0.00     0.012 A 
ATOM      3  C   UNL     1      28.757  34.102  20.807  1.00  0.00     0.012 A 
ATOM      4  C   UNL     1      28.010  33.874  23.490  1.00  0.00     0.047 A 
ATOM      5  C   UNL     1      29.125  32.971  21.544  1.00  0.00     0.047 A 
ATOM      6  C   UNL     1      28.751  32.853  22.884  1.00  0.00     0.115 A 
ENDROOT
BRANCH   1   7
ATOM      7  C   UNL     1      27.644  36.310  20.580  1.00  0.00     0.010 C 
ATOM      8  C   UNL     1      26.609  37.118  20.849  1.00  0.00     0.025 C 
BRANCH   8   9
ATOM      9  C   UNL     1      26.286  38.276  20.001  1.00  0.00     0.064 C 
ATOM     10  O   UNL     1      25.598  39.220  20.473  1.00  0.00    -0.545 OA
ATOM     11  O   UNL     1      26.728  38.349  18.684  1.00  0.00    -0.545 OA
ENDBRANCH   8   9
ENDBRANCH   1   7
BRANCH   6  12
ATOM     12  O   UNL     1      29.124  31.721  23.605  1.00  0.00    -0.508 OA
ATOM     13  H   UNL     1      29.440  31.786  24.566  1.00  0.00     0.293 HD
ENDBRANCH   6  12
TORSDOF 3
ENDMDL
MODEL 6
REMARK VINA RESULT:    -3.917      2.510      3.772
REMARK INTER + INTRA:          -4.628
REMARK INTER:                  -4.485
REMARK INTRA:                  -0.143
REMARK UNBOUND:                -0.139
REMARK SMILES O=C([O-])C=Cc1ccc(O)cc1
REMARK SMILES IDX 6 1 7 2 12 3 8 4 11 5 9 6 5 7 4 8 2 9 1 10 3 11 10 12
REMARK H PARENT 10 13
REMARK Flexibility Score: inf
ROOT
ATOM      1  C   UNL     1      28.822  29.093  24.411  1.00  0.00    -0.025 A 
ATOM      2  C   UNL     1      28.997  29.411  23.048  1.00  0.00     0.012 A 
ATOM      3  C   UNL     1      28.649  30.139  25.333  1.00  0.00     0.012 A 
ATOM      4  C   UNL     1      28.976  30.743  22.625  1.00  0.00     0.047 A 
ATOM      5  C   UNL     1      28.627  31.470  24.904  1.00  0.00     0.047 A 
ATOM      6  C   UNL     1      28.787  31.775  23.551  1.00  0.00     0.115 A 
ENDROOT
BRANCH   1   7
ATOM      7  C   UNL     1      28.848  27.699  24.917  1.00  0.00     0.010 C 
ATOM      8  C   UNL     1      27.832  27.128  25.579  1.00  0.00     0.025 C 
BRANCH   8   9
ATOM      9  C   UNL     1      27.905  25.744  26.072  1.00  0.00     0.064 C 
ATOM     10  O   UNL     1      28.993  25.114  25.999  1.00  0.00    -0.545 OA
ATOM     11  O   UNL     1      26.791  25.116  26.619  1.00  0.00    -0.545 OA
ENDBRANCH   8   9
ENDBRANCH   1   7
BRANCH   6  12
ATOM     12  O   UNL     1      28.763  33.106  23.138  1.00  0.00    -0.508 OA
ATOM     13  H   UNL     1      29.618  33.622  22.966  1.00  0.00     0.293 HD
ENDBRANCH   6  12
TORSDOF 3
ENDMDL
MODEL 7
REMARK VINA RESULT:    -3.868      4.792      7.116
REMARK INTER + INTRA:          -4.572
REMARK INTER:                  -4.425
REMARK INTRA:                  -0.146
REMARK UNBOUND:                -0.139
REMARK SMILES O=C([O-])C=Cc1ccc(O)cc1
REMARK SMILES IDX 6 1 7 2 12 3 8 4 11 5 9 6 5 7 4 8 2 9 1 10 3 11 10 12
REMARK H PARENT 10 13
REMARK Flexibility Score: inf
ROOT
ATOM      1  C   UNL     1      27.214  38.116  20.082  1.00  0.00    -0.025 A 
ATOM      2  C   UNL     1      26.543  39.109  20.827  1.00  0.00     0.012 A 
ATOM      3  C   UNL     1      27.773  38.464  18.840  1.00  0.00     0.012 A 
ATOM      4  C   UNL     1      26.459  40.418  20.344  1.00  0.00     0.047 A 
ATOM      5  C   UNL     1      27.687  39.775  18.362  1.00  0.00     0.047 A 
ATOM      6  C   UNL     1      27.033  40.755  19.112  1.00  0.00     0.115 A 
ENDROOT
BRANCH   1   7
ATOM      7  C   UNL     1      27.323  36.710  20.540  1.00  0.00     0.010 C 
ATOM      8  C   UNL     1      28.375  35.921  20.280  1.00  0.00     0.025 C 
BRANCH   8   9
ATOM      9  C   UNL     1      28.437  34.527  20.746  1.00  0.00     0.064 C 
ATOM     10  O   UNL     1      28.651  33.603  19.918  1.00  0.00    -0.545 OA
ATOM     11  O   UNL     1      28.263  34.211  22.090  1.00  0.00    -0.545 OA
ENDBRANCH   8   9
ENDBRANCH   1   7
BRANCH   6  12
ATOM     12  O   UNL     1      26.955  42.058  18.624  1.00  0.00    -0.508 OA
ATOM     13  H   UNL     1      27.669  42.746  18.835  1.00  0.00     0.293 HD
ENDBRANCH   6  12
TORSDOF 3
ENDMDL
MODEL 8
REMARK VINA RESULT:    -3.821      1.242      5.732
REMARK INTER + INTRA:          -4.518
REMARK INTER:                  -4.366
REMARK INTRA:                  -0.152
REMARK UNBOUND:                -0.139
REMARK SMILES O=C([O-])C=Cc1ccc(O)cc1
REMARK SMILES IDX 6 1 7 2 12 3 8 4 11 5 9 6 5 7 4 8 2 9 1 10 3 11 10 12
REMARK H PARENT 10 13
REMARK Flexibility Score: inf
ROOT
ATOM      1  C   UNL     1      28.746  32.183  23.543  1.00  0.00    -0.025 A 
ATOM      2  C   UNL     1      28.892  32.150  24.946  1.00  0.00     0.012 A 
ATOM      3  C   UNL     1      28.745  30.970  22.834  1.00  0.00     0.012 A 
ATOM      4  C   UNL     1      29.010  30.929  25.616  1.00  0.00     0.047 A 
ATOM      5  C   UNL     1      28.862  29.750  23.509  1.00  0.00     0.047 A 
ATOM      6  C   UNL     1      28.992  29.726  24.899  1.00  0.00     0.115 A 
ENDROOT
BRANCH   1   7
ATOM      7  C   UNL     1      28.629  33.450  22.781  1.00  0.00     0.010 C 
ATOM      8  C   UNL     1      28.568  33.511  21.443  1.00  0.00     0.025 C 
BRANCH   8   9
ATOM      9  C   UNL     1      28.462  34.793  20.728  1.00  0.00     0.064 C 
ATOM     10  O   UNL     1      29.125  34.972  19.672  1.00  0.00    -0.545 OA
ATOM     11  O   UNL     1      27.639  35.812  21.197  1.00  0.00    -0.545 OA
ENDBRANCH   8   9
ENDBRANCH   1   7
BRANCH   6  12
ATOM     12  O   UNL     1      29.108  28.504  25.559  1.00  0.00    -0.508 OA
ATOM     13  H   UNL     1      29.895  28.302  26.164  1.00  0.00     0.293 HD
ENDBRANCH   6  12
TORSDOF 3
ENDMDL
MODEL 9
REMARK VINA RESULT:    -3.654      6.417     10.486
REMARK INTER + INTRA:          -4.327
REMARK INTER:                  -4.182
REMARK INTRA:                  -0.145
REMARK UNBOUND:                -0.139
REMARK SMILES O=C([O-])C=Cc1ccc(O)cc1
REMARK SMILES IDX 6 1 7 2 12 3 8 4 11 5 9 6 5 7 4 8 2 9 1 10 3 11 10 12
REMARK H PARENT 10 13
REMARK Flexibility Score: inf
ROOT
ATOM      1  C   UNL     1      27.495  39.552  19.428  1.00  0.00    -0.025 A 
ATOM      2  C   UNL     1      28.567  38.803  18.898  1.00  0.00     0.012 A 
ATOM      3  C   UNL     1      26.598  38.922  20.306  1.00  0.00     0.012 A 
ATOM      4  C   UNL     1      28.741  37.465  19.262  1.00  0.00     0.047 A 
ATOM      5  C   UNL     1      26.777  37.583  20.668  1.00  0.00     0.047 A 
ATOM      6  C   UNL     1      27.848  36.852  20.150  1.00  0.00     0.115 A 
ENDROOT
BRANCH   1   7
ATOM      7  C   UNL     1      27.256  40.972  19.068  1.00  0.00     0.010 C 
ATOM      8  C   UNL     1      26.898  41.914  19.951  1.00  0.00     0.025 C 
BRANCH   8   9
ATOM      9  C   UNL     1      26.661  43.308  19.547  1.00  0.00     0.064 C 
ATOM     10  O   UNL     1      26.060  44.090  20.331  1.00  0.00    -0.545 OA
ATOM     11  O   UNL     1      27.092  43.781  18.312  1.00  0.00    -0.545 OA
ENDBRANCH   8   9
ENDBRANCH   1   7
BRANCH   6  12
ATOM     12  O   UNL     1      28.015  35.519  20.519  1.00  0.00    -0.508 OA
ATOM     13  H   UNL     1      27.247  34.972  20.890  1.00  0.00     0.293 HD
ENDBRANCH   6  12
TORSDOF 3
ENDMDL
