MODEL 1
REMARK VINA RESULT:    -6.546      0.000      0.000
REMARK INTER + INTRA:         -13.274
REMARK INTER:                 -10.755
REMARK INTRA:                  -2.519
REMARK UNBOUND:                -2.519
REMARK SMILES C[C@H]1O[C@@H](OC[C@@H]2O[C@@H](Oc3c(-c4ccc(O)c(O)c4)oc4cc(O)cc(O)c4c3=O)[C@@H](O)[C@@H](O)[C@H]2O)[C@@H](O)[C@H](O)[C@@H]1O
REMARK SMILES IDX 7 1 36 2 34 3 32 4 9 5 8 6 6 7 5 8 4 9 1 10 2 11 42 12 3 13
REMARK SMILES IDX 40 14 38 15 43 16 41 18 39 20 37 22 35 24 10 26 11 27 12 28
REMARK SMILES IDX 30 29 21 30 29 31 31 32 22 33 27 34 23 35 26 36 24 37 13 38
REMARK SMILES IDX 20 39 14 40 18 41 15 42 16 43 19 44 17 46 28 48 25 50 33 52
REMARK H PARENT 43 17 41 19 39 21 37 23 35 25 19 45 17 47 28 49 25 51 33 53
REMARK Flexibility Score: inf
ROOT
ATOM      1  C   UNL     1       7.227  -7.326   6.406  1.00  0.00     0.180 C 
ATOM      2  C   UNL     1       7.341  -8.786   5.894  1.00  0.00     0.177 C 
ATOM      3  C   UNL     1       6.223  -9.653   6.507  1.00  0.00     0.180 C 
ATOM      4  C   UNL     1       6.204  -9.478   8.033  1.00  0.00     0.214 C 
ATOM      5  C   UNL     1       6.176  -7.987   8.408  1.00  0.00     0.339 C 
ATOM      6  O   UNL     1       7.262  -7.288   7.824  1.00  0.00    -0.332 OA
ENDROOT
BRANCH   1   7
ATOM      7  C   UNL     1       8.393  -6.460   5.906  1.00  0.00     0.198 C 
BRANCH   7   8
ATOM      8  O   UNL     1       8.023  -5.760   4.736  1.00  0.00    -0.347 OA
BRANCH   8   9
ATOM      9  C   UNL     1       6.877  -4.957   4.973  1.00  0.00     0.281 C 
ATOM     10  C   UNL     1       6.856  -6.206   2.124  1.00  0.00     0.041 C 
ATOM     11  C   UNL     1       5.911  -5.190   2.793  1.00  0.00     0.150 C 
ATOM     12  C   UNL     1       6.235  -3.722   2.425  1.00  0.00     0.174 C 
ATOM     13  O   UNL     1       5.774  -5.408   4.196  1.00  0.00    -0.344 OA
ATOM     14  C   UNL     1       7.439  -3.203   3.234  1.00  0.00     0.179 C 
ATOM     15  C   UNL     1       7.196  -3.467   4.725  1.00  0.00     0.202 C 
BRANCH  12  16
ATOM     16  O   UNL     1       5.099  -2.929   2.681  1.00  0.00    -0.388 OA
ATOM     17  H   UNL     1       4.925  -2.396   1.862  1.00  0.00     0.211 HD
ENDBRANCH  12  16
BRANCH  14  18
ATOM     18  O   UNL     1       7.609  -1.823   3.025  1.00  0.00    -0.387 OA
ATOM     19  H   UNL     1       6.762  -1.486   2.632  1.00  0.00     0.211 HD
ENDBRANCH  14  18
BRANCH  15  20
ATOM     20  O   UNL     1       8.290  -3.048   5.505  1.00  0.00    -0.385 OA
ATOM     21  H   UNL     1       8.017  -3.070   6.460  1.00  0.00     0.211 HD
ENDBRANCH  15  20
ENDBRANCH   8   9
ENDBRANCH   7   8
ENDBRANCH   1   7
BRANCH   2  22
ATOM     22  O   UNL     1       7.255  -8.817   4.493  1.00  0.00    -0.387 OA
ATOM     23  H   UNL     1       6.907  -7.932   4.200  1.00  0.00     0.211 HD
ENDBRANCH   2  22
BRANCH   3  24
ATOM     24  O   UNL     1       4.973  -9.297   5.970  1.00  0.00    -0.387 OA
ATOM     25  H   UNL     1       4.327  -9.278   6.722  1.00  0.00     0.211 HD
ENDBRANCH   3  24
BRANCH   5  26
ATOM     26  O   UNL     1       4.923  -7.393   8.055  1.00  0.00    -0.454 OA
BRANCH  26  27
ATOM     27  C   UNL     1       3.925  -6.994   8.964  1.00  0.00     0.214 A 
ATOM     28  C   UNL     1       3.982  -5.693   9.501  1.00  0.00     0.180 A 
ATOM     29  C   UNL     1       2.847  -7.826   9.336  1.00  0.00     0.239 A 
ATOM     30  O   UNL     1       2.983  -5.234  10.248  1.00  0.00    -0.452 OA
ATOM     31  C   UNL     1       1.814  -7.307  10.145  1.00  0.00     0.111 A 
ATOM     32  O   UNL     1       2.814  -9.026   8.953  1.00  0.00    -0.285 OA
ATOM     33  C   UNL     1       1.921  -5.962  10.570  1.00  0.00     0.146 A 
ATOM     34  C   UNL     1       0.680  -8.062  10.532  1.00  0.00     0.134 A 
ATOM     35  C   UNL     1       0.911  -5.383  11.342  1.00  0.00     0.094 A 
ATOM     36  C   UNL     1      -0.323  -7.463  11.309  1.00  0.00     0.093 A 
ATOM     37  C   UNL     1      -0.214  -6.129  11.708  1.00  0.00     0.123 A 
BRANCH  28  38
ATOM     38  C   UNL     1       5.118  -4.788   9.224  1.00  0.00     0.025 A 
ATOM     39  C   UNL     1       4.966  -3.748   8.293  1.00  0.00     0.062 A 
ATOM     40  C   UNL     1       6.335  -4.913   9.921  1.00  0.00     0.016 A 
ATOM     41  C   UNL     1       6.024  -2.866   8.032  1.00  0.00     0.158 A 
ATOM     42  C   UNL     1       7.390  -4.030   9.666  1.00  0.00     0.051 A 
ATOM     43  C   UNL     1       7.239  -3.008   8.718  1.00  0.00     0.157 A 
BRANCH  41  44
ATOM     44  O   UNL     1       5.879  -1.847   7.094  1.00  0.00    -0.504 OA
ATOM     45  H   UNL     1       6.117  -0.888   7.311  1.00  0.00     0.293 HD
ENDBRANCH  41  44
BRANCH  43  46
ATOM     46  O   UNL     1       8.291  -2.132   8.451  1.00  0.00    -0.504 OA
ATOM     47  H   UNL     1       9.252  -2.448   8.422  1.00  0.00     0.293 HD
ENDBRANCH  43  46
ENDBRANCH  28  38
BRANCH  34  48
ATOM     48  O   UNL     1       0.541  -9.398  10.151  1.00  0.00    -0.507 OA
ATOM     49  H   UNL     1       0.516 -10.148  10.832  1.00  0.00     0.293 HD
ENDBRANCH  34  48
BRANCH  37  50
ATOM     50  O   UNL     1      -1.226  -5.554  12.473  1.00  0.00    -0.508 OA
ATOM     51  H   UNL     1      -1.068  -5.260  13.435  1.00  0.00     0.293 HD
ENDBRANCH  37  50
ENDBRANCH  26  27
ENDBRANCH   5  26
BRANCH   4  52
ATOM     52  O   UNL     1       5.088 -10.124   8.592  1.00  0.00    -0.384 OA
ATOM     53  H   UNL     1       5.149 -11.082   8.332  1.00  0.00     0.211 HD
ENDBRANCH   4  52
TORSDOF 16
ENDMDL
MODEL 2
REMARK VINA RESULT:    -5.957      1.841      2.330
REMARK INTER + INTRA:         -12.306
REMARK INTER:                 -10.284
REMARK INTRA:                  -2.022
REMARK UNBOUND:                -2.519
REMARK SMILES C[C@H]1O[C@@H](OC[C@@H]2O[C@@H](Oc3c(-c4ccc(O)c(O)c4)oc4cc(O)cc(O)c4c3=O)[C@@H](O)[C@@H](O)[C@H]2O)[C@@H](O)[C@H](O)[C@@H]1O
REMARK SMILES IDX 7 1 36 2 34 3 32 4 9 5 8 6 6 7 5 8 4 9 1 10 2 11 42 12 3 13
REMARK SMILES IDX 40 14 38 15 43 16 41 18 39 20 37 22 35 24 10 26 11 27 12 28
REMARK SMILES IDX 30 29 21 30 29 31 31 32 22 33 27 34 23 35 26 36 24 37 13 38
REMARK SMILES IDX 20 39 14 40 18 41 15 42 16 43 19 44 17 46 28 48 25 50 33 52
REMARK H PARENT 43 17 41 19 39 21 37 23 35 25 19 45 17 47 28 49 25 51 33 53
REMARK Flexibility Score: inf
ROOT
ATOM      1  C   UNL     1       6.536  -7.872   5.144  1.00  0.00     0.180 C 
ATOM      2  C   UNL     1       6.767  -9.405   5.166  1.00  0.00     0.177 C 
ATOM      3  C   UNL     1       6.015 -10.039   6.354  1.00  0.00     0.180 C 
ATOM      4  C   UNL     1       6.361  -9.290   7.650  1.00  0.00     0.214 C 
ATOM      5  C   UNL     1       6.172  -7.775   7.470  1.00  0.00     0.339 C 
ATOM      6  O   UNL     1       6.929  -7.287   6.376  1.00  0.00    -0.332 OA
ENDROOT
BRANCH   1   7
ATOM      7  C   UNL     1       7.362  -7.192   4.042  1.00  0.00     0.198 C 
BRANCH   7   8
ATOM      8  O   UNL     1       6.808  -7.461   2.770  1.00  0.00    -0.347 OA
BRANCH   8   9
ATOM      9  C   UNL     1       6.381  -6.260   2.146  1.00  0.00     0.281 C 
ATOM     10  C   UNL     1       4.559  -8.670   1.406  1.00  0.00     0.041 C 
ATOM     11  C   UNL     1       4.572  -7.217   0.899  1.00  0.00     0.150 C 
ATOM     12  C   UNL     1       5.326  -7.046  -0.442  1.00  0.00     0.174 C 
ATOM     13  O   UNL     1       4.979  -6.287   1.902  1.00  0.00    -0.344 OA
ATOM     14  C   UNL     1       6.850  -7.030  -0.221  1.00  0.00     0.179 C 
ATOM     15  C   UNL     1       7.192  -5.998   0.860  1.00  0.00     0.202 C 
BRANCH  12  16
ATOM     16  O   UNL     1       4.910  -5.842  -1.046  1.00  0.00    -0.388 OA
ATOM     17  H   UNL     1       3.918  -5.819  -0.995  1.00  0.00     0.211 HD
ENDBRANCH  12  16
BRANCH  14  18
ATOM     18  O   UNL     1       7.514  -6.696  -1.414  1.00  0.00    -0.387 OA
ATOM     19  H   UNL     1       8.393  -7.156  -1.391  1.00  0.00     0.211 HD
ENDBRANCH  14  18
BRANCH  15  20
ATOM     20  O   UNL     1       8.574  -5.975   1.130  1.00  0.00    -0.385 OA
ATOM     21  H   UNL     1       8.743  -5.288   1.826  1.00  0.00     0.211 HD
ENDBRANCH  15  20
ENDBRANCH   8   9
ENDBRANCH   7   8
ENDBRANCH   1   7
BRANCH   2  22
ATOM     22  O   UNL     1       6.328  -9.980   3.963  1.00  0.00    -0.387 OA
ATOM     23  H   UNL     1       5.339  -9.869   3.928  1.00  0.00     0.211 HD
ENDBRANCH   2  22
BRANCH   3  24
ATOM     24  O   UNL     1       4.626  -9.998   6.137  1.00  0.00    -0.387 OA
ATOM     25  H   UNL     1       4.411 -10.711   5.482  1.00  0.00     0.211 HD
ENDBRANCH   3  24
BRANCH   5  26
ATOM     26  O   UNL     1       4.786  -7.445   7.333  1.00  0.00    -0.454 OA
BRANCH  26  27
ATOM     27  C   UNL     1       3.922  -7.100   8.388  1.00  0.00     0.214 A 
ATOM     28  C   UNL     1       4.097  -5.857   9.026  1.00  0.00     0.180 A 
ATOM     29  C   UNL     1       2.861  -7.929   8.815  1.00  0.00     0.239 A 
ATOM     30  O   UNL     1       3.215  -5.437   9.927  1.00  0.00    -0.452 OA
ATOM     31  C   UNL     1       1.955  -7.454   9.787  1.00  0.00     0.111 A 
ATOM     32  O   UNL     1       2.732  -9.086   8.336  1.00  0.00    -0.285 OA
ATOM     33  C   UNL     1       2.169  -6.158  10.312  1.00  0.00     0.146 A 
ATOM     34  C   UNL     1       0.845  -8.206  10.243  1.00  0.00     0.134 A 
ATOM     35  C   UNL     1       1.283  -5.621  11.250  1.00  0.00     0.094 A 
ATOM     36  C   UNL     1      -0.032  -7.650  11.186  1.00  0.00     0.093 A 
ATOM     37  C   UNL     1       0.180  -6.362  11.685  1.00  0.00     0.123 A 
BRANCH  28  38
ATOM     38  C   UNL     1       5.229  -4.965   8.692  1.00  0.00     0.025 A 
ATOM     39  C   UNL     1       5.218  -4.253   7.483  1.00  0.00     0.062 A 
ATOM     40  C   UNL     1       6.293  -4.773   9.593  1.00  0.00     0.016 A 
ATOM     41  C   UNL     1       6.271  -3.386   7.157  1.00  0.00     0.158 A 
ATOM     42  C   UNL     1       7.343  -3.905   9.272  1.00  0.00     0.051 A 
ATOM     43  C   UNL     1       7.337  -3.214   8.053  1.00  0.00     0.157 A 
BRANCH  41  44
ATOM     44  O   UNL     1       6.270  -2.695   5.949  1.00  0.00    -0.504 OA
ATOM     45  H   UNL     1       5.646  -2.949   5.193  1.00  0.00     0.293 HD
ENDBRANCH  41  44
BRANCH  43  46
ATOM     46  O   UNL     1       8.386  -2.355   7.723  1.00  0.00    -0.504 OA
ATOM     47  H   UNL     1       8.253  -1.354   7.656  1.00  0.00     0.293 HD
ENDBRANCH  43  46
ENDBRANCH  28  38
BRANCH  34  48
ATOM     48  O   UNL     1       0.605  -9.496   9.766  1.00  0.00    -0.507 OA
ATOM     49  H   UNL     1       1.206  -9.931   9.076  1.00  0.00     0.293 HD
ENDBRANCH  34  48
BRANCH  37  50
ATOM     50  O   UNL     1      -0.709  -5.829  12.616  1.00  0.00    -0.508 OA
ATOM     51  H   UNL     1      -1.165  -4.931  12.466  1.00  0.00     0.293 HD
ENDBRANCH  37  50
ENDBRANCH  26  27
ENDBRANCH   5  26
BRANCH   4  52
ATOM     52  O   UNL     1       5.559  -9.741   8.713  1.00  0.00    -0.384 OA
ATOM     53  H   UNL     1       5.011 -10.492   8.362  1.00  0.00     0.211 HD
ENDBRANCH   4  52
TORSDOF 16
ENDMDL
MODEL 3
REMARK VINA RESULT:    -5.416      1.926      7.520
REMARK INTER + INTRA:         -11.418
REMARK INTER:                  -9.065
REMARK INTRA:                  -2.353
REMARK UNBOUND:                -2.519
REMARK SMILES C[C@H]1O[C@@H](OC[C@@H]2O[C@@H](Oc3c(-c4ccc(O)c(O)c4)oc4cc(O)cc(O)c4c3=O)[C@@H](O)[C@@H](O)[C@H]2O)[C@@H](O)[C@H](O)[C@@H]1O
REMARK SMILES IDX 7 1 36 2 34 3 32 4 9 5 8 6 6 7 5 8 4 9 1 10 2 11 42 12 3 13
REMARK SMILES IDX 40 14 38 15 43 16 41 18 39 20 37 22 35 24 10 26 11 27 12 28
REMARK SMILES IDX 30 29 21 30 29 31 31 32 22 33 27 34 23 35 26 36 24 37 13 38
REMARK SMILES IDX 20 39 14 40 18 41 15 42 16 43 19 44 17 46 28 48 25 50 33 52
REMARK H PARENT 43 17 41 19 39 21 37 23 35 25 19 45 17 47 28 49 25 51 33 53
REMARK Flexibility Score: inf
ROOT
ATOM      1  C   UNL     1       6.307  -6.639   8.489  1.00  0.00     0.180 C 
ATOM      2  C   UNL     1       7.157  -7.345   9.578  1.00  0.00     0.177 C 
ATOM      3  C   UNL     1       8.111  -8.366   8.927  1.00  0.00     0.180 C 
ATOM      4  C   UNL     1       7.325  -9.291   7.986  1.00  0.00     0.214 C 
ATOM      5  C   UNL     1       6.460  -8.470   7.015  1.00  0.00     0.339 C 
ATOM      6  O   UNL     1       5.595  -7.589   7.712  1.00  0.00    -0.332 OA
ENDROOT
BRANCH   1   7
ATOM      7  C   UNL     1       5.264  -5.698   9.109  1.00  0.00     0.198 C 
BRANCH   7   8
ATOM      8  O   UNL     1       4.269  -6.438   9.787  1.00  0.00    -0.347 OA
BRANCH   8   9
ATOM      9  C   UNL     1       2.974  -5.982   9.430  1.00  0.00     0.281 C 
ATOM     10  C   UNL     1       3.244  -6.444  12.495  1.00  0.00     0.041 C 
ATOM     11  C   UNL     1       2.027  -6.072  11.630  1.00  0.00     0.150 C 
ATOM     12  C   UNL     1       1.142  -7.289  11.266  1.00  0.00     0.174 C 
ATOM     13  O   UNL     1       2.376  -5.266  10.505  1.00  0.00    -0.344 OA
ATOM     14  C   UNL     1       1.767  -8.101  10.116  1.00  0.00     0.179 C 
ATOM     15  C   UNL     1       2.096  -7.158   8.953  1.00  0.00     0.202 C 
BRANCH  12  16
ATOM     16  O   UNL     1      -0.136  -6.825  10.895  1.00  0.00    -0.388 OA
ATOM     17  H   UNL     1      -0.071  -6.516   9.953  1.00  0.00     0.211 HD
ENDBRANCH  12  16
BRANCH  14  18
ATOM     18  O   UNL     1       0.873  -9.093   9.676  1.00  0.00    -0.387 OA
ATOM     19  H   UNL     1       1.376  -9.672   9.046  1.00  0.00     0.211 HD
ENDBRANCH  14  18
BRANCH  15  20
ATOM     20  O   UNL     1       2.710  -7.848   7.890  1.00  0.00    -0.385 OA
ATOM     21  H   UNL     1       2.387  -7.455   7.037  1.00  0.00     0.211 HD
ENDBRANCH  15  20
ENDBRANCH   8   9
ENDBRANCH   7   8
ENDBRANCH   1   7
BRANCH   2  22
ATOM     22  O   UNL     1       7.894  -6.399  10.307  1.00  0.00    -0.387 OA
ATOM     23  H   UNL     1       8.826  -6.743  10.377  1.00  0.00     0.211 HD
ENDBRANCH   2  22
BRANCH   3  24
ATOM     24  O   UNL     1       9.125  -7.705   8.209  1.00  0.00    -0.387 OA
ATOM     25  H   UNL     1       9.652  -7.179   8.864  1.00  0.00     0.211 HD
ENDBRANCH   3  24
BRANCH   5  26
ATOM     26  O   UNL     1       7.276  -7.764   6.075  1.00  0.00    -0.454 OA
BRANCH  26  27
ATOM     27  C   UNL     1       6.878  -7.371   4.783  1.00  0.00     0.214 A 
ATOM     28  C   UNL     1       6.951  -6.008   4.439  1.00  0.00     0.180 A 
ATOM     29  C   UNL     1       6.442  -8.288   3.802  1.00  0.00     0.239 A 
ATOM     30  O   UNL     1       6.721  -5.621   3.189  1.00  0.00    -0.452 OA
ATOM     31  C   UNL     1       6.191  -7.835   2.489  1.00  0.00     0.111 A 
ATOM     32  O   UNL     1       6.272  -9.499   4.100  1.00  0.00    -0.285 OA
ATOM     33  C   UNL     1       6.369  -6.458   2.221  1.00  0.00     0.146 A 
ATOM     34  C   UNL     1       5.786  -8.693   1.438  1.00  0.00     0.134 A 
ATOM     35  C   UNL     1       6.170  -5.958   0.931  1.00  0.00     0.094 A 
ATOM     36  C   UNL     1       5.590  -8.172   0.150  1.00  0.00     0.093 A 
ATOM     37  C   UNL     1       5.786  -6.813  -0.106  1.00  0.00     0.123 A 
BRANCH  28  38
ATOM     38  C   UNL     1       7.323  -4.975   5.431  1.00  0.00     0.025 A 
ATOM     39  C   UNL     1       6.337  -4.113   5.937  1.00  0.00     0.062 A 
ATOM     40  C   UNL     1       8.639  -4.878   5.921  1.00  0.00     0.016 A 
ATOM     41  C   UNL     1       6.665  -3.142   6.894  1.00  0.00     0.158 A 
ATOM     42  C   UNL     1       8.966  -3.912   6.879  1.00  0.00     0.051 A 
ATOM     43  C   UNL     1       7.982  -3.039   7.364  1.00  0.00     0.157 A 
BRANCH  41  44
ATOM     44  O   UNL     1       5.691  -2.274   7.381  1.00  0.00    -0.504 OA
ATOM     45  H   UNL     1       4.747  -2.586   7.567  1.00  0.00     0.293 HD
ENDBRANCH  41  44
BRANCH  43  46
ATOM     46  O   UNL     1       8.305  -2.067   8.311  1.00  0.00    -0.504 OA
ATOM     47  H   UNL     1       8.673  -1.163   8.041  1.00  0.00     0.293 HD
ENDBRANCH  43  46
ENDBRANCH  28  38
BRANCH  34  48
ATOM     48  O   UNL     1       5.580 -10.056   1.661  1.00  0.00    -0.507 OA
ATOM     49  H   UNL     1       5.252 -10.407   2.553  1.00  0.00     0.293 HD
ENDBRANCH  34  48
BRANCH  37  50
ATOM     50  O   UNL     1       5.592  -6.320  -1.395  1.00  0.00    -0.508 OA
ATOM     51  H   UNL     1       4.768  -5.776  -1.640  1.00  0.00     0.293 HD
ENDBRANCH  37  50
ENDBRANCH  26  27
ENDBRANCH   5  26
BRANCH   4  52
ATOM     52  O   UNL     1       8.199 -10.115   7.256  1.00  0.00    -0.384 OA
ATOM     53  H   UNL     1       7.674 -10.495   6.502  1.00  0.00     0.211 HD
ENDBRANCH   4  52
TORSDOF 16
ENDMDL
MODEL 4
REMARK VINA RESULT:    -5.163      2.587      4.119
REMARK INTER + INTRA:         -11.003
REMARK INTER:                  -8.027
REMARK INTRA:                  -2.976
REMARK UNBOUND:                -2.519
REMARK SMILES C[C@H]1O[C@@H](OC[C@@H]2O[C@@H](Oc3c(-c4ccc(O)c(O)c4)oc4cc(O)cc(O)c4c3=O)[C@@H](O)[C@@H](O)[C@H]2O)[C@@H](O)[C@H](O)[C@@H]1O
REMARK SMILES IDX 7 1 36 2 34 3 32 4 9 5 8 6 6 7 5 8 4 9 1 10 2 11 42 12 3 13
REMARK SMILES IDX 40 14 38 15 43 16 41 18 39 20 37 22 35 24 10 26 11 27 12 28
REMARK SMILES IDX 30 29 21 30 29 31 31 32 22 33 27 34 23 35 26 36 24 37 13 38
REMARK SMILES IDX 20 39 14 40 18 41 15 42 16 43 19 44 17 46 28 48 25 50 33 52
REMARK H PARENT 43 17 41 19 39 21 37 23 35 25 19 45 17 47 28 49 25 51 33 53
REMARK Flexibility Score: inf
ROOT
ATOM      1  C   UNL     1       8.008  -7.811   3.662  1.00  0.00     0.180 C 
ATOM      2  C   UNL     1       8.396  -9.312   3.609  1.00  0.00     0.177 C 
ATOM      3  C   UNL     1       7.972 -10.018   4.911  1.00  0.00     0.180 C 
ATOM      4  C   UNL     1       8.494  -9.234   6.125  1.00  0.00     0.214 C 
ATOM      5  C   UNL     1       8.115  -7.748   6.015  1.00  0.00     0.339 C 
ATOM      6  O   UNL     1       8.580  -7.185   4.800  1.00  0.00    -0.332 OA
ENDROOT
BRANCH   1   7
ATOM      7  C   UNL     1       8.518  -7.052   2.429  1.00  0.00     0.198 C 
BRANCH   7   8
ATOM      8  O   UNL     1       7.780  -7.418   1.281  1.00  0.00    -0.347 OA
BRANCH   8   9
ATOM      9  C   UNL     1       7.345  -6.265   0.576  1.00  0.00     0.281 C 
ATOM     10  C   UNL     1       4.960  -8.039   1.496  1.00  0.00     0.041 C 
ATOM     11  C   UNL     1       5.004  -6.775   0.618  1.00  0.00     0.150 C 
ATOM     12  C   UNL     1       4.982  -7.085  -0.898  1.00  0.00     0.174 C 
ATOM     13  O   UNL     1       6.043  -5.875   1.000  1.00  0.00    -0.344 OA
ATOM     14  C   UNL     1       6.372  -7.529  -1.391  1.00  0.00     0.179 C 
ATOM     15  C   UNL     1       7.418  -6.500  -0.947  1.00  0.00     0.202 C 
BRANCH  12  16
ATOM     16  O   UNL     1       4.567  -5.930  -1.591  1.00  0.00    -0.388 OA
ATOM     17  H   UNL     1       5.311  -5.670  -2.194  1.00  0.00     0.211 HD
ENDBRANCH  12  16
BRANCH  14  18
ATOM     18  O   UNL     1       6.383  -7.633  -2.793  1.00  0.00    -0.387 OA
ATOM     19  H   UNL     1       7.309  -7.880  -3.054  1.00  0.00     0.211 HD
ENDBRANCH  14  18
BRANCH  15  20
ATOM     20  O   UNL     1       8.715  -6.883  -1.338  1.00  0.00    -0.385 OA
ATOM     21  H   UNL     1       9.140  -7.360  -0.578  1.00  0.00     0.211 HD
ENDBRANCH  15  20
ENDBRANCH   8   9
ENDBRANCH   7   8
ENDBRANCH   1   7
BRANCH   2  22
ATOM     22  O   UNL     1       7.785  -9.933   2.508  1.00  0.00    -0.387 OA
ATOM     23  H   UNL     1       7.973 -10.908   2.578  1.00  0.00     0.211 HD
ENDBRANCH   2  22
BRANCH   3  24
ATOM     24  O   UNL     1       6.571 -10.125   4.980  1.00  0.00    -0.387 OA
ATOM     25  H   UNL     1       6.293  -9.761   5.860  1.00  0.00     0.211 HD
ENDBRANCH   3  24
BRANCH   5  26
ATOM     26  O   UNL     1       6.704  -7.566   6.167  1.00  0.00    -0.454 OA
BRANCH  26  27
ATOM     27  C   UNL     1       6.079  -6.883   7.227  1.00  0.00     0.214 A 
ATOM     28  C   UNL     1       5.916  -5.488   7.130  1.00  0.00     0.180 A 
ATOM     29  C   UNL     1       5.574  -7.539   8.371  1.00  0.00     0.239 A 
ATOM     30  O   UNL     1       5.206  -4.833   8.042  1.00  0.00    -0.452 OA
ATOM     31  C   UNL     1       4.841  -6.805   9.327  1.00  0.00     0.111 A 
ATOM     32  O   UNL     1       5.786  -8.769   8.539  1.00  0.00    -0.285 OA
ATOM     33  C   UNL     1       4.662  -5.420   9.100  1.00  0.00     0.146 A 
ATOM     34  C   UNL     1       4.269  -7.392  10.483  1.00  0.00     0.134 A 
ATOM     35  C   UNL     1       3.913  -4.649   9.994  1.00  0.00     0.094 A 
ATOM     36  C   UNL     1       3.523  -6.601  11.368  1.00  0.00     0.093 A 
ATOM     37  C   UNL     1       3.339  -5.237  11.124  1.00  0.00     0.123 A 
BRANCH  28  38
ATOM     38  C   UNL     1       6.484  -4.717   6.003  1.00  0.00     0.025 A 
ATOM     39  C   UNL     1       5.712  -4.503   4.850  1.00  0.00     0.062 A 
ATOM     40  C   UNL     1       7.766  -4.142   6.088  1.00  0.00     0.016 A 
ATOM     41  C   UNL     1       6.224  -3.756   3.779  1.00  0.00     0.158 A 
ATOM     42  C   UNL     1       8.276  -3.392   5.022  1.00  0.00     0.051 A 
ATOM     43  C   UNL     1       7.510  -3.202   3.864  1.00  0.00     0.157 A 
BRANCH  41  44
ATOM     44  O   UNL     1       5.466  -3.561   2.628  1.00  0.00    -0.504 OA
ATOM     45  H   UNL     1       5.721  -3.988   1.746  1.00  0.00     0.293 HD
ENDBRANCH  41  44
BRANCH  43  46
ATOM     46  O   UNL     1       8.018  -2.464   2.794  1.00  0.00    -0.504 OA
ATOM     47  H   UNL     1       7.917  -2.778   1.837  1.00  0.00     0.293 HD
ENDBRANCH  43  46
ENDBRANCH  28  38
BRANCH  34  48
ATOM     48  O   UNL     1       4.436  -8.751  10.756  1.00  0.00    -0.507 OA
ATOM     49  H   UNL     1       3.658  -9.339  11.030  1.00  0.00     0.293 HD
ENDBRANCH  34  48
BRANCH  37  50
ATOM     50  O   UNL     1       2.587  -4.474  12.015  1.00  0.00    -0.508 OA
ATOM     51  H   UNL     1       2.977  -3.657  12.481  1.00  0.00     0.293 HD
ENDBRANCH  37  50
ENDBRANCH  26  27
ENDBRANCH   5  26
BRANCH   4  52
ATOM     52  O   UNL     1       7.975  -9.764   7.319  1.00  0.00    -0.384 OA
ATOM     53  H   UNL     1       8.160 -10.740   7.305  1.00  0.00     0.211 HD
ENDBRANCH   4  52
TORSDOF 16
ENDMDL
MODEL 5
REMARK VINA RESULT:    -5.142      1.886      7.419
REMARK INTER + INTRA:         -10.969
REMARK INTER:                  -8.986
REMARK INTRA:                  -1.983
REMARK UNBOUND:                -2.519
REMARK SMILES C[C@H]1O[C@@H](OC[C@@H]2O[C@@H](Oc3c(-c4ccc(O)c(O)c4)oc4cc(O)cc(O)c4c3=O)[C@@H](O)[C@@H](O)[C@H]2O)[C@@H](O)[C@H](O)[C@@H]1O
REMARK SMILES IDX 7 1 36 2 34 3 32 4 9 5 8 6 6 7 5 8 4 9 1 10 2 11 42 12 3 13
REMARK SMILES IDX 40 14 38 15 43 16 41 18 39 20 37 22 35 24 10 26 11 27 12 28
REMARK SMILES IDX 30 29 21 30 29 31 31 32 22 33 27 34 23 35 26 36 24 37 13 38
REMARK SMILES IDX 20 39 14 40 18 41 15 42 16 43 19 44 17 46 28 48 25 50 33 52
REMARK H PARENT 43 17 41 19 39 21 37 23 35 25 19 45 17 47 28 49 25 51 33 53
REMARK Flexibility Score: inf
ROOT
ATOM      1  C   UNL     1       6.234  -6.536   8.543  1.00  0.00     0.180 C 
ATOM      2  C   UNL     1       7.028  -7.265   9.659  1.00  0.00     0.177 C 
ATOM      3  C   UNL     1       7.942  -8.342   9.043  1.00  0.00     0.180 C 
ATOM      4  C   UNL     1       7.128  -9.243   8.101  1.00  0.00     0.214 C 
ATOM      5  C   UNL     1       6.323  -8.397   7.101  1.00  0.00     0.339 C 
ATOM      6  O   UNL     1       5.491  -7.463   7.768  1.00  0.00    -0.332 OA
ENDROOT
BRANCH   1   7
ATOM      7  C   UNL     1       5.228  -5.534   9.129  1.00  0.00     0.198 C 
BRANCH   7   8
ATOM      8  O   UNL     1       3.943  -6.116   9.216  1.00  0.00    -0.347 OA
BRANCH   8   9
ATOM      9  C   UNL     1       3.728  -6.663  10.508  1.00  0.00     0.281 C 
ATOM     10  C   UNL     1       2.160  -8.209   8.310  1.00  0.00     0.041 C 
ATOM     11  C   UNL     1       2.157  -8.347   9.843  1.00  0.00     0.150 C 
ATOM     12  C   UNL     1       0.980  -7.603  10.519  1.00  0.00     0.174 C 
ATOM     13  O   UNL     1       3.426  -8.052  10.424  1.00  0.00    -0.344 OA
ATOM     14  C   UNL     1       1.262  -6.091  10.612  1.00  0.00     0.179 C 
ATOM     15  C   UNL     1       2.636  -5.872  11.258  1.00  0.00     0.202 C 
BRANCH  12  16
ATOM     16  O   UNL     1       0.786  -8.140  11.808  1.00  0.00    -0.388 OA
ATOM     17  H   UNL     1       0.479  -7.396  12.390  1.00  0.00     0.211 HD
ENDBRANCH  12  16
BRANCH  14  18
ATOM     18  O   UNL     1       0.275  -5.456  11.384  1.00  0.00    -0.387 OA
ATOM     19  H   UNL     1      -0.181  -4.806  10.788  1.00  0.00     0.211 HD
ENDBRANCH  14  18
BRANCH  15  20
ATOM     20  O   UNL     1       2.959  -4.504  11.326  1.00  0.00    -0.385 OA
ATOM     21  H   UNL     1       3.817  -4.412  11.818  1.00  0.00     0.211 HD
ENDBRANCH  15  20
ENDBRANCH   8   9
ENDBRANCH   7   8
ENDBRANCH   1   7
BRANCH   2  22
ATOM     22  O   UNL     1       7.798  -6.345  10.387  1.00  0.00    -0.387 OA
ATOM     23  H   UNL     1       7.330  -5.467  10.340  1.00  0.00     0.211 HD
ENDBRANCH   2  22
BRANCH   3  24
ATOM     24  O   UNL     1       9.000  -7.745   8.333  1.00  0.00    -0.387 OA
ATOM     25  H   UNL     1       9.764  -7.665   8.960  1.00  0.00     0.211 HD
ENDBRANCH   3  24
BRANCH   5  26
ATOM     26  O   UNL     1       7.190  -7.747   6.166  1.00  0.00    -0.454 OA
BRANCH  26  27
ATOM     27  C   UNL     1       6.835  -7.355   4.861  1.00  0.00     0.214 A 
ATOM     28  C   UNL     1       6.931  -5.994   4.516  1.00  0.00     0.180 A 
ATOM     29  C   UNL     1       6.421  -8.271   3.870  1.00  0.00     0.239 A 
ATOM     30  O   UNL     1       6.743  -5.609   3.258  1.00  0.00    -0.452 OA
ATOM     31  C   UNL     1       6.213  -7.821   2.549  1.00  0.00     0.111 A 
ATOM     32  O   UNL     1       6.230  -9.480   4.167  1.00  0.00    -0.285 OA
ATOM     33  C   UNL     1       6.412  -6.446   2.282  1.00  0.00     0.146 A 
ATOM     34  C   UNL     1       5.833  -8.679   1.489  1.00  0.00     0.134 A 
ATOM     35  C   UNL     1       6.257  -5.949   0.986  1.00  0.00     0.094 A 
ATOM     36  C   UNL     1       5.680  -8.161   0.194  1.00  0.00     0.093 A 
ATOM     37  C   UNL     1       5.897  -6.804  -0.060  1.00  0.00     0.123 A 
BRANCH  28  38
ATOM     38  C   UNL     1       7.282  -4.961   5.515  1.00  0.00     0.025 A 
ATOM     39  C   UNL     1       6.317  -4.020   5.907  1.00  0.00     0.062 A 
ATOM     40  C   UNL     1       8.551  -4.940   6.123  1.00  0.00     0.016 A 
ATOM     41  C   UNL     1       6.624  -3.047   6.869  1.00  0.00     0.158 A 
ATOM     42  C   UNL     1       8.856  -3.973   7.087  1.00  0.00     0.051 A 
ATOM     43  C   UNL     1       7.896  -3.021   7.458  1.00  0.00     0.157 A 
BRANCH  41  44
ATOM     44  O   UNL     1       5.673  -2.100   7.244  1.00  0.00    -0.504 OA
ATOM     45  H   UNL     1       5.941  -1.193   7.603  1.00  0.00     0.293 HD
ENDBRANCH  41  44
BRANCH  43  46
ATOM     46  O   UNL     1       8.199  -2.047   8.410  1.00  0.00    -0.504 OA
ATOM     47  H   UNL     1       8.019  -2.193   9.395  1.00  0.00     0.293 HD
ENDBRANCH  43  46
ENDBRANCH  28  38
BRANCH  34  48
ATOM     48  O   UNL     1       5.607 -10.039   1.710  1.00  0.00    -0.507 OA
ATOM     49  H   UNL     1       5.283 -10.653   0.972  1.00  0.00     0.293 HD
ENDBRANCH  34  48
BRANCH  37  50
ATOM     50  O   UNL     1       5.747  -6.314  -1.356  1.00  0.00    -0.508 OA
ATOM     51  H   UNL     1       4.840  -6.025  -1.716  1.00  0.00     0.293 HD
ENDBRANCH  37  50
ENDBRANCH  26  27
ENDBRANCH   5  26
BRANCH   4  52
ATOM     52  O   UNL     1       7.973 -10.121   7.401  1.00  0.00    -0.384 OA
ATOM     53  H   UNL     1       7.486 -10.396   6.579  1.00  0.00     0.211 HD
ENDBRANCH   4  52
TORSDOF 16
ENDMDL
MODEL 6
REMARK VINA RESULT:    -4.782      3.196      8.244
REMARK INTER + INTRA:         -10.376
REMARK INTER:                  -7.984
REMARK INTRA:                  -2.392
REMARK UNBOUND:                -2.519
REMARK SMILES C[C@H]1O[C@@H](OC[C@@H]2O[C@@H](Oc3c(-c4ccc(O)c(O)c4)oc4cc(O)cc(O)c4c3=O)[C@@H](O)[C@@H](O)[C@H]2O)[C@@H](O)[C@H](O)[C@@H]1O
REMARK SMILES IDX 7 1 36 2 34 3 32 4 9 5 8 6 6 7 5 8 4 9 1 10 2 11 42 12 3 13
REMARK SMILES IDX 40 14 38 15 43 16 41 18 39 20 37 22 35 24 10 26 11 27 12 28
REMARK SMILES IDX 30 29 21 30 29 31 31 32 22 33 27 34 23 35 26 36 24 37 13 38
REMARK SMILES IDX 20 39 14 40 18 41 15 42 16 43 19 44 17 46 28 48 25 50 33 52
REMARK H PARENT 43 17 41 19 39 21 37 23 35 25 19 45 17 47 28 49 25 51 33 53
REMARK Flexibility Score: inf
ROOT
ATOM      1  C   UNL     1       6.590  -8.729   5.392  1.00  0.00     0.180 C 
ATOM      2  C   UNL     1       7.975  -9.428   5.402  1.00  0.00     0.177 C 
ATOM      3  C   UNL     1       8.550  -9.488   3.973  1.00  0.00     0.180 C 
ATOM      4  C   UNL     1       7.506 -10.083   3.015  1.00  0.00     0.214 C 
ATOM      5  C   UNL     1       6.157  -9.360   3.165  1.00  0.00     0.339 C 
ATOM      6  O   UNL     1       5.701  -9.390   4.506  1.00  0.00    -0.332 OA
ENDROOT
BRANCH   1   7
ATOM      7  C   UNL     1       5.936  -8.753   6.782  1.00  0.00     0.198 C 
BRANCH   7   8
ATOM      8  O   UNL     1       6.230  -7.565   7.489  1.00  0.00    -0.347 OA
BRANCH   8   9
ATOM      9  C   UNL     1       6.082  -6.432   6.647  1.00  0.00     0.281 C 
ATOM     10  C   UNL     1       8.694  -6.300   8.331  1.00  0.00     0.041 C 
ATOM     11  C   UNL     1       8.048  -5.276   7.381  1.00  0.00     0.150 C 
ATOM     12  C   UNL     1       7.215  -4.201   8.119  1.00  0.00     0.174 C 
ATOM     13  O   UNL     1       7.352  -5.892   6.299  1.00  0.00    -0.344 OA
ATOM     14  C   UNL     1       5.837  -4.754   8.529  1.00  0.00     0.179 C 
ATOM     15  C   UNL     1       5.161  -5.383   7.304  1.00  0.00     0.202 C 
BRANCH  12  16
ATOM     16  O   UNL     1       7.057  -3.087   7.269  1.00  0.00    -0.388 OA
ATOM     17  H   UNL     1       7.791  -3.125   6.601  1.00  0.00     0.211 HD
ENDBRANCH  12  16
BRANCH  14  18
ATOM     18  O   UNL     1       5.026  -3.724   9.034  1.00  0.00    -0.387 OA
ATOM     19  H   UNL     1       4.170  -4.143   9.312  1.00  0.00     0.211 HD
ENDBRANCH  14  18
BRANCH  15  20
ATOM     20  O   UNL     1       3.913  -5.943   7.637  1.00  0.00    -0.385 OA
ATOM     21  H   UNL     1       3.693  -6.636   6.961  1.00  0.00     0.211 HD
ENDBRANCH  15  20
ENDBRANCH   8   9
ENDBRANCH   7   8
ENDBRANCH   1   7
BRANCH   2  22
ATOM     22  O   UNL     1       8.861  -8.737   6.244  1.00  0.00    -0.387 OA
ATOM     23  H   UNL     1       8.395  -7.910   6.546  1.00  0.00     0.211 HD
ENDBRANCH   2  22
BRANCH   3  24
ATOM     24  O   UNL     1       8.920  -8.204   3.535  1.00  0.00    -0.387 OA
ATOM     25  H   UNL     1       8.771  -7.582   4.294  1.00  0.00     0.211 HD
ENDBRANCH   3  24
BRANCH   5  26
ATOM     26  O   UNL     1       6.238  -8.019   2.672  1.00  0.00    -0.454 OA
BRANCH  26  27
ATOM     27  C   UNL     1       6.064  -7.631   1.330  1.00  0.00     0.214 A 
ATOM     28  C   UNL     1       6.511  -6.357   0.932  1.00  0.00     0.180 A 
ATOM     29  C   UNL     1       5.494  -8.477   0.354  1.00  0.00     0.239 A 
ATOM     30  O   UNL     1       6.493  -6.013  -0.352  1.00  0.00    -0.452 OA
ATOM     31  C   UNL     1       5.478  -8.069  -0.997  1.00  0.00     0.111 A 
ATOM     32  O   UNL     1       4.996  -9.584   0.690  1.00  0.00    -0.285 OA
ATOM     33  C   UNL     1       6.024  -6.802  -1.310  1.00  0.00     0.146 A 
ATOM     34  C   UNL     1       4.960  -8.872  -2.042  1.00  0.00     0.134 A 
ATOM     35  C   UNL     1       6.069  -6.361  -2.635  1.00  0.00     0.094 A 
ATOM     36  C   UNL     1       5.013  -8.410  -3.366  1.00  0.00     0.093 A 
ATOM     37  C   UNL     1       5.569  -7.164  -3.665  1.00  0.00     0.123 A 
BRANCH  28  38
ATOM     38  C   UNL     1       7.047  -5.382   1.907  1.00  0.00     0.025 A 
ATOM     39  C   UNL     1       6.177  -4.761   2.817  1.00  0.00     0.062 A 
ATOM     40  C   UNL     1       8.426  -5.108   1.976  1.00  0.00     0.016 A 
ATOM     41  C   UNL     1       6.669  -3.850   3.763  1.00  0.00     0.158 A 
ATOM     42  C   UNL     1       8.919  -4.203   2.923  1.00  0.00     0.051 A 
ATOM     43  C   UNL     1       8.042  -3.568   3.814  1.00  0.00     0.157 A 
BRANCH  41  44
ATOM     44  O   UNL     1       5.804  -3.220   4.653  1.00  0.00    -0.504 OA
ATOM     45  H   UNL     1       6.123  -2.486   5.273  1.00  0.00     0.293 HD
ENDBRANCH  41  44
BRANCH  43  46
ATOM     46  O   UNL     1       8.527  -2.657   4.753  1.00  0.00    -0.504 OA
ATOM     47  H   UNL     1       9.404  -2.170   4.617  1.00  0.00     0.293 HD
ENDBRANCH  43  46
ENDBRANCH  28  38
BRANCH  34  48
ATOM     48  O   UNL     1       4.396 -10.121  -1.778  1.00  0.00    -0.507 OA
ATOM     49  H   UNL     1       4.442 -10.881  -2.447  1.00  0.00     0.293 HD
ENDBRANCH  34  48
BRANCH  37  50
ATOM     50  O   UNL     1       5.617  -6.730  -4.988  1.00  0.00    -0.508 OA
ATOM     51  H   UNL     1       4.829  -6.855  -5.620  1.00  0.00     0.293 HD
ENDBRANCH  37  50
ENDBRANCH  26  27
ENDBRANCH   5  26
BRANCH   4  52
ATOM     52  O   UNL     1       7.945  -9.990   1.683  1.00  0.00    -0.384 OA
ATOM     53  H   UNL     1       7.326  -9.366   1.219  1.00  0.00     0.211 HD
ENDBRANCH   4  52
TORSDOF 16
ENDMDL
MODEL 7
REMARK VINA RESULT:    -4.747      2.973      8.331
REMARK INTER + INTRA:         -10.319
REMARK INTER:                  -8.189
REMARK INTRA:                  -2.129
REMARK UNBOUND:                -2.519
REMARK SMILES C[C@H]1O[C@@H](OC[C@@H]2O[C@@H](Oc3c(-c4ccc(O)c(O)c4)oc4cc(O)cc(O)c4c3=O)[C@@H](O)[C@@H](O)[C@H]2O)[C@@H](O)[C@H](O)[C@@H]1O
REMARK SMILES IDX 7 1 36 2 34 3 32 4 9 5 8 6 6 7 5 8 4 9 1 10 2 11 42 12 3 13
REMARK SMILES IDX 40 14 38 15 43 16 41 18 39 20 37 22 35 24 10 26 11 27 12 28
REMARK SMILES IDX 30 29 21 30 29 31 31 32 22 33 27 34 23 35 26 36 24 37 13 38
REMARK SMILES IDX 20 39 14 40 18 41 15 42 16 43 19 44 17 46 28 48 25 50 33 52
REMARK H PARENT 43 17 41 19 39 21 37 23 35 25 19 45 17 47 28 49 25 51 33 53
REMARK Flexibility Score: inf
ROOT
ATOM      1  C   UNL     1       5.891  -8.988   5.651  1.00  0.00     0.180 C 
ATOM      2  C   UNL     1       7.333  -9.479   5.947  1.00  0.00     0.177 C 
ATOM      3  C   UNL     1       8.205  -9.359   4.682  1.00  0.00     0.180 C 
ATOM      4  C   UNL     1       7.498 -10.032   3.495  1.00  0.00     0.214 C 
ATOM      5  C   UNL     1       6.053  -9.523   3.363  1.00  0.00     0.339 C 
ATOM      6  O   UNL     1       5.328  -9.709   4.566  1.00  0.00    -0.332 OA
ENDROOT
BRANCH   1   7
ATOM      7  C   UNL     1       4.964  -9.200   6.858  1.00  0.00     0.198 C 
BRANCH   7   8
ATOM      8  O   UNL     1       4.477  -7.962   7.333  1.00  0.00    -0.347 OA
BRANCH   8   9
ATOM      9  C   UNL     1       5.099  -7.616   8.560  1.00  0.00     0.281 C 
ATOM     10  C   UNL     1       2.022  -7.172   8.647  1.00  0.00     0.041 C 
ATOM     11  C   UNL     1       3.122  -6.839   9.670  1.00  0.00     0.150 C 
ATOM     12  C   UNL     1       3.591  -5.366   9.605  1.00  0.00     0.174 C 
ATOM     13  O   UNL     1       4.196  -7.779   9.648  1.00  0.00    -0.344 OA
ATOM     14  C   UNL     1       4.558  -5.145   8.426  1.00  0.00     0.179 C 
ATOM     15  C   UNL     1       5.680  -6.188   8.492  1.00  0.00     0.202 C 
BRANCH  12  16
ATOM     16  O   UNL     1       4.224  -5.037  10.820  1.00  0.00    -0.388 OA
ATOM     17  H   UNL     1       3.969  -5.735  11.479  1.00  0.00     0.211 HD
ENDBRANCH  12  16
BRANCH  14  18
ATOM     18  O   UNL     1       5.113  -3.855   8.484  1.00  0.00    -0.387 OA
ATOM     19  H   UNL     1       4.381  -3.218   8.274  1.00  0.00     0.211 HD
ENDBRANCH  14  18
BRANCH  15  20
ATOM     20  O   UNL     1       6.570  -6.055   7.410  1.00  0.00    -0.385 OA
ATOM     21  H   UNL     1       6.114  -5.538   6.695  1.00  0.00     0.211 HD
ENDBRANCH  15  20
ENDBRANCH   8   9
ENDBRANCH   7   8
ENDBRANCH   1   7
BRANCH   2  22
ATOM     22  O   UNL     1       7.897  -8.726   6.989  1.00  0.00    -0.387 OA
ATOM     23  H   UNL     1       8.874  -8.921   6.997  1.00  0.00     0.211 HD
ENDBRANCH   2  22
BRANCH   3  24
ATOM     24  O   UNL     1       8.456  -8.008   4.382  1.00  0.00    -0.387 OA
ATOM     25  H   UNL     1       8.785  -7.580   5.214  1.00  0.00     0.211 HD
ENDBRANCH   3  24
BRANCH   5  26
ATOM     26  O   UNL     1       6.029  -8.154   2.947  1.00  0.00    -0.454 OA
BRANCH  26  27
ATOM     27  C   UNL     1       5.955  -7.708   1.614  1.00  0.00     0.214 A 
ATOM     28  C   UNL     1       6.439  -6.422   1.304  1.00  0.00     0.180 A 
ATOM     29  C   UNL     1       5.449  -8.505   0.564  1.00  0.00     0.239 A 
ATOM     30  O   UNL     1       6.516  -6.025   0.038  1.00  0.00    -0.452 OA
ATOM     31  C   UNL     1       5.534  -8.040  -0.766  1.00  0.00     0.111 A 
ATOM     32  O   UNL     1       4.920  -9.620   0.816  1.00  0.00    -0.285 OA
ATOM     33  C   UNL     1       6.110  -6.767  -0.984  1.00  0.00     0.146 A 
ATOM     34  C   UNL     1       5.085  -8.792  -1.879  1.00  0.00     0.134 A 
ATOM     35  C   UNL     1       6.253  -6.271  -2.282  1.00  0.00     0.094 A 
ATOM     36  C   UNL     1       5.236  -8.275  -3.174  1.00  0.00     0.093 A 
ATOM     37  C   UNL     1       5.822  -7.024  -3.378  1.00  0.00     0.123 A 
BRANCH  28  38
ATOM     38  C   UNL     1       6.912  -5.496   2.355  1.00  0.00     0.025 A 
ATOM     39  C   UNL     1       6.032  -5.095   3.373  1.00  0.00     0.062 A 
ATOM     40  C   UNL     1       8.247  -5.052   2.386  1.00  0.00     0.016 A 
ATOM     41  C   UNL     1       6.467  -4.234   4.391  1.00  0.00     0.158 A 
ATOM     42  C   UNL     1       8.684  -4.197   3.404  1.00  0.00     0.051 A 
ATOM     43  C   UNL     1       7.795  -3.782   4.405  1.00  0.00     0.157 A 
BRANCH  41  44
ATOM     44  O   UNL     1       5.590  -3.821   5.390  1.00  0.00    -0.504 OA
ATOM     45  H   UNL     1       5.781  -3.993   6.369  1.00  0.00     0.293 HD
ENDBRANCH  41  44
BRANCH  43  46
ATOM     46  O   UNL     1       8.223  -2.921   5.416  1.00  0.00    -0.504 OA
ATOM     47  H   UNL     1       7.823  -1.998   5.532  1.00  0.00     0.293 HD
ENDBRANCH  43  46
ENDBRANCH  28  38
BRANCH  34  48
ATOM     48  O   UNL     1       4.493 -10.045  -1.709  1.00  0.00    -0.507 OA
ATOM     49  H   UNL     1       5.025 -10.849  -1.395  1.00  0.00     0.293 HD
ENDBRANCH  34  48
BRANCH  37  50
ATOM     50  O   UNL     1       5.968  -6.535  -4.675  1.00  0.00    -0.508 OA
ATOM     51  H   UNL     1       5.589  -5.632  -4.951  1.00  0.00     0.293 HD
ENDBRANCH  37  50
ENDBRANCH  26  27
ENDBRANCH   5  26
BRANCH   4  52
ATOM     52  O   UNL     1       8.194  -9.787   2.299  1.00  0.00    -0.384 OA
ATOM     53  H   UNL     1       7.511  -9.655   1.589  1.00  0.00     0.211 HD
ENDBRANCH   4  52
TORSDOF 16
ENDMDL
MODEL 8
REMARK VINA RESULT:    -4.697      2.268      8.547
REMARK INTER + INTRA:         -10.237
REMARK INTER:                  -7.298
REMARK INTRA:                  -2.939
REMARK UNBOUND:                -2.519
REMARK SMILES C[C@H]1O[C@@H](OC[C@@H]2O[C@@H](Oc3c(-c4ccc(O)c(O)c4)oc4cc(O)cc(O)c4c3=O)[C@@H](O)[C@@H](O)[C@H]2O)[C@@H](O)[C@H](O)[C@@H]1O
REMARK SMILES IDX 7 1 36 2 34 3 32 4 9 5 8 6 6 7 5 8 4 9 1 10 2 11 42 12 3 13
REMARK SMILES IDX 40 14 38 15 43 16 41 18 39 20 37 22 35 24 10 26 11 27 12 28
REMARK SMILES IDX 30 29 21 30 29 31 31 32 22 33 27 34 23 35 26 36 24 37 13 38
REMARK SMILES IDX 20 39 14 40 18 41 15 42 16 43 19 44 17 46 28 48 25 50 33 52
REMARK H PARENT 43 17 41 19 39 21 37 23 35 25 19 45 17 47 28 49 25 51 33 53
REMARK Flexibility Score: inf
ROOT
ATOM      1  C   UNL     1       6.259  -5.201   7.242  1.00  0.00     0.180 C 
ATOM      2  C   UNL     1       6.208  -3.650   7.224  1.00  0.00     0.177 C 
ATOM      3  C   UNL     1       6.257  -3.134   5.772  1.00  0.00     0.180 C 
ATOM      4  C   UNL     1       7.439  -3.774   5.029  1.00  0.00     0.214 C 
ATOM      5  C   UNL     1       7.422  -5.303   5.196  1.00  0.00     0.339 C 
ATOM      6  O   UNL     1       7.413  -5.673   6.564  1.00  0.00    -0.332 OA
ENDROOT
BRANCH   1   7
ATOM      7  C   UNL     1       6.329  -5.746   8.676  1.00  0.00     0.198 C 
BRANCH   7   8
ATOM      8  O   UNL     1       5.323  -6.717   8.886  1.00  0.00    -0.347 OA
BRANCH   8   9
ATOM      9  C   UNL     1       4.042  -6.182   8.595  1.00  0.00     0.281 C 
ATOM     10  C   UNL     1       4.537  -6.420  11.657  1.00  0.00     0.041 C 
ATOM     11  C   UNL     1       3.283  -6.015  10.862  1.00  0.00     0.150 C 
ATOM     12  C   UNL     1       2.278  -7.177  10.676  1.00  0.00     0.174 C 
ATOM     13  O   UNL     1       3.596  -5.334   9.648  1.00  0.00    -0.344 OA
ATOM     14  C   UNL     1       2.736  -8.129   9.554  1.00  0.00     0.179 C 
ATOM     15  C   UNL     1       3.037  -7.313   8.292  1.00  0.00     0.202 C 
BRANCH  12  16
ATOM     16  O   UNL     1       1.013  -6.638  10.369  1.00  0.00    -0.388 OA
ATOM     17  H   UNL     1       0.749  -6.060  11.132  1.00  0.00     0.211 HD
ENDBRANCH  12  16
BRANCH  14  18
ATOM     18  O   UNL     1       1.733  -9.073   9.274  1.00  0.00    -0.387 OA
ATOM     19  H   UNL     1       1.346  -9.348  10.146  1.00  0.00     0.211 HD
ENDBRANCH  14  18
BRANCH  15  20
ATOM     20  O   UNL     1       3.501  -8.134   7.247  1.00  0.00    -0.385 OA
ATOM     21  H   UNL     1       2.982  -7.918   6.428  1.00  0.00     0.211 HD
ENDBRANCH  15  20
ENDBRANCH   8   9
ENDBRANCH   7   8
ENDBRANCH   1   7
BRANCH   2  22
ATOM     22  O   UNL     1       5.039  -3.196   7.854  1.00  0.00    -0.387 OA
ATOM     23  H   UNL     1       4.528  -2.670   7.180  1.00  0.00     0.211 HD
ENDBRANCH   2  22
BRANCH   3  24
ATOM     24  O   UNL     1       5.056  -3.431   5.103  1.00  0.00    -0.387 OA
ATOM     25  H   UNL     1       4.854  -2.664   4.508  1.00  0.00     0.211 HD
ENDBRANCH   3  24
BRANCH   5  26
ATOM     26  O   UNL     1       6.318  -5.882   4.492  1.00  0.00    -0.454 OA
BRANCH  26  27
ATOM     27  C   UNL     1       6.418  -6.707   3.356  1.00  0.00     0.214 A 
ATOM     28  C   UNL     1       6.856  -8.035   3.522  1.00  0.00     0.180 A 
ATOM     29  C   UNL     1       6.065  -6.275   2.059  1.00  0.00     0.239 A 
ATOM     30  O   UNL     1       6.826  -8.882   2.498  1.00  0.00    -0.452 OA
ATOM     31  C   UNL     1       6.063  -7.201   0.993  1.00  0.00     0.111 A 
ATOM     32  O   UNL     1       5.762  -5.070   1.855  1.00  0.00    -0.285 OA
ATOM     33  C   UNL     1       6.442  -8.533   1.277  1.00  0.00     0.146 A 
ATOM     34  C   UNL     1       5.687  -6.858  -0.328  1.00  0.00     0.134 A 
ATOM     35  C   UNL     1       6.424  -9.502   0.269  1.00  0.00     0.094 A 
ATOM     36  C   UNL     1       5.676  -7.844  -1.326  1.00  0.00     0.093 A 
ATOM     37  C   UNL     1       6.036  -9.162  -1.030  1.00  0.00     0.123 A 
BRANCH  28  38
ATOM     38  C   UNL     1       7.318  -8.543   4.832  1.00  0.00     0.025 A 
ATOM     39  C   UNL     1       6.375  -8.906   5.807  1.00  0.00     0.062 A 
ATOM     40  C   UNL     1       8.688  -8.722   5.100  1.00  0.00     0.016 A 
ATOM     41  C   UNL     1       6.793  -9.410   7.047  1.00  0.00     0.158 A 
ATOM     42  C   UNL     1       9.106  -9.229   6.336  1.00  0.00     0.051 A 
ATOM     43  C   UNL     1       8.161  -9.569   7.313  1.00  0.00     0.157 A 
BRANCH  41  44
ATOM     44  O   UNL     1       5.859  -9.752   8.021  1.00  0.00    -0.504 OA
ATOM     45  H   UNL     1       5.686 -10.716   8.275  1.00  0.00     0.293 HD
ENDBRANCH  41  44
BRANCH  43  46
ATOM     46  O   UNL     1       8.572 -10.064   8.551  1.00  0.00    -0.504 OA
ATOM     47  H   UNL     1       9.431  -9.754   8.989  1.00  0.00     0.293 HD
ENDBRANCH  43  46
ENDBRANCH  28  38
BRANCH  34  48
ATOM     48  O   UNL     1       5.323  -5.551  -0.657  1.00  0.00    -0.507 OA
ATOM     49  H   UNL     1       5.068  -4.874   0.052  1.00  0.00     0.293 HD
ENDBRANCH  34  48
BRANCH  37  50
ATOM     50  O   UNL     1       6.011 -10.125  -2.037  1.00  0.00    -0.508 OA
ATOM     51  H   UNL     1       6.866 -10.472  -2.466  1.00  0.00     0.293 HD
ENDBRANCH  37  50
ENDBRANCH  26  27
ENDBRANCH   5  26
BRANCH   4  52
ATOM     52  O   UNL     1       7.400  -3.450   3.662  1.00  0.00    -0.384 OA
ATOM     53  H   UNL     1       8.132  -2.797   3.500  1.00  0.00     0.211 HD
ENDBRANCH   4  52
TORSDOF 16
ENDMDL
