MODEL 1
REMARK VINA RESULT:    -4.878      0.000      0.000
REMARK INTER + INTRA:          -8.065
REMARK INTER:                  -7.017
REMARK INTRA:                  -1.048
REMARK UNBOUND:                -1.048
REMARK SMILES O=C(CO)[C@H](O)[C@H](O)[C@@H](O)CO
REMARK SMILES IDX 7 1 9 2 11 3 12 4 10 6 5 8 2 9 1 10 3 11 4 12 6 14 8 16
REMARK H PARENT 12 5 10 7 4 13 6 15 8 17
REMARK Flexibility Score: inf
ROOT
ATOM      1  C   UNL     1     -55.407 121.445 -11.726  1.00  0.00     0.181 C 
ENDROOT
BRANCH   1   2
ATOM      2  C   UNL     1     -56.324 120.253 -12.123  1.00  0.00     0.171 C 
BRANCH   2   3
ATOM      3  C   UNL     1     -57.815 120.603 -11.970  1.00  0.00     0.190 C 
BRANCH   3   4
ATOM      4  O   UNL     1     -58.247 120.320 -10.666  1.00  0.00    -0.394 OA
ATOM      5  H   UNL     1     -57.459 120.459 -10.079  1.00  0.00     0.210 HD
ENDBRANCH   3   4
ENDBRANCH   2   3
BRANCH   2   6
ATOM      6  O   UNL     1     -56.023 119.097 -11.379  1.00  0.00    -0.388 OA
ATOM      7  H   UNL     1     -55.726 119.383 -10.476  1.00  0.00     0.211 HD
ENDBRANCH   2   6
ENDBRANCH   1   2
BRANCH   1   8
ATOM      8  C   UNL     1     -54.447 121.143 -10.542  1.00  0.00     0.214 C 
BRANCH   8   9
ATOM      9  C   UNL     1     -54.843 121.866  -9.266  1.00  0.00     0.189 C 
ATOM     10  O   UNL     1     -54.212 122.859  -8.933  1.00  0.00    -0.294 OA
BRANCH   9  11
ATOM     11  C   UNL     1     -55.981 121.385  -8.396  1.00  0.00     0.234 C 
BRANCH  11  12
ATOM     12  O   UNL     1     -57.170 122.068  -8.691  1.00  0.00    -0.388 OA
ATOM     13  H   UNL     1     -57.052 122.467  -9.592  1.00  0.00     0.211 HD
ENDBRANCH  11  12
ENDBRANCH   9  11
ENDBRANCH   8   9
BRANCH   8  14
ATOM     14  O   UNL     1     -53.100 121.353 -10.893  1.00  0.00    -0.382 OA
ATOM     15  H   UNL     1     -52.549 121.282 -10.073  1.00  0.00     0.211 HD
ENDBRANCH   8  14
ENDBRANCH   1   8
BRANCH   1  16
ATOM     16  O   UNL     1     -56.193 122.571 -11.425  1.00  0.00    -0.387 OA
ATOM     17  H   UNL     1     -55.640 123.373 -11.619  1.00  0.00     0.211 HD
ENDBRANCH   1  16
TORSDOF 10
ENDMDL
MODEL 2
REMARK VINA RESULT:    -4.865      1.302      3.680
REMARK INTER + INTRA:          -8.046
REMARK INTER:                  -7.145
REMARK INTRA:                  -0.901
REMARK UNBOUND:                -1.048
REMARK SMILES O=C(CO)[C@H](O)[C@H](O)[C@@H](O)CO
REMARK SMILES IDX 7 1 9 2 11 3 12 4 10 6 5 8 2 9 1 10 3 11 4 12 6 14 8 16
REMARK H PARENT 12 5 10 7 4 13 6 15 8 17
REMARK Flexibility Score: inf
ROOT
ATOM      1  C   UNL     1     -54.370 121.554  -9.183  1.00  0.00     0.181 C 
ENDROOT
BRANCH   1   2
ATOM      2  C   UNL     1     -53.368 120.469  -9.673  1.00  0.00     0.171 C 
BRANCH   2   3
ATOM      3  C   UNL     1     -52.823 120.786 -11.077  1.00  0.00     0.190 C 
BRANCH   3   4
ATOM      4  O   UNL     1     -52.893 119.647 -11.891  1.00  0.00    -0.394 OA
ATOM      5  H   UNL     1     -53.437 118.984 -11.391  1.00  0.00     0.210 HD
ENDBRANCH   3   4
ENDBRANCH   2   3
BRANCH   2   6
ATOM      6  O   UNL     1     -53.944 119.186  -9.658  1.00  0.00    -0.388 OA
ATOM      7  H   UNL     1     -53.575 118.675 -10.426  1.00  0.00     0.211 HD
ENDBRANCH   2   6
ENDBRANCH   1   2
BRANCH   1   8
ATOM      8  C   UNL     1     -55.855 121.247  -9.524  1.00  0.00     0.214 C 
BRANCH   8   9
ATOM      9  C   UNL     1     -56.192 121.520 -10.981  1.00  0.00     0.189 C 
ATOM     10  O   UNL     1     -56.109 122.667 -11.398  1.00  0.00    -0.294 OA
BRANCH   9  11
ATOM     11  C   UNL     1     -56.635 120.422 -11.918  1.00  0.00     0.234 C 
BRANCH  11  12
ATOM     12  O   UNL     1     -55.887 119.252 -11.719  1.00  0.00    -0.388 OA
ATOM     13  H   UNL     1     -56.529 118.548 -11.442  1.00  0.00     0.211 HD
ENDBRANCH  11  12
ENDBRANCH   9  11
ENDBRANCH   8   9
BRANCH   8  14
ATOM     14  O   UNL     1     -56.739 121.882  -8.632  1.00  0.00    -0.382 OA
ATOM     15  H   UNL     1     -57.655 121.548  -8.809  1.00  0.00     0.211 HD
ENDBRANCH   8  14
ENDBRANCH   1   8
BRANCH   1  16
ATOM     16  O   UNL     1     -54.010 122.806  -9.710  1.00  0.00    -0.387 OA
ATOM     17  H   UNL     1     -53.876 123.418  -8.939  1.00  0.00     0.211 HD
ENDBRANCH   1  16
TORSDOF 10
ENDMDL
MODEL 3
REMARK VINA RESULT:    -4.725      1.391      2.961
REMARK INTER + INTRA:          -7.844
REMARK INTER:                  -7.133
REMARK INTRA:                  -0.711
REMARK UNBOUND:                -1.048
REMARK SMILES O=C(CO)[C@H](O)[C@H](O)[C@@H](O)CO
REMARK SMILES IDX 7 1 9 2 11 3 12 4 10 6 5 8 2 9 1 10 3 11 4 12 6 14 8 16
REMARK H PARENT 12 5 10 7 4 13 6 15 8 17
REMARK Flexibility Score: inf
ROOT
ATOM      1  C   UNL     1     -55.365 121.881 -11.084  1.00  0.00     0.181 C 
ENDROOT
BRANCH   1   2
ATOM      2  C   UNL     1     -56.184 121.012 -10.086  1.00  0.00     0.171 C 
BRANCH   2   3
ATOM      3  C   UNL     1     -56.911 119.857 -10.796  1.00  0.00     0.190 C 
BRANCH   3   4
ATOM      4  O   UNL     1     -56.029 119.185 -11.655  1.00  0.00    -0.394 OA
ATOM      5  H   UNL     1     -55.169 119.115 -11.166  1.00  0.00     0.210 HD
ENDBRANCH   3   4
ENDBRANCH   2   3
BRANCH   2   6
ATOM      6  O   UNL     1     -57.107 121.788  -9.360  1.00  0.00    -0.388 OA
ATOM      7  H   UNL     1     -57.902 121.935  -9.936  1.00  0.00     0.211 HD
ENDBRANCH   2   6
ENDBRANCH   1   2
BRANCH   1   8
ATOM      8  C   UNL     1     -54.055 122.469 -10.490  1.00  0.00     0.214 C 
BRANCH   8   9
ATOM      9  C   UNL     1     -52.865 121.539 -10.657  1.00  0.00     0.189 C 
ATOM     10  O   UNL     1     -51.969 121.575  -9.825  1.00  0.00    -0.294 OA
BRANCH   9  11
ATOM     11  C   UNL     1     -52.754 120.586 -11.824  1.00  0.00     0.234 C 
BRANCH  11  12
ATOM     12  O   UNL     1     -53.029 119.268 -11.431  1.00  0.00    -0.388 OA
ATOM     13  H   UNL     1     -52.196 118.748 -11.579  1.00  0.00     0.211 HD
ENDBRANCH  11  12
ENDBRANCH   9  11
ENDBRANCH   8   9
BRANCH   8  14
ATOM     14  O   UNL     1     -54.231 122.898  -9.161  1.00  0.00    -0.382 OA
ATOM     15  H   UNL     1     -54.187 123.887  -9.144  1.00  0.00     0.211 HD
ENDBRANCH   8  14
ENDBRANCH   1   8
BRANCH   1  16
ATOM     16  O   UNL     1     -56.171 122.920 -11.581  1.00  0.00    -0.387 OA
ATOM     17  H   UNL     1     -56.253 123.596 -10.857  1.00  0.00     0.211 HD
ENDBRANCH   1  16
TORSDOF 10
ENDMDL
MODEL 4
REMARK VINA RESULT:    -4.600      1.534      3.490
REMARK INTER + INTRA:          -7.665
REMARK INTER:                  -7.259
REMARK INTRA:                  -0.406
REMARK UNBOUND:                -1.048
REMARK SMILES O=C(CO)[C@H](O)[C@H](O)[C@@H](O)CO
REMARK SMILES IDX 7 1 9 2 11 3 12 4 10 6 5 8 2 9 1 10 3 11 4 12 6 14 8 16
REMARK H PARENT 12 5 10 7 4 13 6 15 8 17
REMARK Flexibility Score: inf
ROOT
ATOM      1  C   UNL     1     -53.658 120.530 -11.257  1.00  0.00     0.181 C 
ENDROOT
BRANCH   1   2
ATOM      2  C   UNL     1     -53.519 120.679  -9.714  1.00  0.00     0.171 C 
BRANCH   2   3
ATOM      3  C   UNL     1     -52.968 122.061  -9.320  1.00  0.00     0.190 C 
BRANCH   3   4
ATOM      4  O   UNL     1     -54.010 122.893  -8.888  1.00  0.00    -0.394 OA
ATOM      5  H   UNL     1     -54.169 122.662  -7.936  1.00  0.00     0.210 HD
ENDBRANCH   3   4
ENDBRANCH   2   3
BRANCH   2   6
ATOM      6  O   UNL     1     -52.712 119.665  -9.166  1.00  0.00    -0.388 OA
ATOM      7  H   UNL     1     -51.909 119.568  -9.742  1.00  0.00     0.211 HD
ENDBRANCH   2   6
ENDBRANCH   1   2
BRANCH   1   8
ATOM      8  C   UNL     1     -55.127 120.519 -11.764  1.00  0.00     0.214 C 
BRANCH   8   9
ATOM      9  C   UNL     1     -56.016 121.494 -11.011  1.00  0.00     0.189 C 
ATOM     10  O   UNL     1     -55.996 122.674 -11.329  1.00  0.00    -0.294 OA
BRANCH   9  11
ATOM     11  C   UNL     1     -56.909 121.047  -9.877  1.00  0.00     0.234 C 
BRANCH  11  12
ATOM     12  O   UNL     1     -57.016 122.041  -8.893  1.00  0.00    -0.388 OA
ATOM     13  H   UNL     1     -57.670 121.709  -8.224  1.00  0.00     0.211 HD
ENDBRANCH  11  12
ENDBRANCH   9  11
ENDBRANCH   8   9
BRANCH   8  14
ATOM     14  O   UNL     1     -55.656 119.216 -11.805  1.00  0.00    -0.382 OA
ATOM     15  H   UNL     1     -56.645 119.280 -11.787  1.00  0.00     0.211 HD
ENDBRANCH   8  14
ENDBRANCH   1   8
BRANCH   1  16
ATOM     16  O   UNL     1     -52.999 119.364 -11.682  1.00  0.00    -0.387 OA
ATOM     17  H   UNL     1     -53.697 118.741 -12.018  1.00  0.00     0.211 HD
ENDBRANCH   1  16
TORSDOF 10
ENDMDL
MODEL 5
REMARK VINA RESULT:    -4.599      1.246      3.724
REMARK INTER + INTRA:          -7.663
REMARK INTER:                  -6.702
REMARK INTRA:                  -0.960
REMARK UNBOUND:                -1.048
REMARK SMILES O=C(CO)[C@H](O)[C@H](O)[C@@H](O)CO
REMARK SMILES IDX 7 1 9 2 11 3 12 4 10 6 5 8 2 9 1 10 3 11 4 12 6 14 8 16
REMARK H PARENT 12 5 10 7 4 13 6 15 8 17
REMARK Flexibility Score: inf
ROOT
ATOM      1  C   UNL     1     -54.979 120.811  -9.515  1.00  0.00     0.181 C 
ENDROOT
BRANCH   1   2
ATOM      2  C   UNL     1     -53.583 121.030  -8.863  1.00  0.00     0.171 C 
BRANCH   2   3
ATOM      3  C   UNL     1     -53.001 122.412  -9.209  1.00  0.00     0.190 C 
BRANCH   3   4
ATOM      4  O   UNL     1     -53.782 123.424  -8.633  1.00  0.00    -0.394 OA
ATOM      5  H   UNL     1     -53.426 123.559  -7.717  1.00  0.00     0.210 HD
ENDBRANCH   3   4
ENDBRANCH   2   3
BRANCH   2   6
ATOM      6  O   UNL     1     -52.675 120.020  -9.231  1.00  0.00    -0.388 OA
ATOM      7  H   UNL     1     -53.115 119.143  -9.081  1.00  0.00     0.211 HD
ENDBRANCH   2   6
ENDBRANCH   1   2
BRANCH   1   8
ATOM      8  C   UNL     1     -54.968 120.850 -11.069  1.00  0.00     0.214 C 
BRANCH   8   9
ATOM      9  C   UNL     1     -56.263 121.391 -11.652  1.00  0.00     0.189 C 
ATOM     10  O   UNL     1     -56.333 122.581 -11.926  1.00  0.00    -0.294 OA
BRANCH   9  11
ATOM     11  C   UNL     1     -57.463 120.504 -11.889  1.00  0.00     0.234 C 
BRANCH  11  12
ATOM     12  O   UNL     1     -58.225 120.358 -10.720  1.00  0.00    -0.388 OA
ATOM     13  H   UNL     1     -58.433 121.275 -10.401  1.00  0.00     0.211 HD
ENDBRANCH  11  12
ENDBRANCH   9  11
ENDBRANCH   8   9
BRANCH   8  14
ATOM     14  O   UNL     1     -54.596 119.610 -11.621  1.00  0.00    -0.382 OA
ATOM     15  H   UNL     1     -55.070 119.498 -12.483  1.00  0.00     0.211 HD
ENDBRANCH   8  14
ENDBRANCH   1   8
BRANCH   1  16
ATOM     16  O   UNL     1     -55.888 121.763  -9.022  1.00  0.00    -0.387 OA
ATOM     17  H   UNL     1     -56.052 122.415  -9.754  1.00  0.00     0.211 HD
ENDBRANCH   1  16
TORSDOF 10
ENDMDL
MODEL 6
REMARK VINA RESULT:    -4.562      1.371      1.918
REMARK INTER + INTRA:          -7.610
REMARK INTER:                  -6.633
REMARK INTRA:                  -0.976
REMARK UNBOUND:                -1.048
REMARK SMILES O=C(CO)[C@H](O)[C@H](O)[C@@H](O)CO
REMARK SMILES IDX 7 1 9 2 11 3 12 4 10 6 5 8 2 9 1 10 3 11 4 12 6 14 8 16
REMARK H PARENT 12 5 10 7 4 13 6 15 8 17
REMARK Flexibility Score: inf
ROOT
ATOM      1  C   UNL     1     -55.765 121.738 -11.401  1.00  0.00     0.181 C 
ENDROOT
BRANCH   1   2
ATOM      2  C   UNL     1     -56.274 120.317 -11.782  1.00  0.00     0.171 C 
BRANCH   2   3
ATOM      3  C   UNL     1     -57.120 119.692 -10.659  1.00  0.00     0.190 C 
BRANCH   3   4
ATOM      4  O   UNL     1     -58.358 120.344 -10.565  1.00  0.00    -0.394 OA
ATOM      5  H   UNL     1     -59.039 119.630 -10.466  1.00  0.00     0.210 HD
ENDBRANCH   3   4
ENDBRANCH   2   3
BRANCH   2   6
ATOM      6  O   UNL     1     -55.211 119.459 -12.118  1.00  0.00    -0.388 OA
ATOM      7  H   UNL     1     -54.379 120.000 -12.150  1.00  0.00     0.211 HD
ENDBRANCH   2   6
ENDBRANCH   1   2
BRANCH   1   8
ATOM      8  C   UNL     1     -54.222 121.840 -11.243  1.00  0.00     0.214 C 
BRANCH   8   9
ATOM      9  C   UNL     1     -53.781 121.865  -9.790  1.00  0.00     0.189 C 
ATOM     10  O   UNL     1     -53.791 122.932  -9.191  1.00  0.00    -0.294 OA
BRANCH   9  11
ATOM     11  C   UNL     1     -53.321 120.618  -9.072  1.00  0.00     0.234 C 
BRANCH  11  12
ATOM     12  O   UNL     1     -53.325 119.508  -9.930  1.00  0.00    -0.388 OA
ATOM     13  H   UNL     1     -53.021 119.834 -10.817  1.00  0.00     0.211 HD
ENDBRANCH  11  12
ENDBRANCH   9  11
ENDBRANCH   8   9
BRANCH   8  14
ATOM     14  O   UNL     1     -53.689 122.903 -11.995  1.00  0.00    -0.382 OA
ATOM     15  H   UNL     1     -53.828 122.706 -12.956  1.00  0.00     0.211 HD
ENDBRANCH   8  14
ENDBRANCH   1   8
BRANCH   1  16
ATOM     16  O   UNL     1     -56.393 122.166 -10.218  1.00  0.00    -0.387 OA
ATOM     17  H   UNL     1     -55.834 121.848  -9.461  1.00  0.00     0.211 HD
ENDBRANCH   1  16
TORSDOF 10
ENDMDL
MODEL 7
REMARK VINA RESULT:    -4.420      1.326      2.067
REMARK INTER + INTRA:          -7.406
REMARK INTER:                  -6.282
REMARK INTRA:                  -1.124
REMARK UNBOUND:                -1.048
REMARK SMILES O=C(CO)[C@H](O)[C@H](O)[C@@H](O)CO
REMARK SMILES IDX 7 1 9 2 11 3 12 4 10 6 5 8 2 9 1 10 3 11 4 12 6 14 8 16
REMARK H PARENT 12 5 10 7 4 13 6 15 8 17
REMARK Flexibility Score: inf
ROOT
ATOM      1  C   UNL     1     -55.923 121.604 -11.044  1.00  0.00     0.181 C 
ENDROOT
BRANCH   1   2
ATOM      2  C   UNL     1     -56.332 120.477 -12.035  1.00  0.00     0.171 C 
BRANCH   2   3
ATOM      3  C   UNL     1     -57.854 120.245 -12.042  1.00  0.00     0.190 C 
BRANCH   3   4
ATOM      4  O   UNL     1     -58.354 120.280 -10.733  1.00  0.00    -0.394 OA
ATOM      5  H   UNL     1     -59.257 120.685 -10.794  1.00  0.00     0.210 HD
ENDBRANCH   3   4
ENDBRANCH   2   3
BRANCH   2   6
ATOM      6  O   UNL     1     -55.664 119.271 -11.753  1.00  0.00    -0.388 OA
ATOM      7  H   UNL     1     -55.400 119.284 -10.796  1.00  0.00     0.211 HD
ENDBRANCH   2   6
ENDBRANCH   1   2
BRANCH   1   8
ATOM      8  C   UNL     1     -54.514 122.203 -11.309  1.00  0.00     0.214 C 
BRANCH   8   9
ATOM      9  C   UNL     1     -53.458 121.660 -10.360  1.00  0.00     0.189 C 
ATOM     10  O   UNL     1     -53.057 120.516 -10.519  1.00  0.00    -0.294 OA
BRANCH   9  11
ATOM     11  C   UNL     1     -52.902 122.488  -9.226  1.00  0.00     0.234 C 
BRANCH  11  12
ATOM     12  O   UNL     1     -53.910 123.244  -8.608  1.00  0.00    -0.388 OA
ATOM     13  H   UNL     1     -54.593 122.599  -8.288  1.00  0.00     0.211 HD
ENDBRANCH  11  12
ENDBRANCH   9  11
ENDBRANCH   8   9
BRANCH   8  14
ATOM     14  O   UNL     1     -54.542 123.610 -11.348  1.00  0.00    -0.382 OA
ATOM     15  H   UNL     1     -54.554 123.895 -12.296  1.00  0.00     0.211 HD
ENDBRANCH   8  14
ENDBRANCH   1   8
BRANCH   1  16
ATOM     16  O   UNL     1     -55.997 121.127  -9.724  1.00  0.00    -0.387 OA
ATOM     17  H   UNL     1     -56.722 121.632  -9.272  1.00  0.00     0.211 HD
ENDBRANCH   1  16
TORSDOF 10
ENDMDL
MODEL 8
REMARK VINA RESULT:    -4.411      1.779      3.232
REMARK INTER + INTRA:          -7.392
REMARK INTER:                  -6.597
REMARK INTRA:                  -0.795
REMARK UNBOUND:                -1.048
REMARK SMILES O=C(CO)[C@H](O)[C@H](O)[C@@H](O)CO
REMARK SMILES IDX 7 1 9 2 11 3 12 4 10 6 5 8 2 9 1 10 3 11 4 12 6 14 8 16
REMARK H PARENT 12 5 10 7 4 13 6 15 8 17
REMARK Flexibility Score: inf
ROOT
ATOM      1  C   UNL     1     -54.948 121.277 -10.496  1.00  0.00     0.181 C 
ENDROOT
BRANCH   1   2
ATOM      2  C   UNL     1     -56.244 120.725  -9.835  1.00  0.00     0.171 C 
BRANCH   2   3
ATOM      3  C   UNL     1     -57.030 119.812 -10.793  1.00  0.00     0.190 C 
BRANCH   3   4
ATOM      4  O   UNL     1     -56.146 119.048 -11.567  1.00  0.00    -0.394 OA
ATOM      5  H   UNL     1     -55.357 119.625 -11.735  1.00  0.00     0.210 HD
ENDBRANCH   3   4
ENDBRANCH   2   3
BRANCH   2   6
ATOM      6  O   UNL     1     -57.073 121.763  -9.372  1.00  0.00    -0.388 OA
ATOM      7  H   UNL     1     -56.715 122.074  -8.499  1.00  0.00     0.211 HD
ENDBRANCH   2   6
ENDBRANCH   1   2
BRANCH   1   8
ATOM      8  C   UNL     1     -53.634 120.715  -9.886  1.00  0.00     0.214 C 
BRANCH   8   9
ATOM      9  C   UNL     1     -52.471 121.687 -10.000  1.00  0.00     0.189 C 
ATOM     10  O   UNL     1     -52.280 122.484  -9.093  1.00  0.00    -0.294 OA
BRANCH   9  11
ATOM     11  C   UNL     1     -51.558 121.702 -11.203  1.00  0.00     0.234 C 
BRANCH  11  12
ATOM     12  O   UNL     1     -50.608 120.671 -11.134  1.00  0.00    -0.388 OA
ATOM     13  H   UNL     1     -51.082 119.873 -10.782  1.00  0.00     0.211 HD
ENDBRANCH  11  12
ENDBRANCH   9  11
ENDBRANCH   8   9
BRANCH   8  14
ATOM     14  O   UNL     1     -53.328 119.437 -10.389  1.00  0.00    -0.382 OA
ATOM     15  H   UNL     1     -53.308 118.800  -9.631  1.00  0.00     0.211 HD
ENDBRANCH   8  14
ENDBRANCH   1   8
BRANCH   1  16
ATOM     16  O   UNL     1     -54.941 122.681 -10.429  1.00  0.00    -0.387 OA
ATOM     17  H   UNL     1     -55.831 122.960 -10.086  1.00  0.00     0.211 HD
ENDBRANCH   1  16
TORSDOF 10
ENDMDL
MODEL 9
REMARK VINA RESULT:    -4.391      1.755      3.054
REMARK INTER + INTRA:          -7.363
REMARK INTER:                  -6.332
REMARK INTRA:                  -1.032
REMARK UNBOUND:                -1.048
REMARK SMILES O=C(CO)[C@H](O)[C@H](O)[C@@H](O)CO
REMARK SMILES IDX 7 1 9 2 11 3 12 4 10 6 5 8 2 9 1 10 3 11 4 12 6 14 8 16
REMARK H PARENT 12 5 10 7 4 13 6 15 8 17
REMARK Flexibility Score: inf
ROOT
ATOM      1  C   UNL     1     -54.812 121.273 -11.443  1.00  0.00     0.181 C 
ENDROOT
BRANCH   1   2
ATOM      2  C   UNL     1     -56.167 120.524 -11.284  1.00  0.00     0.171 C 
BRANCH   2   3
ATOM      3  C   UNL     1     -56.657 120.531  -9.825  1.00  0.00     0.190 C 
BRANCH   3   4
ATOM      4  O   UNL     1     -57.138 121.803  -9.483  1.00  0.00    -0.394 OA
ATOM      5  H   UNL     1     -57.168 122.322 -10.328  1.00  0.00     0.210 HD
ENDBRANCH   3   4
ENDBRANCH   2   3
BRANCH   2   6
ATOM      6  O   UNL     1     -56.086 119.201 -11.757  1.00  0.00    -0.388 OA
ATOM      7  H   UNL     1     -55.198 118.838 -11.501  1.00  0.00     0.211 HD
ENDBRANCH   2   6
ENDBRANCH   1   2
BRANCH   1   8
ATOM      8  C   UNL     1     -53.620 120.594 -10.713  1.00  0.00     0.214 C 
BRANCH   8   9
ATOM      9  C   UNL     1     -52.517 121.574 -10.352  1.00  0.00     0.189 C 
ATOM     10  O   UNL     1     -52.567 122.143  -9.270  1.00  0.00    -0.294 OA
BRANCH   9  11
ATOM     11  C   UNL     1     -51.374 121.873 -11.293  1.00  0.00     0.234 C 
BRANCH  11  12
ATOM     12  O   UNL     1     -50.544 120.754 -11.455  1.00  0.00    -0.388 OA
ATOM     13  H   UNL     1     -50.025 120.904 -12.288  1.00  0.00     0.211 HD
ENDBRANCH  11  12
ENDBRANCH   9  11
ENDBRANCH   8   9
BRANCH   8  14
ATOM     14  O   UNL     1     -53.145 119.473 -11.420  1.00  0.00    -0.382 OA
ATOM     15  H   UNL     1     -52.337 119.743 -11.926  1.00  0.00     0.211 HD
ENDBRANCH   8  14
ENDBRANCH   1   8
BRANCH   1  16
ATOM     16  O   UNL     1     -54.948 122.600 -10.998  1.00  0.00    -0.387 OA
ATOM     17  H   UNL     1     -54.459 122.669 -10.136  1.00  0.00     0.211 HD
ENDBRANCH   1  16
TORSDOF 10
ENDMDL
