MODEL 1
REMARK VINA RESULT:    -4.343      0.000      0.000
REMARK INTER + INTRA:          -5.023
REMARK INTER:                  -4.978
REMARK INTRA:                  -0.046
REMARK UNBOUND:                -0.046
REMARK SMILES CC(C)[C@@H]([NH3+])C(=O)[O-]
REMARK SMILES IDX 4 1 5 2 6 6 7 7 8 8 2 9 1 10 3 11
REMARK H PARENT 5 3 5 4 5 5
REMARK Flexibility Score: inf
ROOT
ATOM      1  C   UNL     1      24.545  -3.991 -32.367  1.00  0.00     0.230 C 
ENDROOT
BRANCH   1   2
ATOM      2  N   UNL     1      24.695  -3.639 -30.948  1.00  0.00    -0.350 N 
ATOM      3  H   UNL     1      25.706  -3.583 -30.684  1.00  0.00     0.345 HD
ATOM      4  H   UNL     1      24.215  -4.346 -30.347  1.00  0.00     0.345 HD
ATOM      5  H   UNL     1      24.242  -2.715 -30.755  1.00  0.00     0.345 HD
ENDBRANCH   1   2
BRANCH   1   6
ATOM      6  C   UNL     1      23.113  -3.773 -32.792  1.00  0.00     0.099 C 
ATOM      7  O   UNL     1      22.432  -4.728 -33.251  1.00  0.00    -0.544 OA
ATOM      8  O   UNL     1      22.537  -2.515 -32.670  1.00  0.00    -0.544 OA
ENDBRANCH   1   6
BRANCH   1   9
ATOM      9  C   UNL     1      25.522  -3.180 -33.274  1.00  0.00     0.047 C 
ATOM     10  C   UNL     1      26.204  -4.089 -34.311  1.00  0.00     0.014 C 
ATOM     11  C   UNL     1      26.601  -2.457 -32.451  1.00  0.00     0.014 C 
ENDBRANCH   1   9
TORSDOF 3
ENDMDL
MODEL 2
REMARK VINA RESULT:    -4.253      1.469      1.783
REMARK INTER + INTRA:          -4.920
REMARK INTER:                  -4.867
REMARK INTRA:                  -0.053
REMARK UNBOUND:                -0.046
REMARK SMILES CC(C)[C@@H]([NH3+])C(=O)[O-]
REMARK SMILES IDX 4 1 5 2 6 6 7 7 8 8 2 9 1 10 3 11
REMARK H PARENT 5 3 5 4 5 5
REMARK Flexibility Score: inf
ROOT
ATOM      1  C   UNL     1      24.126  -3.023 -32.282  1.00  0.00     0.230 C 
ENDROOT
BRANCH   1   2
ATOM      2  N   UNL     1      24.458  -3.574 -30.960  1.00  0.00    -0.350 N 
ATOM      3  H   UNL     1      25.231  -3.027 -30.514  1.00  0.00     0.345 HD
ATOM      4  H   UNL     1      24.741  -4.576 -31.045  1.00  0.00     0.345 HD
ATOM      5  H   UNL     1      23.618  -3.544 -30.336  1.00  0.00     0.345 HD
ENDBRANCH   1   2
BRANCH   1   6
ATOM      6  C   UNL     1      23.442  -1.689 -32.115  1.00  0.00     0.099 C 
ATOM      7  O   UNL     1      22.632  -1.274 -32.986  1.00  0.00    -0.544 OA
ATOM      8  O   UNL     1      23.700  -0.913 -30.991  1.00  0.00    -0.544 OA
ENDBRANCH   1   6
BRANCH   1   9
ATOM      9  C   UNL     1      25.387  -2.891 -33.191  1.00  0.00     0.047 C 
ATOM     10  C   UNL     1      25.728  -4.227 -33.872  1.00  0.00     0.014 C 
ATOM     11  C   UNL     1      26.614  -2.401 -32.401  1.00  0.00     0.014 C 
ENDBRANCH   1   9
TORSDOF 3
ENDMDL
MODEL 3
REMARK VINA RESULT:    -4.177      1.967      2.764
REMARK INTER + INTRA:          -4.833
REMARK INTER:                  -4.777
REMARK INTRA:                  -0.056
REMARK UNBOUND:                -0.046
REMARK SMILES CC(C)[C@@H]([NH3+])C(=O)[O-]
REMARK SMILES IDX 4 1 5 2 6 6 7 7 8 8 2 9 1 10 3 11
REMARK H PARENT 5 3 5 4 5 5
REMARK Flexibility Score: inf
ROOT
ATOM      1  C   UNL     1      25.231  -3.171 -32.157  1.00  0.00     0.230 C 
ENDROOT
BRANCH   1   2
ATOM      2  N   UNL     1      24.450  -3.574 -30.979  1.00  0.00    -0.350 N 
ATOM      3  H   UNL     1      23.434  -3.365 -31.119  1.00  0.00     0.345 HD
ATOM      4  H   UNL     1      24.795  -3.076 -30.128  1.00  0.00     0.345 HD
ATOM      5  H   UNL     1      24.565  -4.599 -30.803  1.00  0.00     0.345 HD
ENDBRANCH   1   2
BRANCH   1   6
ATOM      6  C   UNL     1      25.081  -4.212 -33.240  1.00  0.00     0.099 C 
ATOM      7  O   UNL     1      25.963  -4.337 -34.131  1.00  0.00    -0.544 OA
ATOM      8  O   UNL     1      23.968  -5.043 -33.255  1.00  0.00    -0.544 OA
ENDBRANCH   1   6
BRANCH   1   9
ATOM      9  C   UNL     1      24.813  -1.762 -32.680  1.00  0.00     0.047 C 
ATOM     10  C   UNL     1      25.416  -0.644 -31.812  1.00  0.00     0.014 C 
ATOM     11  C   UNL     1      23.284  -1.597 -32.722  1.00  0.00     0.014 C 
ENDBRANCH   1   9
TORSDOF 3
ENDMDL
MODEL 4
REMARK VINA RESULT:    -4.176     17.354     18.251
REMARK INTER + INTRA:          -4.831
REMARK INTER:                  -4.815
REMARK INTRA:                  -0.016
REMARK UNBOUND:                -0.046
REMARK SMILES CC(C)[C@@H]([NH3+])C(=O)[O-]
REMARK SMILES IDX 4 1 5 2 6 6 7 7 8 8 2 9 1 10 3 11
REMARK H PARENT 5 3 5 4 5 5
REMARK Flexibility Score: inf
ROOT
ATOM      1  C   UNL     1      13.387  -9.028 -46.077  1.00  0.00     0.230 C 
ENDROOT
BRANCH   1   2
ATOM      2  N   UNL     1      14.389  -9.725 -46.896  1.00  0.00    -0.350 N 
ATOM      3  H   UNL     1      14.123 -10.728 -47.033  1.00  0.00     0.345 HD
ATOM      4  H   UNL     1      15.329  -9.671 -46.443  1.00  0.00     0.345 HD
ATOM      5  H   UNL     1      14.472  -9.265 -47.833  1.00  0.00     0.345 HD
ENDBRANCH   1   2
BRANCH   1   6
ATOM      6  C   UNL     1      12.016  -9.582 -46.379  1.00  0.00     0.099 C 
ATOM      7  O   UNL     1      11.665 -10.701 -45.920  1.00  0.00    -0.544 OA
ATOM      8  O   UNL     1      11.130  -8.852 -47.163  1.00  0.00    -0.544 OA
ENDBRANCH   1   6
BRANCH   1   9
ATOM      9  C   UNL     1      13.704  -9.133 -44.553  1.00  0.00     0.047 C 
ATOM     10  C   UNL     1      14.353  -7.841 -44.028  1.00  0.00     0.014 C 
ATOM     11  C   UNL     1      14.628 -10.323 -44.241  1.00  0.00     0.014 C 
ENDBRANCH   1   9
TORSDOF 3
ENDMDL
MODEL 5
REMARK VINA RESULT:    -4.035     16.569     17.408
REMARK INTER + INTRA:          -4.670
REMARK INTER:                  -4.606
REMARK INTRA:                  -0.064
REMARK UNBOUND:                -0.046
REMARK SMILES CC(C)[C@@H]([NH3+])C(=O)[O-]
REMARK SMILES IDX 4 1 5 2 6 6 7 7 8 8 2 9 1 10 3 11
REMARK H PARENT 5 3 5 4 5 5
REMARK Flexibility Score: inf
ROOT
ATOM      1  C   UNL     1      13.928  -9.637 -44.989  1.00  0.00     0.230 C 
ENDROOT
BRANCH   1   2
ATOM      2  N   UNL     1      13.532  -9.792 -43.581  1.00  0.00    -0.350 N 
ATOM      3  H   UNL     1      13.530  -8.866 -43.093  1.00  0.00     0.345 HD
ATOM      4  H   UNL     1      14.184 -10.445 -43.091  1.00  0.00     0.345 HD
ATOM      5  H   UNL     1      12.575 -10.210 -43.520  1.00  0.00     0.345 HD
ENDBRANCH   1   2
BRANCH   1   6
ATOM      6  C   UNL     1      12.699  -9.682 -45.865  1.00  0.00     0.099 C 
ATOM      7  O   UNL     1      12.410  -8.707 -46.608  1.00  0.00    -0.544 OA
ATOM      8  O   UNL     1      11.884 -10.807 -45.859  1.00  0.00    -0.544 OA
ENDBRANCH   1   6
BRANCH   1   9
ATOM      9  C   UNL     1      14.731  -8.322 -45.227  1.00  0.00     0.047 C 
ATOM     10  C   UNL     1      16.192  -8.621 -45.605  1.00  0.00     0.014 C 
ATOM     11  C   UNL     1      14.708  -7.404 -43.992  1.00  0.00     0.014 C 
ENDBRANCH   1   9
TORSDOF 3
ENDMDL
MODEL 6
REMARK VINA RESULT:    -3.989     15.704     16.462
REMARK INTER + INTRA:          -4.618
REMARK INTER:                  -4.811
REMARK INTRA:                   0.193
REMARK UNBOUND:                -0.046
REMARK SMILES CC(C)[C@@H]([NH3+])C(=O)[O-]
REMARK SMILES IDX 4 1 5 2 6 6 7 7 8 8 2 9 1 10 3 11
REMARK H PARENT 5 3 5 4 5 5
REMARK Flexibility Score: inf
ROOT
ATOM      1  C   UNL     1      13.766  -9.655 -44.464  1.00  0.00     0.230 C 
ENDROOT
BRANCH   1   2
ATOM      2  N   UNL     1      13.573 -10.229 -45.804  1.00  0.00    -0.350 N 
ATOM      3  H   UNL     1      13.075 -11.147 -45.746  1.00  0.00     0.345 HD
ATOM      4  H   UNL     1      14.495 -10.360 -46.278  1.00  0.00     0.345 HD
ATOM      5  H   UNL     1      13.012  -9.575 -46.398  1.00  0.00     0.345 HD
ENDBRANCH   1   2
BRANCH   1   6
ATOM      6  C   UNL     1      14.632 -10.578 -43.641  1.00  0.00     0.099 C 
ATOM      7  O   UNL     1      14.351 -10.810 -42.436  1.00  0.00    -0.544 OA
ATOM      8  O   UNL     1      15.744 -11.181 -44.216  1.00  0.00    -0.544 OA
ENDBRANCH   1   6
BRANCH   1   9
ATOM      9  C   UNL     1      14.381  -8.224 -44.526  1.00  0.00     0.047 C 
ATOM     10  C   UNL     1      15.717  -8.223 -45.289  1.00  0.00     0.014 C 
ATOM     11  C   UNL     1      14.604  -7.634 -43.122  1.00  0.00     0.014 C 
ENDBRANCH   1   9
TORSDOF 3
ENDMDL
MODEL 7
REMARK VINA RESULT:    -3.976      8.457      8.988
REMARK INTER + INTRA:          -4.603
REMARK INTER:                  -4.629
REMARK INTRA:                   0.026
REMARK UNBOUND:                -0.046
REMARK SMILES CC(C)[C@@H]([NH3+])C(=O)[O-]
REMARK SMILES IDX 4 1 5 2 6 6 7 7 8 8 2 9 1 10 3 11
REMARK H PARENT 5 3 5 4 5 5
REMARK Flexibility Score: inf
ROOT
ATOM      1  C   UNL     1      16.886  -1.101 -33.575  1.00  0.00     0.230 C 
ENDROOT
BRANCH   1   2
ATOM      2  N   UNL     1      17.326  -2.468 -33.889  1.00  0.00    -0.350 N 
ATOM      3  H   UNL     1      16.770  -2.862 -34.684  1.00  0.00     0.345 HD
ATOM      4  H   UNL     1      17.224  -3.083 -33.051  1.00  0.00     0.345 HD
ATOM      5  H   UNL     1      18.339  -2.469 -34.150  1.00  0.00     0.345 HD
ENDBRANCH   1   2
BRANCH   1   6
ATOM      6  C   UNL     1      16.087  -0.550 -34.731  1.00  0.00     0.099 C 
ATOM      7  O   UNL     1      15.695  -1.312 -35.655  1.00  0.00    -0.544 OA
ATOM      8  O   UNL     1      15.773   0.802 -34.776  1.00  0.00    -0.544 OA
ENDBRANCH   1   6
BRANCH   1   9
ATOM      9  C   UNL     1      16.060  -1.044 -32.252  1.00  0.00     0.047 C 
ATOM     10  C   UNL     1      16.268   0.294 -31.522  1.00  0.00     0.014 C 
ATOM     11  C   UNL     1      16.422  -2.197 -31.301  1.00  0.00     0.014 C 
ENDBRANCH   1   9
TORSDOF 3
ENDMDL
MODEL 8
REMARK VINA RESULT:    -3.949     15.942     16.888
REMARK INTER + INTRA:          -4.572
REMARK INTER:                  -4.685
REMARK INTRA:                   0.113
REMARK UNBOUND:                -0.046
REMARK SMILES CC(C)[C@@H]([NH3+])C(=O)[O-]
REMARK SMILES IDX 4 1 5 2 6 6 7 7 8 8 2 9 1 10 3 11
REMARK H PARENT 5 3 5 4 5 5
REMARK Flexibility Score: inf
ROOT
ATOM      1  C   UNL     1      13.884  -9.347 -44.181  1.00  0.00     0.230 C 
ENDROOT
BRANCH   1   2
ATOM      2  N   UNL     1      14.841 -10.462 -44.129  1.00  0.00    -0.350 N 
ATOM      3  H   UNL     1      15.121 -10.664 -43.141  1.00  0.00     0.345 HD
ATOM      4  H   UNL     1      15.691 -10.237 -44.695  1.00  0.00     0.345 HD
ATOM      5  H   UNL     1      14.415 -11.323 -44.545  1.00  0.00     0.345 HD
ENDBRANCH   1   2
BRANCH   1   6
ATOM      6  C   UNL     1      14.526  -8.105 -43.614  1.00  0.00     0.099 C 
ATOM      7  O   UNL     1      14.493  -7.879 -42.375  1.00  0.00    -0.544 OA
ATOM      8  O   UNL     1      15.164  -7.205 -44.458  1.00  0.00    -0.544 OA
ENDBRANCH   1   6
BRANCH   1   9
ATOM      9  C   UNL     1      13.366  -9.091 -45.630  1.00  0.00     0.047 C 
ATOM     10  C   UNL     1      12.126  -9.947 -45.939  1.00  0.00     0.014 C 
ATOM     11  C   UNL     1      14.449  -9.376 -46.685  1.00  0.00     0.014 C 
ENDBRANCH   1   9
TORSDOF 3
ENDMDL
MODEL 9
REMARK VINA RESULT:    -3.890      2.375      2.947
REMARK INTER + INTRA:          -4.504
REMARK INTER:                  -4.488
REMARK INTRA:                  -0.016
REMARK UNBOUND:                -0.046
REMARK SMILES CC(C)[C@@H]([NH3+])C(=O)[O-]
REMARK SMILES IDX 4 1 5 2 6 6 7 7 8 8 2 9 1 10 3 11
REMARK H PARENT 5 3 5 4 5 5
REMARK Flexibility Score: inf
ROOT
ATOM      1  C   UNL     1      23.638  -2.184 -32.310  1.00  0.00     0.230 C 
ENDROOT
BRANCH   1   2
ATOM      2  N   UNL     1      22.321  -2.790 -32.550  1.00  0.00    -0.350 N 
ATOM      3  H   UNL     1      22.288  -3.766 -32.175  1.00  0.00     0.345 HD
ATOM      4  H   UNL     1      22.107  -2.800 -33.573  1.00  0.00     0.345 HD
ATOM      5  H   UNL     1      21.573  -2.223 -32.086  1.00  0.00     0.345 HD
ENDBRANCH   1   2
BRANCH   1   6
ATOM      6  C   UNL     1      23.575  -1.312 -31.080  1.00  0.00     0.099 C 
ATOM      7  O   UNL     1      22.831  -1.627 -30.113  1.00  0.00    -0.544 OA
ATOM      8  O   UNL     1      24.346  -0.158 -31.006  1.00  0.00    -0.544 OA
ENDBRANCH   1   6
BRANCH   1   9
ATOM      9  C   UNL     1      24.758  -3.260 -32.171  1.00  0.00     0.047 C 
ATOM     10  C   UNL     1      26.146  -2.662 -32.457  1.00  0.00     0.014 C 
ATOM     11  C   UNL     1      24.523  -4.457 -33.109  1.00  0.00     0.014 C 
ENDBRANCH   1   9
TORSDOF 3
ENDMDL
