MODEL 1
REMARK VINA RESULT:    -3.348      0.000      0.000
REMARK INTER + INTRA:          -4.714
REMARK INTER:                  -4.522
REMARK INTRA:                  -0.192
REMARK UNBOUND:                -0.192
REMARK SMILES CCCCCCCC(=O)[O-]
REMARK SMILES IDX 5 1 6 2 7 3 8 4 9 5 10 6 4 7 3 8 2 9 1 10
REMARK H PARENT
REMARK Flexibility Score: inf
ROOT
ATOM      1  C   UNL     1      16.260  -5.079  14.150  1.00  0.00     0.000 C 
ENDROOT
BRANCH   1   2
ATOM      2  C   UNL     1      15.902  -4.938  12.660  1.00  0.00     0.006 C 
BRANCH   2   3
ATOM      3  C   UNL     1      15.717  -6.281  11.933  1.00  0.00     0.053 C 
BRANCH   3   4
ATOM      4  C   UNL     1      15.333  -6.108  10.495  1.00  0.00     0.041 C 
ATOM      5  O   UNL     1      16.158  -5.633   9.671  1.00  0.00    -0.550 OA
ATOM      6  O   UNL     1      14.051  -6.437  10.070  1.00  0.00    -0.550 OA
ENDBRANCH   3   4
ENDBRANCH   2   3
ENDBRANCH   1   2
BRANCH   1   7
ATOM      7  C   UNL     1      16.036  -3.784  14.949  1.00  0.00     0.000 C 
BRANCH   7   8
ATOM      8  C   UNL     1      15.647  -2.597  14.052  1.00  0.00    -0.000 C 
BRANCH   8   9
ATOM      9  C   UNL     1      15.358  -1.321  14.857  1.00  0.00    -0.003 C 
ATOM     10  C   UNL     1      16.477  -0.298  14.683  1.00  0.00     0.004 C 
ENDBRANCH   8   9
ENDBRANCH   7   8
ENDBRANCH   1   7
TORSDOF 6
ENDMDL
MODEL 2
REMARK VINA RESULT:    -3.282      3.608      5.765
REMARK INTER + INTRA:          -4.625
REMARK INTER:                  -4.412
REMARK INTRA:                  -0.213
REMARK UNBOUND:                -0.192
REMARK SMILES CCCCCCCC(=O)[O-]
REMARK SMILES IDX 5 1 6 2 7 3 8 4 9 5 10 6 4 7 3 8 2 9 1 10
REMARK H PARENT
REMARK Flexibility Score: inf
ROOT
ATOM      1  C   UNL     1      15.918  -4.099  13.547  1.00  0.00     0.000 C 
ENDROOT
BRANCH   1   2
ATOM      2  C   UNL     1      15.902  -3.208  14.802  1.00  0.00     0.006 C 
BRANCH   2   3
ATOM      3  C   UNL     1      15.469  -1.756  14.530  1.00  0.00     0.053 C 
BRANCH   3   4
ATOM      4  C   UNL     1      16.508  -0.760  14.949  1.00  0.00     0.041 C 
ATOM      5  O   UNL     1      16.286   0.474  14.830  1.00  0.00    -0.550 OA
ATOM      6  O   UNL     1      17.735  -1.193  15.437  1.00  0.00    -0.550 OA
ENDBRANCH   3   4
ENDBRANCH   2   3
ENDBRANCH   1   2
BRANCH   1   7
ATOM      7  C   UNL     1      15.946  -5.601  13.876  1.00  0.00     0.000 C 
BRANCH   7   8
ATOM      8  C   UNL     1      15.715  -6.482  12.637  1.00  0.00    -0.000 C 
BRANCH   8   9
ATOM      9  C   UNL     1      15.609  -5.662  11.343  1.00  0.00    -0.003 C 
ATOM     10  C   UNL     1      14.813  -6.414  10.280  1.00  0.00     0.004 C 
ENDBRANCH   8   9
ENDBRANCH   7   8
ENDBRANCH   1   7
TORSDOF 6
ENDMDL
MODEL 3
REMARK VINA RESULT:    -3.197      4.052      6.088
REMARK INTER + INTRA:          -4.510
REMARK INTER:                  -4.155
REMARK INTRA:                  -0.355
REMARK UNBOUND:                -0.192
REMARK SMILES CCCCCCCC(=O)[O-]
REMARK SMILES IDX 5 1 6 2 7 3 8 4 9 5 10 6 4 7 3 8 2 9 1 10
REMARK H PARENT
REMARK Flexibility Score: inf
ROOT
ATOM      1  C   UNL     1      15.981   1.157  16.815  1.00  0.00     0.000 C 
ENDROOT
BRANCH   1   2
ATOM      2  C   UNL     1      16.749   0.020  16.116  1.00  0.00     0.006 C 
BRANCH   2   3
ATOM      3  C   UNL     1      16.259  -0.277  14.688  1.00  0.00     0.053 C 
BRANCH   3   4
ATOM      4  C   UNL     1      15.421  -1.517  14.615  1.00  0.00     0.041 C 
ATOM      5  O   UNL     1      15.356  -2.175  13.543  1.00  0.00    -0.550 OA
ATOM      6  O   UNL     1      14.682  -1.928  15.718  1.00  0.00    -0.550 OA
ENDBRANCH   3   4
ENDBRANCH   2   3
ENDBRANCH   1   2
BRANCH   1   7
ATOM      7  C   UNL     1      15.048   1.926  15.865  1.00  0.00     0.000 C 
BRANCH   7   8
ATOM      8  C   UNL     1      15.510   3.373  15.626  1.00  0.00    -0.000 C 
BRANCH   8   9
ATOM      9  C   UNL     1      16.099   3.579  14.223  1.00  0.00    -0.003 C 
ATOM     10  C   UNL     1      16.834   4.913  14.127  1.00  0.00     0.004 C 
ENDBRANCH   8   9
ENDBRANCH   7   8
ENDBRANCH   1   7
TORSDOF 6
ENDMDL
MODEL 4
REMARK VINA RESULT:    -3.104     12.642     13.606
REMARK INTER + INTRA:          -4.385
REMARK INTER:                  -4.164
REMARK INTRA:                  -0.220
REMARK UNBOUND:                -0.192
REMARK SMILES CCCCCCCC(=O)[O-]
REMARK SMILES IDX 5 1 6 2 7 3 8 4 9 5 10 6 4 7 3 8 2 9 1 10
REMARK H PARENT
REMARK Flexibility Score: inf
ROOT
ATOM      1  C   UNL     1      26.198   1.138   7.451  1.00  0.00     0.000 C 
ENDROOT
BRANCH   1   2
ATOM      2  C   UNL     1      25.043   1.384   6.463  1.00  0.00     0.006 C 
BRANCH   2   3
ATOM      3  C   UNL     1      24.613   2.857   6.360  1.00  0.00     0.053 C 
BRANCH   3   4
ATOM      4  C   UNL     1      23.271   3.021   5.712  1.00  0.00     0.041 C 
ATOM      5  O   UNL     1      23.173   3.589   4.593  1.00  0.00    -0.550 OA
ATOM      6  O   UNL     1      22.124   2.579   6.361  1.00  0.00    -0.550 OA
ENDBRANCH   3   4
ENDBRANCH   2   3
ENDBRANCH   1   2
BRANCH   1   7
ATOM      7  C   UNL     1      27.519   1.786   7.005  1.00  0.00     0.000 C 
BRANCH   7   8
ATOM      8  C   UNL     1      28.573   1.811   8.124  1.00  0.00    -0.000 C 
BRANCH   8   9
ATOM      9  C   UNL     1      27.943   1.837   9.525  1.00  0.00    -0.003 C 
ATOM     10  C   UNL     1      28.970   2.236  10.581  1.00  0.00     0.004 C 
ENDBRANCH   8   9
ENDBRANCH   7   8
ENDBRANCH   1   7
TORSDOF 6
ENDMDL
MODEL 5
REMARK VINA RESULT:    -3.067     19.259     20.735
REMARK INTER + INTRA:          -4.334
REMARK INTER:                  -3.735
REMARK INTRA:                  -0.600
REMARK UNBOUND:                -0.192
REMARK SMILES CCCCCCCC(=O)[O-]
REMARK SMILES IDX 5 1 6 2 7 3 8 4 9 5 10 6 4 7 3 8 2 9 1 10
REMARK H PARENT
REMARK Flexibility Score: inf
ROOT
ATOM      1  C   UNL     1      24.306  12.013   5.109  1.00  0.00     0.000 C 
ENDROOT
BRANCH   1   2
ATOM      2  C   UNL     1      25.434  12.912   5.647  1.00  0.00     0.006 C 
BRANCH   2   3
ATOM      3  C   UNL     1      26.738  12.829   4.835  1.00  0.00     0.053 C 
BRANCH   3   4
ATOM      4  C   UNL     1      27.925  12.492   5.686  1.00  0.00     0.041 C 
ATOM      5  O   UNL     1      27.807  12.419   6.937  1.00  0.00    -0.550 OA
ATOM      6  O   UNL     1      29.170  12.293   5.101  1.00  0.00    -0.550 OA
ENDBRANCH   3   4
ENDBRANCH   2   3
ENDBRANCH   1   2
BRANCH   1   7
ATOM      7  C   UNL     1      24.337  10.592   5.696  1.00  0.00     0.000 C 
BRANCH   7   8
ATOM      8  C   UNL     1      24.952   9.567   4.728  1.00  0.00    -0.000 C 
BRANCH   8   9
ATOM      9  C   UNL     1      26.380   9.165   5.125  1.00  0.00    -0.003 C 
ATOM     10  C   UNL     1      26.547   9.161   6.642  1.00  0.00     0.004 C 
ENDBRANCH   8   9
ENDBRANCH   7   8
ENDBRANCH   1   7
TORSDOF 6
ENDMDL
MODEL 6
REMARK VINA RESULT:    -3.040      4.251      6.449
REMARK INTER + INTRA:          -4.299
REMARK INTER:                  -3.981
REMARK INTRA:                  -0.318
REMARK UNBOUND:                -0.192
REMARK SMILES CCCCCCCC(=O)[O-]
REMARK SMILES IDX 5 1 6 2 7 3 8 4 9 5 10 6 4 7 3 8 2 9 1 10
REMARK H PARENT
REMARK Flexibility Score: inf
ROOT
ATOM      1  C   UNL     1      15.216  -1.392  14.724  1.00  0.00     0.000 C 
ENDROOT
BRANCH   1   2
ATOM      2  C   UNL     1      16.349  -0.355  14.822  1.00  0.00     0.006 C 
BRANCH   2   3
ATOM      3  C   UNL     1      16.589   0.175  16.246  1.00  0.00     0.053 C 
BRANCH   3   4
ATOM      4  C   UNL     1      17.768  -0.470  16.909  1.00  0.00     0.041 C 
ATOM      5  O   UNL     1      18.064  -0.180  18.097  1.00  0.00    -0.550 OA
ATOM      6  O   UNL     1      18.562  -1.366  16.203  1.00  0.00    -0.550 OA
ENDBRANCH   3   4
ENDBRANCH   2   3
ENDBRANCH   1   2
BRANCH   1   7
ATOM      7  C   UNL     1      15.649  -2.694  14.029  1.00  0.00     0.000 C 
BRANCH   7   8
ATOM      8  C   UNL     1      16.106  -3.772  15.025  1.00  0.00    -0.000 C 
BRANCH   8   9
ATOM      9  C   UNL     1      16.055  -5.186  14.427  1.00  0.00    -0.003 C 
ATOM     10  C   UNL     1      16.052  -5.137  12.902  1.00  0.00     0.004 C 
ENDBRANCH   8   9
ENDBRANCH   7   8
ENDBRANCH   1   7
TORSDOF 6
ENDMDL
MODEL 7
REMARK VINA RESULT:    -3.030      3.374      5.689
REMARK INTER + INTRA:          -4.284
REMARK INTER:                  -4.062
REMARK INTRA:                  -0.223
REMARK UNBOUND:                -0.192
REMARK SMILES CCCCCCCC(=O)[O-]
REMARK SMILES IDX 5 1 6 2 7 3 8 4 9 5 10 6 4 7 3 8 2 9 1 10
REMARK H PARENT
REMARK Flexibility Score: inf
ROOT
ATOM      1  C   UNL     1      15.587  -5.619  10.574  1.00  0.00     0.000 C 
ENDROOT
BRANCH   1   2
ATOM      2  C   UNL     1      16.110  -6.239  11.882  1.00  0.00     0.006 C 
BRANCH   2   3
ATOM      3  C   UNL     1      15.925  -5.338  13.116  1.00  0.00     0.053 C 
BRANCH   3   4
ATOM      4  C   UNL     1      17.036  -5.489  14.110  1.00  0.00     0.041 C 
ATOM      5  O   UNL     1      16.922  -5.005  15.266  1.00  0.00    -0.550 OA
ATOM      6  O   UNL     1      18.214  -6.134  13.749  1.00  0.00    -0.550 OA
ENDBRANCH   3   4
ENDBRANCH   2   3
ENDBRANCH   1   2
BRANCH   1   7
ATOM      7  C   UNL     1      15.420  -6.650   9.444  1.00  0.00     0.000 C 
BRANCH   7   8
ATOM      8  C   UNL     1      16.411  -6.427   8.290  1.00  0.00    -0.000 C 
BRANCH   8   9
ATOM      9  C   UNL     1      17.141  -5.080   8.392  1.00  0.00    -0.003 C 
ATOM     10  C   UNL     1      17.881  -4.757   7.097  1.00  0.00     0.004 C 
ENDBRANCH   8   9
ENDBRANCH   7   8
ENDBRANCH   1   7
TORSDOF 6
ENDMDL
MODEL 8
REMARK VINA RESULT:    -3.024     11.622     12.560
REMARK INTER + INTRA:          -4.276
REMARK INTER:                  -3.819
REMARK INTRA:                  -0.458
REMARK UNBOUND:                -0.192
REMARK SMILES CCCCCCCC(=O)[O-]
REMARK SMILES IDX 5 1 6 2 7 3 8 4 9 5 10 6 4 7 3 8 2 9 1 10
REMARK H PARENT
REMARK Flexibility Score: inf
ROOT
ATOM      1  C   UNL     1      20.094   2.066   3.935  1.00  0.00     0.000 C 
ENDROOT
BRANCH   1   2
ATOM      2  C   UNL     1      20.888   2.052   5.254  1.00  0.00     0.006 C 
BRANCH   2   3
ATOM      3  C   UNL     1      21.946   3.164   5.357  1.00  0.00     0.053 C 
BRANCH   3   4
ATOM      4  C   UNL     1      23.258   2.663   5.881  1.00  0.00     0.041 C 
ATOM      5  O   UNL     1      23.388   1.455   6.211  1.00  0.00    -0.550 OA
ATOM      6  O   UNL     1      24.327   3.536   6.039  1.00  0.00    -0.550 OA
ENDBRANCH   3   4
ENDBRANCH   2   3
ENDBRANCH   1   2
BRANCH   1   7
ATOM      7  C   UNL     1      19.604   3.470   3.543  1.00  0.00     0.000 C 
BRANCH   7   8
ATOM      8  C   UNL     1      18.150   3.730   3.973  1.00  0.00    -0.000 C 
BRANCH   8   9
ATOM      9  C   UNL     1      18.056   4.576   5.251  1.00  0.00    -0.003 C 
ATOM     10  C   UNL     1      19.026   5.753   5.202  1.00  0.00     0.004 C 
ENDBRANCH   8   9
ENDBRANCH   7   8
ENDBRANCH   1   7
TORSDOF 6
ENDMDL
MODEL 9
REMARK VINA RESULT:    -2.980     11.893     12.620
REMARK INTER + INTRA:          -4.218
REMARK INTER:                  -3.777
REMARK INTRA:                  -0.441
REMARK UNBOUND:                -0.192
REMARK SMILES CCCCCCCC(=O)[O-]
REMARK SMILES IDX 5 1 6 2 7 3 8 4 9 5 10 6 4 7 3 8 2 9 1 10
REMARK H PARENT
REMARK Flexibility Score: inf
ROOT
ATOM      1  C   UNL     1      20.452   1.729   4.364  1.00  0.00     0.000 C 
ENDROOT
BRANCH   1   2
ATOM      2  C   UNL     1      21.267   1.892   5.660  1.00  0.00     0.006 C 
BRANCH   2   3
ATOM      3  C   UNL     1      22.765   1.577   5.498  1.00  0.00     0.053 C 
BRANCH   3   4
ATOM      4  C   UNL     1      23.561   2.775   5.075  1.00  0.00     0.041 C 
ATOM      5  O   UNL     1      24.100   3.514   5.939  1.00  0.00    -0.550 OA
ATOM      6  O   UNL     1      23.677   3.095   3.727  1.00  0.00    -0.550 OA
ENDBRANCH   3   4
ENDBRANCH   2   3
ENDBRANCH   1   2
BRANCH   1   7
ATOM      7  C   UNL     1      19.710   3.013   3.955  1.00  0.00     0.000 C 
BRANCH   7   8
ATOM      8  C   UNL     1      20.124   4.230   4.798  1.00  0.00    -0.000 C 
BRANCH   8   9
ATOM      9  C   UNL     1      18.924   4.932   5.449  1.00  0.00    -0.003 C 
ATOM     10  C   UNL     1      17.614   4.497   4.797  1.00  0.00     0.004 C 
ENDBRANCH   8   9
ENDBRANCH   7   8
ENDBRANCH   1   7
TORSDOF 6
ENDMDL
