MODEL 1
REMARK VINA RESULT:    -4.069      0.000      0.000
REMARK INTER + INTRA:          -7.049
REMARK INTER:                  -6.209
REMARK INTRA:                  -0.840
REMARK UNBOUND:                -0.840
REMARK SMILES O=C([O-])CCCCCCCCC(=O)[O-]
REMARK SMILES IDX 7 1 6 2 5 3 4 4 2 5 1 6 3 7 8 8 9 9 10 10 11 11 12 12 13 13
REMARK SMILES IDX 14 14
REMARK H PARENT
REMARK Flexibility Score: inf
ROOT
ATOM      1  C   UNL     1      -6.009  23.840  57.886  1.00  0.00     0.000 C 
ENDROOT
BRANCH   1   2
ATOM      2  C   UNL     1      -4.896  24.027  56.840  1.00  0.00     0.000 C 
BRANCH   2   3
ATOM      3  C   UNL     1      -4.065  25.314  56.994  1.00  0.00     0.006 C 
BRANCH   3   4
ATOM      4  C   UNL     1      -4.204  26.264  55.797  1.00  0.00     0.053 C 
BRANCH   4   5
ATOM      5  C   UNL     1      -5.408  27.137  55.962  1.00  0.00     0.041 C 
ATOM      6  O   UNL     1      -5.483  27.937  56.931  1.00  0.00    -0.550 OA
ATOM      7  O   UNL     1      -6.469  27.032  55.072  1.00  0.00    -0.550 OA
ENDBRANCH   4   5
ENDBRANCH   3   4
ENDBRANCH   2   3
ENDBRANCH   1   2
BRANCH   1   8
ATOM      8  C   UNL     1      -7.352  24.449  57.449  1.00  0.00     0.000 C 
BRANCH   8   9
ATOM      9  C   UNL     1      -7.789  25.620  58.347  1.00  0.00     0.000 C 
BRANCH   9  10
ATOM     10  C   UNL     1      -6.921  25.758  59.607  1.00  0.00     0.006 C 
BRANCH  10  11
ATOM     11  C   UNL     1      -7.791  25.924  60.856  1.00  0.00     0.053 C 
BRANCH  11  12
ATOM     12  C   UNL     1      -6.942  26.210  62.053  1.00  0.00     0.041 C 
ATOM     13  O   UNL     1      -7.394  26.015  63.212  1.00  0.00    -0.550 OA
ATOM     14  O   UNL     1      -5.669  26.742  61.890  1.00  0.00    -0.550 OA
ENDBRANCH  11  12
ENDBRANCH  10  11
ENDBRANCH   9  10
ENDBRANCH   8   9
ENDBRANCH   1   8
TORSDOF 9
ENDMDL
MODEL 2
REMARK VINA RESULT:    -4.025      3.196      4.878
REMARK INTER + INTRA:          -6.982
REMARK INTER:                  -6.598
REMARK INTRA:                  -0.384
REMARK UNBOUND:                -0.840
REMARK SMILES O=C([O-])CCCCCCCCC(=O)[O-]
REMARK SMILES IDX 7 1 6 2 5 3 4 4 2 5 1 6 3 7 8 8 9 9 10 10 11 11 12 12 13 13
REMARK SMILES IDX 14 14
REMARK H PARENT
REMARK Flexibility Score: inf
ROOT
ATOM      1  C   UNL     1      -5.156  28.131  57.294  1.00  0.00     0.000 C 
ENDROOT
BRANCH   1   2
ATOM      2  C   UNL     1      -4.606  29.163  56.293  1.00  0.00     0.000 C 
BRANCH   2   3
ATOM      3  C   UNL     1      -5.441  30.450  56.156  1.00  0.00     0.006 C 
BRANCH   3   4
ATOM      4  C   UNL     1      -6.135  30.571  54.794  1.00  0.00     0.053 C 
BRANCH   4   5
ATOM      5  C   UNL     1      -7.266  31.548  54.870  1.00  0.00     0.041 C 
ATOM      6  O   UNL     1      -7.453  32.375  53.940  1.00  0.00    -0.550 OA
ATOM      7  O   UNL     1      -8.085  31.577  55.992  1.00  0.00    -0.550 OA
ENDBRANCH   4   5
ENDBRANCH   3   4
ENDBRANCH   2   3
ENDBRANCH   1   2
BRANCH   1   8
ATOM      8  C   UNL     1      -4.053  27.273  57.936  1.00  0.00     0.000 C 
BRANCH   8   9
ATOM      9  C   UNL     1      -4.615  26.047  58.676  1.00  0.00     0.000 C 
BRANCH   9  10
ATOM     10  C   UNL     1      -5.030  24.916  57.723  1.00  0.00     0.006 C 
BRANCH  10  11
ATOM     11  C   UNL     1      -6.328  24.253  58.191  1.00  0.00     0.053 C 
BRANCH  11  12
ATOM     12  C   UNL     1      -7.466  24.636  57.300  1.00  0.00     0.041 C 
ATOM     13  O   UNL     1      -7.940  25.802  57.342  1.00  0.00    -0.550 OA
ATOM     14  O   UNL     1      -8.037  23.690  56.457  1.00  0.00    -0.550 OA
ENDBRANCH  11  12
ENDBRANCH  10  11
ENDBRANCH   9  10
ENDBRANCH   8   9
ENDBRANCH   1   8
TORSDOF 9
ENDMDL
MODEL 3
REMARK VINA RESULT:    -4.015      3.407      6.152
REMARK INTER + INTRA:          -6.968
REMARK INTER:                  -6.458
REMARK INTRA:                  -0.510
REMARK UNBOUND:                -0.840
REMARK SMILES O=C([O-])CCCCCCCCC(=O)[O-]
REMARK SMILES IDX 7 1 6 2 5 3 4 4 2 5 1 6 3 7 8 8 9 9 10 10 11 11 12 12 13 13
REMARK SMILES IDX 14 14
REMARK H PARENT
REMARK Flexibility Score: inf
ROOT
ATOM      1  C   UNL     1      -4.328  27.352  56.254  1.00  0.00     0.000 C 
ENDROOT
BRANCH   1   2
ATOM      2  C   UNL     1      -5.740  26.768  56.446  1.00  0.00     0.000 C 
BRANCH   2   3
ATOM      3  C   UNL     1      -6.184  26.601  57.911  1.00  0.00     0.006 C 
BRANCH   3   4
ATOM      4  C   UNL     1      -7.442  25.736  58.061  1.00  0.00     0.053 C 
BRANCH   4   5
ATOM      5  C   UNL     1      -7.162  24.331  57.630  1.00  0.00     0.041 C 
ATOM      6  O   UNL     1      -6.292  23.645  58.229  1.00  0.00    -0.550 OA
ATOM      7  O   UNL     1      -7.827  23.794  56.535  1.00  0.00    -0.550 OA
ENDBRANCH   4   5
ENDBRANCH   3   4
ENDBRANCH   2   3
ENDBRANCH   1   2
BRANCH   1   8
ATOM      8  C   UNL     1      -4.343  28.793  55.719  1.00  0.00     0.000 C 
BRANCH   8   9
ATOM      9  C   UNL     1      -4.602  29.831  56.825  1.00  0.00     0.000 C 
BRANCH   9  10
ATOM     10  C   UNL     1      -5.063  31.187  56.270  1.00  0.00     0.006 C 
BRANCH  10  11
ATOM     11  C   UNL     1      -5.825  31.011  54.954  1.00  0.00     0.053 C 
BRANCH  11  12
ATOM     12  C   UNL     1      -7.151  31.701  55.018  1.00  0.00     0.041 C 
ATOM     13  O   UNL     1      -7.851  31.633  56.062  1.00  0.00    -0.550 OA
ATOM     14  O   UNL     1      -7.636  32.376  53.904  1.00  0.00    -0.550 OA
ENDBRANCH  11  12
ENDBRANCH  10  11
ENDBRANCH   9  10
ENDBRANCH   8   9
ENDBRANCH   1   8
TORSDOF 9
ENDMDL
MODEL 4
REMARK VINA RESULT:    -3.908      2.229      5.680
REMARK INTER + INTRA:          -6.804
REMARK INTER:                  -6.234
REMARK INTRA:                  -0.570
REMARK UNBOUND:                -0.840
REMARK SMILES O=C([O-])CCCCCCCCC(=O)[O-]
REMARK SMILES IDX 7 1 6 2 5 3 4 4 2 5 1 6 3 7 8 8 9 9 10 10 11 11 12 12 13 13
REMARK SMILES IDX 14 14
REMARK H PARENT
REMARK Flexibility Score: inf
ROOT
ATOM      1  C   UNL     1      -7.485  24.743  57.650  1.00  0.00     0.000 C 
ENDROOT
BRANCH   1   2
ATOM      2  C   UNL     1      -7.430  26.099  58.378  1.00  0.00     0.000 C 
BRANCH   2   3
ATOM      3  C   UNL     1      -8.180  26.149  59.722  1.00  0.00     0.006 C 
BRANCH   3   4
ATOM      4  C   UNL     1      -7.283  25.818  60.922  1.00  0.00     0.053 C 
BRANCH   4   5
ATOM      5  C   UNL     1      -8.071  25.867  62.192  1.00  0.00     0.041 C 
ATOM      6  O   UNL     1      -9.318  25.693  62.172  1.00  0.00    -0.550 OA
ATOM      7  O   UNL     1      -7.436  26.154  63.394  1.00  0.00    -0.550 OA
ENDBRANCH   4   5
ENDBRANCH   3   4
ENDBRANCH   2   3
ENDBRANCH   1   2
BRANCH   1   8
ATOM      8  C   UNL     1      -6.136  24.006  57.654  1.00  0.00     0.000 C 
BRANCH   8   9
ATOM      9  C   UNL     1      -4.974  24.904  58.112  1.00  0.00     0.000 C 
BRANCH   9  10
ATOM     10  C   UNL     1      -4.105  25.392  56.943  1.00  0.00     0.006 C 
BRANCH  10  11
ATOM     11  C   UNL     1      -3.505  26.769  57.244  1.00  0.00     0.053 C 
BRANCH  11  12
ATOM     12  C   UNL     1      -2.040  26.655  57.520  1.00  0.00     0.041 C 
ATOM     13  O   UNL     1      -1.482  27.449  58.322  1.00  0.00    -0.550 OA
ATOM     14  O   UNL     1      -1.280  25.703  56.852  1.00  0.00    -0.550 OA
ENDBRANCH  11  12
ENDBRANCH  10  11
ENDBRANCH   9  10
ENDBRANCH   8   9
ENDBRANCH   1   8
TORSDOF 9
ENDMDL
MODEL 5
REMARK VINA RESULT:    -3.873      2.151      2.675
REMARK INTER + INTRA:          -6.750
REMARK INTER:                  -6.218
REMARK INTRA:                  -0.531
REMARK UNBOUND:                -0.840
REMARK SMILES O=C([O-])CCCCCCCCC(=O)[O-]
REMARK SMILES IDX 7 1 6 2 5 3 4 4 2 5 1 6 3 7 8 8 9 9 10 10 11 11 12 12 13 13
REMARK SMILES IDX 14 14
REMARK H PARENT
REMARK Flexibility Score: inf
ROOT
ATOM      1  C   UNL     1      -5.632  23.949  57.069  1.00  0.00     0.000 C 
ENDROOT
BRANCH   1   2
ATOM      2  C   UNL     1      -4.325  24.719  56.807  1.00  0.00     0.000 C 
BRANCH   2   3
ATOM      3  C   UNL     1      -4.012  25.839  57.817  1.00  0.00     0.006 C 
BRANCH   3   4
ATOM      4  C   UNL     1      -2.564  26.340  57.726  1.00  0.00     0.053 C 
BRANCH   4   5
ATOM      5  C   UNL     1      -2.317  27.406  58.745  1.00  0.00     0.041 C 
ATOM      6  O   UNL     1      -3.168  27.633  59.646  1.00  0.00    -0.550 OA
ATOM      7  O   UNL     1      -1.168  28.184  58.674  1.00  0.00    -0.550 OA
ENDBRANCH   4   5
ENDBRANCH   3   4
ENDBRANCH   2   3
ENDBRANCH   1   2
BRANCH   1   8
ATOM      8  C   UNL     1      -6.334  24.386  58.366  1.00  0.00     0.000 C 
BRANCH   8   9
ATOM      9  C   UNL     1      -7.622  25.183  58.100  1.00  0.00     0.000 C 
BRANCH   9  10
ATOM     10  C   UNL     1      -8.137  25.914  59.349  1.00  0.00     0.006 C 
BRANCH  10  11
ATOM     11  C   UNL     1      -7.106  25.858  60.480  1.00  0.00     0.053 C 
BRANCH  11  12
ATOM     12  C   UNL     1      -7.786  25.866  61.812  1.00  0.00     0.041 C 
ATOM     13  O   UNL     1      -7.106  25.884  62.872  1.00  0.00    -0.550 OA
ATOM     14  O   UNL     1      -9.172  25.803  61.884  1.00  0.00    -0.550 OA
ENDBRANCH  11  12
ENDBRANCH  10  11
ENDBRANCH   9  10
ENDBRANCH   8   9
ENDBRANCH   1   8
TORSDOF 9
ENDMDL
MODEL 6
REMARK VINA RESULT:    -3.871      2.533      4.302
REMARK INTER + INTRA:          -6.747
REMARK INTER:                  -5.871
REMARK INTRA:                  -0.876
REMARK UNBOUND:                -0.840
REMARK SMILES O=C([O-])CCCCCCCCC(=O)[O-]
REMARK SMILES IDX 7 1 6 2 5 3 4 4 2 5 1 6 3 7 8 8 9 9 10 10 11 11 12 12 13 13
REMARK SMILES IDX 14 14
REMARK H PARENT
REMARK Flexibility Score: inf
ROOT
ATOM      1  C   UNL     1      -4.841  24.697  55.995  1.00  0.00     0.000 C 
ENDROOT
BRANCH   1   2
ATOM      2  C   UNL     1      -5.223  23.619  57.025  1.00  0.00     0.000 C 
BRANCH   2   3
ATOM      3  C   UNL     1      -6.186  24.085  58.133  1.00  0.00     0.006 C 
BRANCH   3   4
ATOM      4  C   UNL     1      -7.100  25.234  57.687  1.00  0.00     0.053 C 
BRANCH   4   5
ATOM      5  C   UNL     1      -7.219  26.257  58.771  1.00  0.00     0.041 C 
ATOM      6  O   UNL     1      -7.733  27.381  58.529  1.00  0.00    -0.550 OA
ATOM      7  O   UNL     1      -6.718  25.989  60.039  1.00  0.00    -0.550 OA
ENDBRANCH   4   5
ENDBRANCH   3   4
ENDBRANCH   2   3
ENDBRANCH   1   2
BRANCH   1   8
ATOM      8  C   UNL     1      -3.343  25.044  56.018  1.00  0.00     0.000 C 
BRANCH   8   9
ATOM      9  C   UNL     1      -2.876  25.547  57.395  1.00  0.00     0.000 C 
BRANCH   9  10
ATOM     10  C   UNL     1      -3.523  26.884  57.790  1.00  0.00     0.006 C 
BRANCH  10  11
ATOM     11  C   UNL     1      -3.365  27.147  59.290  1.00  0.00     0.053 C 
BRANCH  11  12
ATOM     12  C   UNL     1      -2.385  28.251  59.530  1.00  0.00     0.041 C 
ATOM     13  O   UNL     1      -2.677  29.201  60.303  1.00  0.00    -0.550 OA
ATOM     14  O   UNL     1      -1.169  28.258  58.858  1.00  0.00    -0.550 OA
ENDBRANCH  11  12
ENDBRANCH  10  11
ENDBRANCH   9  10
ENDBRANCH   8   9
ENDBRANCH   1   8
TORSDOF 9
ENDMDL
MODEL 7
REMARK VINA RESULT:    -3.848      2.925      4.576
REMARK INTER + INTRA:          -6.712
REMARK INTER:                  -5.909
REMARK INTRA:                  -0.803
REMARK UNBOUND:                -0.840
REMARK SMILES O=C([O-])CCCCCCCCC(=O)[O-]
REMARK SMILES IDX 7 1 6 2 5 3 4 4 2 5 1 6 3 7 8 8 9 9 10 10 11 11 12 12 13 13
REMARK SMILES IDX 14 14
REMARK H PARENT
REMARK Flexibility Score: inf
ROOT
ATOM      1  C   UNL     1      -3.217  25.997  56.019  1.00  0.00     0.000 C 
ENDROOT
BRANCH   1   2
ATOM      2  C   UNL     1      -2.465  27.131  56.739  1.00  0.00     0.000 C 
BRANCH   2   3
ATOM      3  C   UNL     1      -3.267  27.852  57.838  1.00  0.00     0.006 C 
BRANCH   3   4
ATOM      4  C   UNL     1      -2.745  27.560  59.251  1.00  0.00     0.053 C 
BRANCH   4   5
ATOM      5  C   UNL     1      -1.976  28.732  59.775  1.00  0.00     0.041 C 
ATOM      6  O   UNL     1      -2.550  29.603  60.480  1.00  0.00    -0.550 OA
ATOM      7  O   UNL     1      -0.636  28.888  59.445  1.00  0.00    -0.550 OA
ENDBRANCH   4   5
ENDBRANCH   3   4
ENDBRANCH   2   3
ENDBRANCH   1   2
BRANCH   1   8
ATOM      8  C   UNL     1      -3.465  24.776  56.920  1.00  0.00     0.000 C 
BRANCH   8   9
ATOM      9  C   UNL     1      -4.648  23.918  56.439  1.00  0.00     0.000 C 
BRANCH   9  10
ATOM     10  C   UNL     1      -5.741  23.762  57.508  1.00  0.00     0.006 C 
BRANCH  10  11
ATOM     11  C   UNL     1      -5.830  25.012  58.388  1.00  0.00     0.053 C 
BRANCH  11  12
ATOM     12  C   UNL     1      -6.894  25.934  57.885  1.00  0.00     0.041 C 
ATOM     13  O   UNL     1      -6.617  26.816  57.030  1.00  0.00    -0.550 OA
ATOM     14  O   UNL     1      -8.183  25.853  58.399  1.00  0.00    -0.550 OA
ENDBRANCH  11  12
ENDBRANCH  10  11
ENDBRANCH   9  10
ENDBRANCH   8   9
ENDBRANCH   1   8
TORSDOF 9
ENDMDL
MODEL 8
REMARK VINA RESULT:    -3.811      3.198      4.951
REMARK INTER + INTRA:          -6.656
REMARK INTER:                  -6.011
REMARK INTRA:                  -0.646
REMARK UNBOUND:                -0.840
REMARK SMILES O=C([O-])CCCCCCCCC(=O)[O-]
REMARK SMILES IDX 7 1 6 2 5 3 4 4 2 5 1 6 3 7 8 8 9 9 10 10 11 11 12 12 13 13
REMARK SMILES IDX 14 14
REMARK H PARENT
REMARK Flexibility Score: inf
ROOT
ATOM      1  C   UNL     1      -2.284  24.645  55.405  1.00  0.00     0.000 C 
ENDROOT
BRANCH   1   2
ATOM      2  C   UNL     1      -1.207  25.053  56.426  1.00  0.00     0.000 C 
BRANCH   2   3
ATOM      3  C   UNL     1      -1.257  26.525  56.876  1.00  0.00     0.006 C 
BRANCH   3   4
ATOM      4  C   UNL     1      -2.648  26.956  57.359  1.00  0.00     0.053 C 
BRANCH   4   5
ATOM      5  C   UNL     1      -2.736  26.858  58.849  1.00  0.00     0.041 C 
ATOM      6  O   UNL     1      -3.122  25.790  59.393  1.00  0.00    -0.550 OA
ATOM      7  O   UNL     1      -2.437  27.962  59.638  1.00  0.00    -0.550 OA
ENDBRANCH   4   5
ENDBRANCH   3   4
ENDBRANCH   2   3
ENDBRANCH   1   2
BRANCH   1   8
ATOM      8  C   UNL     1      -2.638  23.149  55.472  1.00  0.00     0.000 C 
BRANCH   8   9
ATOM      9  C   UNL     1      -4.000  22.894  56.138  1.00  0.00     0.000 C 
BRANCH   9  10
ATOM     10  C   UNL     1      -4.765  24.192  56.442  1.00  0.00     0.006 C 
BRANCH  10  11
ATOM     11  C   UNL     1      -6.058  23.899  57.208  1.00  0.00     0.053 C 
BRANCH  11  12
ATOM     12  C   UNL     1      -7.249  24.330  56.412  1.00  0.00     0.041 C 
ATOM     13  O   UNL     1      -8.310  23.653  56.442  1.00  0.00    -0.550 OA
ATOM     14  O   UNL     1      -7.170  25.452  55.597  1.00  0.00    -0.550 OA
ENDBRANCH  11  12
ENDBRANCH  10  11
ENDBRANCH   9  10
ENDBRANCH   8   9
ENDBRANCH   1   8
TORSDOF 9
ENDMDL
MODEL 9
REMARK VINA RESULT:    -3.762      3.239      5.919
REMARK INTER + INTRA:          -6.581
REMARK INTER:                  -5.886
REMARK INTRA:                  -0.695
REMARK UNBOUND:                -0.840
REMARK SMILES O=C([O-])CCCCCCCCC(=O)[O-]
REMARK SMILES IDX 7 1 6 2 5 3 4 4 2 5 1 6 3 7 8 8 9 9 10 10 11 11 12 12 13 13
REMARK SMILES IDX 14 14
REMARK H PARENT
REMARK Flexibility Score: inf
ROOT
ATOM      1  C   UNL     1      -2.562  28.201  57.246  1.00  0.00     0.000 C 
ENDROOT
BRANCH   1   2
ATOM      2  C   UNL     1      -2.853  26.726  57.575  1.00  0.00     0.000 C 
BRANCH   2   3
ATOM      3  C   UNL     1      -4.117  26.482  58.421  1.00  0.00     0.006 C 
BRANCH   3   4
ATOM      4  C   UNL     1      -5.167  25.630  57.697  1.00  0.00     0.053 C 
BRANCH   4   5
ATOM      5  C   UNL     1      -6.273  26.495  57.181  1.00  0.00     0.041 C 
ATOM      6  O   UNL     1      -6.945  27.207  57.973  1.00  0.00    -0.550 OA
ATOM      7  O   UNL     1      -6.596  26.479  55.830  1.00  0.00    -0.550 OA
ENDBRANCH   4   5
ENDBRANCH   3   4
ENDBRANCH   2   3
ENDBRANCH   1   2
BRANCH   1   8
ATOM      8  C   UNL     1      -3.467  28.757  56.133  1.00  0.00     0.000 C 
BRANCH   8   9
ATOM      9  C   UNL     1      -4.488  29.780  56.659  1.00  0.00     0.000 C 
BRANCH   9  10
ATOM     10  C   UNL     1      -5.627  30.048  55.664  1.00  0.00     0.006 C 
BRANCH  10  11
ATOM     11  C   UNL     1      -5.853  31.552  55.481  1.00  0.00     0.053 C 
BRANCH  11  12
ATOM     12  C   UNL     1      -7.269  31.826  55.087  1.00  0.00     0.041 C 
ATOM     13  O   UNL     1      -8.213  31.536  55.868  1.00  0.00    -0.550 OA
ATOM     14  O   UNL     1      -7.551  32.355  53.833  1.00  0.00    -0.550 OA
ENDBRANCH  11  12
ENDBRANCH  10  11
ENDBRANCH   9  10
ENDBRANCH   8   9
ENDBRANCH   1   8
TORSDOF 9
ENDMDL
