MODEL 1
REMARK VINA RESULT:    -7.161      0.000      0.000
REMARK INTER + INTRA:          -7.161
REMARK INTER:                  -7.161
REMARK INTRA:                   0.000
REMARK UNBOUND:                 0.000
REMARK SMILES C=C1CCC[C@]2(C)Cc3occ(C)c3C[C@@H]12
REMARK SMILES IDX 13 1 12 2 11 3 10 4 9 5 14 6 15 7 16 8 2 9 1 10 3 11 4 12
REMARK SMILES IDX 5 13 6 14 8 15 7 16
REMARK H PARENT
REMARK Flexibility Score: inf
ROOT
ATOM      1  C   UNL     1      45.251  44.377  42.650  1.00  0.00     0.048 C 
ATOM      2  C   UNL     1      44.550  45.137  43.729  1.00  0.00    -0.009 A 
ATOM      3  C   UNL     1      43.402  45.900  43.595  1.00  0.00     0.198 A 
ATOM      4  O   UNL     1      43.059  46.391  44.769  1.00  0.00    -0.469 OA
ATOM      5  C   UNL     1      43.930  45.977  45.661  1.00  0.00     0.107 A 
ATOM      6  C   UNL     1      44.867  45.166  45.070  1.00  0.00    -0.003 A 
ATOM      7  C   UNL     1      46.053  44.583  45.776  1.00  0.00     0.048 C 
ATOM      8  C   UNL     1      45.840  44.625  47.317  1.00  0.00     0.025 C 
ATOM      9  C   UNL     1      47.057  44.213  48.146  1.00  0.00    -0.073 C 
ATOM     10  C   UNL     1      48.185  43.704  47.613  1.00  0.00     0.008 C 
ATOM     11  C   UNL     1      46.899  44.247  49.649  1.00  0.00     0.031 C 
ATOM     12  C   UNL     1      46.346  45.598  50.110  1.00  0.00     0.005 C 
ATOM     13  C   UNL     1      45.072  45.981  49.341  1.00  0.00     0.008 C 
ATOM     14  C   UNL     1      45.280  46.014  47.799  1.00  0.00    -0.019 C 
ATOM     15  C   UNL     1      43.896  46.284  47.128  1.00  0.00     0.083 C 
ATOM     16  C   UNL     1      46.249  47.170  47.430  1.00  0.00     0.012 C 
ENDROOT
TORSDOF 0
ENDMDL
MODEL 2
REMARK VINA RESULT:    -6.553      2.548      4.098
REMARK INTER + INTRA:          -6.553
REMARK INTER:                  -6.553
REMARK INTRA:                   0.000
REMARK UNBOUND:                 0.000
REMARK SMILES C=C1CCC[C@]2(C)Cc3occ(C)c3C[C@@H]12
REMARK SMILES IDX 13 1 12 2 11 3 10 4 9 5 14 6 15 7 16 8 2 9 1 10 3 11 4 12
REMARK SMILES IDX 5 13 6 14 8 15 7 16
REMARK H PARENT
REMARK Flexibility Score: inf
ROOT
ATOM      1  C   UNL     1      46.370  41.383  44.098  1.00  0.00     0.048 C 
ATOM      2  C   UNL     1      46.791  41.651  45.506  1.00  0.00    -0.009 A 
ATOM      3  C   UNL     1      47.475  40.788  46.347  1.00  0.00     0.198 A 
ATOM      4  O   UNL     1      47.701  41.383  47.500  1.00  0.00    -0.469 OA
ATOM      5  C   UNL     1      47.200  42.597  47.445  1.00  0.00     0.107 A 
ATOM      6  C   UNL     1      46.644  42.827  46.211  1.00  0.00    -0.003 A 
ATOM      7  C   UNL     1      45.914  44.077  45.828  1.00  0.00     0.048 C 
ATOM      8  C   UNL     1      46.260  45.230  46.814  1.00  0.00     0.025 C 
ATOM      9  C   UNL     1      45.440  46.507  46.623  1.00  0.00    -0.073 C 
ATOM     10  C   UNL     1      44.590  46.701  45.597  1.00  0.00     0.008 C 
ATOM     11  C   UNL     1      45.735  47.652  47.566  1.00  0.00     0.031 C 
ATOM     12  C   UNL     1      45.699  47.183  49.023  1.00  0.00     0.005 C 
ATOM     13  C   UNL     1      46.589  45.950  49.243  1.00  0.00     0.008 C 
ATOM     14  C   UNL     1      46.216  44.758  48.315  1.00  0.00    -0.019 C 
ATOM     15  C   UNL     1      47.263  43.621  48.537  1.00  0.00     0.083 C 
ATOM     16  C   UNL     1      44.808  44.223  48.695  1.00  0.00     0.012 C 
ENDROOT
TORSDOF 0
ENDMDL
MODEL 3
REMARK VINA RESULT:    -6.363      1.941      3.371
REMARK INTER + INTRA:          -6.363
REMARK INTER:                  -6.363
REMARK INTRA:                   0.000
REMARK UNBOUND:                 0.000
REMARK SMILES C=C1CCC[C@]2(C)Cc3occ(C)c3C[C@@H]12
REMARK SMILES IDX 13 1 12 2 11 3 10 4 9 5 14 6 15 7 16 8 2 9 1 10 3 11 4 12
REMARK SMILES IDX 5 13 6 14 8 15 7 16
REMARK H PARENT
REMARK Flexibility Score: inf
ROOT
ATOM      1  C   UNL     1      41.593  45.002  42.234  1.00  0.00     0.048 C 
ATOM      2  C   UNL     1      43.044  45.339  42.355  1.00  0.00    -0.009 A 
ATOM      3  C   UNL     1      43.975  45.381  41.330  1.00  0.00     0.198 A 
ATOM      4  O   UNL     1      45.145  45.749  41.812  1.00  0.00    -0.469 OA
ATOM      5  C   UNL     1      45.015  45.955  43.103  1.00  0.00     0.107 A 
ATOM      6  C   UNL     1      43.715  45.741  43.490  1.00  0.00    -0.003 A 
ATOM      7  C   UNL     1      43.228  45.807  44.906  1.00  0.00     0.048 C 
ATOM      8  C   UNL     1      44.245  46.584  45.791  1.00  0.00     0.025 C 
ATOM      9  C   UNL     1      43.936  46.567  47.289  1.00  0.00    -0.073 C 
ATOM     10  C   UNL     1      42.803  46.061  47.811  1.00  0.00     0.008 C 
ATOM     11  C   UNL     1      44.903  47.301  48.191  1.00  0.00     0.031 C 
ATOM     12  C   UNL     1      46.344  46.865  47.917  1.00  0.00     0.005 C 
ATOM     13  C   UNL     1      46.691  46.961  46.423  1.00  0.00     0.008 C 
ATOM     14  C   UNL     1      45.729  46.134  45.522  1.00  0.00    -0.019 C 
ATOM     15  C   UNL     1      46.099  46.413  44.031  1.00  0.00     0.083 C 
ATOM     16  C   UNL     1      45.918  44.619  45.810  1.00  0.00     0.012 C 
ENDROOT
TORSDOF 0
ENDMDL
MODEL 4
REMARK VINA RESULT:    -6.298     10.235     12.124
REMARK INTER + INTRA:          -6.298
REMARK INTER:                  -6.298
REMARK INTRA:                   0.000
REMARK UNBOUND:                 0.000
REMARK SMILES C=C1CCC[C@]2(C)Cc3occ(C)c3C[C@@H]12
REMARK SMILES IDX 13 1 12 2 11 3 10 4 9 5 14 6 15 7 16 8 2 9 1 10 3 11 4 12
REMARK SMILES IDX 5 13 6 14 8 15 7 16
REMARK H PARENT
REMARK Flexibility Score: inf
ROOT
ATOM      1  C   UNL     1      49.374  43.119  32.118  1.00  0.00     0.048 C 
ATOM      2  C   UNL     1      48.633  44.287  32.682  1.00  0.00    -0.009 A 
ATOM      3  C   UNL     1      47.517  44.903  32.139  1.00  0.00     0.198 A 
ATOM      4  O   UNL     1      47.120  45.876  32.933  1.00  0.00    -0.469 OA
ATOM      5  C   UNL     1      47.924  45.917  33.971  1.00  0.00     0.107 A 
ATOM      6  C   UNL     1      48.871  44.927  33.879  1.00  0.00    -0.003 A 
ATOM      7  C   UNL     1      49.995  44.734  34.850  1.00  0.00     0.048 C 
ATOM      8  C   UNL     1      49.692  45.476  36.184  1.00  0.00     0.025 C 
ATOM      9  C   UNL     1      50.846  45.492  37.188  1.00  0.00    -0.073 C 
ATOM     10  C   UNL     1      51.988  44.797  37.022  1.00  0.00     0.008 C 
ATOM     11  C   UNL     1      50.601  46.210  38.495  1.00  0.00     0.031 C 
ATOM     12  C   UNL     1      50.060  47.621  38.250  1.00  0.00     0.005 C 
ATOM     13  C   UNL     1      48.845  47.607  37.310  1.00  0.00     0.008 C 
ATOM     14  C   UNL     1      49.145  46.931  35.940  1.00  0.00    -0.019 C 
ATOM     15  C   UNL     1      47.812  46.861  35.130  1.00  0.00     0.083 C 
ATOM     16  C   UNL     1      50.168  47.791  35.148  1.00  0.00     0.012 C 
ENDROOT
TORSDOF 0
ENDMDL
MODEL 5
REMARK VINA RESULT:    -5.916     10.445     12.359
REMARK INTER + INTRA:          -5.916
REMARK INTER:                  -5.916
REMARK INTRA:                   0.000
REMARK UNBOUND:                 0.000
REMARK SMILES C=C1CCC[C@]2(C)Cc3occ(C)c3C[C@@H]12
REMARK SMILES IDX 13 1 12 2 11 3 10 4 9 5 14 6 15 7 16 8 2 9 1 10 3 11 4 12
REMARK SMILES IDX 5 13 6 14 8 15 7 16
REMARK H PARENT
REMARK Flexibility Score: inf
ROOT
ATOM      1  C   UNL     1      47.389  45.114  32.497  1.00  0.00     0.048 C 
ATOM      2  C   UNL     1      48.100  44.661  33.730  1.00  0.00    -0.009 A 
ATOM      3  C   UNL     1      48.097  43.385  34.269  1.00  0.00     0.198 A 
ATOM      4  O   UNL     1      48.864  43.356  35.340  1.00  0.00    -0.469 OA
ATOM      5  C   UNL     1      49.371  44.555  35.518  1.00  0.00     0.107 A 
ATOM      6  C   UNL     1      48.949  45.402  34.523  1.00  0.00    -0.003 A 
ATOM      7  C   UNL     1      49.270  46.865  34.460  1.00  0.00     0.048 C 
ATOM      8  C   UNL     1      50.487  47.191  35.373  1.00  0.00     0.025 C 
ATOM      9  C   UNL     1      50.798  48.681  35.521  1.00  0.00    -0.073 C 
ATOM     10  C   UNL     1      50.183  49.646  34.810  1.00  0.00     0.008 C 
ATOM     11  C   UNL     1      51.967  49.047  36.407  1.00  0.00     0.031 C 
ATOM     12  C   UNL     1      51.851  48.367  37.774  1.00  0.00     0.005 C 
ATOM     13  C   UNL     1      51.625  46.853  37.635  1.00  0.00     0.008 C 
ATOM     14  C   UNL     1      50.370  46.503  36.784  1.00  0.00    -0.019 C 
ATOM     15  C   UNL     1      50.320  44.952  36.607  1.00  0.00     0.083 C 
ATOM     16  C   UNL     1      49.088  46.964  37.530  1.00  0.00     0.012 C 
ENDROOT
TORSDOF 0
ENDMDL
MODEL 6
REMARK VINA RESULT:    -5.790      9.808     10.916
REMARK INTER + INTRA:          -5.790
REMARK INTER:                  -5.790
REMARK INTRA:                   0.000
REMARK UNBOUND:                 0.000
REMARK SMILES C=C1CCC[C@]2(C)Cc3occ(C)c3C[C@@H]12
REMARK SMILES IDX 13 1 12 2 11 3 10 4 9 5 14 6 15 7 16 8 2 9 1 10 3 11 4 12
REMARK SMILES IDX 5 13 6 14 8 15 7 16
REMARK H PARENT
REMARK Flexibility Score: inf
ROOT
ATOM      1  C   UNL     1      49.001  44.144  33.720  1.00  0.00     0.048 C 
ATOM      2  C   UNL     1      48.760  45.396  34.500  1.00  0.00    -0.009 A 
ATOM      3  C   UNL     1      47.812  46.370  34.233  1.00  0.00     0.198 A 
ATOM      4  O   UNL     1      47.873  47.308  35.157  1.00  0.00    -0.469 OA
ATOM      5  C   UNL     1      48.814  46.984  36.015  1.00  0.00     0.107 A 
ATOM      6  C   UNL     1      49.381  45.783  35.667  1.00  0.00    -0.003 A 
ATOM      7  C   UNL     1      50.538  45.153  36.380  1.00  0.00     0.048 C 
ATOM      8  C   UNL     1      50.707  45.776  37.795  1.00  0.00     0.025 C 
ATOM      9  C   UNL     1      51.962  45.331  38.549  1.00  0.00    -0.073 C 
ATOM     10  C   UNL     1      52.790  44.364  38.111  1.00  0.00     0.008 C 
ATOM     11  C   UNL     1      52.173  45.919  39.926  1.00  0.00     0.031 C 
ATOM     12  C   UNL     1      52.058  47.445  39.892  1.00  0.00     0.005 C 
ATOM     13  C   UNL     1      50.757  47.901  39.213  1.00  0.00     0.008 C 
ATOM     14  C   UNL     1      50.600  47.346  37.767  1.00  0.00    -0.019 C 
ATOM     15  C   UNL     1      49.194  47.766  37.236  1.00  0.00     0.083 C 
ATOM     16  C   UNL     1      51.689  47.968  36.850  1.00  0.00     0.012 C 
ENDROOT
TORSDOF 0
ENDMDL
MODEL 7
REMARK VINA RESULT:    -5.756      9.983     11.694
REMARK INTER + INTRA:          -5.756
REMARK INTER:                  -5.756
REMARK INTRA:                   0.000
REMARK UNBOUND:                 0.000
REMARK SMILES C=C1CCC[C@]2(C)Cc3occ(C)c3C[C@@H]12
REMARK SMILES IDX 13 1 12 2 11 3 10 4 9 5 14 6 15 7 16 8 2 9 1 10 3 11 4 12
REMARK SMILES IDX 5 13 6 14 8 15 7 16
REMARK H PARENT
REMARK Flexibility Score: inf
ROOT
ATOM      1  C   UNL     1      47.923  42.466  35.476  1.00  0.00     0.048 C 
ATOM      2  C   UNL     1      48.288  43.792  34.892  1.00  0.00    -0.009 A 
ATOM      3  C   UNL     1      47.922  44.280  33.649  1.00  0.00     0.198 A 
ATOM      4  O   UNL     1      48.400  45.498  33.495  1.00  0.00    -0.469 OA
ATOM      5  C   UNL     1      49.054  45.827  34.586  1.00  0.00     0.107 A 
ATOM      6  C   UNL     1      48.991  44.807  35.504  1.00  0.00    -0.003 A 
ATOM      7  C   UNL     1      49.694  44.811  36.827  1.00  0.00     0.048 C 
ATOM      8  C   UNL     1      50.105  46.259  37.218  1.00  0.00     0.025 C 
ATOM      9  C   UNL     1      50.981  46.364  38.467  1.00  0.00    -0.073 C 
ATOM     10  C   UNL     1      51.261  45.320  39.271  1.00  0.00     0.008 C 
ATOM     11  C   UNL     1      51.414  47.753  38.880  1.00  0.00     0.031 C 
ATOM     12  C   UNL     1      52.038  48.503  37.702  1.00  0.00     0.005 C 
ATOM     13  C   UNL     1      51.125  48.477  36.465  1.00  0.00     0.008 C 
ATOM     14  C   UNL     1      50.757  47.034  36.013  1.00  0.00    -0.019 C 
ATOM     15  C   UNL     1      49.731  47.139  34.841  1.00  0.00     0.083 C 
ATOM     16  C   UNL     1      52.031  46.308  35.500  1.00  0.00     0.012 C 
ENDROOT
TORSDOF 0
ENDMDL
MODEL 8
REMARK VINA RESULT:    -5.690      7.746      9.925
REMARK INTER + INTRA:          -5.690
REMARK INTER:                  -5.690
REMARK INTRA:                   0.000
REMARK UNBOUND:                 0.000
REMARK SMILES C=C1CCC[C@]2(C)Cc3occ(C)c3C[C@@H]12
REMARK SMILES IDX 13 1 12 2 11 3 10 4 9 5 14 6 15 7 16 8 2 9 1 10 3 11 4 12
REMARK SMILES IDX 5 13 6 14 8 15 7 16
REMARK H PARENT
REMARK Flexibility Score: inf
ROOT
ATOM      1  C   UNL     1      48.379  39.804  44.560  1.00  0.00     0.048 C 
ATOM      2  C   UNL     1      49.281  39.546  45.723  1.00  0.00    -0.009 A 
ATOM      3  C   UNL     1      50.179  40.436  46.291  1.00  0.00     0.198 A 
ATOM      4  O   UNL     1      50.773  39.866  47.319  1.00  0.00    -0.469 OA
ATOM      5  C   UNL     1      50.298  38.648  47.450  1.00  0.00     0.107 A 
ATOM      6  C   UNL     1      49.341  38.406  46.495  1.00  0.00    -0.003 A 
ATOM      7  C   UNL     1      48.649  37.092  46.301  1.00  0.00     0.048 C 
ATOM      8  C   UNL     1      48.802  36.207  47.572  1.00  0.00     0.025 C 
ATOM      9  C   UNL     1      48.281  34.776  47.425  1.00  0.00    -0.073 C 
ATOM     10  C   UNL     1      47.602  34.336  46.348  1.00  0.00     0.008 C 
ATOM     11  C   UNL     1      48.417  33.875  48.632  1.00  0.00     0.031 C 
ATOM     12  C   UNL     1      49.852  33.891  49.166  1.00  0.00     0.005 C 
ATOM     13  C   UNL     1      50.354  35.325  49.399  1.00  0.00     0.008 C 
ATOM     14  C   UNL     1      50.276  36.210  48.121  1.00  0.00    -0.019 C 
ATOM     15  C   UNL     1      50.686  37.665  48.513  1.00  0.00     0.083 C 
ATOM     16  C   UNL     1      51.275  35.678  47.057  1.00  0.00     0.012 C 
ENDROOT
TORSDOF 0
ENDMDL
