MODEL 1
REMARK VINA RESULT:    -3.861      0.000      0.000
REMARK INTER + INTRA:          -5.579
REMARK INTER:                  -5.215
REMARK INTRA:                  -0.364
REMARK UNBOUND:                -0.364
REMARK SMILES CCCCCCCC(=O)[O-]
REMARK SMILES IDX 5 1 6 2 7 3 8 4 9 5 10 6 4 7 3 8 2 9 1 10
REMARK H PARENT
REMARK Flexibility Score: inf
ROOT
ATOM      1  C   UNL     1      86.821  77.380  69.264  1.00  0.00     0.000 C 
ENDROOT
BRANCH   1   2
ATOM      2  C   UNL     1      86.578  76.597  70.562  1.00  0.00     0.006 C 
BRANCH   2   3
ATOM      3  C   UNL     1      86.194  75.135  70.296  1.00  0.00     0.053 C 
BRANCH   3   4
ATOM      4  C   UNL     1      85.666  74.464  71.528  1.00  0.00     0.041 C 
ATOM      5  O   UNL     1      84.518  73.946  71.524  1.00  0.00    -0.550 OA
ATOM      6  O   UNL     1      86.455  74.382  72.667  1.00  0.00    -0.550 OA
ENDBRANCH   3   4
ENDBRANCH   2   3
ENDBRANCH   1   2
BRANCH   1   7
ATOM      7  C   UNL     1      86.519  76.511  68.034  1.00  0.00     0.000 C 
BRANCH   7   8
ATOM      8  C   UNL     1      87.629  76.576  66.974  1.00  0.00    -0.000 C 
BRANCH   8   9
ATOM      9  C   UNL     1      89.031  76.398  67.574  1.00  0.00    -0.003 C 
ATOM     10  C   UNL     1      89.952  77.545  67.169  1.00  0.00     0.004 C 
ENDBRANCH   8   9
ENDBRANCH   7   8
ENDBRANCH   1   7
TORSDOF 6
ENDMDL
MODEL 2
REMARK VINA RESULT:    -3.826      1.879      2.737
REMARK INTER + INTRA:          -5.532
REMARK INTER:                  -4.931
REMARK INTRA:                  -0.601
REMARK UNBOUND:                -0.364
REMARK SMILES CCCCCCCC(=O)[O-]
REMARK SMILES IDX 5 1 6 2 7 3 8 4 9 5 10 6 4 7 3 8 2 9 1 10
REMARK H PARENT
REMARK Flexibility Score: inf
ROOT
ATOM      1  C   UNL     1      87.548  73.637  67.749  1.00  0.00     0.000 C 
ENDROOT
BRANCH   1   2
ATOM      2  C   UNL     1      88.030  74.077  69.139  1.00  0.00     0.006 C 
BRANCH   2   3
ATOM      3  C   UNL     1      86.868  74.483  70.056  1.00  0.00     0.053 C 
BRANCH   3   4
ATOM      4  C   UNL     1      87.287  75.509  71.065  1.00  0.00     0.041 C 
ATOM      5  O   UNL     1      87.603  76.670  70.694  1.00  0.00    -0.550 OA
ATOM      6  O   UNL     1      87.295  75.192  72.417  1.00  0.00    -0.550 OA
ENDBRANCH   3   4
ENDBRANCH   2   3
ENDBRANCH   1   2
BRANCH   1   7
ATOM      7  C   UNL     1      87.197  74.854  66.879  1.00  0.00     0.000 C 
BRANCH   7   8
ATOM      8  C   UNL     1      88.225  75.989  67.004  1.00  0.00    -0.000 C 
BRANCH   8   9
ATOM      9  C   UNL     1      87.567  77.363  67.195  1.00  0.00    -0.003 C 
ATOM     10  C   UNL     1      86.080  77.222  67.505  1.00  0.00     0.004 C 
ENDBRANCH   8   9
ENDBRANCH   7   8
ENDBRANCH   1   7
TORSDOF 6
ENDMDL
MODEL 3
REMARK VINA RESULT:    -3.812      1.470      2.091
REMARK INTER + INTRA:          -5.513
REMARK INTER:                  -4.920
REMARK INTRA:                  -0.593
REMARK UNBOUND:                -0.364
REMARK SMILES CCCCCCCC(=O)[O-]
REMARK SMILES IDX 5 1 6 2 7 3 8 4 9 5 10 6 4 7 3 8 2 9 1 10
REMARK H PARENT
REMARK Flexibility Score: inf
ROOT
ATOM      1  C   UNL     1      86.634  77.448  68.815  1.00  0.00     0.000 C 
ENDROOT
BRANCH   1   2
ATOM      2  C   UNL     1      86.217  77.090  70.249  1.00  0.00     0.006 C 
BRANCH   2   3
ATOM      3  C   UNL     1      87.245  76.188  70.945  1.00  0.00     0.053 C 
BRANCH   3   4
ATOM      4  C   UNL     1      86.626  74.916  71.438  1.00  0.00     0.041 C 
ATOM      5  O   UNL     1      86.873  74.500  72.601  1.00  0.00    -0.550 OA
ATOM      6  O   UNL     1      85.749  74.208  70.627  1.00  0.00    -0.550 OA
ENDBRANCH   3   4
ENDBRANCH   2   3
ENDBRANCH   1   2
BRANCH   1   7
ATOM      7  C   UNL     1      86.124  76.398  67.817  1.00  0.00     0.000 C 
BRANCH   7   8
ATOM      8  C   UNL     1      87.262  75.700  67.057  1.00  0.00    -0.000 C 
BRANCH   8   9
ATOM      9  C   UNL     1      87.255  74.177  67.250  1.00  0.00    -0.003 C 
ATOM     10  C   UNL     1      88.333  73.743  68.239  1.00  0.00     0.004 C 
ENDBRANCH   8   9
ENDBRANCH   7   8
ENDBRANCH   1   7
TORSDOF 6
ENDMDL
MODEL 4
REMARK VINA RESULT:    -3.785      3.059      4.139
REMARK INTER + INTRA:          -5.476
REMARK INTER:                  -4.864
REMARK INTRA:                  -0.612
REMARK UNBOUND:                -0.364
REMARK SMILES CCCCCCCC(=O)[O-]
REMARK SMILES IDX 5 1 6 2 7 3 8 4 9 5 10 6 4 7 3 8 2 9 1 10
REMARK H PARENT
REMARK Flexibility Score: inf
ROOT
ATOM      1  C   UNL     1      87.392  76.405  70.726  1.00  0.00     0.000 C 
ENDROOT
BRANCH   1   2
ATOM      2  C   UNL     1      86.111  77.085  70.221  1.00  0.00     0.006 C 
BRANCH   2   3
ATOM      3  C   UNL     1      86.396  78.122  69.127  1.00  0.00     0.053 C 
BRANCH   3   4
ATOM      4  C   UNL     1      86.638  77.477  67.796  1.00  0.00     0.041 C 
ATOM      5  O   UNL     1      87.792  77.481  67.291  1.00  0.00    -0.550 OA
ATOM      6  O   UNL     1      85.598  76.841  67.132  1.00  0.00    -0.550 OA
ENDBRANCH   3   4
ENDBRANCH   2   3
ENDBRANCH   1   2
BRANCH   1   7
ATOM      7  C   UNL     1      87.169  74.899  70.933  1.00  0.00     0.000 C 
BRANCH   7   8
ATOM      8  C   UNL     1      86.745  74.180  69.643  1.00  0.00    -0.000 C 
BRANCH   8   9
ATOM      9  C   UNL     1      87.877  74.107  68.608  1.00  0.00    -0.003 C 
ATOM     10  C   UNL     1      87.348  73.669  67.245  1.00  0.00     0.004 C 
ENDBRANCH   8   9
ENDBRANCH   7   8
ENDBRANCH   1   7
TORSDOF 6
ENDMDL
MODEL 5
REMARK VINA RESULT:    -3.704     12.869     13.729
REMARK INTER + INTRA:          -5.367
REMARK INTER:                  -5.012
REMARK INTRA:                  -0.355
REMARK UNBOUND:                -0.364
REMARK SMILES CCCCCCCC(=O)[O-]
REMARK SMILES IDX 5 1 6 2 7 3 8 4 9 5 10 6 4 7 3 8 2 9 1 10
REMARK H PARENT
REMARK Flexibility Score: inf
ROOT
ATOM      1  C   UNL     1      94.369  84.619  77.272  1.00  0.00     0.000 C 
ENDROOT
BRANCH   1   2
ATOM      2  C   UNL     1      93.045  83.973  76.840  1.00  0.00     0.006 C 
BRANCH   2   3
ATOM      3  C   UNL     1      92.558  82.919  77.843  1.00  0.00     0.053 C 
BRANCH   3   4
ATOM      4  C   UNL     1      91.353  83.386  78.600  1.00  0.00     0.041 C 
ATOM      5  O   UNL     1      90.202  83.250  78.106  1.00  0.00    -0.550 OA
ATOM      6  O   UNL     1      91.497  83.939  79.866  1.00  0.00    -0.550 OA
ENDBRANCH   3   4
ENDBRANCH   2   3
ENDBRANCH   1   2
BRANCH   1   7
ATOM      7  C   UNL     1      95.079  83.762  78.331  1.00  0.00     0.000 C 
BRANCH   7   8
ATOM      8  C   UNL     1      96.610  83.850  78.236  1.00  0.00    -0.000 C 
BRANCH   8   9
ATOM      9  C   UNL     1      97.304  82.550  78.667  1.00  0.00    -0.003 C 
ATOM     10  C   UNL     1      96.307  81.573  79.284  1.00  0.00     0.004 C 
ENDBRANCH   8   9
ENDBRANCH   7   8
ENDBRANCH   1   7
TORSDOF 6
ENDMDL
MODEL 6
REMARK VINA RESULT:    -3.652      2.845      4.702
REMARK INTER + INTRA:          -5.296
REMARK INTER:                  -4.918
REMARK INTRA:                  -0.378
REMARK UNBOUND:                -0.364
REMARK SMILES CCCCCCCC(=O)[O-]
REMARK SMILES IDX 5 1 6 2 7 3 8 4 9 5 10 6 4 7 3 8 2 9 1 10
REMARK H PARENT
REMARK Flexibility Score: inf
ROOT
ATOM      1  C   UNL     1      86.354  77.656  70.212  1.00  0.00     0.000 C 
ENDROOT
BRANCH   1   2
ATOM      2  C   UNL     1      86.486  77.958  68.712  1.00  0.00     0.006 C 
BRANCH   2   3
ATOM      3  C   UNL     1      86.210  76.722  67.845  1.00  0.00     0.053 C 
BRANCH   3   4
ATOM      4  C   UNL     1      87.470  76.158  67.262  1.00  0.00     0.041 C 
ATOM      5  O   UNL     1      87.552  74.929  67.001  1.00  0.00    -0.550 OA
ATOM      6  O   UNL     1      88.540  76.996  66.975  1.00  0.00    -0.550 OA
ENDBRANCH   3   4
ENDBRANCH   2   3
ENDBRANCH   1   2
BRANCH   1   7
ATOM      7  C   UNL     1      87.515  76.777  70.699  1.00  0.00     0.000 C 
BRANCH   7   8
ATOM      8  C   UNL     1      87.044  75.597  71.562  1.00  0.00    -0.000 C 
BRANCH   8   9
ATOM      9  C   UNL     1      86.173  74.603  70.780  1.00  0.00    -0.003 C 
ATOM     10  C   UNL     1      84.884  74.291  71.535  1.00  0.00     0.004 C 
ENDBRANCH   8   9
ENDBRANCH   7   8
ENDBRANCH   1   7
TORSDOF 6
ENDMDL
MODEL 7
REMARK VINA RESULT:    -3.644     12.838     13.735
REMARK INTER + INTRA:          -5.286
REMARK INTER:                  -5.007
REMARK INTRA:                  -0.279
REMARK UNBOUND:                -0.364
REMARK SMILES CCCCCCCC(=O)[O-]
REMARK SMILES IDX 5 1 6 2 7 3 8 4 9 5 10 6 4 7 3 8 2 9 1 10
REMARK H PARENT
REMARK Flexibility Score: inf
ROOT
ATOM      1  C   UNL     1      94.868  85.028  77.345  1.00  0.00     0.000 C 
ENDROOT
BRANCH   1   2
ATOM      2  C   UNL     1      93.387  84.863  76.973  1.00  0.00     0.006 C 
BRANCH   2   3
ATOM      3  C   UNL     1      92.848  83.472  77.333  1.00  0.00     0.053 C 
BRANCH   3   4
ATOM      4  C   UNL     1      91.359  83.478  77.499  1.00  0.00     0.041 C 
ATOM      5  O   UNL     1      90.842  83.130  78.594  1.00  0.00    -0.550 OA
ATOM      6  O   UNL     1      90.544  83.900  76.457  1.00  0.00    -0.550 OA
ENDBRANCH   3   4
ENDBRANCH   2   3
ENDBRANCH   1   2
BRANCH   1   7
ATOM      7  C   UNL     1      95.357  83.841  78.189  1.00  0.00     0.000 C 
BRANCH   7   8
ATOM      8  C   UNL     1      96.889  83.767  78.277  1.00  0.00    -0.000 C 
BRANCH   8   9
ATOM      9  C   UNL     1      97.387  82.401  78.770  1.00  0.00    -0.003 C 
ATOM     10  C   UNL     1      96.231  81.547  79.283  1.00  0.00     0.004 C 
ENDBRANCH   8   9
ENDBRANCH   7   8
ENDBRANCH   1   7
TORSDOF 6
ENDMDL
MODEL 8
REMARK VINA RESULT:    -3.632      1.475      2.105
REMARK INTER + INTRA:          -5.270
REMARK INTER:                  -4.793
REMARK INTRA:                  -0.477
REMARK UNBOUND:                -0.364
REMARK SMILES CCCCCCCC(=O)[O-]
REMARK SMILES IDX 5 1 6 2 7 3 8 4 9 5 10 6 4 7 3 8 2 9 1 10
REMARK H PARENT
REMARK Flexibility Score: inf
ROOT
ATOM      1  C   UNL     1      86.702  76.930  70.619  1.00  0.00     0.000 C 
ENDROOT
BRANCH   1   2
ATOM      2  C   UNL     1      85.660  75.811  70.484  1.00  0.00     0.006 C 
BRANCH   2   3
ATOM      3  C   UNL     1      86.064  74.545  71.251  1.00  0.00     0.053 C 
BRANCH   3   4
ATOM      4  C   UNL     1      87.492  74.170  70.996  1.00  0.00     0.041 C 
ATOM      5  O   UNL     1      88.274  73.963  71.961  1.00  0.00    -0.550 OA
ATOM      6  O   UNL     1      87.949  74.016  69.694  1.00  0.00    -0.550 OA
ENDBRANCH   3   4
ENDBRANCH   2   3
ENDBRANCH   1   2
BRANCH   1   7
ATOM      7  C   UNL     1      87.051  77.524  69.246  1.00  0.00     0.000 C 
BRANCH   7   8
ATOM      8  C   UNL     1      86.409  76.751  68.085  1.00  0.00    -0.000 C 
BRANCH   8   9
ATOM      9  C   UNL     1      87.427  76.345  67.009  1.00  0.00    -0.003 C 
ATOM     10  C   UNL     1      88.837  76.785  67.395  1.00  0.00     0.004 C 
ENDBRANCH   8   9
ENDBRANCH   7   8
ENDBRANCH   1   7
TORSDOF 6
ENDMDL
MODEL 9
REMARK VINA RESULT:    -3.617      2.784      5.108
REMARK INTER + INTRA:          -5.249
REMARK INTER:                  -4.813
REMARK INTRA:                  -0.436
REMARK UNBOUND:                -0.364
REMARK SMILES CCCCCCCC(=O)[O-]
REMARK SMILES IDX 5 1 6 2 7 3 8 4 9 5 10 6 4 7 3 8 2 9 1 10
REMARK H PARENT
REMARK Flexibility Score: inf
ROOT
ATOM      1  C   UNL     1      87.614  74.444  70.219  1.00  0.00     0.000 C 
ENDROOT
BRANCH   1   2
ATOM      2  C   UNL     1      87.003  74.194  68.833  1.00  0.00     0.006 C 
BRANCH   2   3
ATOM      3  C   UNL     1      87.690  75.021  67.737  1.00  0.00     0.053 C 
BRANCH   3   4
ATOM      4  C   UNL     1      87.548  76.493  67.979  1.00  0.00     0.041 C 
ATOM      5  O   UNL     1      86.405  77.017  68.046  1.00  0.00    -0.550 OA
ATOM      6  O   UNL     1      88.678  77.279  68.164  1.00  0.00    -0.550 OA
ENDBRANCH   3   4
ENDBRANCH   2   3
ENDBRANCH   1   2
BRANCH   1   7
ATOM      7  C   UNL     1      86.527  74.452  71.304  1.00  0.00     0.000 C 
BRANCH   7   8
ATOM      8  C   UNL     1      85.418  75.478  71.025  1.00  0.00    -0.000 C 
BRANCH   8   9
ATOM      9  C   UNL     1      84.019  74.943  71.362  1.00  0.00    -0.003 C 
ATOM     10  C   UNL     1      84.102  73.743  72.302  1.00  0.00     0.004 C 
ENDBRANCH   8   9
ENDBRANCH   7   8
ENDBRANCH   1   7
TORSDOF 6
ENDMDL
