MODEL 1
REMARK VINA RESULT:    -1.330      0.000      0.000
REMARK INTER + INTRA:          -1.330
REMARK INTER:                  -1.330
REMARK INTRA:                   0.000
REMARK UNBOUND:                 0.000
REMARK SMILES CC1=CC(=O)[C@H]2C[C@@H]1C2(C)C
REMARK SMILES IDX 1 1 2 2 3 3 4 4 5 5 6 6 7 7 8 8 9 9 10 10 11 11
REMARK H PARENT
REMARK Flexibility Score: inf
ROOT
ATOM      1  C   UNL     1      28.483  25.073  28.612  1.00  0.00     0.040 C 
ATOM      2  C   UNL     1      29.812  24.390  28.585  1.00  0.00    -0.066 C 
ATOM      3  C   UNL     1      29.935  23.090  28.194  1.00  0.00     0.047 C 
ATOM      4  C   UNL     1      31.316  22.511  28.240  1.00  0.00     0.159 C 
ATOM      5  O   UNL     1      31.553  21.312  27.941  1.00  0.00    -0.295 OA
ATOM      6  C   UNL     1      32.417  23.478  28.678  1.00  0.00     0.067 C 
ATOM      7  C   UNL     1      32.130  24.766  27.875  1.00  0.00     0.021 C 
ATOM      8  C   UNL     1      31.111  25.125  28.981  1.00  0.00     0.022 C 
ATOM      9  C   UNL     1      31.937  24.230  29.952  1.00  0.00    -0.019 C 
ATOM     10  C   UNL     1      31.171  23.426  31.040  1.00  0.00     0.012 C 
ATOM     11  C   UNL     1      33.083  25.012  30.643  1.00  0.00     0.012 C 
ENDROOT
TORSDOF 0
ENDMDL
MODEL 2
REMARK VINA RESULT:    -1.106      1.752      2.847
REMARK INTER + INTRA:          -1.106
REMARK INTER:                  -1.106
REMARK INTRA:                   0.000
REMARK UNBOUND:                 0.000
REMARK SMILES CC1=CC(=O)[C@H]2C[C@@H]1C2(C)C
REMARK SMILES IDX 1 1 2 2 3 3 4 4 5 5 6 6 7 7 8 8 9 9 10 10 11 11
REMARK H PARENT
REMARK Flexibility Score: inf
ROOT
ATOM      1  C   UNL     1      31.104  21.332  27.877  1.00  0.00     0.040 C 
ATOM      2  C   UNL     1      31.453  22.634  28.525  1.00  0.00    -0.066 C 
ATOM      3  C   UNL     1      32.728  22.913  28.915  1.00  0.00     0.047 C 
ATOM      4  C   UNL     1      32.943  24.239  29.580  1.00  0.00     0.159 C 
ATOM      5  O   UNL     1      34.067  24.597  30.019  1.00  0.00    -0.295 OA
ATOM      6  C   UNL     1      31.702  25.125  29.689  1.00  0.00     0.067 C 
ATOM      7  C   UNL     1      31.054  25.043  28.290  1.00  0.00     0.021 C 
ATOM      8  C   UNL     1      30.393  23.729  28.768  1.00  0.00     0.022 C 
ATOM      9  C   UNL     1      30.524  24.262  30.225  1.00  0.00    -0.019 C 
ATOM     10  C   UNL     1      30.814  23.238  31.359  1.00  0.00     0.012 C 
ATOM     11  C   UNL     1      29.307  25.123  30.650  1.00  0.00     0.012 C 
ENDROOT
TORSDOF 0
ENDMDL
MODEL 3
REMARK VINA RESULT:    -1.067      1.652      3.319
REMARK INTER + INTRA:          -1.067
REMARK INTER:                  -1.067
REMARK INTRA:                   0.000
REMARK UNBOUND:                 0.000
REMARK SMILES CC1=CC(=O)[C@H]2C[C@@H]1C2(C)C
REMARK SMILES IDX 1 1 2 2 3 3 4 4 5 5 6 6 7 7 8 8 9 9 10 10 11 11
REMARK H PARENT
REMARK Flexibility Score: inf
ROOT
ATOM      1  C   UNL     1      31.003  24.851  32.135  1.00  0.00     0.040 C 
ATOM      2  C   UNL     1      31.410  24.439  30.756  1.00  0.00    -0.066 C 
ATOM      3  C   UNL     1      32.412  25.079  30.091  1.00  0.00     0.047 C 
ATOM      4  C   UNL     1      32.705  24.591  28.705  1.00  0.00     0.159 C 
ATOM      5  O   UNL     1      33.580  25.125  27.975  1.00  0.00    -0.295 OA
ATOM      6  C   UNL     1      31.866  23.401  28.239  1.00  0.00     0.067 C 
ATOM      7  C   UNL     1      31.892  22.427  29.437  1.00  0.00     0.021 C 
ATOM      8  C   UNL     1      30.731  23.260  30.028  1.00  0.00     0.022 C 
ATOM      9  C   UNL     1      30.374  23.686  28.573  1.00  0.00    -0.019 C 
ATOM     10  C   UNL     1      29.827  25.123  28.342  1.00  0.00     0.012 C 
ATOM     11  C   UNL     1      29.412  22.684  27.884  1.00  0.00     0.012 C 
ENDROOT
TORSDOF 0
ENDMDL
MODEL 4
REMARK VINA RESULT:    -0.020      1.251      2.106
REMARK INTER + INTRA:          -0.020
REMARK INTER:                  -0.020
REMARK INTRA:                   0.000
REMARK UNBOUND:                 0.000
REMARK SMILES CC1=CC(=O)[C@H]2C[C@@H]1C2(C)C
REMARK SMILES IDX 1 1 2 2 3 3 4 4 5 5 6 6 7 7 8 8 9 9 10 10 11 11
REMARK H PARENT
REMARK Flexibility Score: inf
ROOT
ATOM      1  C   UNL     1      30.504  24.402  32.037  1.00  0.00     0.040 C 
ATOM      2  C   UNL     1      30.689  24.077  30.589  1.00  0.00    -0.066 C 
ATOM      3  C   UNL     1      30.174  22.938  30.046  1.00  0.00     0.047 C 
ATOM      4  C   UNL     1      30.454  22.713  28.591  1.00  0.00     0.159 C 
ATOM      5  O   UNL     1      30.067  21.681  27.984  1.00  0.00    -0.295 OA
ATOM      6  C   UNL     1      31.246  23.822  27.897  1.00  0.00     0.067 C 
ATOM      7  C   UNL     1      30.568  25.125  28.374  1.00  0.00     0.021 C 
ATOM      8  C   UNL     1      31.455  25.021  29.637  1.00  0.00     0.022 C 
ATOM      9  C   UNL     1      32.464  24.193  28.789  1.00  0.00    -0.019 C 
ATOM     10  C   UNL     1      33.244  23.044  29.490  1.00  0.00     0.012 C 
ATOM     11  C   UNL     1      33.488  25.091  28.048  1.00  0.00     0.012 C 
ENDROOT
TORSDOF 0
ENDMDL
MODEL 5
REMARK VINA RESULT:     0.226      1.783      2.944
REMARK INTER + INTRA:           0.226
REMARK INTER:                   0.226
REMARK INTRA:                   0.000
REMARK UNBOUND:                 0.000
REMARK SMILES CC1=CC(=O)[C@H]2C[C@@H]1C2(C)C
REMARK SMILES IDX 1 1 2 2 3 3 4 4 5 5 6 6 7 7 8 8 9 9 10 10 11 11
REMARK H PARENT
REMARK Flexibility Score: inf
ROOT
ATOM      1  C   UNL     1      31.762  24.876  32.048  1.00  0.00     0.040 C 
ATOM      2  C   UNL     1      31.430  24.724  30.599  1.00  0.00    -0.066 C 
ATOM      3  C   UNL     1      30.212  25.089  30.108  1.00  0.00     0.047 C 
ATOM      4  C   UNL     1      29.991  24.858  28.643  1.00  0.00     0.159 C 
ATOM      5  O   UNL     1      28.896  25.117  28.080  1.00  0.00    -0.295 OA
ATOM      6  C   UNL     1      31.187  24.284  27.883  1.00  0.00     0.067 C 
ATOM      7  C   UNL     1      32.386  25.125  28.375  1.00  0.00     0.021 C 
ATOM      8  C   UNL     1      32.451  24.165  29.585  1.00  0.00     0.022 C 
ATOM      9  C   UNL     1      31.762  23.089  28.695  1.00  0.00    -0.019 C 
ATOM     10  C   UNL     1      30.764  22.106  29.371  1.00  0.00     0.012 C 
ATOM     11  C   UNL     1      32.784  22.257  27.878  1.00  0.00     0.012 C 
ENDROOT
TORSDOF 0
ENDMDL
MODEL 6
REMARK VINA RESULT:     0.577     16.735     18.230
REMARK INTER + INTRA:           0.577
REMARK INTER:                   0.577
REMARK INTRA:                   0.000
REMARK UNBOUND:                 0.000
REMARK SMILES CC1=CC(=O)[C@H]2C[C@@H]1C2(C)C
REMARK SMILES IDX 1 1 2 2 3 3 4 4 5 5 6 6 7 7 8 8 9 9 10 10 11 11
REMARK H PARENT
REMARK Flexibility Score: inf
ROOT
ATOM      1  C   UNL     1      22.636  10.804  27.879  1.00  0.00     0.040 C 
ATOM      2  C   UNL     1      21.468  10.044  28.422  1.00  0.00    -0.066 C 
ATOM      3  C   UNL     1      21.077   8.859  27.875  1.00  0.00     0.047 C 
ATOM      4  C   UNL     1      19.874   8.210  28.490  1.00  0.00     0.159 C 
ATOM      5  O   UNL     1      19.391   7.135  28.050  1.00  0.00    -0.295 OA
ATOM      6  C   UNL     1      19.272   8.948  29.687  1.00  0.00     0.067 C 
ATOM      7  C   UNL     1      20.494   9.320  30.554  1.00  0.00     0.021 C 
ATOM      8  C   UNL     1      20.662  10.553  29.636  1.00  0.00     0.022 C 
ATOM      9  C   UNL     1      19.140  10.454  29.324  1.00  0.00    -0.019 C 
ATOM     10  C   UNL     1      18.657  10.830  27.894  1.00  0.00     0.012 C 
ATOM     11  C   UNL     1      18.276  11.235  30.348  1.00  0.00     0.012 C 
ENDROOT
TORSDOF 0
ENDMDL
