MODEL 1
REMARK VINA RESULT:    -4.035      0.000      0.000
REMARK INTER + INTRA:          -6.325
REMARK INTER:                  -5.687
REMARK INTRA:                  -0.639
REMARK UNBOUND:                -0.639
REMARK SMILES CCCCCCCCC(=O)[O-]
REMARK SMILES IDX 6 1 7 2 8 3 9 4 10 5 11 6 5 7 4 8 3 9 2 10 1 11
REMARK H PARENT
REMARK Flexibility Score: inf
ROOT
ATOM      1  C   UNL     1      53.372  42.254  49.683  1.00  0.00     0.000 C 
ENDROOT
BRANCH   1   2
ATOM      2  C   UNL     1      52.598  42.397  51.008  1.00  0.00     0.006 C 
BRANCH   2   3
ATOM      3  C   UNL     1      52.023  41.081  51.553  1.00  0.00     0.053 C 
BRANCH   3   4
ATOM      4  C   UNL     1      53.081  40.033  51.719  1.00  0.00     0.041 C 
ATOM      5  O   UNL     1      53.047  38.984  51.023  1.00  0.00    -0.550 OA
ATOM      6  O   UNL     1      54.119  40.230  52.620  1.00  0.00    -0.550 OA
ENDBRANCH   3   4
ENDBRANCH   2   3
ENDBRANCH   1   2
BRANCH   1   7
ATOM      7  C   UNL     1      52.662  42.941  48.504  1.00  0.00     0.000 C 
BRANCH   7   8
ATOM      8  C   UNL     1      52.025  41.936  47.531  1.00  0.00    -0.000 C 
BRANCH   8   9
ATOM      9  C   UNL     1      52.331  40.476  47.902  1.00  0.00    -0.000 C 
BRANCH   9  10
ATOM     10  C   UNL     1      53.290  39.842  46.888  1.00  0.00    -0.003 C 
ATOM     11  C   UNL     1      54.509  39.242  47.582  1.00  0.00     0.004 C 
ENDBRANCH   9  10
ENDBRANCH   8   9
ENDBRANCH   7   8
ENDBRANCH   1   7
TORSDOF 7
ENDMDL
MODEL 2
REMARK VINA RESULT:    -4.016      1.206      1.815
REMARK INTER + INTRA:          -6.299
REMARK INTER:                  -5.645
REMARK INTRA:                  -0.654
REMARK UNBOUND:                -0.639
REMARK SMILES CCCCCCCCC(=O)[O-]
REMARK SMILES IDX 6 1 7 2 8 3 9 4 10 5 11 6 5 7 4 8 3 9 2 10 1 11
REMARK H PARENT
REMARK Flexibility Score: inf
ROOT
ATOM      1  C   UNL     1      52.812  42.855  48.306  1.00  0.00     0.000 C 
ENDROOT
BRANCH   1   2
ATOM      2  C   UNL     1      53.411  42.461  49.670  1.00  0.00     0.006 C 
BRANCH   2   3
ATOM      3  C   UNL     1      52.606  42.950  50.884  1.00  0.00     0.053 C 
BRANCH   3   4
ATOM      4  C   UNL     1      52.241  41.827  51.805  1.00  0.00     0.041 C 
ATOM      5  O   UNL     1      51.644  40.812  51.361  1.00  0.00    -0.550 OA
ATOM      6  O   UNL     1      52.590  41.889  53.148  1.00  0.00    -0.550 OA
ENDBRANCH   3   4
ENDBRANCH   2   3
ENDBRANCH   1   2
BRANCH   1   7
ATOM      7  C   UNL     1      51.897  41.764  47.722  1.00  0.00     0.000 C 
BRANCH   7   8
ATOM      8  C   UNL     1      52.429  40.346  47.983  1.00  0.00    -0.000 C 
BRANCH   8   9
ATOM      9  C   UNL     1      53.324  39.829  46.845  1.00  0.00    -0.000 C 
BRANCH   9  10
ATOM     10  C   UNL     1      54.623  39.230  47.398  1.00  0.00    -0.003 C 
ATOM     11  C   UNL     1      54.543  39.040  48.910  1.00  0.00     0.004 C 
ENDBRANCH   9  10
ENDBRANCH   8   9
ENDBRANCH   7   8
ENDBRANCH   1   7
TORSDOF 7
ENDMDL
MODEL 3
REMARK VINA RESULT:    -4.008      1.711      4.082
REMARK INTER + INTRA:          -6.287
REMARK INTER:                  -5.700
REMARK INTRA:                  -0.587
REMARK UNBOUND:                -0.639
REMARK SMILES CCCCCCCCC(=O)[O-]
REMARK SMILES IDX 6 1 7 2 8 3 9 4 10 5 11 6 5 7 4 8 3 9 2 10 1 11
REMARK H PARENT
REMARK Flexibility Score: inf
ROOT
ATOM      1  C   UNL     1      52.178  42.145  47.398  1.00  0.00     0.000 C 
ENDROOT
BRANCH   1   2
ATOM      2  C   UNL     1      52.215  40.676  47.860  1.00  0.00     0.006 C 
BRANCH   2   3
ATOM      3  C   UNL     1      53.213  39.794  47.094  1.00  0.00     0.053 C 
BRANCH   3   4
ATOM      4  C   UNL     1      54.525  39.680  47.809  1.00  0.00     0.041 C 
ATOM      5  O   UNL     1      55.368  40.612  47.736  1.00  0.00    -0.550 OA
ATOM      6  O   UNL     1      54.801  38.558  48.580  1.00  0.00    -0.550 OA
ENDBRANCH   3   4
ENDBRANCH   2   3
ENDBRANCH   1   2
BRANCH   1   7
ATOM      7  C   UNL     1      52.641  43.124  48.492  1.00  0.00     0.000 C 
BRANCH   7   8
ATOM      8  C   UNL     1      53.019  42.410  49.800  1.00  0.00    -0.000 C 
BRANCH   8   9
ATOM      9  C   UNL     1      52.630  43.216  51.050  1.00  0.00    -0.000 C 
BRANCH   9  10
ATOM     10  C   UNL     1      52.074  42.296  52.143  1.00  0.00    -0.003 C 
ATOM     11  C   UNL     1      51.932  40.863  51.640  1.00  0.00     0.004 C 
ENDBRANCH   9  10
ENDBRANCH   8   9
ENDBRANCH   7   8
ENDBRANCH   1   7
TORSDOF 7
ENDMDL
MODEL 4
REMARK VINA RESULT:    -3.994      2.126      3.396
REMARK INTER + INTRA:          -6.268
REMARK INTER:                  -5.634
REMARK INTRA:                  -0.634
REMARK UNBOUND:                -0.639
REMARK SMILES CCCCCCCCC(=O)[O-]
REMARK SMILES IDX 6 1 7 2 8 3 9 4 10 5 11 6 5 7 4 8 3 9 2 10 1 11
REMARK H PARENT
REMARK Flexibility Score: inf
ROOT
ATOM      1  C   UNL     1      51.862  40.017  49.781  1.00  0.00     0.000 C 
ENDROOT
BRANCH   1   2
ATOM      2  C   UNL     1      53.299  40.120  50.326  1.00  0.00     0.006 C 
BRANCH   2   3
ATOM      3  C   UNL     1      54.002  38.767  50.523  1.00  0.00     0.053 C 
BRANCH   3   4
ATOM      4  C   UNL     1      55.138  38.581  49.564  1.00  0.00     0.041 C 
ATOM      5  O   UNL     1      56.311  38.425  49.994  1.00  0.00    -0.550 OA
ATOM      6  O   UNL     1      54.894  38.549  48.197  1.00  0.00    -0.550 OA
ENDBRANCH   3   4
ENDBRANCH   2   3
ENDBRANCH   1   2
BRANCH   1   7
ATOM      7  C   UNL     1      51.784  40.251  48.262  1.00  0.00     0.000 C 
BRANCH   7   8
ATOM      8  C   UNL     1      52.758  41.339  47.783  1.00  0.00    -0.000 C 
BRANCH   8   9
ATOM      9  C   UNL     1      52.040  42.616  47.317  1.00  0.00    -0.000 C 
BRANCH   9  10
ATOM     10  C   UNL     1      52.716  43.865  47.894  1.00  0.00    -0.003 C 
ATOM     11  C   UNL     1      52.986  43.707  49.387  1.00  0.00     0.004 C 
ENDBRANCH   9  10
ENDBRANCH   8   9
ENDBRANCH   7   8
ENDBRANCH   1   7
TORSDOF 7
ENDMDL
MODEL 5
REMARK VINA RESULT:    -3.985      1.376      2.956
REMARK INTER + INTRA:          -6.254
REMARK INTER:                  -5.619
REMARK INTRA:                  -0.635
REMARK UNBOUND:                -0.639
REMARK SMILES CCCCCCCCC(=O)[O-]
REMARK SMILES IDX 6 1 7 2 8 3 9 4 10 5 11 6 5 7 4 8 3 9 2 10 1 11
REMARK H PARENT
REMARK Flexibility Score: inf
ROOT
ATOM      1  C   UNL     1      55.029  39.573  48.853  1.00  0.00     0.000 C 
ENDROOT
BRANCH   1   2
ATOM      2  C   UNL     1      54.999  38.462  49.920  1.00  0.00     0.006 C 
BRANCH   2   3
ATOM      3  C   UNL     1      53.706  38.412  50.749  1.00  0.00     0.053 C 
BRANCH   3   4
ATOM      4  C   UNL     1      53.502  39.663  51.547  1.00  0.00     0.041 C 
ATOM      5  O   UNL     1      52.388  40.250  51.532  1.00  0.00    -0.550 OA
ATOM      6  O   UNL     1      54.535  40.163  52.331  1.00  0.00    -0.550 OA
ENDBRANCH   3   4
ENDBRANCH   2   3
ENDBRANCH   1   2
BRANCH   1   7
ATOM      7  C   UNL     1      54.481  39.105  47.493  1.00  0.00     0.000 C 
BRANCH   7   8
ATOM      8  C   UNL     1      53.409  40.053  46.932  1.00  0.00    -0.000 C 
BRANCH   8   9
ATOM      9  C   UNL     1      52.273  40.323  47.932  1.00  0.00    -0.000 C 
BRANCH   9  10
ATOM     10  C   UNL     1      52.196  41.813  48.284  1.00  0.00    -0.003 C 
ATOM     11  C   UNL     1      52.151  42.676  47.027  1.00  0.00     0.004 C 
ENDBRANCH   9  10
ENDBRANCH   8   9
ENDBRANCH   7   8
ENDBRANCH   1   7
TORSDOF 7
ENDMDL
MODEL 6
REMARK VINA RESULT:    -3.936      2.148      3.458
REMARK INTER + INTRA:          -6.186
REMARK INTER:                  -5.583
REMARK INTRA:                  -0.603
REMARK UNBOUND:                -0.639
REMARK SMILES CCCCCCCCC(=O)[O-]
REMARK SMILES IDX 6 1 7 2 8 3 9 4 10 5 11 6 5 7 4 8 3 9 2 10 1 11
REMARK H PARENT
REMARK Flexibility Score: inf
ROOT
ATOM      1  C   UNL     1      53.172  39.714  51.497  1.00  0.00     0.000 C 
ENDROOT
BRANCH   1   2
ATOM      2  C   UNL     1      53.616  38.403  50.821  1.00  0.00     0.006 C 
BRANCH   2   3
ATOM      3  C   UNL     1      55.129  38.300  50.567  1.00  0.00     0.053 C 
BRANCH   3   4
ATOM      4  C   UNL     1      55.521  38.920  49.261  1.00  0.00     0.041 C 
ATOM      5  O   UNL     1      54.805  38.751  48.239  1.00  0.00    -0.550 OA
ATOM      6  O   UNL     1      56.661  39.708  49.181  1.00  0.00    -0.550 OA
ENDBRANCH   3   4
ENDBRANCH   2   3
ENDBRANCH   1   2
BRANCH   1   7
ATOM      7  C   UNL     1      52.427  40.655  50.535  1.00  0.00     0.000 C 
BRANCH   7   8
ATOM      8  C   UNL     1      51.675  39.896  49.431  1.00  0.00    -0.000 C 
BRANCH   8   9
ATOM      9  C   UNL     1      51.817  40.558  48.051  1.00  0.00    -0.000 C 
BRANCH   9  10
ATOM     10  C   UNL     1      52.474  41.938  48.171  1.00  0.00    -0.003 C 
ATOM     11  C   UNL     1      52.048  42.854  47.028  1.00  0.00     0.004 C 
ENDBRANCH   9  10
ENDBRANCH   8   9
ENDBRANCH   7   8
ENDBRANCH   1   7
TORSDOF 7
ENDMDL
MODEL 7
REMARK VINA RESULT:    -3.877      2.367      4.168
REMARK INTER + INTRA:          -6.102
REMARK INTER:                  -5.495
REMARK INTRA:                  -0.607
REMARK UNBOUND:                -0.639
REMARK SMILES CCCCCCCCC(=O)[O-]
REMARK SMILES IDX 6 1 7 2 8 3 9 4 10 5 11 6 5 7 4 8 3 9 2 10 1 11
REMARK H PARENT
REMARK Flexibility Score: inf
ROOT
ATOM      1  C   UNL     1      53.374  39.987  46.711  1.00  0.00     0.000 C 
ENDROOT
BRANCH   1   2
ATOM      2  C   UNL     1      52.331  40.458  47.742  1.00  0.00     0.006 C 
BRANCH   2   3
ATOM      3  C   UNL     1      51.984  41.953  47.657  1.00  0.00     0.053 C 
BRANCH   3   4
ATOM      4  C   UNL     1      52.823  42.777  48.585  1.00  0.00     0.041 C 
ATOM      5  O   UNL     1      52.668  42.682  49.832  1.00  0.00    -0.550 OA
ATOM      6  O   UNL     1      53.796  43.626  48.074  1.00  0.00    -0.550 OA
ENDBRANCH   3   4
ENDBRANCH   2   3
ENDBRANCH   1   2
BRANCH   1   7
ATOM      7  C   UNL     1      54.544  39.224  47.356  1.00  0.00     0.000 C 
BRANCH   7   8
ATOM      8  C   UNL     1      54.797  39.651  48.810  1.00  0.00    -0.000 C 
BRANCH   8   9
ATOM      9  C   UNL     1      55.387  38.521  49.668  1.00  0.00    -0.000 C 
BRANCH   9  10
ATOM     10  C   UNL     1      54.386  38.061  50.733  1.00  0.00    -0.003 C 
ATOM     11  C   UNL     1      53.335  39.133  51.003  1.00  0.00     0.004 C 
ENDBRANCH   9  10
ENDBRANCH   8   9
ENDBRANCH   7   8
ENDBRANCH   1   7
TORSDOF 7
ENDMDL
MODEL 8
REMARK VINA RESULT:    -3.877      1.864      3.483
REMARK INTER + INTRA:          -6.102
REMARK INTER:                  -5.330
REMARK INTRA:                  -0.772
REMARK UNBOUND:                -0.639
REMARK SMILES CCCCCCCCC(=O)[O-]
REMARK SMILES IDX 6 1 7 2 8 3 9 4 10 5 11 6 5 7 4 8 3 9 2 10 1 11
REMARK H PARENT
REMARK Flexibility Score: inf
ROOT
ATOM      1  C   UNL     1      54.330  40.092  47.285  1.00  0.00     0.000 C 
ENDROOT
BRANCH   1   2
ATOM      2  C   UNL     1      54.907  38.917  48.097  1.00  0.00     0.006 C 
BRANCH   2   3
ATOM      3  C   UNL     1      55.633  39.332  49.386  1.00  0.00     0.053 C 
BRANCH   3   4
ATOM      4  C   UNL     1      55.535  38.280  50.448  1.00  0.00     0.041 C 
ATOM      5  O   UNL     1      54.430  37.726  50.690  1.00  0.00    -0.550 OA
ATOM      6  O   UNL     1      56.669  37.891  51.149  1.00  0.00    -0.550 OA
ENDBRANCH   3   4
ENDBRANCH   2   3
ENDBRANCH   1   2
BRANCH   1   7
ATOM      7  C   UNL     1      52.839  39.907  46.949  1.00  0.00     0.000 C 
BRANCH   7   8
ATOM      8  C   UNL     1      51.916  40.581  47.976  1.00  0.00    -0.000 C 
BRANCH   8   9
ATOM      9  C   UNL     1      52.556  41.814  48.632  1.00  0.00    -0.000 C 
BRANCH   9  10
ATOM     10  C   UNL     1      52.598  41.664  50.157  1.00  0.00    -0.003 C 
ATOM     11  C   UNL     1      52.034  40.316  50.595  1.00  0.00     0.004 C 
ENDBRANCH   9  10
ENDBRANCH   8   9
ENDBRANCH   7   8
ENDBRANCH   1   7
TORSDOF 7
ENDMDL
MODEL 9
REMARK VINA RESULT:    -3.874      1.619      3.034
REMARK INTER + INTRA:          -6.098
REMARK INTER:                  -5.597
REMARK INTRA:                  -0.501
REMARK UNBOUND:                -0.639
REMARK SMILES CCCCCCCCC(=O)[O-]
REMARK SMILES IDX 6 1 7 2 8 3 9 4 10 5 11 6 5 7 4 8 3 9 2 10 1 11
REMARK H PARENT
REMARK Flexibility Score: inf
ROOT
ATOM      1  C   UNL     1      53.247  40.089  49.028  1.00  0.00     0.000 C 
ENDROOT
BRANCH   1   2
ATOM      2  C   UNL     1      52.988  39.778  50.515  1.00  0.00     0.006 C 
BRANCH   2   3
ATOM      3  C   UNL     1      51.779  40.513  51.116  1.00  0.00     0.053 C 
BRANCH   3   4
ATOM      4  C   UNL     1      52.195  41.575  52.087  1.00  0.00     0.041 C 
ATOM      5  O   UNL     1      51.938  42.785  51.850  1.00  0.00    -0.550 OA
ATOM      6  O   UNL     1      52.840  41.225  53.267  1.00  0.00    -0.550 OA
ENDBRANCH   3   4
ENDBRANCH   2   3
ENDBRANCH   1   2
BRANCH   1   7
ATOM      7  C   UNL     1      51.957  40.419  48.257  1.00  0.00     0.000 C 
BRANCH   7   8
ATOM      8  C   UNL     1      52.044  41.759  47.508  1.00  0.00    -0.000 C 
BRANCH   8   9
ATOM      9  C   UNL     1      52.664  42.877  48.361  1.00  0.00    -0.000 C 
BRANCH   9  10
ATOM     10  C   UNL     1      52.659  44.211  47.605  1.00  0.00    -0.003 C 
ATOM     11  C   UNL     1      51.829  44.118  46.328  1.00  0.00     0.004 C 
ENDBRANCH   9  10
ENDBRANCH   8   9
ENDBRANCH   7   8
ENDBRANCH   1   7
TORSDOF 7
ENDMDL
