MODEL 1
REMARK VINA RESULT:    -4.155      0.000      0.000
REMARK INTER + INTRA:          -6.834
REMARK INTER:                  -6.098
REMARK INTRA:                  -0.736
REMARK UNBOUND:                -0.736
REMARK SMILES O=C([O-])CCCCCCCC(=O)[O-]
REMARK SMILES IDX 7 1 6 2 5 3 4 4 2 5 1 6 3 7 8 8 9 9 10 10 11 11 12 12 13 13
REMARK H PARENT
REMARK Flexibility Score: inf
ROOT
ATOM      1  C   UNL     1     -10.234 -26.316  30.456  1.00  0.00     0.000 C 
ENDROOT
BRANCH   1   2
ATOM      2  C   UNL     1      -9.602 -24.919  30.348  1.00  0.00     0.000 C 
BRANCH   2   3
ATOM      3  C   UNL     1      -8.855 -24.508  31.628  1.00  0.00     0.006 C 
BRANCH   3   4
ATOM      4  C   UNL     1      -7.376 -24.199  31.361  1.00  0.00     0.053 C 
BRANCH   4   5
ATOM      5  C   UNL     1      -6.493 -25.358  31.712  1.00  0.00     0.041 C 
ATOM      6  O   UNL     1      -6.962 -26.345  32.338  1.00  0.00    -0.550 OA
ATOM      7  O   UNL     1      -5.145 -25.334  31.375  1.00  0.00    -0.550 OA
ENDBRANCH   4   5
ENDBRANCH   3   4
ENDBRANCH   2   3
ENDBRANCH   1   2
BRANCH   1   8
ATOM      8  C   UNL     1      -9.334 -27.420  29.873  1.00  0.00     0.000 C 
BRANCH   8   9
ATOM      9  C   UNL     1      -8.330 -26.880  28.842  1.00  0.00     0.006 C 
BRANCH   9  10
ATOM     10  C   UNL     1      -8.375 -27.649  27.516  1.00  0.00     0.053 C 
BRANCH  10  11
ATOM     11  C   UNL     1      -9.757 -27.625  26.945  1.00  0.00     0.041 C 
ATOM     12  O   UNL     1     -10.239 -26.550  26.499  1.00  0.00    -0.550 OA
ATOM     13  O   UNL     1     -10.495 -28.798  26.861  1.00  0.00    -0.550 OA
ENDBRANCH  10  11
ENDBRANCH   9  10
ENDBRANCH   8   9
ENDBRANCH   1   8
TORSDOF 8
ENDMDL
MODEL 2
REMARK VINA RESULT:    -4.097      1.530      4.925
REMARK INTER + INTRA:          -6.748
REMARK INTER:                  -6.049
REMARK INTRA:                  -0.700
REMARK UNBOUND:                -0.736
REMARK SMILES O=C([O-])CCCCCCCC(=O)[O-]
REMARK SMILES IDX 7 1 6 2 5 3 4 4 2 5 1 6 3 7 8 8 9 9 10 10 11 11 12 12 13 13
REMARK H PARENT
REMARK Flexibility Score: inf
ROOT
ATOM      1  C   UNL     1      -9.867 -26.724  31.783  1.00  0.00     0.000 C 
ENDROOT
BRANCH   1   2
ATOM      2  C   UNL     1     -10.666 -26.188  30.584  1.00  0.00     0.000 C 
BRANCH   2   3
ATOM      3  C   UNL     1      -9.871 -25.163  29.756  1.00  0.00     0.006 C 
BRANCH   3   4
ATOM      4  C   UNL     1     -10.217 -25.233  28.262  1.00  0.00     0.053 C 
BRANCH   4   5
ATOM      5  C   UNL     1      -9.519 -26.370  27.581  1.00  0.00     0.041 C 
ATOM      6  O   UNL     1      -8.393 -26.759  27.990  1.00  0.00    -0.550 OA
ATOM      7  O   UNL     1     -10.097 -26.980  26.475  1.00  0.00    -0.550 OA
ENDBRANCH   4   5
ENDBRANCH   3   4
ENDBRANCH   2   3
ENDBRANCH   1   2
BRANCH   1   8
ATOM      8  C   UNL     1      -8.814 -27.769  31.375  1.00  0.00     0.000 C 
BRANCH   8   9
ATOM      9  C   UNL     1      -7.414 -27.438  31.915  1.00  0.00     0.006 C 
BRANCH   9  10
ATOM     10  C   UNL     1      -6.636 -26.489  30.994  1.00  0.00     0.053 C 
BRANCH  10  11
ATOM     11  C   UNL     1      -6.286 -25.229  31.720  1.00  0.00     0.041 C 
ATOM     12  O   UNL     1      -5.100 -25.018  32.088  1.00  0.00    -0.550 OA
ATOM     13  O   UNL     1      -7.260 -24.265  31.948  1.00  0.00    -0.550 OA
ENDBRANCH  10  11
ENDBRANCH   9  10
ENDBRANCH   8   9
ENDBRANCH   1   8
TORSDOF 8
ENDMDL
MODEL 3
REMARK VINA RESULT:    -4.084      1.639      2.210
REMARK INTER + INTRA:          -6.730
REMARK INTER:                  -5.996
REMARK INTRA:                  -0.735
REMARK UNBOUND:                -0.736
REMARK SMILES O=C([O-])CCCCCCCC(=O)[O-]
REMARK SMILES IDX 7 1 6 2 5 3 4 4 2 5 1 6 3 7 8 8 9 9 10 10 11 11 12 12 13 13
REMARK H PARENT
REMARK Flexibility Score: inf
ROOT
ATOM      1  C   UNL     1     -10.612 -26.156  30.401  1.00  0.00     0.000 C 
ENDROOT
BRANCH   1   2
ATOM      2  C   UNL     1      -9.836 -26.713  31.606  1.00  0.00     0.000 C 
BRANCH   2   3
ATOM      3  C   UNL     1      -8.918 -27.887  31.226  1.00  0.00     0.006 C 
BRANCH   3   4
ATOM      4  C   UNL     1      -7.464 -27.645  31.651  1.00  0.00     0.053 C 
BRANCH   4   5
ATOM      5  C   UNL     1      -6.721 -26.815  30.650  1.00  0.00     0.041 C 
ATOM      6  O   UNL     1      -6.473 -25.603  30.890  1.00  0.00    -0.550 OA
ATOM      7  O   UNL     1      -6.329 -27.370  29.438  1.00  0.00    -0.550 OA
ENDBRANCH   4   5
ENDBRANCH   3   4
ENDBRANCH   2   3
ENDBRANCH   1   2
BRANCH   1   8
ATOM      8  C   UNL     1      -9.823 -25.079  29.634  1.00  0.00     0.000 C 
BRANCH   8   9
ATOM      9  C   UNL     1      -9.267 -25.595  28.297  1.00  0.00     0.006 C 
BRANCH   9  10
ATOM     10  C   UNL     1     -10.317 -26.354  27.476  1.00  0.00     0.053 C 
BRANCH  10  11
ATOM     11  C   UNL     1      -9.861 -27.754  27.214  1.00  0.00     0.041 C 
ATOM     12  O   UNL     1      -8.631 -28.016  27.139  1.00  0.00    -0.550 OA
ATOM     13  O   UNL     1     -10.792 -28.779  27.101  1.00  0.00    -0.550 OA
ENDBRANCH  10  11
ENDBRANCH   9  10
ENDBRANCH   8   9
ENDBRANCH   1   8
TORSDOF 8
ENDMDL
MODEL 4
REMARK VINA RESULT:    -4.084      1.825      4.753
REMARK INTER + INTRA:          -6.730
REMARK INTER:                  -6.006
REMARK INTRA:                  -0.724
REMARK UNBOUND:                -0.736
REMARK SMILES O=C([O-])CCCCCCCC(=O)[O-]
REMARK SMILES IDX 7 1 6 2 5 3 4 4 2 5 1 6 3 7 8 8 9 9 10 10 11 11 12 12 13 13
REMARK H PARENT
REMARK Flexibility Score: inf
ROOT
ATOM      1  C   UNL     1     -10.581 -26.175  30.980  1.00  0.00     0.000 C 
ENDROOT
BRANCH   1   2
ATOM      2  C   UNL     1     -10.037 -25.251  29.879  1.00  0.00     0.000 C 
BRANCH   2   3
ATOM      3  C   UNL     1     -10.366 -25.759  28.465  1.00  0.00     0.006 C 
BRANCH   3   4
ATOM      4  C   UNL     1     -11.143 -27.082  28.491  1.00  0.00     0.053 C 
BRANCH   4   5
ATOM      5  C   UNL     1     -10.615 -28.059  27.486  1.00  0.00     0.041 C 
ATOM      6  O   UNL     1     -11.242 -29.125  27.248  1.00  0.00    -0.550 OA
ATOM      7  O   UNL     1      -9.414 -27.807  26.834  1.00  0.00    -0.550 OA
ENDBRANCH   4   5
ENDBRANCH   3   4
ENDBRANCH   2   3
ENDBRANCH   1   2
BRANCH   1   8
ATOM      8  C   UNL     1      -9.478 -26.687  31.923  1.00  0.00     0.000 C 
BRANCH   8   9
ATOM      9  C   UNL     1      -8.762 -27.931  31.373  1.00  0.00     0.006 C 
BRANCH   9  10
ATOM     10  C   UNL     1      -7.236 -27.842  31.511  1.00  0.00     0.053 C 
BRANCH  10  11
ATOM     11  C   UNL     1      -6.664 -26.984  30.428  1.00  0.00     0.041 C 
ATOM     12  O   UNL     1      -5.741 -26.168  30.688  1.00  0.00    -0.550 OA
ATOM     13  O   UNL     1      -7.115 -27.121  29.122  1.00  0.00    -0.550 OA
ENDBRANCH  10  11
ENDBRANCH   9  10
ENDBRANCH   8   9
ENDBRANCH   1   8
TORSDOF 8
ENDMDL
MODEL 5
REMARK VINA RESULT:    -4.064      2.109      2.732
REMARK INTER + INTRA:          -6.700
REMARK INTER:                  -6.045
REMARK INTRA:                  -0.655
REMARK UNBOUND:                -0.736
REMARK SMILES O=C([O-])CCCCCCCC(=O)[O-]
REMARK SMILES IDX 7 1 6 2 5 3 4 4 2 5 1 6 3 7 8 8 9 9 10 10 11 11 12 12 13 13
REMARK H PARENT
REMARK Flexibility Score: inf
ROOT
ATOM      1  C   UNL     1     -10.448 -26.177  30.720  1.00  0.00     0.000 C 
ENDROOT
BRANCH   1   2
ATOM      2  C   UNL     1      -9.524 -26.739  31.814  1.00  0.00     0.000 C 
BRANCH   2   3
ATOM      3  C   UNL     1      -8.777 -28.005  31.362  1.00  0.00     0.006 C 
BRANCH   3   4
ATOM      4  C   UNL     1      -7.258 -27.878  31.545  1.00  0.00     0.053 C 
BRANCH   4   5
ATOM      5  C   UNL     1      -6.648 -26.973  30.519  1.00  0.00     0.041 C 
ATOM      6  O   UNL     1      -6.483 -27.375  29.337  1.00  0.00    -0.550 OA
ATOM      7  O   UNL     1      -6.232 -25.696  30.876  1.00  0.00    -0.550 OA
ENDBRANCH   4   5
ENDBRANCH   3   4
ENDBRANCH   2   3
ENDBRANCH   1   2
BRANCH   1   8
ATOM      8  C   UNL     1      -9.807 -25.014  29.942  1.00  0.00     0.000 C 
BRANCH   8   9
ATOM      9  C   UNL     1      -9.368 -25.423  28.527  1.00  0.00     0.006 C 
BRANCH   9  10
ATOM     10  C   UNL     1     -10.553 -25.803  27.629  1.00  0.00     0.053 C 
BRANCH  10  11
ATOM     11  C   UNL     1     -10.654 -24.860  26.472  1.00  0.00     0.041 C 
ATOM     12  O   UNL     1     -10.384 -23.640  26.624  1.00  0.00    -0.550 OA
ATOM     13  O   UNL     1     -10.999 -25.339  25.215  1.00  0.00    -0.550 OA
ENDBRANCH  10  11
ENDBRANCH   9  10
ENDBRANCH   8   9
ENDBRANCH   1   8
TORSDOF 8
ENDMDL
MODEL 6
REMARK VINA RESULT:    -4.057      1.487      2.165
REMARK INTER + INTRA:          -6.690
REMARK INTER:                  -5.929
REMARK INTRA:                  -0.761
REMARK UNBOUND:                -0.736
REMARK SMILES O=C([O-])CCCCCCCC(=O)[O-]
REMARK SMILES IDX 7 1 6 2 5 3 4 4 2 5 1 6 3 7 8 8 9 9 10 10 11 11 12 12 13 13
REMARK H PARENT
REMARK Flexibility Score: inf
ROOT
ATOM      1  C   UNL     1      -9.825 -26.740  31.473  1.00  0.00     0.000 C 
ENDROOT
BRANCH   1   2
ATOM      2  C   UNL     1      -8.795 -27.868  31.303  1.00  0.00     0.000 C 
BRANCH   2   3
ATOM      3  C   UNL     1      -7.401 -27.478  31.825  1.00  0.00     0.006 C 
BRANCH   3   4
ATOM      4  C   UNL     1      -6.608 -26.656  30.800  1.00  0.00     0.053 C 
BRANCH   4   5
ATOM      5  C   UNL     1      -6.301 -25.281  31.307  1.00  0.00     0.041 C 
ATOM      6  O   UNL     1      -7.126 -24.344  31.135  1.00  0.00    -0.550 OA
ATOM      7  O   UNL     1      -5.092 -25.025  31.941  1.00  0.00    -0.550 OA
ENDBRANCH   4   5
ENDBRANCH   3   4
ENDBRANCH   2   3
ENDBRANCH   1   2
BRANCH   1   8
ATOM      8  C   UNL     1     -10.603 -26.448  30.177  1.00  0.00     0.000 C 
BRANCH   8   9
ATOM      9  C   UNL     1     -10.017 -25.265  29.391  1.00  0.00     0.006 C 
BRANCH   9  10
ATOM     10  C   UNL     1      -9.093 -25.714  28.252  1.00  0.00     0.053 C 
BRANCH  10  11
ATOM     11  C   UNL     1      -9.865 -26.480  27.225  1.00  0.00     0.041 C 
ATOM     12  O   UNL     1      -9.558 -27.672  26.961  1.00  0.00    -0.550 OA
ATOM     13  O   UNL     1     -10.955 -25.893  26.596  1.00  0.00    -0.550 OA
ENDBRANCH  10  11
ENDBRANCH   9  10
ENDBRANCH   8   9
ENDBRANCH   1   8
TORSDOF 8
ENDMDL
MODEL 7
REMARK VINA RESULT:    -4.047      2.349      3.169
REMARK INTER + INTRA:          -6.675
REMARK INTER:                  -5.900
REMARK INTRA:                  -0.775
REMARK UNBOUND:                -0.736
REMARK SMILES O=C([O-])CCCCCCCC(=O)[O-]
REMARK SMILES IDX 7 1 6 2 5 3 4 4 2 5 1 6 3 7 8 8 9 9 10 10 11 11 12 12 13 13
REMARK H PARENT
REMARK Flexibility Score: inf
ROOT
ATOM      1  C   UNL     1      -8.222 -26.698  28.700  1.00  0.00     0.000 C 
ENDROOT
BRANCH   1   2
ATOM      2  C   UNL     1      -7.753 -26.815  30.159  1.00  0.00     0.000 C 
BRANCH   2   3
ATOM      3  C   UNL     1      -7.513 -25.444  30.814  1.00  0.00     0.006 C 
BRANCH   3   4
ATOM      4  C   UNL     1      -8.826 -24.712  31.122  1.00  0.00     0.053 C 
BRANCH   4   5
ATOM      5  C   UNL     1      -9.695 -25.495  32.058  1.00  0.00     0.041 C 
ATOM      6  O   UNL     1      -9.333 -25.682  33.251  1.00  0.00    -0.550 OA
ATOM      7  O   UNL     1     -10.888 -26.044  31.607  1.00  0.00    -0.550 OA
ENDBRANCH   4   5
ENDBRANCH   3   4
ENDBRANCH   2   3
ENDBRANCH   1   2
BRANCH   1   8
ATOM      8  C   UNL     1      -9.647 -27.238  28.490  1.00  0.00     0.000 C 
BRANCH   8   9
ATOM      9  C   UNL     1     -10.619 -26.159  27.988  1.00  0.00     0.006 C 
BRANCH   9  10
ATOM     10  C   UNL     1      -9.896 -24.900  27.491  1.00  0.00     0.053 C 
BRANCH  10  11
ATOM     11  C   UNL     1     -10.626 -24.304  26.329  1.00  0.00     0.041 C 
ATOM     12  O   UNL     1     -10.882 -23.071  26.307  1.00  0.00    -0.550 OA
ATOM     13  O   UNL     1     -10.981 -25.100  25.249  1.00  0.00    -0.550 OA
ENDBRANCH  10  11
ENDBRANCH   9  10
ENDBRANCH   8   9
ENDBRANCH   1   8
TORSDOF 8
ENDMDL
MODEL 8
REMARK VINA RESULT:    -4.028      2.294      5.410
REMARK INTER + INTRA:          -6.647
REMARK INTER:                  -5.921
REMARK INTRA:                  -0.726
REMARK UNBOUND:                -0.736
REMARK SMILES O=C([O-])CCCCCCCC(=O)[O-]
REMARK SMILES IDX 7 1 6 2 5 3 4 4 2 5 1 6 3 7 8 8 9 9 10 10 11 11 12 12 13 13
REMARK H PARENT
REMARK Flexibility Score: inf
ROOT
ATOM      1  C   UNL     1      -8.284 -26.767  28.849  1.00  0.00     0.000 C 
ENDROOT
BRANCH   1   2
ATOM      2  C   UNL     1      -9.745 -27.242  28.789  1.00  0.00     0.000 C 
BRANCH   2   3
ATOM      3  C   UNL     1     -10.659 -26.250  28.050  1.00  0.00     0.006 C 
BRANCH   3   4
ATOM      4  C   UNL     1      -9.899 -25.001  27.581  1.00  0.00     0.053 C 
BRANCH   4   5
ATOM      5  C   UNL     1     -10.620 -24.292  26.477  1.00  0.00     0.041 C 
ATOM      6  O   UNL     1     -10.832 -24.875  25.380  1.00  0.00    -0.550 OA
ATOM      7  O   UNL     1     -11.032 -22.976  26.647  1.00  0.00    -0.550 OA
ENDBRANCH   4   5
ENDBRANCH   3   4
ENDBRANCH   2   3
ENDBRANCH   1   2
BRANCH   1   8
ATOM      8  C   UNL     1      -7.748 -26.678  30.289  1.00  0.00     0.000 C 
BRANCH   8   9
ATOM      9  C   UNL     1      -7.582 -25.227  30.769  1.00  0.00     0.006 C 
BRANCH   9  10
ATOM     10  C   UNL     1      -8.913 -24.588  31.185  1.00  0.00     0.053 C 
BRANCH  10  11
ATOM     11  C   UNL     1      -9.593 -25.427  32.220  1.00  0.00     0.041 C 
ATOM     12  O   UNL     1     -10.713 -25.948  31.977  1.00  0.00    -0.550 OA
ATOM     13  O   UNL     1      -8.968 -25.673  33.435  1.00  0.00    -0.550 OA
ENDBRANCH  10  11
ENDBRANCH   9  10
ENDBRANCH   8   9
ENDBRANCH   1   8
TORSDOF 8
ENDMDL
MODEL 9
REMARK VINA RESULT:    -4.000      0.594      5.412
REMARK INTER + INTRA:          -6.607
REMARK INTER:                  -5.960
REMARK INTRA:                  -0.646
REMARK UNBOUND:                -0.736
REMARK SMILES O=C([O-])CCCCCCCC(=O)[O-]
REMARK SMILES IDX 7 1 6 2 5 3 4 4 2 5 1 6 3 7 8 8 9 9 10 10 11 11 12 12 13 13
REMARK H PARENT
REMARK Flexibility Score: inf
ROOT
ATOM      1  C   UNL     1      -9.857 -25.408  30.194  1.00  0.00     0.000 C 
ENDROOT
BRANCH   1   2
ATOM      2  C   UNL     1      -9.339 -26.795  29.778  1.00  0.00     0.000 C 
BRANCH   2   3
ATOM      3  C   UNL     1      -8.220 -26.715  28.726  1.00  0.00     0.006 C 
BRANCH   3   4
ATOM      4  C   UNL     1      -8.462 -27.670  27.549  1.00  0.00     0.053 C 
BRANCH   4   5
ATOM      5  C   UNL     1      -9.864 -27.572  27.031  1.00  0.00     0.041 C 
ATOM      6  O   UNL     1     -10.638 -28.563  27.107  1.00  0.00    -0.550 OA
ATOM      7  O   UNL     1     -10.306 -26.397  26.436  1.00  0.00    -0.550 OA
ENDBRANCH   4   5
ENDBRANCH   3   4
ENDBRANCH   2   3
ENDBRANCH   1   2
BRANCH   1   8
ATOM      8  C   UNL     1      -9.376 -24.992  31.595  1.00  0.00     0.000 C 
BRANCH   8   9
ATOM      9  C   UNL     1      -8.087 -24.156  31.552  1.00  0.00     0.006 C 
BRANCH   9  10
ATOM     10  C   UNL     1      -7.001 -24.699  32.490  1.00  0.00     0.053 C 
BRANCH  10  11
ATOM     11  C   UNL     1      -6.240 -25.801  31.825  1.00  0.00     0.041 C 
ATOM     12  O   UNL     1      -6.515 -27.003  32.077  1.00  0.00    -0.550 OA
ATOM     13  O   UNL     1      -5.259 -25.501  30.889  1.00  0.00    -0.550 OA
ENDBRANCH  10  11
ENDBRANCH   9  10
ENDBRANCH   8   9
ENDBRANCH   1   8
TORSDOF 8
ENDMDL
