MODEL 1
REMARK VINA RESULT:    -3.930      0.000      0.000
REMARK INTER + INTRA:          -5.723
REMARK INTER:                  -5.309
REMARK INTRA:                  -0.414
REMARK UNBOUND:                -0.414
REMARK SMILES CCCCCCCC(=O)[O-]
REMARK SMILES IDX 5 1 6 2 7 3 8 4 9 5 10 6 4 7 3 8 2 9 1 10
REMARK H PARENT
REMARK Flexibility Score: inf
ROOT
ATOM      1  C   UNL     1      46.245   5.047 127.885  1.00  0.00     0.000 C 
ENDROOT
BRANCH   1   2
ATOM      2  C   UNL     1      46.471   5.245 129.392  1.00  0.00     0.006 C 
BRANCH   2   3
ATOM      3  C   UNL     1      45.207   4.909 130.187  1.00  0.00     0.053 C 
BRANCH   3   4
ATOM      4  C   UNL     1      45.556   4.184 131.447  1.00  0.00     0.041 C 
ATOM      5  O   UNL     1      46.729   4.234 131.903  1.00  0.00    -0.550 OA
ATOM      6  O   UNL     1      44.600   3.410 132.093  1.00  0.00    -0.550 OA
ENDBRANCH   3   4
ENDBRANCH   2   3
ENDBRANCH   1   2
BRANCH   1   7
ATOM      7  C   UNL     1      44.825   4.533 127.570  1.00  0.00     0.000 C 
BRANCH   7   8
ATOM      8  C   UNL     1      44.106   5.338 126.475  1.00  0.00    -0.000 C 
BRANCH   8   9
ATOM      9  C   UNL     1      42.645   5.649 126.825  1.00  0.00    -0.003 C 
ATOM     10  C   UNL     1      42.547   6.434 128.130  1.00  0.00     0.004 C 
ENDBRANCH   8   9
ENDBRANCH   7   8
ENDBRANCH   1   7
TORSDOF 6
ENDMDL
MODEL 2
REMARK VINA RESULT:    -3.929      1.566      1.974
REMARK INTER + INTRA:          -5.722
REMARK INTER:                  -5.284
REMARK INTRA:                  -0.438
REMARK UNBOUND:                -0.414
REMARK SMILES CCCCCCCC(=O)[O-]
REMARK SMILES IDX 5 1 6 2 7 3 8 4 9 5 10 6 4 7 3 8 2 9 1 10
REMARK H PARENT
REMARK Flexibility Score: inf
ROOT
ATOM      1  C   UNL     1      46.697   6.663 127.502  1.00  0.00     0.000 C 
ENDROOT
BRANCH   1   2
ATOM      2  C   UNL     1      47.089   6.741 128.986  1.00  0.00     0.006 C 
BRANCH   2   3
ATOM      3  C   UNL     1      47.619   5.395 129.487  1.00  0.00     0.053 C 
BRANCH   3   4
ATOM      4  C   UNL     1      46.730   4.846 130.557  1.00  0.00     0.041 C 
ATOM      5  O   UNL     1      47.216   4.486 131.662  1.00  0.00    -0.550 OA
ATOM      6  O   UNL     1      45.372   4.683 130.318  1.00  0.00    -0.550 OA
ENDBRANCH   3   4
ENDBRANCH   2   3
ENDBRANCH   1   2
BRANCH   1   7
ATOM      7  C   UNL     1      45.167   6.657 127.302  1.00  0.00     0.000 C 
BRANCH   7   8
ATOM      8  C   UNL     1      44.400   7.427 128.389  1.00  0.00    -0.000 C 
BRANCH   8   9
ATOM      9  C   UNL     1      42.999   6.858 128.649  1.00  0.00    -0.003 C 
ATOM     10  C   UNL     1      42.520   6.016 127.469  1.00  0.00     0.004 C 
ENDBRANCH   8   9
ENDBRANCH   7   8
ENDBRANCH   1   7
TORSDOF 6
ENDMDL
MODEL 3
REMARK VINA RESULT:    -3.893      1.230      2.015
REMARK INTER + INTRA:          -5.673
REMARK INTER:                  -5.319
REMARK INTRA:                  -0.354
REMARK UNBOUND:                -0.414
REMARK SMILES CCCCCCCC(=O)[O-]
REMARK SMILES IDX 5 1 6 2 7 3 8 4 9 5 10 6 4 7 3 8 2 9 1 10
REMARK H PARENT
REMARK Flexibility Score: inf
ROOT
ATOM      1  C   UNL     1      46.002   6.912 128.984  1.00  0.00     0.000 C 
ENDROOT
BRANCH   1   2
ATOM      2  C   UNL     1      45.872   5.435 129.388  1.00  0.00     0.006 C 
BRANCH   2   3
ATOM      3  C   UNL     1      46.892   5.069 130.469  1.00  0.00     0.053 C 
BRANCH   3   4
ATOM      4  C   UNL     1      46.269   4.180 131.499  1.00  0.00     0.041 C 
ATOM      5  O   UNL     1      45.019   4.166 131.651  1.00  0.00    -0.550 OA
ATOM      6  O   UNL     1      47.072   3.405 132.326  1.00  0.00    -0.550 OA
ENDBRANCH   3   4
ENDBRANCH   2   3
ENDBRANCH   1   2
BRANCH   1   7
ATOM      7  C   UNL     1      44.693   7.472 128.388  1.00  0.00     0.000 C 
BRANCH   7   8
ATOM      8  C   UNL     1      43.424   6.831 128.974  1.00  0.00    -0.000 C 
BRANCH   8   9
ATOM      9  C   UNL     1      42.451   6.338 127.896  1.00  0.00    -0.003 C 
ATOM     10  C   UNL     1      43.181   5.538 126.819  1.00  0.00     0.004 C 
ENDBRANCH   8   9
ENDBRANCH   7   8
ENDBRANCH   1   7
TORSDOF 6
ENDMDL
MODEL 4
REMARK VINA RESULT:    -3.869      1.363      1.829
REMARK INTER + INTRA:          -5.640
REMARK INTER:                  -5.196
REMARK INTRA:                  -0.443
REMARK UNBOUND:                -0.414
REMARK SMILES CCCCCCCC(=O)[O-]
REMARK SMILES IDX 5 1 6 2 7 3 8 4 9 5 10 6 4 7 3 8 2 9 1 10
REMARK H PARENT
REMARK Flexibility Score: inf
ROOT
ATOM      1  C   UNL     1      46.877   6.714 127.393  1.00  0.00     0.000 C 
ENDROOT
BRANCH   1   2
ATOM      2  C   UNL     1      46.824   6.789 128.927  1.00  0.00     0.006 C 
BRANCH   2   3
ATOM      3  C   UNL     1      47.483   5.561 129.561  1.00  0.00     0.053 C 
BRANCH   3   4
ATOM      4  C   UNL     1      46.565   4.931 130.561  1.00  0.00     0.041 C 
ATOM      5  O   UNL     1      45.327   4.878 130.339  1.00  0.00    -0.550 OA
ATOM      6  O   UNL     1      47.071   4.447 131.760  1.00  0.00    -0.550 OA
ENDBRANCH   3   4
ENDBRANCH   2   3
ENDBRANCH   1   2
BRANCH   1   7
ATOM      7  C   UNL     1      45.471   6.724 126.759  1.00  0.00     0.000 C 
BRANCH   7   8
ATOM      8  C   UNL     1      44.698   5.409 126.952  1.00  0.00    -0.000 C 
BRANCH   8   9
ATOM      9  C   UNL     1      43.177   5.607 126.977  1.00  0.00    -0.003 C 
ATOM     10  C   UNL     1      42.742   6.379 128.220  1.00  0.00     0.004 C 
ENDBRANCH   8   9
ENDBRANCH   7   8
ENDBRANCH   1   7
TORSDOF 6
ENDMDL
MODEL 5
REMARK VINA RESULT:    -3.825      2.883      4.587
REMARK INTER + INTRA:          -5.581
REMARK INTER:                  -5.077
REMARK INTRA:                  -0.504
REMARK UNBOUND:                -0.414
REMARK SMILES CCCCCCCC(=O)[O-]
REMARK SMILES IDX 5 1 6 2 7 3 8 4 9 5 10 6 4 7 3 8 2 9 1 10
REMARK H PARENT
REMARK Flexibility Score: inf
ROOT
ATOM      1  C   UNL     1      46.229   7.282 129.108  1.00  0.00     0.000 C 
ENDROOT
BRANCH   1   2
ATOM      2  C   UNL     1      45.131   7.528 128.061  1.00  0.00     0.006 C 
BRANCH   2   3
ATOM      3  C   UNL     1      43.845   6.782 128.427  1.00  0.00     0.053 C 
BRANCH   3   4
ATOM      4  C   UNL     1      43.596   5.663 127.467  1.00  0.00     0.041 C 
ATOM      5  O   UNL     1      42.581   5.680 126.722  1.00  0.00    -0.550 OA
ATOM      6  O   UNL     1      44.457   4.574 127.430  1.00  0.00    -0.550 OA
ENDBRANCH   3   4
ENDBRANCH   2   3
ENDBRANCH   1   2
BRANCH   1   7
ATOM      7  C   UNL     1      47.337   6.346 128.582  1.00  0.00     0.000 C 
BRANCH   7   8
ATOM      8  C   UNL     1      47.438   5.017 129.350  1.00  0.00    -0.000 C 
BRANCH   8   9
ATOM      9  C   UNL     1      46.401   4.897 130.474  1.00  0.00    -0.003 C 
ATOM     10  C   UNL     1      46.980   4.161 131.680  1.00  0.00     0.004 C 
ENDBRANCH   8   9
ENDBRANCH   7   8
ENDBRANCH   1   7
TORSDOF 6
ENDMDL
MODEL 6
REMARK VINA RESULT:    -3.813      2.801      3.377
REMARK INTER + INTRA:          -5.565
REMARK INTER:                  -5.103
REMARK INTRA:                  -0.462
REMARK UNBOUND:                -0.414
REMARK SMILES CCCCCCCC(=O)[O-]
REMARK SMILES IDX 5 1 6 2 7 3 8 4 9 5 10 6 4 7 3 8 2 9 1 10
REMARK H PARENT
REMARK Flexibility Score: inf
ROOT
ATOM      1  C   UNL     1      44.726   4.496 127.805  1.00  0.00     0.000 C 
ENDROOT
BRANCH   1   2
ATOM      2  C   UNL     1      46.251   4.681 127.760  1.00  0.00     0.006 C 
BRANCH   2   3
ATOM      3  C   UNL     1      46.719   5.660 128.840  1.00  0.00     0.053 C 
BRANCH   3   4
ATOM      4  C   UNL     1      47.376   6.852 128.221  1.00  0.00     0.041 C 
ATOM      5  O   UNL     1      47.898   7.738 128.948  1.00  0.00    -0.550 OA
ATOM      6  O   UNL     1      47.367   7.012 126.841  1.00  0.00    -0.550 OA
ENDBRANCH   3   4
ENDBRANCH   2   3
ENDBRANCH   1   2
BRANCH   1   7
ATOM      7  C   UNL     1      44.000   5.370 126.761  1.00  0.00     0.000 C 
BRANCH   7   8
ATOM      8  C   UNL     1      42.679   5.969 127.269  1.00  0.00    -0.000 C 
BRANCH   8   9
ATOM      9  C   UNL     1      42.712   6.307 128.765  1.00  0.00    -0.003 C 
ATOM     10  C   UNL     1      43.506   7.585 129.024  1.00  0.00     0.004 C 
ENDBRANCH   8   9
ENDBRANCH   7   8
ENDBRANCH   1   7
TORSDOF 6
ENDMDL
MODEL 7
REMARK VINA RESULT:    -3.811      1.276      2.081
REMARK INTER + INTRA:          -5.562
REMARK INTER:                  -5.082
REMARK INTRA:                  -0.480
REMARK UNBOUND:                -0.414
REMARK SMILES CCCCCCCC(=O)[O-]
REMARK SMILES IDX 5 1 6 2 7 3 8 4 9 5 10 6 4 7 3 8 2 9 1 10
REMARK H PARENT
REMARK Flexibility Score: inf
ROOT
ATOM      1  C   UNL     1      44.745   5.515 126.671  1.00  0.00     0.000 C 
ENDROOT
BRANCH   1   2
ATOM      2  C   UNL     1      45.578   4.542 127.520  1.00  0.00     0.006 C 
BRANCH   2   3
ATOM      3  C   UNL     1      46.614   5.292 128.361  1.00  0.00     0.053 C 
BRANCH   3   4
ATOM      4  C   UNL     1      46.403   5.025 129.817  1.00  0.00     0.041 C 
ATOM      5  O   UNL     1      47.345   5.194 130.636  1.00  0.00    -0.550 OA
ATOM      6  O   UNL     1      45.181   4.541 130.265  1.00  0.00    -0.550 OA
ENDBRANCH   3   4
ENDBRANCH   2   3
ENDBRANCH   1   2
BRANCH   1   7
ATOM      7  C   UNL     1      43.235   5.213 126.748  1.00  0.00     0.000 C 
BRANCH   7   8
ATOM      8  C   UNL     1      42.419   6.318 127.438  1.00  0.00    -0.000 C 
BRANCH   8   9
ATOM      9  C   UNL     1      42.662   6.384 128.951  1.00  0.00    -0.003 C 
ATOM     10  C   UNL     1      43.557   7.566 129.314  1.00  0.00     0.004 C 
ENDBRANCH   8   9
ENDBRANCH   7   8
ENDBRANCH   1   7
TORSDOF 6
ENDMDL
MODEL 8
REMARK VINA RESULT:    -3.773      2.833      5.452
REMARK INTER + INTRA:          -5.511
REMARK INTER:                  -5.284
REMARK INTRA:                  -0.227
REMARK UNBOUND:                -0.414
REMARK SMILES CCCCCCCC(=O)[O-]
REMARK SMILES IDX 5 1 6 2 7 3 8 4 9 5 10 6 4 7 3 8 2 9 1 10
REMARK H PARENT
REMARK Flexibility Score: inf
ROOT
ATOM      1  C   UNL     1      47.054   4.491 131.413  1.00  0.00     0.000 C 
ENDROOT
BRANCH   1   2
ATOM      2  C   UNL     1      46.812   5.264 130.107  1.00  0.00     0.006 C 
BRANCH   2   3
ATOM      3  C   UNL     1      45.333   5.229 129.713  1.00  0.00     0.053 C 
BRANCH   3   4
ATOM      4  C   UNL     1      45.184   4.886 128.265  1.00  0.00     0.041 C 
ATOM      5  O   UNL     1      46.178   4.485 127.603  1.00  0.00    -0.550 OA
ATOM      6  O   UNL     1      43.960   5.057 127.632  1.00  0.00    -0.550 OA
ENDBRANCH   3   4
ENDBRANCH   2   3
ENDBRANCH   1   2
BRANCH   1   7
ATOM      7  C   UNL     1      45.751   3.901 131.992  1.00  0.00     0.000 C 
BRANCH   7   8
ATOM      8  C   UNL     1      45.620   4.070 133.514  1.00  0.00    -0.000 C 
BRANCH   8   9
ATOM      9  C   UNL     1      45.620   2.733 134.266  1.00  0.00    -0.003 C 
ATOM     10  C   UNL     1      46.383   2.842 135.584  1.00  0.00     0.004 C 
ENDBRANCH   8   9
ENDBRANCH   7   8
ENDBRANCH   1   7
TORSDOF 6
ENDMDL
MODEL 9
REMARK VINA RESULT:    -3.691      2.922      5.269
REMARK INTER + INTRA:          -5.400
REMARK INTER:                  -5.184
REMARK INTRA:                  -0.216
REMARK UNBOUND:                -0.414
REMARK SMILES CCCCCCCC(=O)[O-]
REMARK SMILES IDX 5 1 6 2 7 3 8 4 9 5 10 6 4 7 3 8 2 9 1 10
REMARK H PARENT
REMARK Flexibility Score: inf
ROOT
ATOM      1  C   UNL     1      46.880   5.265 129.954  1.00  0.00     0.000 C 
ENDROOT
BRANCH   1   2
ATOM      2  C   UNL     1      45.362   5.187 129.730  1.00  0.00     0.006 C 
BRANCH   2   3
ATOM      3  C   UNL     1      45.037   4.835 128.276  1.00  0.00     0.053 C 
BRANCH   3   4
ATOM      4  C   UNL     1      44.000   5.763 127.730  1.00  0.00     0.041 C 
ATOM      5  O   UNL     1      43.282   5.410 126.758  1.00  0.00    -0.550 OA
ATOM      6  O   UNL     1      43.859   7.039 128.261  1.00  0.00    -0.550 OA
ENDBRANCH   3   4
ENDBRANCH   2   3
ENDBRANCH   1   2
BRANCH   1   7
ATOM      7  C   UNL     1      47.329   4.467 131.196  1.00  0.00     0.000 C 
BRANCH   7   8
ATOM      8  C   UNL     1      46.163   3.997 132.082  1.00  0.00    -0.000 C 
BRANCH   8   9
ATOM      9  C   UNL     1      46.571   2.901 133.074  1.00  0.00    -0.003 C 
ATOM     10  C   UNL     1      45.919   3.122 134.437  1.00  0.00     0.004 C 
ENDBRANCH   8   9
ENDBRANCH   7   8
ENDBRANCH   1   7
TORSDOF 6
ENDMDL
