MODEL 1
REMARK VINA RESULT:    -6.990      0.000      0.000
REMARK INTER + INTRA:          -7.603
REMARK INTER:                  -7.603
REMARK INTRA:                   0.000
REMARK UNBOUND:                 0.000
REMARK SMILES Cc1cc(O)c2c(c1)C(=O)c1cc(O)cc(O)c1C2=O
REMARK SMILES IDX 1 1 2 2 8 3 7 4 6 5 4 6 3 7 19 8 20 9 18 10 11 11 9 12 10 13
REMARK SMILES IDX 12 14 13 15 15 16 16 17 5 18 17 20 14 22
REMARK H PARENT 5 19 17 21 14 23
REMARK Flexibility Score: inf
ROOT
ATOM      1  C   UNL     1      40.989   4.633  33.506  1.00  0.00     0.044 C 
ATOM      2  C   UNL     1      41.271   5.923  34.218  1.00  0.00    -0.047 A 
ATOM      3  C   UNL     1      41.688   7.048  33.499  1.00  0.00     0.016 A 
ATOM      4  C   UNL     1      41.932   8.268  34.153  1.00  0.00     0.038 A 
ATOM      5  C   UNL     1      41.754   8.365  35.552  1.00  0.00     0.076 A 
ATOM      6  C   UNL     1      41.234   7.247  36.259  1.00  0.00     0.127 A 
ATOM      7  C   UNL     1      41.027   6.037  35.589  1.00  0.00     0.050 A 
ATOM      8  C   UNL     1      42.172   9.623  36.233  1.00  0.00     0.201 C 
ATOM      9  O   UNL     1      42.426   9.620  37.467  1.00  0.00    -0.288 OA
ATOM     10  C   UNL     1      42.403  10.860  35.442  1.00  0.00     0.076 A 
ATOM     11  C   UNL     1      42.512  10.766  34.037  1.00  0.00     0.041 A 
ATOM     12  C   UNL     1      42.362   9.452  33.372  1.00  0.00     0.194 C 
ATOM     13  O   UNL     1      42.582   9.347  32.134  1.00  0.00    -0.289 OA
ATOM     14  C   UNL     1      42.768  11.921  33.278  1.00  0.00     0.059 A 
ATOM     15  C   UNL     1      42.907  13.163  33.900  1.00  0.00     0.120 A 
ATOM     16  C   UNL     1      42.791  13.262  35.289  1.00  0.00     0.093 A 
ATOM     17  C   UNL     1      42.539  12.122  36.065  1.00  0.00     0.131 A 
ENDROOT
BRANCH   6  18
ATOM     18  O   UNL     1      40.875   7.300  37.608  1.00  0.00    -0.507 OA
ATOM     19  H   UNL     1      40.579   6.495  38.141  1.00  0.00     0.293 HD
ENDBRANCH   6  18
BRANCH  17  20
ATOM     20  O   UNL     1      42.415  12.250  37.448  1.00  0.00    -0.507 OA
ATOM     21  H   UNL     1      42.383  11.441  38.058  1.00  0.00     0.293 HD
ENDBRANCH  17  20
BRANCH  15  22
ATOM     22  O   UNL     1      43.159  14.294  33.127  1.00  0.00    -0.508 OA
ATOM     23  H   UNL     1      43.139  14.259  32.115  1.00  0.00     0.293 HD
ENDBRANCH  15  22
TORSDOF 3
ENDMDL
MODEL 2
REMARK VINA RESULT:    -6.421      1.305      3.564
REMARK INTER + INTRA:          -6.984
REMARK INTER:                  -6.984
REMARK INTRA:                   0.000
REMARK UNBOUND:                 0.000
REMARK SMILES Cc1cc(O)c2c(c1)C(=O)c1cc(O)cc(O)c1C2=O
REMARK SMILES IDX 1 1 2 2 8 3 7 4 6 5 4 6 3 7 19 8 20 9 18 10 11 11 9 12 10 13
REMARK SMILES IDX 12 14 13 15 15 16 16 17 5 18 17 20 14 22
REMARK H PARENT 5 19 17 21 14 23
REMARK Flexibility Score: inf
ROOT
ATOM      1  C   UNL     1      41.255   5.730  34.406  1.00  0.00     0.044 C 
ATOM      2  C   UNL     1      41.621   7.178  34.267  1.00  0.00    -0.047 A 
ATOM      3  C   UNL     1      41.378   8.070  35.315  1.00  0.00     0.016 A 
ATOM      4  C   UNL     1      41.739   9.424  35.204  1.00  0.00     0.038 A 
ATOM      5  C   UNL     1      42.355   9.894  34.022  1.00  0.00     0.076 A 
ATOM      6  C   UNL     1      42.689   8.962  33.003  1.00  0.00     0.127 A 
ATOM      7  C   UNL     1      42.294   7.626  33.127  1.00  0.00     0.050 A 
ATOM      8  C   UNL     1      42.580  11.360  33.874  1.00  0.00     0.201 C 
ATOM      9  O   UNL     1      42.726  11.866  32.730  1.00  0.00    -0.288 OA
ATOM     10  C   UNL     1      42.517  12.249  35.064  1.00  0.00     0.076 A 
ATOM     11  C   UNL     1      41.961  11.752  36.263  1.00  0.00     0.041 A 
ATOM     12  C   UNL     1      41.484  10.353  36.331  1.00  0.00     0.194 C 
ATOM     13  O   UNL     1      40.875   9.946  37.359  1.00  0.00    -0.289 OA
ATOM     14  C   UNL     1      41.861  12.592  37.386  1.00  0.00     0.059 A 
ATOM     15  C   UNL     1      42.313  13.912  37.329  1.00  0.00     0.120 A 
ATOM     16  C   UNL     1      42.871  14.404  36.147  1.00  0.00     0.093 A 
ATOM     17  C   UNL     1      42.978  13.585  35.016  1.00  0.00     0.131 A 
ENDROOT
BRANCH   6  18
ATOM     18  O   UNL     1      43.440   9.303  31.875  1.00  0.00    -0.507 OA
ATOM     19  H   UNL     1      44.400   9.614  31.914  1.00  0.00     0.293 HD
ENDBRANCH   6  18
BRANCH  17  20
ATOM     20  O   UNL     1      43.552  14.097  33.852  1.00  0.00    -0.507 OA
ATOM     21  H   UNL     1      43.874  13.493  33.105  1.00  0.00     0.293 HD
ENDBRANCH  17  20
BRANCH  15  22
ATOM     22  O   UNL     1      42.204  14.724  38.455  1.00  0.00    -0.508 OA
ATOM     23  H   UNL     1      43.021  15.127  38.899  1.00  0.00     0.293 HD
ENDBRANCH  15  22
TORSDOF 3
ENDMDL
MODEL 3
REMARK VINA RESULT:    -6.328      1.553      6.325
REMARK INTER + INTRA:          -6.883
REMARK INTER:                  -6.883
REMARK INTRA:                   0.000
REMARK UNBOUND:                 0.000
REMARK SMILES Cc1cc(O)c2c(c1)C(=O)c1cc(O)cc(O)c1C2=O
REMARK SMILES IDX 1 1 2 2 8 3 7 4 6 5 4 6 3 7 19 8 20 9 18 10 11 11 9 12 10 13
REMARK SMILES IDX 12 14 13 15 15 16 16 17 5 18 17 20 14 22
REMARK H PARENT 5 19 17 21 14 23
REMARK Flexibility Score: inf
ROOT
ATOM      1  C   UNL     1      41.848  15.314  37.959  1.00  0.00     0.044 C 
ATOM      2  C   UNL     1      42.163  14.240  36.960  1.00  0.00    -0.047 A 
ATOM      3  C   UNL     1      41.791  12.916  37.209  1.00  0.00     0.016 A 
ATOM      4  C   UNL     1      42.060  11.906  36.270  1.00  0.00     0.038 A 
ATOM      5  C   UNL     1      42.712  12.227  35.057  1.00  0.00     0.076 A 
ATOM      6  C   UNL     1      42.995  13.590  34.768  1.00  0.00     0.127 A 
ATOM      7  C   UNL     1      42.742  14.571  35.732  1.00  0.00     0.050 A 
ATOM      8  C   UNL     1      43.122  11.113  34.156  1.00  0.00     0.201 C 
ATOM      9  O   UNL     1      44.037  11.290  33.308  1.00  0.00    -0.288 OA
ATOM     10  C   UNL     1      42.537   9.758  34.329  1.00  0.00     0.076 A 
ATOM     11  C   UNL     1      41.828   9.463  35.515  1.00  0.00     0.041 A 
ATOM     12  C   UNL     1      41.648  10.509  36.546  1.00  0.00     0.194 C 
ATOM     13  O   UNL     1      41.125  10.213  37.656  1.00  0.00    -0.289 OA
ATOM     14  C   UNL     1      41.301   8.175  35.710  1.00  0.00     0.059 A 
ATOM     15  C   UNL     1      41.465   7.185  34.739  1.00  0.00     0.120 A 
ATOM     16  C   UNL     1      42.158   7.475  33.561  1.00  0.00     0.093 A 
ATOM     17  C   UNL     1      42.693   8.753  33.348  1.00  0.00     0.131 A 
ENDROOT
BRANCH   6  18
ATOM     18  O   UNL     1      43.487  14.020  33.533  1.00  0.00    -0.507 OA
ATOM     19  H   UNL     1      44.199  13.529  33.013  1.00  0.00     0.293 HD
ENDBRANCH   6  18
BRANCH  17  20
ATOM     20  O   UNL     1      43.370   9.020  32.157  1.00  0.00    -0.507 OA
ATOM     21  H   UNL     1      44.334   9.331  32.150  1.00  0.00     0.293 HD
ENDBRANCH  17  20
BRANCH  15  22
ATOM     22  O   UNL     1      40.932   5.916  34.954  1.00  0.00    -0.508 OA
ATOM     23  H   UNL     1      40.750   5.570  35.889  1.00  0.00     0.293 HD
ENDBRANCH  15  22
TORSDOF 3
ENDMDL
MODEL 4
REMARK VINA RESULT:    -5.690      1.880      4.067
REMARK INTER + INTRA:          -6.189
REMARK INTER:                  -6.189
REMARK INTRA:                   0.000
REMARK UNBOUND:                 0.000
REMARK SMILES Cc1cc(O)c2c(c1)C(=O)c1cc(O)cc(O)c1C2=O
REMARK SMILES IDX 1 1 2 2 8 3 7 4 6 5 4 6 3 7 19 8 20 9 18 10 11 11 9 12 10 13
REMARK SMILES IDX 12 14 13 15 15 16 16 17 5 18 17 20 14 22
REMARK H PARENT 5 19 17 21 14 23
REMARK Flexibility Score: inf
ROOT
ATOM      1  C   UNL     1      41.400   5.060  33.271  1.00  0.00     0.044 C 
ATOM      2  C   UNL     1      41.574   6.434  33.847  1.00  0.00    -0.047 A 
ATOM      3  C   UNL     1      41.355   6.660  35.209  1.00  0.00     0.016 A 
ATOM      4  C   UNL     1      41.538   7.938  35.763  1.00  0.00     0.038 A 
ATOM      5  C   UNL     1      41.950   9.011  34.939  1.00  0.00     0.076 A 
ATOM      6  C   UNL     1      42.267   8.751  33.579  1.00  0.00     0.127 A 
ATOM      7  C   UNL     1      42.049   7.477  33.046  1.00  0.00     0.050 A 
ATOM      8  C   UNL     1      41.981  10.382  35.523  1.00  0.00     0.201 C 
ATOM      9  O   UNL     1      41.930  11.391  34.772  1.00  0.00    -0.288 OA
ATOM     10  C   UNL     1      41.957  10.566  36.998  1.00  0.00     0.076 A 
ATOM     11  C   UNL     1      41.610   9.472  37.821  1.00  0.00     0.041 A 
ATOM     12  C   UNL     1      41.312   8.156  37.212  1.00  0.00     0.194 C 
ATOM     13  O   UNL     1      40.882   7.213  37.933  1.00  0.00    -0.289 OA
ATOM     14  C   UNL     1      41.546   9.640  39.215  1.00  0.00     0.059 A 
ATOM     15  C   UNL     1      41.829  10.878  39.795  1.00  0.00     0.120 A 
ATOM     16  C   UNL     1      42.181  11.960  38.986  1.00  0.00     0.093 A 
ATOM     17  C   UNL     1      42.249  11.815  37.593  1.00  0.00     0.131 A 
ENDROOT
BRANCH   6  18
ATOM     18  O   UNL     1      42.833   9.708  32.733  1.00  0.00    -0.507 OA
ATOM     19  H   UNL     1      43.456  10.437  33.048  1.00  0.00     0.293 HD
ENDBRANCH   6  18
BRANCH  17  20
ATOM     20  O   UNL     1      42.615  12.909  36.808  1.00  0.00    -0.507 OA
ATOM     21  H   UNL     1      42.053  13.751  36.772  1.00  0.00     0.293 HD
ENDBRANCH  17  20
BRANCH  15  22
ATOM     22  O   UNL     1      41.761  11.020  41.179  1.00  0.00    -0.508 OA
ATOM     23  H   UNL     1      40.884  10.929  41.678  1.00  0.00     0.293 HD
ENDBRANCH  15  22
TORSDOF 3
ENDMDL
MODEL 5
REMARK VINA RESULT:    -5.674      1.260      5.488
REMARK INTER + INTRA:          -6.172
REMARK INTER:                  -6.172
REMARK INTRA:                   0.000
REMARK UNBOUND:                 0.000
REMARK SMILES Cc1cc(O)c2c(c1)C(=O)c1cc(O)cc(O)c1C2=O
REMARK SMILES IDX 1 1 2 2 8 3 7 4 6 5 4 6 3 7 19 8 20 9 18 10 11 11 9 12 10 13
REMARK SMILES IDX 12 14 13 15 15 16 16 17 5 18 17 20 14 22
REMARK H PARENT 5 19 17 21 14 23
REMARK Flexibility Score: inf
ROOT
ATOM      1  C   UNL     1      43.365  14.301  33.504  1.00  0.00     0.044 C 
ATOM      2  C   UNL     1      42.892  13.060  34.203  1.00  0.00    -0.047 A 
ATOM      3  C   UNL     1      42.661  11.888  33.478  1.00  0.00     0.016 A 
ATOM      4  C   UNL     1      42.241  10.714  34.126  1.00  0.00     0.038 A 
ATOM      5  C   UNL     1      42.051  10.712  35.527  1.00  0.00     0.076 A 
ATOM      6  C   UNL     1      42.385  11.878  36.268  1.00  0.00     0.127 A 
ATOM      7  C   UNL     1      42.774  13.040  35.596  1.00  0.00     0.050 A 
ATOM      8  C   UNL     1      41.456   9.501  36.160  1.00  0.00     0.201 C 
ATOM      9  O   UNL     1      40.893   9.586  37.284  1.00  0.00    -0.288 OA
ATOM     10  C   UNL     1      41.421   8.212  35.420  1.00  0.00     0.076 A 
ATOM     11  C   UNL     1      41.678   8.211  34.032  1.00  0.00     0.041 A 
ATOM     12  C   UNL     1      42.012   9.477  33.342  1.00  0.00     0.194 C 
ATOM     13  O   UNL     1      42.119   9.498  32.084  1.00  0.00    -0.289 OA
ATOM     14  C   UNL     1      41.612   7.006  33.311  1.00  0.00     0.059 A 
ATOM     15  C   UNL     1      41.301   5.808  33.957  1.00  0.00     0.120 A 
ATOM     16  C   UNL     1      41.054   5.803  35.332  1.00  0.00     0.093 A 
ATOM     17  C   UNL     1      41.113   6.994  36.069  1.00  0.00     0.131 A 
ENDROOT
BRANCH   6  18
ATOM     18  O   UNL     1      42.384  11.918  37.665  1.00  0.00    -0.507 OA
ATOM     19  H   UNL     1      42.706  12.709  38.203  1.00  0.00     0.293 HD
ENDBRANCH   6  18
BRANCH  17  20
ATOM     20  O   UNL     1      40.875   6.960  37.443  1.00  0.00    -0.507 OA
ATOM     21  H   UNL     1      40.903   7.800  38.010  1.00  0.00     0.293 HD
ENDBRANCH  17  20
BRANCH  15  22
ATOM     22  O   UNL     1      41.243   4.626  33.222  1.00  0.00    -0.508 OA
ATOM     23  H   UNL     1      41.561   4.583  32.261  1.00  0.00     0.293 HD
ENDBRANCH  15  22
TORSDOF 3
ENDMDL
MODEL 6
REMARK VINA RESULT:    -5.558      2.570      4.936
REMARK INTER + INTRA:          -6.046
REMARK INTER:                  -6.046
REMARK INTRA:                   0.000
REMARK UNBOUND:                 0.000
REMARK SMILES Cc1cc(O)c2c(c1)C(=O)c1cc(O)cc(O)c1C2=O
REMARK SMILES IDX 1 1 2 2 8 3 7 4 6 5 4 6 3 7 19 8 20 9 18 10 11 11 9 12 10 13
REMARK SMILES IDX 12 14 13 15 15 16 16 17 5 18 17 20 14 22
REMARK H PARENT 5 19 17 21 14 23
REMARK Flexibility Score: inf
ROOT
ATOM      1  C   UNL     1      42.321  11.242  41.885  1.00  0.00     0.044 C 
ATOM      2  C   UNL     1      42.147  10.443  40.627  1.00  0.00    -0.047 A 
ATOM      3  C   UNL     1      42.246  11.063  39.379  1.00  0.00     0.016 A 
ATOM      4  C   UNL     1      42.108  10.319  38.194  1.00  0.00     0.038 A 
ATOM      5  C   UNL     1      41.868   8.927  38.261  1.00  0.00     0.076 A 
ATOM      6  C   UNL     1      41.870   8.289  39.530  1.00  0.00     0.127 A 
ATOM      7  C   UNL     1      41.982   9.056  40.694  1.00  0.00     0.050 A 
ATOM      8  C   UNL     1      41.571   8.199  36.995  1.00  0.00     0.201 C 
ATOM      9  O   UNL     1      40.960   7.097  37.028  1.00  0.00    -0.288 OA
ATOM     10  C   UNL     1      41.889   8.819  35.683  1.00  0.00     0.076 A 
ATOM     11  C   UNL     1      42.194  10.197  35.631  1.00  0.00     0.041 A 
ATOM     12  C   UNL     1      42.227  10.993  36.880  1.00  0.00     0.194 C 
ATOM     13  O   UNL     1      42.376  12.245  36.822  1.00  0.00    -0.289 OA
ATOM     14  C   UNL     1      42.461  10.808  34.393  1.00  0.00     0.059 A 
ATOM     15  C   UNL     1      42.434  10.062  33.213  1.00  0.00     0.120 A 
ATOM     16  C   UNL     1      42.142   8.696  33.261  1.00  0.00     0.093 A 
ATOM     17  C   UNL     1      41.870   8.069  34.485  1.00  0.00     0.131 A 
ENDROOT
BRANCH   6  18
ATOM     18  O   UNL     1      41.803   6.902  39.685  1.00  0.00    -0.507 OA
ATOM     19  H   UNL     1      42.356   6.385  40.353  1.00  0.00     0.293 HD
ENDBRANCH   6  18
BRANCH  17  20
ATOM     20  O   UNL     1      41.594   6.702  34.506  1.00  0.00    -0.507 OA
ATOM     21  H   UNL     1      40.651   6.350  34.628  1.00  0.00     0.293 HD
ENDBRANCH  17  20
BRANCH  15  22
ATOM     22  O   UNL     1      42.703  10.688  31.999  1.00  0.00    -0.508 OA
ATOM     23  H   UNL     1      43.075  11.629  31.959  1.00  0.00     0.293 HD
ENDBRANCH  15  22
TORSDOF 3
ENDMDL
MODEL 7
REMARK VINA RESULT:    -5.479      1.281      2.010
REMARK INTER + INTRA:          -5.959
REMARK INTER:                  -5.959
REMARK INTRA:                   0.000
REMARK UNBOUND:                 0.000
REMARK SMILES Cc1cc(O)c2c(c1)C(=O)c1cc(O)cc(O)c1C2=O
REMARK SMILES IDX 1 1 2 2 8 3 7 4 6 5 4 6 3 7 19 8 20 9 18 10 11 11 9 12 10 13
REMARK SMILES IDX 12 14 13 15 15 16 16 17 5 18 17 20 14 22
REMARK H PARENT 5 19 17 21 14 23
REMARK Flexibility Score: inf
ROOT
ATOM      1  C   UNL     1      41.876   6.482  33.687  1.00  0.00     0.044 C 
ATOM      2  C   UNL     1      41.930   7.795  34.412  1.00  0.00    -0.047 A 
ATOM      3  C   UNL     1      42.190   8.976  33.711  1.00  0.00     0.016 A 
ATOM      4  C   UNL     1      42.219  10.214  34.376  1.00  0.00     0.038 A 
ATOM      5  C   UNL     1      41.983  10.271  35.769  1.00  0.00     0.076 A 
ATOM      6  C   UNL     1      41.620   9.080  36.454  1.00  0.00     0.127 A 
ATOM      7  C   UNL     1      41.626   7.858  35.774  1.00  0.00     0.050 A 
ATOM      8  C   UNL     1      42.176  11.573  36.468  1.00  0.00     0.201 C 
ATOM      9  O   UNL     1      42.386  11.599  37.710  1.00  0.00    -0.288 OA
ATOM     10  C   UNL     1      42.238  12.837  35.689  1.00  0.00     0.076 A 
ATOM     11  C   UNL     1      42.407  12.773  34.288  1.00  0.00     0.041 A 
ATOM     12  C   UNL     1      42.485  11.457  33.614  1.00  0.00     0.194 C 
ATOM     13  O   UNL     1      42.761  11.397  32.384  1.00  0.00    -0.289 OA
ATOM     14  C   UNL     1      42.504  13.960  33.542  1.00  0.00     0.059 A 
ATOM     15  C   UNL     1      42.428  15.203  34.172  1.00  0.00     0.120 A 
ATOM     16  C   UNL     1      42.252  15.272  35.556  1.00  0.00     0.093 A 
ATOM     17  C   UNL     1      42.155  14.100  36.319  1.00  0.00     0.131 A 
ENDROOT
BRANCH   6  18
ATOM     18  O   UNL     1      41.212   9.065  37.790  1.00  0.00    -0.507 OA
ATOM     19  H   UNL     1      40.395   9.548  38.132  1.00  0.00     0.293 HD
ENDBRANCH   6  18
BRANCH  17  20
ATOM     20  O   UNL     1      41.966  14.196  37.698  1.00  0.00    -0.507 OA
ATOM     21  H   UNL     1      41.229  13.686  38.172  1.00  0.00     0.293 HD
ENDBRANCH  17  20
BRANCH  15  22
ATOM     22  O   UNL     1      42.526  16.366  33.411  1.00  0.00    -0.508 OA
ATOM     23  H   UNL     1      42.615  17.277  33.845  1.00  0.00     0.293 HD
ENDBRANCH  15  22
TORSDOF 3
ENDMDL
MODEL 8
REMARK VINA RESULT:    -5.349      2.219      5.388
REMARK INTER + INTRA:          -5.818
REMARK INTER:                  -5.818
REMARK INTRA:                   0.000
REMARK UNBOUND:                 0.000
REMARK SMILES Cc1cc(O)c2c(c1)C(=O)c1cc(O)cc(O)c1C2=O
REMARK SMILES IDX 1 1 2 2 8 3 7 4 6 5 4 6 3 7 19 8 20 9 18 10 11 11 9 12 10 13
REMARK SMILES IDX 12 14 13 15 15 16 16 17 5 18 17 20 14 22
REMARK H PARENT 5 19 17 21 14 23
REMARK Flexibility Score: inf
ROOT
ATOM      1  C   UNL     1      42.388  10.307  31.752  1.00  0.00     0.044 C 
ATOM      2  C   UNL     1      42.312  10.435  33.245  1.00  0.00    -0.047 A 
ATOM      3  C   UNL     1      41.869   9.361  34.023  1.00  0.00     0.016 A 
ATOM      4  C   UNL     1      41.817   9.463  35.424  1.00  0.00     0.038 A 
ATOM      5  C   UNL     1      42.217  10.661  36.058  1.00  0.00     0.076 A 
ATOM      6  C   UNL     1      42.760  11.710  35.268  1.00  0.00     0.127 A 
ATOM      7  C   UNL     1      42.774  11.594  33.875  1.00  0.00     0.050 A 
ATOM      8  C   UNL     1      42.000  10.791  37.527  1.00  0.00     0.201 C 
ATOM      9  O   UNL     1      41.942  11.932  38.060  1.00  0.00    -0.288 OA
ATOM     10  C   UNL     1      41.737   9.584  38.354  1.00  0.00     0.076 A 
ATOM     11  C   UNL     1      41.404   8.372  37.710  1.00  0.00     0.041 A 
ATOM     12  C   UNL     1      41.356   8.310  36.232  1.00  0.00     0.194 C 
ATOM     13  O   UNL     1      40.938   7.264  35.661  1.00  0.00    -0.289 OA
ATOM     14  C   UNL     1      41.116   7.230  38.479  1.00  0.00     0.059 A 
ATOM     15  C   UNL     1      41.163   7.282  39.873  1.00  0.00     0.120 A 
ATOM     16  C   UNL     1      41.501   8.478  40.513  1.00  0.00     0.093 A 
ATOM     17  C   UNL     1      41.789   9.628  39.766  1.00  0.00     0.131 A 
ENDROOT
BRANCH   6  18
ATOM     18  O   UNL     1      43.327  12.862  35.819  1.00  0.00    -0.507 OA
ATOM     19  H   UNL     1      44.222  12.878  36.285  1.00  0.00     0.293 HD
ENDBRANCH   6  18
BRANCH  17  20
ATOM     20  O   UNL     1      42.136  10.805  40.429  1.00  0.00    -0.507 OA
ATOM     21  H   UNL     1      42.464  10.800  41.388  1.00  0.00     0.293 HD
ENDBRANCH  17  20
BRANCH  15  22
ATOM     22  O   UNL     1      40.875   6.138  40.614  1.00  0.00    -0.508 OA
ATOM     23  H   UNL     1      40.035   5.598  40.448  1.00  0.00     0.293 HD
ENDBRANCH  15  22
TORSDOF 3
ENDMDL
MODEL 9
REMARK VINA RESULT:    -5.213      7.098      9.835
REMARK INTER + INTRA:          -5.670
REMARK INTER:                  -5.670
REMARK INTRA:                   0.000
REMARK UNBOUND:                 0.000
REMARK SMILES Cc1cc(O)c2c(c1)C(=O)c1cc(O)cc(O)c1C2=O
REMARK SMILES IDX 1 1 2 2 8 3 7 4 6 5 4 6 3 7 19 8 20 9 18 10 11 11 9 12 10 13
REMARK SMILES IDX 12 14 13 15 15 16 16 17 5 18 17 20 14 22
REMARK H PARENT 5 19 17 21 14 23
REMARK Flexibility Score: inf
ROOT
ATOM      1  C   UNL     1      43.740  16.690  37.629  1.00  0.00     0.044 C 
ATOM      2  C   UNL     1      44.077  16.043  38.940  1.00  0.00    -0.047 A 
ATOM      3  C   UNL     1      43.521  14.806  39.278  1.00  0.00     0.016 A 
ATOM      4  C   UNL     1      43.848  14.180  40.494  1.00  0.00     0.038 A 
ATOM      5  C   UNL     1      44.750  14.803  41.387  1.00  0.00     0.076 A 
ATOM      6  C   UNL     1      45.387  16.010  40.990  1.00  0.00     0.127 A 
ATOM      7  C   UNL     1      45.022  16.626  39.789  1.00  0.00     0.050 A 
ATOM      8  C   UNL     1      44.952  14.192  42.731  1.00  0.00     0.201 C 
ATOM      9  O   UNL     1      45.391  14.889  43.684  1.00  0.00    -0.288 OA
ATOM     10  C   UNL     1      44.531  12.789  42.985  1.00  0.00     0.076 A 
ATOM     11  C   UNL     1      43.684  12.148  42.054  1.00  0.00     0.041 A 
ATOM     12  C   UNL     1      43.258  12.862  40.830  1.00  0.00     0.194 C 
ATOM     13  O   UNL     1      42.404  12.338  40.062  1.00  0.00    -0.289 OA
ATOM     14  C   UNL     1      43.246  10.834  42.298  1.00  0.00     0.059 A 
ATOM     15  C   UNL     1      43.647  10.155  43.450  1.00  0.00     0.120 A 
ATOM     16  C   UNL     1      44.492  10.782  44.369  1.00  0.00     0.093 A 
ATOM     17  C   UNL     1      44.938  12.092  44.146  1.00  0.00     0.131 A 
ENDROOT
BRANCH   6  18
ATOM     18  O   UNL     1      46.407  16.611  41.732  1.00  0.00    -0.507 OA
ATOM     19  H   UNL     1      46.393  17.577  42.024  1.00  0.00     0.293 HD
ENDBRANCH   6  18
BRANCH  17  20
ATOM     20  O   UNL     1      45.791  12.691  45.072  1.00  0.00    -0.507 OA
ATOM     21  H   UNL     1      46.437  13.426  44.806  1.00  0.00     0.293 HD
ENDBRANCH  17  20
BRANCH  15  22
ATOM     22  O   UNL     1      43.201   8.854  43.670  1.00  0.00    -0.508 OA
ATOM     23  H   UNL     1      43.615   8.064  43.189  1.00  0.00     0.293 HD
ENDBRANCH  15  22
TORSDOF 3
ENDMDL
