MODEL 1
REMARK VINA RESULT:    -2.346      0.000      0.000
REMARK INTER + INTRA:          -3.834
REMARK INTER:                  -3.169
REMARK INTRA:                  -0.664
REMARK UNBOUND:                -0.664
REMARK SMILES CCCCCCC=CC(=O)[O-]
REMARK SMILES IDX 5 1 6 2 7 3 8 4 9 5 10 6 11 7 4 8 3 9 2 10 1 11
REMARK H PARENT
REMARK Flexibility Score: inf
ROOT
ATOM      1  C   UNL     1      19.873  10.707  20.999  1.00  0.00     0.004 C 
ENDROOT
BRANCH   1   2
ATOM      2  C   UNL     1      20.786   9.597  21.536  1.00  0.00     0.027 C 
BRANCH   2   3
ATOM      3  C   UNL     1      20.188   8.237  21.299  1.00  0.00    -0.025 C 
ATOM      4  C   UNL     1      19.807   7.366  22.249  1.00  0.00     0.020 C 
BRANCH   4   5
ATOM      5  C   UNL     1      19.928   7.547  23.711  1.00  0.00     0.064 C 
ATOM      6  O   UNL     1      21.038   7.502  24.302  1.00  0.00    -0.545 OA
ATOM      7  O   UNL     1      18.776   7.748  24.460  1.00  0.00    -0.545 OA
ENDBRANCH   4   5
ENDBRANCH   2   3
ENDBRANCH   1   2
BRANCH   1   8
ATOM      8  C   UNL     1      18.544  10.745  21.770  1.00  0.00     0.000 C 
BRANCH   8   9
ATOM      9  C   UNL     1      17.350  11.113  20.876  1.00  0.00    -0.000 C 
BRANCH   9  10
ATOM     10  C   UNL     1      16.155  10.167  21.068  1.00  0.00    -0.003 C 
ATOM     11  C   UNL     1      16.532   8.980  21.950  1.00  0.00     0.004 C 
ENDBRANCH   9  10
ENDBRANCH   8   9
ENDBRANCH   1   8
TORSDOF 6
ENDMDL
MODEL 2
REMARK VINA RESULT:    -2.108     16.505     17.408
REMARK INTER + INTRA:          -3.511
REMARK INTER:                  -3.639
REMARK INTRA:                   0.128
REMARK UNBOUND:                -0.664
REMARK SMILES CCCCCCC=CC(=O)[O-]
REMARK SMILES IDX 5 1 6 2 7 3 8 4 9 5 10 6 11 7 4 8 3 9 2 10 1 11
REMARK H PARENT
REMARK Flexibility Score: inf
ROOT
ATOM      1  C   UNL     1      11.804  19.465  31.646  1.00  0.00     0.004 C 
ENDROOT
BRANCH   1   2
ATOM      2  C   UNL     1      12.965  19.523  32.649  1.00  0.00     0.027 C 
BRANCH   2   3
ATOM      3  C   UNL     1      12.525  19.080  34.018  1.00  0.00    -0.025 C 
ATOM      4  C   UNL     1      12.086  19.882  35.003  1.00  0.00     0.020 C 
BRANCH   4   5
ATOM      5  C   UNL     1      11.981  21.356  34.961  1.00  0.00     0.064 C 
ATOM      6  O   UNL     1      12.190  22.013  33.908  1.00  0.00    -0.545 OA
ATOM      7  O   UNL     1      11.664  22.040  36.127  1.00  0.00    -0.545 OA
ENDBRANCH   4   5
ENDBRANCH   2   3
ENDBRANCH   1   2
BRANCH   1   8
ATOM      8  C   UNL     1      11.783  20.719  30.759  1.00  0.00     0.000 C 
BRANCH   8   9
ATOM      9  C   UNL     1      10.359  21.138  30.359  1.00  0.00    -0.000 C 
BRANCH   9  10
ATOM     10  C   UNL     1       9.660  20.088  29.482  1.00  0.00    -0.003 C 
ATOM     11  C   UNL     1       8.453  20.688  28.766  1.00  0.00     0.004 C 
ENDBRANCH   9  10
ENDBRANCH   8   9
ENDBRANCH   1   8
TORSDOF 6
ENDMDL
MODEL 3
REMARK VINA RESULT:    -1.853      2.278      4.380
REMARK INTER + INTRA:          -3.167
REMARK INTER:                  -2.923
REMARK INTRA:                  -0.245
REMARK UNBOUND:                -0.664
REMARK SMILES CCCCCCC=CC(=O)[O-]
REMARK SMILES IDX 5 1 6 2 7 3 8 4 9 5 10 6 11 7 4 8 3 9 2 10 1 11
REMARK H PARENT
REMARK Flexibility Score: inf
ROOT
ATOM      1  C   UNL     1      19.951   9.132  21.253  1.00  0.00     0.004 C 
ENDROOT
BRANCH   1   2
ATOM      2  C   UNL     1      19.180  10.129  22.128  1.00  0.00     0.027 C 
BRANCH   2   3
ATOM      3  C   UNL     1      18.379  11.086  21.287  1.00  0.00    -0.025 C 
ATOM      4  C   UNL     1      17.112  10.904  20.875  1.00  0.00     0.020 C 
BRANCH   4   5
ATOM      5  C   UNL     1      16.264   9.721  21.128  1.00  0.00     0.064 C 
ATOM      6  O   UNL     1      16.654   8.551  20.880  1.00  0.00    -0.545 OA
ATOM      7  O   UNL     1      14.984   9.909  21.634  1.00  0.00    -0.545 OA
ENDBRANCH   4   5
ENDBRANCH   2   3
ENDBRANCH   1   2
BRANCH   1   8
ATOM      8  C   UNL     1      21.040   8.416  22.067  1.00  0.00     0.000 C 
BRANCH   8   9
ATOM      9  C   UNL     1      20.576   7.054  22.608  1.00  0.00    -0.000 C 
BRANCH   9  10
ATOM     10  C   UNL     1      20.131   7.124  24.077  1.00  0.00    -0.003 C 
ATOM     11  C   UNL     1      18.610   7.190  24.186  1.00  0.00     0.004 C 
ENDBRANCH   9  10
ENDBRANCH   8   9
ENDBRANCH   1   8
TORSDOF 6
ENDMDL
MODEL 4
REMARK VINA RESULT:    -1.749     16.081     17.336
REMARK INTER + INTRA:          -3.027
REMARK INTER:                  -2.958
REMARK INTRA:                  -0.069
REMARK UNBOUND:                -0.664
REMARK SMILES CCCCCCC=CC(=O)[O-]
REMARK SMILES IDX 5 1 6 2 7 3 8 4 9 5 10 6 11 7 4 8 3 9 2 10 1 11
REMARK H PARENT
REMARK Flexibility Score: inf
ROOT
ATOM      1  C   UNL     1      12.816  18.771  32.522  1.00  0.00     0.004 C 
ENDROOT
BRANCH   1   2
ATOM      2  C   UNL     1      11.735  18.983  31.454  1.00  0.00     0.027 C 
BRANCH   2   3
ATOM      3  C   UNL     1      11.621  20.435  31.073  1.00  0.00    -0.025 C 
ATOM      4  C   UNL     1      10.691  20.967  30.262  1.00  0.00     0.020 C 
BRANCH   4   5
ATOM      5  C   UNL     1       9.619  20.239  29.551  1.00  0.00     0.064 C 
ATOM      6  O   UNL     1       9.580  18.983  29.503  1.00  0.00    -0.545 OA
ATOM      7  O   UNL     1       8.635  20.968  28.895  1.00  0.00    -0.545 OA
ENDBRANCH   4   5
ENDBRANCH   2   3
ENDBRANCH   1   2
BRANCH   1   8
ATOM      8  C   UNL     1      12.917  19.992  33.449  1.00  0.00     0.000 C 
BRANCH   8   9
ATOM      9  C   UNL     1      12.207  19.775  34.795  1.00  0.00    -0.000 C 
BRANCH   9  10
ATOM     10  C   UNL     1      11.839  21.095  35.488  1.00  0.00    -0.003 C 
ATOM     11  C   UNL     1      12.171  22.291  34.600  1.00  0.00     0.004 C 
ENDBRANCH   9  10
ENDBRANCH   8   9
ENDBRANCH   1   8
TORSDOF 6
ENDMDL
MODEL 5
REMARK VINA RESULT:    -1.703     16.130     16.851
REMARK INTER + INTRA:          -2.965
REMARK INTER:                  -2.683
REMARK INTRA:                  -0.281
REMARK UNBOUND:                -0.664
REMARK SMILES CCCCCCC=CC(=O)[O-]
REMARK SMILES IDX 5 1 6 2 7 3 8 4 9 5 10 6 11 7 4 8 3 9 2 10 1 11
REMARK H PARENT
REMARK Flexibility Score: inf
ROOT
ATOM      1  C   UNL     1      11.765  20.681  30.842  1.00  0.00     0.004 C 
ENDROOT
BRANCH   1   2
ATOM      2  C   UNL     1      11.541  19.342  31.557  1.00  0.00     0.027 C 
BRANCH   2   3
ATOM      3  C   UNL     1      12.783  18.894  32.278  1.00  0.00    -0.025 C 
ATOM      4  C   UNL     1      13.139  19.240  33.527  1.00  0.00     0.020 C 
BRANCH   4   5
ATOM      5  C   UNL     1      12.411  20.155  34.430  1.00  0.00     0.064 C 
ATOM      6  O   UNL     1      11.814  19.746  35.460  1.00  0.00    -0.545 OA
ATOM      7  O   UNL     1      12.364  21.508  34.119  1.00  0.00    -0.545 OA
ENDBRANCH   4   5
ENDBRANCH   2   3
ENDBRANCH   1   2
BRANCH   1   8
ATOM      8  C   UNL     1      10.449  21.223  30.266  1.00  0.00     0.000 C 
BRANCH   8   9
ATOM      9  C   UNL     1       9.651  20.153  29.503  1.00  0.00    -0.000 C 
BRANCH   9  10
ATOM     10  C   UNL     1       8.627  20.761  28.533  1.00  0.00    -0.003 C 
ATOM     11  C   UNL     1       7.231  20.781  29.151  1.00  0.00     0.004 C 
ENDBRANCH   9  10
ENDBRANCH   8   9
ENDBRANCH   1   8
TORSDOF 6
ENDMDL
MODEL 6
REMARK VINA RESULT:    -1.428      1.576      3.593
REMARK INTER + INTRA:          -2.593
REMARK INTER:                  -2.642
REMARK INTRA:                   0.048
REMARK UNBOUND:                -0.664
REMARK SMILES CCCCCCC=CC(=O)[O-]
REMARK SMILES IDX 5 1 6 2 7 3 8 4 9 5 10 6 11 7 4 8 3 9 2 10 1 11
REMARK H PARENT
REMARK Flexibility Score: inf
ROOT
ATOM      1  C   UNL     1      18.559  10.458  20.880  1.00  0.00     0.004 C 
ENDROOT
BRANCH   1   2
ATOM      2  C   UNL     1      17.401  10.815  21.821  1.00  0.00     0.027 C 
BRANCH   2   3
ATOM      3  C   UNL     1      16.275   9.824  21.699  1.00  0.00    -0.025 C 
ATOM      4  C   UNL     1      16.394   8.486  21.741  1.00  0.00     0.020 C 
BRANCH   4   5
ATOM      5  C   UNL     1      17.647   7.715  21.875  1.00  0.00     0.064 C 
ATOM      6  O   UNL     1      18.317   7.345  20.877  1.00  0.00    -0.545 OA
ATOM      7  O   UNL     1      18.088   7.367  23.146  1.00  0.00    -0.545 OA
ENDBRANCH   4   5
ENDBRANCH   2   3
ENDBRANCH   1   2
BRANCH   1   8
ATOM      8  C   UNL     1      19.905  10.900  21.474  1.00  0.00     0.000 C 
BRANCH   8   9
ATOM      9  C   UNL     1      21.007   9.845  21.295  1.00  0.00    -0.000 C 
BRANCH   9  10
ATOM     10  C   UNL     1      21.005   8.793  22.415  1.00  0.00    -0.003 C 
ATOM     11  C   UNL     1      20.775   9.443  23.776  1.00  0.00     0.004 C 
ENDBRANCH   9  10
ENDBRANCH   8   9
ENDBRANCH   1   8
TORSDOF 6
ENDMDL
MODEL 7
REMARK VINA RESULT:    -0.937     23.211     24.126
REMARK INTER + INTRA:          -1.930
REMARK INTER:                  -1.869
REMARK INTRA:                  -0.061
REMARK UNBOUND:                -0.664
REMARK SMILES CCCCCCC=CC(=O)[O-]
REMARK SMILES IDX 5 1 6 2 7 3 8 4 9 5 10 6 11 7 4 8 3 9 2 10 1 11
REMARK H PARENT
REMARK Flexibility Score: inf
ROOT
ATOM      1  C   UNL     1      18.024  24.450  40.965  1.00  0.00     0.004 C 
ENDROOT
BRANCH   1   2
ATOM      2  C   UNL     1      18.186  25.968  41.125  1.00  0.00     0.027 C 
BRANCH   2   3
ATOM      3  C   UNL     1      17.976  26.679  39.815  1.00  0.00    -0.025 C 
ATOM      4  C   UNL     1      18.938  27.027  38.944  1.00  0.00     0.020 C 
BRANCH   4   5
ATOM      5  C   UNL     1      20.392  26.820  39.105  1.00  0.00     0.064 C 
ATOM      6  O   UNL     1      20.992  27.085  40.179  1.00  0.00    -0.545 OA
ATOM      7  O   UNL     1      21.125  26.338  38.028  1.00  0.00    -0.545 OA
ENDBRANCH   4   5
ENDBRANCH   2   3
ENDBRANCH   1   2
BRANCH   1   8
ATOM      8  C   UNL     1      19.375  23.736  41.124  1.00  0.00     0.000 C 
BRANCH   8   9
ATOM      9  C   UNL     1      19.336  22.280  40.633  1.00  0.00    -0.000 C 
BRANCH   9  10
ATOM     10  C   UNL     1      18.499  22.110  39.356  1.00  0.00    -0.003 C 
ATOM     11  C   UNL     1      18.878  23.154  38.309  1.00  0.00     0.004 C 
ENDBRANCH   9  10
ENDBRANCH   8   9
ENDBRANCH   1   8
TORSDOF 6
ENDMDL
