MODEL 1
REMARK VINA RESULT:    -4.926      0.000      0.000
REMARK INTER + INTRA:         -12.347
REMARK INTER:                 -10.686
REMARK INTRA:                  -1.661
REMARK UNBOUND:                -1.661
REMARK SMILES CCCCCCCCCCCCCCCCCCCCCC(=O)[O-]
REMARK SMILES IDX 12 1 11 2 10 3 9 4 8 5 7 6 6 7 5 8 4 9 3 10 2 11 1 12 13 13
REMARK SMILES IDX 14 14 15 15 16 16 17 17 18 18 19 19 20 20 21 21 22 22 23 23
REMARK SMILES IDX 24 24
REMARK H PARENT
REMARK Flexibility Score: inf
ROOT
ATOM      1  C   UNL     1      93.120  83.305  80.926  1.00  0.00     0.000 C 
ENDROOT
BRANCH   1   2
ATOM      2  C   UNL     1      91.762  83.642  81.563  1.00  0.00     0.000 C 
BRANCH   2   3
ATOM      3  C   UNL     1      90.575  83.261  80.662  1.00  0.00     0.000 C 
BRANCH   3   4
ATOM      4  C   UNL     1      89.330  84.129  80.920  1.00  0.00    -0.000 C 
BRANCH   4   5
ATOM      5  C   UNL     1      88.165  83.327  81.521  1.00  0.00    -0.000 C 
BRANCH   5   6
ATOM      6  C   UNL     1      87.126  82.911  80.468  1.00  0.00    -0.000 C 
BRANCH   6   7
ATOM      7  C   UNL     1      87.564  81.634  79.740  1.00  0.00    -0.000 C 
BRANCH   7   8
ATOM      8  C   UNL     1      87.238  80.386  80.569  1.00  0.00    -0.000 C 
BRANCH   8   9
ATOM      9  C   UNL     1      85.761  79.994  80.415  1.00  0.00    -0.000 C 
BRANCH   9  10
ATOM     10  C   UNL     1      85.124  79.527  81.735  1.00  0.00    -0.000 C 
BRANCH  10  11
ATOM     11  C   UNL     1      85.757  80.124  83.006  1.00  0.00    -0.003 C 
ATOM     12  C   UNL     1      85.176  81.488  83.379  1.00  0.00     0.004 C 
ENDBRANCH  10  11
ENDBRANCH   9  10
ENDBRANCH   8   9
ENDBRANCH   7   8
ENDBRANCH   6   7
ENDBRANCH   5   6
ENDBRANCH   4   5
ENDBRANCH   3   4
ENDBRANCH   2   3
ENDBRANCH   1   2
BRANCH   1  13
ATOM     13  C   UNL     1      93.168  83.605  79.417  1.00  0.00     0.000 C 
BRANCH  13  14
ATOM     14  C   UNL     1      93.575  85.041  79.040  1.00  0.00     0.000 C 
BRANCH  14  15
ATOM     15  C   UNL     1      95.056  85.163  78.645  1.00  0.00     0.000 C 
BRANCH  15  16
ATOM     16  C   UNL     1      95.963  85.510  79.838  1.00  0.00     0.000 C 
BRANCH  16  17
ATOM     17  C   UNL     1      97.195  84.587  79.966  1.00  0.00     0.000 C 
BRANCH  17  18
ATOM     18  C   UNL     1      96.837  83.231  80.591  1.00  0.00     0.000 C 
BRANCH  18  19
ATOM     19  C   UNL     1      98.093  82.525  81.126  1.00  0.00     0.000 C 
BRANCH  19  20
ATOM     20  C   UNL     1      99.308  83.463  81.217  1.00  0.00     0.006 C 
BRANCH  20  21
ATOM     21  C   UNL     1     100.445  82.880  82.066  1.00  0.00     0.053 C 
BRANCH  21  22
ATOM     22  C   UNL     1     101.004  83.924  82.981  1.00  0.00     0.041 C 
ATOM     23  O   UNL     1     101.777  84.811  82.531  1.00  0.00    -0.550 OA
ATOM     24  O   UNL     1     100.635  83.946  84.320  1.00  0.00    -0.550 OA
ENDBRANCH  21  22
ENDBRANCH  20  21
ENDBRANCH  19  20
ENDBRANCH  18  19
ENDBRANCH  17  18
ENDBRANCH  16  17
ENDBRANCH  15  16
ENDBRANCH  14  15
ENDBRANCH  13  14
ENDBRANCH   1  13
TORSDOF 20
ENDMDL
MODEL 2
REMARK VINA RESULT:    -4.882      2.906      6.266
REMARK INTER + INTRA:         -12.251
REMARK INTER:                  -9.356
REMARK INTRA:                  -2.895
REMARK UNBOUND:                -1.661
REMARK SMILES CCCCCCCCCCCCCCCCCCCCCC(=O)[O-]
REMARK SMILES IDX 12 1 11 2 10 3 9 4 8 5 7 6 6 7 5 8 4 9 3 10 2 11 1 12 13 13
REMARK SMILES IDX 14 14 15 15 16 16 17 17 18 18 19 19 20 20 21 21 22 22 23 23
REMARK SMILES IDX 24 24
REMARK H PARENT
REMARK Flexibility Score: inf
ROOT
ATOM      1  C   UNL     1      90.415  84.634  80.163  1.00  0.00     0.000 C 
ENDROOT
BRANCH   1   2
ATOM      2  C   UNL     1      90.098  83.482  81.130  1.00  0.00     0.000 C 
BRANCH   2   3
ATOM      3  C   UNL     1      91.158  83.327  82.233  1.00  0.00     0.000 C 
BRANCH   3   4
ATOM      4  C   UNL     1      91.418  84.637  82.997  1.00  0.00    -0.000 C 
BRANCH   4   5
ATOM      5  C   UNL     1      92.900  84.830  83.355  1.00  0.00    -0.000 C 
BRANCH   5   6
ATOM      6  C   UNL     1      93.099  85.408  84.765  1.00  0.00    -0.000 C 
BRANCH   6   7
ATOM      7  C   UNL     1      92.764  84.365  85.838  1.00  0.00    -0.000 C 
BRANCH   7   8
ATOM      8  C   UNL     1      93.811  84.366  86.958  1.00  0.00    -0.000 C 
BRANCH   8   9
ATOM      9  C   UNL     1      95.115  85.027  86.489  1.00  0.00    -0.000 C 
BRANCH   9  10
ATOM     10  C   UNL     1      96.240  84.012  86.220  1.00  0.00    -0.000 C 
BRANCH  10  11
ATOM     11  C   UNL     1      97.169  84.372  85.046  1.00  0.00    -0.003 C 
ATOM     12  C   UNL     1      96.703  85.605  84.271  1.00  0.00     0.004 C 
ENDBRANCH  10  11
ENDBRANCH   9  10
ENDBRANCH   8   9
ENDBRANCH   7   8
ENDBRANCH   6   7
ENDBRANCH   5   6
ENDBRANCH   4   5
ENDBRANCH   3   4
ENDBRANCH   2   3
ENDBRANCH   1   2
BRANCH   1  13
ATOM     13  C   UNL     1      91.305  84.203  78.983  1.00  0.00     0.000 C 
BRANCH  13  14
ATOM     14  C   UNL     1      92.821  84.337  79.215  1.00  0.00     0.000 C 
BRANCH  14  15
ATOM     15  C   UNL     1      93.528  82.981  79.372  1.00  0.00     0.000 C 
BRANCH  15  16
ATOM     16  C   UNL     1      94.533  82.964  80.537  1.00  0.00     0.000 C 
BRANCH  16  17
ATOM     17  C   UNL     1      95.449  84.206  80.578  1.00  0.00     0.000 C 
BRANCH  17  18
ATOM     18  C   UNL     1      96.926  83.841  80.365  1.00  0.00     0.000 C 
BRANCH  18  19
ATOM     19  C   UNL     1      97.285  82.548  81.114  1.00  0.00     0.000 C 
BRANCH  19  20
ATOM     20  C   UNL     1      98.687  82.595  81.742  1.00  0.00     0.006 C 
BRANCH  20  21
ATOM     21  C   UNL     1      99.213  84.026  81.913  1.00  0.00     0.053 C 
BRANCH  21  22
ATOM     22  C   UNL     1     100.437  84.037  82.773  1.00  0.00     0.041 C 
ATOM     23  O   UNL     1     100.560  83.204  83.710  1.00  0.00    -0.550 OA
ATOM     24  O   UNL     1     101.464  84.935  82.511  1.00  0.00    -0.550 OA
ENDBRANCH  21  22
ENDBRANCH  20  21
ENDBRANCH  19  20
ENDBRANCH  18  19
ENDBRANCH  17  18
ENDBRANCH  16  17
ENDBRANCH  15  16
ENDBRANCH  14  15
ENDBRANCH  13  14
ENDBRANCH   1  13
TORSDOF 20
ENDMDL
MODEL 3
REMARK VINA RESULT:    -4.734      1.338      2.524
REMARK INTER + INTRA:         -11.931
REMARK INTER:                  -9.464
REMARK INTRA:                  -2.467
REMARK UNBOUND:                -1.661
REMARK SMILES CCCCCCCCCCCCCCCCCCCCCC(=O)[O-]
REMARK SMILES IDX 12 1 11 2 10 3 9 4 8 5 7 6 6 7 5 8 4 9 3 10 2 11 1 12 13 13
REMARK SMILES IDX 14 14 15 15 16 16 17 17 18 18 19 19 20 20 21 21 22 22 23 23
REMARK SMILES IDX 24 24
REMARK H PARENT
REMARK Flexibility Score: inf
ROOT
ATOM      1  C   UNL     1      90.212  84.538  79.911  1.00  0.00     0.000 C 
ENDROOT
BRANCH   1   2
ATOM      2  C   UNL     1      90.347  83.649  81.158  1.00  0.00     0.000 C 
BRANCH   2   3
ATOM      3  C   UNL     1      89.098  83.691  82.053  1.00  0.00     0.000 C 
BRANCH   3   4
ATOM      4  C   UNL     1      88.287  84.987  81.881  1.00  0.00    -0.000 C 
BRANCH   4   5
ATOM      5  C   UNL     1      86.772  84.757  81.996  1.00  0.00    -0.000 C 
BRANCH   5   6
ATOM      6  C   UNL     1      86.424  83.493  82.798  1.00  0.00    -0.000 C 
BRANCH   6   7
ATOM      7  C   UNL     1      85.575  82.528  81.961  1.00  0.00    -0.000 C 
BRANCH   7   8
ATOM      8  C   UNL     1      86.016  81.075  82.175  1.00  0.00    -0.000 C 
BRANCH   8   9
ATOM      9  C   UNL     1      87.055  80.656  81.125  1.00  0.00    -0.000 C 
BRANCH   9  10
ATOM     10  C   UNL     1      86.688  81.114  79.702  1.00  0.00    -0.000 C 
BRANCH  10  11
ATOM     11  C   UNL     1      87.660  82.134  79.081  1.00  0.00    -0.003 C 
ATOM     12  C   UNL     1      86.962  83.407  78.599  1.00  0.00     0.004 C 
ENDBRANCH  10  11
ENDBRANCH   9  10
ENDBRANCH   8   9
ENDBRANCH   7   8
ENDBRANCH   6   7
ENDBRANCH   5   6
ENDBRANCH   4   5
ENDBRANCH   3   4
ENDBRANCH   2   3
ENDBRANCH   1   2
BRANCH   1  13
ATOM     13  C   UNL     1      91.177  84.141  78.780  1.00  0.00     0.000 C 
BRANCH  13  14
ATOM     14  C   UNL     1      92.668  84.403  79.060  1.00  0.00     0.000 C 
BRANCH  14  15
ATOM     15  C   UNL     1      93.490  83.112  79.198  1.00  0.00     0.000 C 
BRANCH  15  16
ATOM     16  C   UNL     1      94.096  82.938  80.602  1.00  0.00     0.000 C 
BRANCH  16  17
ATOM     17  C   UNL     1      95.064  84.073  81.000  1.00  0.00     0.000 C 
BRANCH  17  18
ATOM     18  C   UNL     1      96.349  84.058  80.159  1.00  0.00     0.000 C 
BRANCH  18  19
ATOM     19  C   UNL     1      97.373  83.070  80.739  1.00  0.00     0.000 C 
BRANCH  19  20
ATOM     20  C   UNL     1      98.754  83.708  80.959  1.00  0.00     0.006 C 
BRANCH  20  21
ATOM     21  C   UNL     1      99.650  82.877  81.888  1.00  0.00     0.053 C 
BRANCH  21  22
ATOM     22  C   UNL     1     100.217  83.736  82.974  1.00  0.00     0.041 C 
ATOM     23  O   UNL     1      99.476  84.157  83.902  1.00  0.00    -0.550 OA
ATOM     24  O   UNL     1     101.575  84.031  82.990  1.00  0.00    -0.550 OA
ENDBRANCH  21  22
ENDBRANCH  20  21
ENDBRANCH  19  20
ENDBRANCH  18  19
ENDBRANCH  17  18
ENDBRANCH  16  17
ENDBRANCH  15  16
ENDBRANCH  14  15
ENDBRANCH  13  14
ENDBRANCH   1  13
TORSDOF 20
ENDMDL
MODEL 4
REMARK VINA RESULT:    -4.717      5.738      8.962
REMARK INTER + INTRA:         -11.894
REMARK INTER:                  -7.873
REMARK INTRA:                  -4.021
REMARK UNBOUND:                -1.661
REMARK SMILES CCCCCCCCCCCCCCCCCCCCCC(=O)[O-]
REMARK SMILES IDX 12 1 11 2 10 3 9 4 8 5 7 6 6 7 5 8 4 9 3 10 2 11 1 12 13 13
REMARK SMILES IDX 14 14 15 15 16 16 17 17 18 18 19 19 20 20 21 21 22 22 23 23
REMARK SMILES IDX 24 24
REMARK H PARENT
REMARK Flexibility Score: inf
ROOT
ATOM      1  C   UNL     1      99.231  84.564  87.062  1.00  0.00     0.000 C 
ENDROOT
BRANCH   1   2
ATOM      2  C   UNL     1     100.227  83.902  86.096  1.00  0.00     0.000 C 
BRANCH   2   3
ATOM      3  C   UNL     1     101.112  84.926  85.366  1.00  0.00     0.000 C 
BRANCH   3   4
ATOM      4  C   UNL     1     101.339  84.567  83.886  1.00  0.00    -0.000 C 
BRANCH   4   5
ATOM      5  C   UNL     1     100.658  83.249  83.486  1.00  0.00    -0.000 C 
BRANCH   5   6
ATOM      6  C   UNL     1     100.244  83.221  82.006  1.00  0.00    -0.000 C 
BRANCH   6   7
ATOM      7  C   UNL     1      98.809  82.706  81.848  1.00  0.00    -0.000 C 
BRANCH   7   8
ATOM      8  C   UNL     1      98.218  83.120  80.494  1.00  0.00    -0.000 C 
BRANCH   8   9
ATOM      9  C   UNL     1      96.729  83.469  80.628  1.00  0.00    -0.000 C 
BRANCH   9  10
ATOM     10  C   UNL     1      96.309  84.657  79.746  1.00  0.00    -0.000 C 
BRANCH  10  11
ATOM     11  C   UNL     1      94.838  85.087  79.897  1.00  0.00    -0.003 C 
ATOM     12  C   UNL     1      94.439  85.352  81.349  1.00  0.00     0.004 C 
ENDBRANCH  10  11
ENDBRANCH   9  10
ENDBRANCH   8   9
ENDBRANCH   7   8
ENDBRANCH   6   7
ENDBRANCH   5   6
ENDBRANCH   4   5
ENDBRANCH   3   4
ENDBRANCH   2   3
ENDBRANCH   1   2
BRANCH   1  13
ATOM     13  C   UNL     1      97.954  85.062  86.361  1.00  0.00     0.000 C 
BRANCH  13  14
ATOM     14  C   UNL     1      97.547  84.283  85.097  1.00  0.00     0.000 C 
BRANCH  14  15
ATOM     15  C   UNL     1      97.093  85.198  83.947  1.00  0.00     0.000 C 
BRANCH  15  16
ATOM     16  C   UNL     1      98.136  86.271  83.592  1.00  0.00     0.000 C 
BRANCH  16  17
ATOM     17  C   UNL     1      98.020  86.787  82.141  1.00  0.00     0.000 C 
BRANCH  17  18
ATOM     18  C   UNL     1      99.316  86.568  81.345  1.00  0.00     0.000 C 
BRANCH  18  19
ATOM     19  C   UNL     1      99.837  87.894  80.769  1.00  0.00     0.000 C 
BRANCH  19  20
ATOM     20  C   UNL     1     100.483  88.792  81.836  1.00  0.00     0.006 C 
BRANCH  20  21
ATOM     21  C   UNL     1     101.682  88.127  82.524  1.00  0.00     0.053 C 
BRANCH  21  22
ATOM     22  C   UNL     1     102.821  87.978  81.565  1.00  0.00     0.041 C 
ATOM     23  O   UNL     1     103.332  88.996  81.027  1.00  0.00    -0.550 OA
ATOM     24  O   UNL     1     103.350  86.721  81.302  1.00  0.00    -0.550 OA
ENDBRANCH  21  22
ENDBRANCH  20  21
ENDBRANCH  19  20
ENDBRANCH  18  19
ENDBRANCH  17  18
ENDBRANCH  16  17
ENDBRANCH  15  16
ENDBRANCH  14  15
ENDBRANCH  13  14
ENDBRANCH   1  13
TORSDOF 20
ENDMDL
MODEL 5
REMARK VINA RESULT:    -4.682      4.461      9.725
REMARK INTER + INTRA:         -11.816
REMARK INTER:                  -8.394
REMARK INTRA:                  -3.423
REMARK UNBOUND:                -1.661
REMARK SMILES CCCCCCCCCCCCCCCCCCCCCC(=O)[O-]
REMARK SMILES IDX 12 1 11 2 10 3 9 4 8 5 7 6 6 7 5 8 4 9 3 10 2 11 1 12 13 13
REMARK SMILES IDX 14 14 15 15 16 16 17 17 18 18 19 19 20 20 21 21 22 22 23 23
REMARK SMILES IDX 24 24
REMARK H PARENT
REMARK Flexibility Score: inf
ROOT
ATOM      1  C   UNL     1      96.028  85.882  84.617  1.00  0.00     0.000 C 
ENDROOT
BRANCH   1   2
ATOM      2  C   UNL     1      96.654  86.861  83.610  1.00  0.00     0.000 C 
BRANCH   2   3
ATOM      3  C   UNL     1      98.080  86.456  83.201  1.00  0.00     0.000 C 
BRANCH   3   4
ATOM      4  C   UNL     1      98.498  85.090  83.774  1.00  0.00    -0.000 C 
BRANCH   4   5
ATOM      5  C   UNL     1      99.943  84.713  83.409  1.00  0.00    -0.000 C 
BRANCH   5   6
ATOM      6  C   UNL     1     100.040  83.352  82.703  1.00  0.00    -0.000 C 
BRANCH   6   7
ATOM      7  C   UNL     1      99.142  83.314  81.460  1.00  0.00    -0.000 C 
BRANCH   7   8
ATOM      8  C   UNL     1      98.060  82.235  81.591  1.00  0.00    -0.000 C 
BRANCH   8   9
ATOM      9  C   UNL     1      96.813  82.606  80.776  1.00  0.00    -0.000 C 
BRANCH   9  10
ATOM     10  C   UNL     1      96.385  84.072  80.966  1.00  0.00    -0.000 C 
BRANCH  10  11
ATOM     11  C   UNL     1      96.303  84.895  79.668  1.00  0.00    -0.003 C 
ATOM     12  C   UNL     1      96.217  86.401  79.920  1.00  0.00     0.004 C 
ENDBRANCH  10  11
ENDBRANCH   9  10
ENDBRANCH   8   9
ENDBRANCH   7   8
ENDBRANCH   6   7
ENDBRANCH   5   6
ENDBRANCH   4   5
ENDBRANCH   3   4
ENDBRANCH   2   3
ENDBRANCH   1   2
BRANCH   1  13
ATOM     13  C   UNL     1      94.735  85.229  84.098  1.00  0.00     0.000 C 
BRANCH  13  14
ATOM     14  C   UNL     1      93.763  86.175  83.369  1.00  0.00     0.000 C 
BRANCH  14  15
ATOM     15  C   UNL     1      93.279  85.619  82.020  1.00  0.00     0.000 C 
BRANCH  15  16
ATOM     16  C   UNL     1      92.531  84.282  82.161  1.00  0.00     0.000 C 
BRANCH  16  17
ATOM     17  C   UNL     1      92.621  83.390  80.904  1.00  0.00     0.000 C 
BRANCH  17  18
ATOM     18  C   UNL     1      92.777  84.217  79.619  1.00  0.00     0.000 C 
BRANCH  18  19
ATOM     19  C   UNL     1      91.519  84.113  78.744  1.00  0.00     0.000 C 
BRANCH  19  20
ATOM     20  C   UNL     1      90.590  85.328  78.892  1.00  0.00     0.006 C 
BRANCH  20  21
ATOM     21  C   UNL     1      89.119  84.932  79.072  1.00  0.00     0.053 C 
BRANCH  21  22
ATOM     22  C   UNL     1      88.960  84.027  80.252  1.00  0.00     0.041 C 
ATOM     23  O   UNL     1      89.099  84.477  81.420  1.00  0.00    -0.550 OA
ATOM     24  O   UNL     1      88.612  82.694  80.065  1.00  0.00    -0.550 OA
ENDBRANCH  21  22
ENDBRANCH  20  21
ENDBRANCH  19  20
ENDBRANCH  18  19
ENDBRANCH  17  18
ENDBRANCH  16  17
ENDBRANCH  15  16
ENDBRANCH  14  15
ENDBRANCH  13  14
ENDBRANCH   1  13
TORSDOF 20
ENDMDL
MODEL 6
REMARK VINA RESULT:    -4.680      6.200      9.362
REMARK INTER + INTRA:         -11.812
REMARK INTER:                  -8.005
REMARK INTRA:                  -3.807
REMARK UNBOUND:                -1.661
REMARK SMILES CCCCCCCCCCCCCCCCCCCCCC(=O)[O-]
REMARK SMILES IDX 12 1 11 2 10 3 9 4 8 5 7 6 6 7 5 8 4 9 3 10 2 11 1 12 13 13
REMARK SMILES IDX 14 14 15 15 16 16 17 17 18 18 19 19 20 20 21 21 22 22 23 23
REMARK SMILES IDX 24 24
REMARK H PARENT
REMARK Flexibility Score: inf
ROOT
ATOM      1  C   UNL     1      99.619  84.536  87.224  1.00  0.00     0.000 C 
ENDROOT
BRANCH   1   2
ATOM      2  C   UNL     1     100.496  83.850  86.164  1.00  0.00     0.000 C 
BRANCH   2   3
ATOM      3  C   UNL     1     101.336  84.851  85.354  1.00  0.00     0.000 C 
BRANCH   3   4
ATOM      4  C   UNL     1     101.409  84.493  83.859  1.00  0.00    -0.000 C 
BRANCH   4   5
ATOM      5  C   UNL     1     100.579  83.249  83.507  1.00  0.00    -0.000 C 
BRANCH   5   6
ATOM      6  C   UNL     1     100.209  83.184  82.017  1.00  0.00    -0.000 C 
BRANCH   6   7
ATOM      7  C   UNL     1      98.758  82.724  81.832  1.00  0.00    -0.000 C 
BRANCH   7   8
ATOM      8  C   UNL     1      98.137  83.345  80.574  1.00  0.00    -0.000 C 
BRANCH   8   9
ATOM      9  C   UNL     1      96.709  83.837  80.852  1.00  0.00    -0.000 C 
BRANCH   9  10
ATOM     10  C   UNL     1      96.081  84.566  79.651  1.00  0.00    -0.000 C 
BRANCH  10  11
ATOM     11  C   UNL     1      95.092  85.687  80.020  1.00  0.00    -0.003 C 
ATOM     12  C   UNL     1      94.597  85.597  81.464  1.00  0.00     0.004 C 
ENDBRANCH  10  11
ENDBRANCH   9  10
ENDBRANCH   8   9
ENDBRANCH   7   8
ENDBRANCH   6   7
ENDBRANCH   5   6
ENDBRANCH   4   5
ENDBRANCH   3   4
ENDBRANCH   2   3
ENDBRANCH   1   2
BRANCH   1  13
ATOM     13  C   UNL     1      98.295  85.075  86.654  1.00  0.00     0.000 C 
BRANCH  13  14
ATOM     14  C   UNL     1      97.622  84.186  85.592  1.00  0.00     0.000 C 
BRANCH  14  15
ATOM     15  C   UNL     1      97.014  84.990  84.432  1.00  0.00     0.000 C 
BRANCH  15  16
ATOM     16  C   UNL     1      97.746  86.319  84.180  1.00  0.00     0.000 C 
BRANCH  16  17
ATOM     17  C   UNL     1      97.972  86.625  82.683  1.00  0.00     0.000 C 
BRANCH  17  18
ATOM     18  C   UNL     1      99.454  86.863  82.359  1.00  0.00     0.000 C 
BRANCH  18  19
ATOM     19  C   UNL     1      99.615  87.539  80.988  1.00  0.00     0.000 C 
BRANCH  19  20
ATOM     20  C   UNL     1      98.357  87.414  80.114  1.00  0.00     0.006 C 
BRANCH  20  21
ATOM     21  C   UNL     1      97.770  88.777  79.722  1.00  0.00     0.053 C 
BRANCH  21  22
ATOM     22  C   UNL     1      98.383  89.265  78.448  1.00  0.00     0.041 C 
ATOM     23  O   UNL     1      99.596  89.602  78.416  1.00  0.00    -0.550 OA
ATOM     24  O   UNL     1      97.627  89.304  77.282  1.00  0.00    -0.550 OA
ENDBRANCH  21  22
ENDBRANCH  20  21
ENDBRANCH  19  20
ENDBRANCH  18  19
ENDBRANCH  17  18
ENDBRANCH  16  17
ENDBRANCH  15  16
ENDBRANCH  14  15
ENDBRANCH  13  14
ENDBRANCH   1  13
TORSDOF 20
ENDMDL
MODEL 7
REMARK VINA RESULT:    -4.679      4.488     10.130
REMARK INTER + INTRA:         -11.812
REMARK INTER:                  -8.401
REMARK INTRA:                  -3.411
REMARK UNBOUND:                -1.661
REMARK SMILES CCCCCCCCCCCCCCCCCCCCCC(=O)[O-]
REMARK SMILES IDX 12 1 11 2 10 3 9 4 8 5 7 6 6 7 5 8 4 9 3 10 2 11 1 12 13 13
REMARK SMILES IDX 14 14 15 15 16 16 17 17 18 18 19 19 20 20 21 21 22 22 23 23
REMARK SMILES IDX 24 24
REMARK H PARENT
REMARK Flexibility Score: inf
ROOT
ATOM      1  C   UNL     1     100.545  83.374  82.572  1.00  0.00     0.000 C 
ENDROOT
BRANCH   1   2
ATOM      2  C   UNL     1     101.018  84.122  83.829  1.00  0.00     0.000 C 
BRANCH   2   3
ATOM      3  C   UNL     1     101.000  83.236  85.086  1.00  0.00     0.000 C 
BRANCH   3   4
ATOM      4  C   UNL     1     100.158  83.837  86.226  1.00  0.00    -0.000 C 
BRANCH   4   5
ATOM      5  C   UNL     1      99.834  85.322  86.001  1.00  0.00    -0.000 C 
BRANCH   5   6
ATOM      6  C   UNL     1      98.335  85.629  86.142  1.00  0.00    -0.000 C 
BRANCH   6   7
ATOM      7  C   UNL     1      97.485  84.497  85.555  1.00  0.00    -0.000 C 
BRANCH   7   8
ATOM      8  C   UNL     1      96.697  84.975  84.328  1.00  0.00    -0.000 C 
BRANCH   8   9
ATOM      9  C   UNL     1      96.865  86.487  84.123  1.00  0.00    -0.000 C 
BRANCH   9  10
ATOM     10  C   UNL     1      97.404  86.847  82.727  1.00  0.00    -0.000 C 
BRANCH  10  11
ATOM     11  C   UNL     1      98.904  87.191  82.682  1.00  0.00    -0.003 C 
ATOM     12  C   UNL     1      99.444  87.327  81.258  1.00  0.00     0.004 C 
ENDBRANCH  10  11
ENDBRANCH   9  10
ENDBRANCH   8   9
ENDBRANCH   7   8
ENDBRANCH   6   7
ENDBRANCH   5   6
ENDBRANCH   4   5
ENDBRANCH   3   4
ENDBRANCH   2   3
ENDBRANCH   1   2
BRANCH   1  13
ATOM     13  C   UNL     1      99.069  83.647  82.228  1.00  0.00     0.000 C 
BRANCH  13  14
ATOM     14  C   UNL     1      98.291  82.447  81.659  1.00  0.00     0.000 C 
BRANCH  14  15
ATOM     15  C   UNL     1      97.353  82.832  80.503  1.00  0.00     0.000 C 
BRANCH  15  16
ATOM     16  C   UNL     1      97.402  84.333  80.171  1.00  0.00     0.000 C 
BRANCH  16  17
ATOM     17  C   UNL     1      96.158  84.837  79.409  1.00  0.00     0.000 C 
BRANCH  17  18
ATOM     18  C   UNL     1      94.858  84.234  79.962  1.00  0.00     0.000 C 
BRANCH  18  19
ATOM     19  C   UNL     1      94.488  84.871  81.311  1.00  0.00     0.000 C 
BRANCH  19  20
ATOM     20  C   UNL     1      93.040  84.573  81.731  1.00  0.00     0.006 C 
BRANCH  20  21
ATOM     21  C   UNL     1      92.088  84.448  80.534  1.00  0.00     0.053 C 
BRANCH  21  22
ATOM     22  C   UNL     1      90.935  83.556  80.871  1.00  0.00     0.041 C 
ATOM     23  O   UNL     1      90.872  83.002  82.001  1.00  0.00    -0.550 OA
ATOM     24  O   UNL     1      89.905  83.374  79.956  1.00  0.00    -0.550 OA
ENDBRANCH  21  22
ENDBRANCH  20  21
ENDBRANCH  19  20
ENDBRANCH  18  19
ENDBRANCH  17  18
ENDBRANCH  16  17
ENDBRANCH  15  16
ENDBRANCH  14  15
ENDBRANCH  13  14
ENDBRANCH   1  13
TORSDOF 20
ENDMDL
MODEL 8
REMARK VINA RESULT:    -4.660      2.729      5.418
REMARK INTER + INTRA:         -11.770
REMARK INTER:                  -8.844
REMARK INTRA:                  -2.926
REMARK UNBOUND:                -1.661
REMARK SMILES CCCCCCCCCCCCCCCCCCCCCC(=O)[O-]
REMARK SMILES IDX 12 1 11 2 10 3 9 4 8 5 7 6 6 7 5 8 4 9 3 10 2 11 1 12 13 13
REMARK SMILES IDX 14 14 15 15 16 16 17 17 18 18 19 19 20 20 21 21 22 22 23 23
REMARK SMILES IDX 24 24
REMARK H PARENT
REMARK Flexibility Score: inf
ROOT
ATOM      1  C   UNL     1      91.910  84.902  78.760  1.00  0.00     0.000 C 
ENDROOT
BRANCH   1   2
ATOM      2  C   UNL     1      90.616  85.179  79.544  1.00  0.00     0.000 C 
BRANCH   2   3
ATOM      3  C   UNL     1      89.738  83.926  79.696  1.00  0.00     0.000 C 
BRANCH   3   4
ATOM      4  C   UNL     1      89.625  83.452  81.156  1.00  0.00    -0.000 C 
BRANCH   4   5
ATOM      5  C   UNL     1      89.274  84.594  82.123  1.00  0.00    -0.000 C 
BRANCH   5   6
ATOM      6  C   UNL     1      90.021  84.489  83.462  1.00  0.00    -0.000 C 
BRANCH   6   7
ATOM      7  C   UNL     1      91.254  85.400  83.475  1.00  0.00    -0.000 C 
BRANCH   7   8
ATOM      8  C   UNL     1      92.494  84.661  82.959  1.00  0.00    -0.000 C 
BRANCH   8   9
ATOM      9  C   UNL     1      93.517  85.645  82.375  1.00  0.00    -0.000 C 
BRANCH   9  10
ATOM     10  C   UNL     1      94.936  85.439  82.935  1.00  0.00    -0.000 C 
BRANCH  10  11
ATOM     11  C   UNL     1      95.904  86.611  82.691  1.00  0.00    -0.003 C 
ATOM     12  C   UNL     1      97.355  86.269  83.031  1.00  0.00     0.004 C 
ENDBRANCH  10  11
ENDBRANCH   9  10
ENDBRANCH   8   9
ENDBRANCH   7   8
ENDBRANCH   6   7
ENDBRANCH   5   6
ENDBRANCH   4   5
ENDBRANCH   3   4
ENDBRANCH   2   3
ENDBRANCH   1   2
BRANCH   1  13
ATOM     13  C   UNL     1      92.571  83.566  79.141  1.00  0.00     0.000 C 
BRANCH  13  14
ATOM     14  C   UNL     1      94.040  83.660  79.592  1.00  0.00     0.000 C 
BRANCH  14  15
ATOM     15  C   UNL     1      94.785  84.853  78.970  1.00  0.00     0.000 C 
BRANCH  15  16
ATOM     16  C   UNL     1      96.209  85.022  79.527  1.00  0.00     0.000 C 
BRANCH  16  17
ATOM     17  C   UNL     1      96.772  83.740  80.180  1.00  0.00     0.000 C 
BRANCH  17  18
ATOM     18  C   UNL     1      98.281  83.844  80.450  1.00  0.00     0.000 C 
BRANCH  18  19
ATOM     19  C   UNL     1      98.669  83.049  81.706  1.00  0.00     0.000 C 
BRANCH  19  20
ATOM     20  C   UNL     1     100.191  82.913  81.875  1.00  0.00     0.006 C 
BRANCH  20  21
ATOM     21  C   UNL     1     100.730  83.721  83.063  1.00  0.00     0.053 C 
BRANCH  21  22
ATOM     22  C   UNL     1     101.430  84.953  82.584  1.00  0.00     0.041 C 
ATOM     23  O   UNL     1     100.767  85.974  82.261  1.00  0.00    -0.550 OA
ATOM     24  O   UNL     1     102.819  84.991  82.540  1.00  0.00    -0.550 OA
ENDBRANCH  21  22
ENDBRANCH  20  21
ENDBRANCH  19  20
ENDBRANCH  18  19
ENDBRANCH  17  18
ENDBRANCH  16  17
ENDBRANCH  15  16
ENDBRANCH  14  15
ENDBRANCH  13  14
ENDBRANCH   1  13
TORSDOF 20
ENDMDL
MODEL 9
REMARK VINA RESULT:    -4.631      4.982     11.145
REMARK INTER + INTRA:         -11.706
REMARK INTER:                  -9.554
REMARK INTRA:                  -2.152
REMARK UNBOUND:                -1.661
REMARK SMILES CCCCCCCCCCCCCCCCCCCCCC(=O)[O-]
REMARK SMILES IDX 12 1 11 2 10 3 9 4 8 5 7 6 6 7 5 8 4 9 3 10 2 11 1 12 13 13
REMARK SMILES IDX 14 14 15 15 16 16 17 17 18 18 19 19 20 20 21 21 22 22 23 23
REMARK SMILES IDX 24 24
REMARK H PARENT
REMARK Flexibility Score: inf
ROOT
ATOM      1  C   UNL     1      94.973  84.113  80.548  1.00  0.00     0.000 C 
ENDROOT
BRANCH   1   2
ATOM      2  C   UNL     1      96.166  84.664  79.751  1.00  0.00     0.000 C 
BRANCH   2   3
ATOM      3  C   UNL     1      97.495  83.991  80.133  1.00  0.00     0.000 C 
BRANCH   3   4
ATOM      4  C   UNL     1      97.294  82.645  80.852  1.00  0.00    -0.000 C 
BRANCH   4   5
ATOM      5  C   UNL     1      98.445  82.311  81.814  1.00  0.00    -0.000 C 
BRANCH   5   6
ATOM      6  C   UNL     1      99.720  83.115  81.514  1.00  0.00    -0.000 C 
BRANCH   6   7
ATOM      7  C   UNL     1     100.503  83.401  82.802  1.00  0.00    -0.000 C 
BRANCH   7   8
ATOM      8  C   UNL     1     100.989  84.855  82.842  1.00  0.00    -0.000 C 
BRANCH   8   9
ATOM      9  C   UNL     1      99.881  85.818  82.394  1.00  0.00    -0.000 C 
BRANCH   9  10
ATOM     10  C   UNL     1      98.938  86.223  83.540  1.00  0.00    -0.000 C 
BRANCH  10  11
ATOM     11  C   UNL     1      97.556  85.546  83.511  1.00  0.00    -0.003 C 
ATOM     12  C   UNL     1      96.442  86.480  83.036  1.00  0.00     0.004 C 
ENDBRANCH  10  11
ENDBRANCH   9  10
ENDBRANCH   8   9
ENDBRANCH   7   8
ENDBRANCH   6   7
ENDBRANCH   5   6
ENDBRANCH   4   5
ENDBRANCH   3   4
ENDBRANCH   2   3
ENDBRANCH   1   2
BRANCH   1  13
ATOM     13  C   UNL     1      93.964  83.350  79.671  1.00  0.00     0.000 C 
BRANCH  13  14
ATOM     14  C   UNL     1      92.740  84.164  79.212  1.00  0.00     0.000 C 
BRANCH  14  15
ATOM     15  C   UNL     1      91.439  83.743  79.916  1.00  0.00     0.000 C 
BRANCH  15  16
ATOM     16  C   UNL     1      91.156  84.567  81.184  1.00  0.00     0.000 C 
BRANCH  16  17
ATOM     17  C   UNL     1      89.654  84.834  81.423  1.00  0.00     0.000 C 
BRANCH  17  18
ATOM     18  C   UNL     1      88.819  83.546  81.348  1.00  0.00     0.000 C 
BRANCH  18  19
ATOM     19  C   UNL     1      87.833  83.598  80.171  1.00  0.00     0.000 C 
BRANCH  19  20
ATOM     20  C   UNL     1      87.811  82.295  79.356  1.00  0.00     0.006 C 
BRANCH  20  21
ATOM     21  C   UNL     1      87.496  81.064  80.216  1.00  0.00     0.053 C 
BRANCH  21  22
ATOM     22  C   UNL     1      86.200  80.448  79.795  1.00  0.00     0.041 C 
ATOM     23  O   UNL     1      85.315  81.151  79.238  1.00  0.00    -0.550 OA
ATOM     24  O   UNL     1      85.986  79.086  79.973  1.00  0.00    -0.550 OA
ENDBRANCH  21  22
ENDBRANCH  20  21
ENDBRANCH  19  20
ENDBRANCH  18  19
ENDBRANCH  17  18
ENDBRANCH  16  17
ENDBRANCH  15  16
ENDBRANCH  14  15
ENDBRANCH  13  14
ENDBRANCH   1  13
TORSDOF 20
ENDMDL
