MODEL 1
REMARK VINA RESULT:    -3.205      0.000      0.000
REMARK INTER + INTRA:          -6.243
REMARK INTER:                  -5.640
REMARK INTRA:                  -0.602
REMARK UNBOUND:                -0.602
REMARK SMILES CCCCCCCCCCCCCCC(=O)[O-]
REMARK SMILES IDX 9 1 10 2 11 3 12 4 13 5 14 6 15 7 16 8 17 9 8 10 7 11 6 12
REMARK SMILES IDX 5 13 4 14 3 15 2 16 1 17
REMARK H PARENT
REMARK Flexibility Score: inf
ROOT
ATOM      1  C   UNL     1      -2.637  20.197  17.138  1.00  0.00     0.000 C 
ENDROOT
BRANCH   1   2
ATOM      2  C   UNL     1      -1.454  20.570  16.226  1.00  0.00     0.000 C 
BRANCH   2   3
ATOM      3  C   UNL     1      -0.105  20.074  16.771  1.00  0.00     0.000 C 
BRANCH   3   4
ATOM      4  C   UNL     1       1.093  20.775  16.109  1.00  0.00     0.000 C 
BRANCH   4   5
ATOM      5  C   UNL     1       2.439  20.115  16.461  1.00  0.00     0.006 C 
BRANCH   5   6
ATOM      6  C   UNL     1       3.592  21.105  16.696  1.00  0.00     0.053 C 
BRANCH   6   7
ATOM      7  C   UNL     1       4.873  20.633  16.082  1.00  0.00     0.041 C 
ATOM      8  O   UNL     1       5.977  20.937  16.607  1.00  0.00    -0.550 OA
ATOM      9  O   UNL     1       4.850  19.884  14.912  1.00  0.00    -0.550 OA
ENDBRANCH   6   7
ENDBRANCH   5   6
ENDBRANCH   4   5
ENDBRANCH   3   4
ENDBRANCH   2   3
ENDBRANCH   1   2
BRANCH   1  10
ATOM     10  C   UNL     1      -3.922  19.911  16.344  1.00  0.00     0.000 C 
BRANCH  10  11
ATOM     11  C   UNL     1      -4.374  21.115  15.497  1.00  0.00    -0.000 C 
BRANCH  11  12
ATOM     12  C   UNL     1      -5.513  20.747  14.523  1.00  0.00    -0.000 C 
BRANCH  12  13
ATOM     13  C   UNL     1      -6.818  21.530  14.768  1.00  0.00    -0.000 C 
BRANCH  13  14
ATOM     14  C   UNL     1      -8.060  20.660  15.026  1.00  0.00    -0.000 C 
BRANCH  14  15
ATOM     15  C   UNL     1      -8.608  20.813  16.456  1.00  0.00    -0.000 C 
BRANCH  15  16
ATOM     16  C   UNL     1      -7.824  21.849  17.276  1.00  0.00    -0.003 C 
ATOM     17  C   UNL     1      -8.216  21.857  18.753  1.00  0.00     0.004 C 
ENDBRANCH  15  16
ENDBRANCH  14  15
ENDBRANCH  13  14
ENDBRANCH  12  13
ENDBRANCH  11  12
ENDBRANCH  10  11
ENDBRANCH   1  10
TORSDOF 13
ENDMDL
MODEL 2
REMARK VINA RESULT:    -3.130      1.128      1.786
REMARK INTER + INTRA:          -6.110
REMARK INTER:                  -5.367
REMARK INTRA:                  -0.743
REMARK UNBOUND:                -0.602
REMARK SMILES CCCCCCCCCCCCCCC(=O)[O-]
REMARK SMILES IDX 9 1 10 2 11 3 12 4 13 5 14 6 15 7 16 8 17 9 8 10 7 11 6 12
REMARK SMILES IDX 5 13 4 14 3 15 2 16 1 17
REMARK H PARENT
REMARK Flexibility Score: inf
ROOT
ATOM      1  C   UNL     1      -3.342  20.663  16.288  1.00  0.00     0.000 C 
ENDROOT
BRANCH   1   2
ATOM      2  C   UNL     1      -2.796  19.944  17.535  1.00  0.00     0.000 C 
BRANCH   2   3
ATOM      3  C   UNL     1      -1.263  19.996  17.626  1.00  0.00     0.000 C 
BRANCH   3   4
ATOM      4  C   UNL     1      -0.594  20.134  16.247  1.00  0.00     0.000 C 
BRANCH   4   5
ATOM      5  C   UNL     1       0.776  20.833  16.317  1.00  0.00     0.006 C 
BRANCH   5   6
ATOM      6  C   UNL     1       1.974  19.876  16.435  1.00  0.00     0.053 C 
BRANCH   6   7
ATOM      7  C   UNL     1       3.276  20.611  16.511  1.00  0.00     0.041 C 
ATOM      8  O   UNL     1       4.245  20.260  15.788  1.00  0.00    -0.550 OA
ATOM      9  O   UNL     1       3.429  21.664  17.405  1.00  0.00    -0.550 OA
ENDBRANCH   6   7
ENDBRANCH   5   6
ENDBRANCH   4   5
ENDBRANCH   3   4
ENDBRANCH   2   3
ENDBRANCH   1   2
BRANCH   1  10
ATOM     10  C   UNL     1      -4.792  20.264  15.969  1.00  0.00     0.000 C 
BRANCH  10  11
ATOM     11  C   UNL     1      -5.352  21.003  14.739  1.00  0.00    -0.000 C 
BRANCH  11  12
ATOM     12  C   UNL     1      -6.882  21.185  14.816  1.00  0.00    -0.000 C 
BRANCH  12  13
ATOM     13  C   UNL     1      -7.575  20.225  15.803  1.00  0.00    -0.000 C 
BRANCH  13  14
ATOM     14  C   UNL     1      -8.876  20.758  16.425  1.00  0.00    -0.000 C 
BRANCH  14  15
ATOM     15  C   UNL     1      -8.682  21.268  17.864  1.00  0.00    -0.000 C 
BRANCH  15  16
ATOM     16  C   UNL     1      -7.257  21.030  18.384  1.00  0.00    -0.003 C 
ATOM     17  C   UNL     1      -7.089  21.412  19.854  1.00  0.00     0.004 C 
ENDBRANCH  15  16
ENDBRANCH  14  15
ENDBRANCH  13  14
ENDBRANCH  12  13
ENDBRANCH  11  12
ENDBRANCH  10  11
ENDBRANCH   1  10
TORSDOF 13
ENDMDL
MODEL 3
REMARK VINA RESULT:    -3.054      4.572      9.699
REMARK INTER + INTRA:          -5.978
REMARK INTER:                  -5.390
REMARK INTRA:                  -0.587
REMARK UNBOUND:                -0.602
REMARK SMILES CCCCCCCCCCCCCCC(=O)[O-]
REMARK SMILES IDX 9 1 10 2 11 3 12 4 13 5 14 6 15 7 16 8 17 9 8 10 7 11 6 12
REMARK SMILES IDX 5 13 4 14 3 15 2 16 1 17
REMARK H PARENT
REMARK Flexibility Score: inf
ROOT
ATOM      1  C   UNL     1      -3.332  20.680  16.250  1.00  0.00     0.000 C 
ENDROOT
BRANCH   1   2
ATOM      2  C   UNL     1      -4.722  20.158  15.843  1.00  0.00     0.000 C 
BRANCH   2   3
ATOM      3  C   UNL     1      -5.372  21.003  14.736  1.00  0.00     0.000 C 
BRANCH   3   4
ATOM      4  C   UNL     1      -6.824  21.390  15.064  1.00  0.00     0.000 C 
BRANCH   4   5
ATOM      5  C   UNL     1      -7.333  20.746  16.367  1.00  0.00     0.006 C 
BRANCH   5   6
ATOM      6  C   UNL     1      -8.027  21.722  17.331  1.00  0.00     0.053 C 
BRANCH   6   7
ATOM      7  C   UNL     1      -7.627  21.486  18.754  1.00  0.00     0.041 C 
ATOM      8  O   UNL     1      -8.428  21.749  19.690  1.00  0.00    -0.550 OA
ATOM      9  O   UNL     1      -6.356  21.007  19.050  1.00  0.00    -0.550 OA
ENDBRANCH   6   7
ENDBRANCH   5   6
ENDBRANCH   4   5
ENDBRANCH   3   4
ENDBRANCH   2   3
ENDBRANCH   1   2
BRANCH   1  10
ATOM     10  C   UNL     1      -2.734  19.895  17.429  1.00  0.00     0.000 C 
BRANCH  10  11
ATOM     11  C   UNL     1      -1.234  20.179  17.627  1.00  0.00    -0.000 C 
BRANCH  11  12
ATOM     12  C   UNL     1      -0.418  19.919  16.344  1.00  0.00    -0.000 C 
BRANCH  12  13
ATOM     13  C   UNL     1       0.903  20.712  16.274  1.00  0.00    -0.000 C 
BRANCH  13  14
ATOM     14  C   UNL     1       2.176  19.875  16.482  1.00  0.00    -0.000 C 
BRANCH  14  15
ATOM     15  C   UNL     1       3.445  20.740  16.594  1.00  0.00    -0.000 C 
BRANCH  15  16
ATOM     16  C   UNL     1       4.637  20.132  15.839  1.00  0.00    -0.003 C 
ATOM     17  C   UNL     1       5.969  20.778  16.216  1.00  0.00     0.004 C 
ENDBRANCH  15  16
ENDBRANCH  14  15
ENDBRANCH  13  14
ENDBRANCH  12  13
ENDBRANCH  11  12
ENDBRANCH  10  11
ENDBRANCH   1  10
TORSDOF 13
ENDMDL
MODEL 4
REMARK VINA RESULT:    -2.794      4.764     10.227
REMARK INTER + INTRA:          -5.520
REMARK INTER:                  -5.131
REMARK INTRA:                  -0.388
REMARK UNBOUND:                -0.602
REMARK SMILES CCCCCCCCCCCCCCC(=O)[O-]
REMARK SMILES IDX 9 1 10 2 11 3 12 4 13 5 14 6 15 7 16 8 17 9 8 10 7 11 6 12
REMARK SMILES IDX 5 13 4 14 3 15 2 16 1 17
REMARK H PARENT
REMARK Flexibility Score: inf
ROOT
ATOM      1  C   UNL     1      -2.380  20.441  17.535  1.00  0.00     0.000 C 
ENDROOT
BRANCH   1   2
ATOM      2  C   UNL     1      -3.108  19.971  16.263  1.00  0.00     0.000 C 
BRANCH   2   3
ATOM      3  C   UNL     1      -4.607  20.306  16.279  1.00  0.00     0.000 C 
BRANCH   3   4
ATOM      4  C   UNL     1      -5.106  20.850  14.929  1.00  0.00     0.000 C 
BRANCH   4   5
ATOM      5  C   UNL     1      -6.642  20.885  14.832  1.00  0.00     0.006 C 
BRANCH   5   6
ATOM      6  C   UNL     1      -7.368  20.062  15.909  1.00  0.00     0.053 C 
BRANCH   6   7
ATOM      7  C   UNL     1      -8.027  20.932  16.934  1.00  0.00     0.041 C 
ATOM      8  O   UNL     1      -7.649  22.123  17.090  1.00  0.00    -0.550 OA
ATOM      9  O   UNL     1      -9.036  20.418  17.739  1.00  0.00    -0.550 OA
ENDBRANCH   6   7
ENDBRANCH   5   6
ENDBRANCH   4   5
ENDBRANCH   3   4
ENDBRANCH   2   3
ENDBRANCH   1   2
BRANCH   1  10
ATOM     10  C   UNL     1      -0.899  20.028  17.551  1.00  0.00     0.000 C 
BRANCH  10  11
ATOM     11  C   UNL     1      -0.105  20.630  16.377  1.00  0.00    -0.000 C 
BRANCH  11  12
ATOM     12  C   UNL     1       1.216  19.875  16.119  1.00  0.00    -0.000 C 
BRANCH  12  13
ATOM     13  C   UNL     1       2.477  20.697  16.450  1.00  0.00    -0.000 C 
BRANCH  13  14
ATOM     14  C   UNL     1       3.809  20.020  16.089  1.00  0.00    -0.000 C 
BRANCH  14  15
ATOM     15  C   UNL     1       4.998  20.996  16.109  1.00  0.00    -0.000 C 
BRANCH  15  16
ATOM     16  C   UNL     1       6.353  20.272  16.089  1.00  0.00    -0.003 C 
ATOM     17  C   UNL     1       7.460  21.062  16.785  1.00  0.00     0.004 C 
ENDBRANCH  15  16
ENDBRANCH  14  15
ENDBRANCH  13  14
ENDBRANCH  12  13
ENDBRANCH  11  12
ENDBRANCH  10  11
ENDBRANCH   1  10
TORSDOF 13
ENDMDL
MODEL 5
REMARK VINA RESULT:    -2.572      1.596      3.283
REMARK INTER + INTRA:          -5.129
REMARK INTER:                  -4.857
REMARK INTRA:                  -0.271
REMARK UNBOUND:                -0.602
REMARK SMILES CCCCCCCCCCCCCCC(=O)[O-]
REMARK SMILES IDX 9 1 10 2 11 3 12 4 13 5 14 6 15 7 16 8 17 9 8 10 7 11 6 12
REMARK SMILES IDX 5 13 4 14 3 15 2 16 1 17
REMARK H PARENT
REMARK Flexibility Score: inf
ROOT
ATOM      1  C   UNL     1       0.916  20.893  16.256  1.00  0.00     0.000 C 
ENDROOT
BRANCH   1   2
ATOM      2  C   UNL     1       2.036  19.875  15.973  1.00  0.00     0.000 C 
BRANCH   2   3
ATOM      3  C   UNL     1       3.371  20.267  16.625  1.00  0.00     0.000 C 
BRANCH   3   4
ATOM      4  C   UNL     1       4.505  20.428  15.598  1.00  0.00     0.000 C 
BRANCH   4   5
ATOM      5  C   UNL     1       5.876  19.994  16.149  1.00  0.00     0.006 C 
BRANCH   5   6
ATOM      6  C   UNL     1       7.024  20.063  15.129  1.00  0.00     0.053 C 
BRANCH   6   7
ATOM      7  C   UNL     1       8.198  20.828  15.654  1.00  0.00     0.041 C 
ATOM      8  O   UNL     1       9.271  20.875  14.995  1.00  0.00    -0.550 OA
ATOM      9  O   UNL     1       8.120  21.464  16.887  1.00  0.00    -0.550 OA
ENDBRANCH   6   7
ENDBRANCH   5   6
ENDBRANCH   4   5
ENDBRANCH   3   4
ENDBRANCH   2   3
ENDBRANCH   1   2
BRANCH   1  10
ATOM     10  C   UNL     1      -0.378  20.221  16.744  1.00  0.00     0.000 C 
BRANCH  10  11
ATOM     11  C   UNL     1      -1.643  20.913  16.207  1.00  0.00    -0.000 C 
BRANCH  11  12
ATOM     12  C   UNL     1      -2.931  20.158  16.596  1.00  0.00    -0.000 C 
BRANCH  12  13
ATOM     13  C   UNL     1      -4.056  20.263  15.548  1.00  0.00    -0.000 C 
BRANCH  13  14
ATOM     14  C   UNL     1      -5.470  20.439  16.126  1.00  0.00    -0.000 C 
BRANCH  14  15
ATOM     15  C   UNL     1      -6.469  20.995  15.096  1.00  0.00    -0.000 C 
BRANCH  15  16
ATOM     16  C   UNL     1      -7.914  20.984  15.616  1.00  0.00    -0.003 C 
ATOM     17  C   UNL     1      -8.093  21.805  16.892  1.00  0.00     0.004 C 
ENDBRANCH  15  16
ENDBRANCH  14  15
ENDBRANCH  13  14
ENDBRANCH  12  13
ENDBRANCH  11  12
ENDBRANCH  10  11
ENDBRANCH   1  10
TORSDOF 13
ENDMDL
MODEL 6
REMARK VINA RESULT:    -2.454      4.474     10.704
REMARK INTER + INTRA:          -4.921
REMARK INTER:                  -4.458
REMARK INTRA:                  -0.462
REMARK UNBOUND:                -0.602
REMARK SMILES CCCCCCCCCCCCCCC(=O)[O-]
REMARK SMILES IDX 9 1 10 2 11 3 12 4 13 5 14 6 15 7 16 8 17 9 8 10 7 11 6 12
REMARK SMILES IDX 5 13 4 14 3 15 2 16 1 17
REMARK H PARENT
REMARK Flexibility Score: inf
ROOT
ATOM      1  C   UNL     1       0.774  21.020  16.039  1.00  0.00     0.000 C 
ENDROOT
BRANCH   1   2
ATOM      2  C   UNL     1      -0.017  19.936  16.793  1.00  0.00     0.000 C 
BRANCH   2   3
ATOM      3  C   UNL     1      -1.531  20.197  16.791  1.00  0.00     0.000 C 
BRANCH   3   4
ATOM      4  C   UNL     1      -2.141  20.146  18.201  1.00  0.00     0.000 C 
BRANCH   4   5
ATOM      5  C   UNL     1      -3.678  20.048  18.183  1.00  0.00     0.006 C 
BRANCH   5   6
ATOM      6  C   UNL     1      -4.290  19.904  16.779  1.00  0.00     0.053 C 
BRANCH   6   7
ATOM      7  C   UNL     1      -5.765  20.157  16.781  1.00  0.00     0.041 C 
ATOM      8  O   UNL     1      -6.432  20.015  17.840  1.00  0.00    -0.550 OA
ATOM      9  O   UNL     1      -6.412  20.516  15.604  1.00  0.00    -0.550 OA
ENDBRANCH   6   7
ENDBRANCH   5   6
ENDBRANCH   4   5
ENDBRANCH   3   4
ENDBRANCH   2   3
ENDBRANCH   1   2
BRANCH   1  10
ATOM     10  C   UNL     1       2.205  21.185  16.579  1.00  0.00     0.000 C 
BRANCH  10  11
ATOM     11  C   UNL     1       3.012  19.875  16.524  1.00  0.00    -0.000 C 
BRANCH  11  12
ATOM     12  C   UNL     1       4.259  19.997  15.623  1.00  0.00    -0.000 C 
BRANCH  12  13
ATOM     13  C   UNL     1       5.413  20.794  16.262  1.00  0.00    -0.000 C 
BRANCH  13  14
ATOM     14  C   UNL     1       6.823  20.357  15.832  1.00  0.00    -0.000 C 
BRANCH  14  15
ATOM     15  C   UNL     1       7.245  20.956  14.478  1.00  0.00    -0.000 C 
BRANCH  15  16
ATOM     16  C   UNL     1       7.549  19.877  13.429  1.00  0.00    -0.003 C 
ATOM     17  C   UNL     1       9.001  19.903  12.954  1.00  0.00     0.004 C 
ENDBRANCH  15  16
ENDBRANCH  14  15
ENDBRANCH  13  14
ENDBRANCH  12  13
ENDBRANCH  11  12
ENDBRANCH  10  11
ENDBRANCH   1  10
TORSDOF 13
ENDMDL
MODEL 7
REMARK VINA RESULT:    -2.277      5.086     12.528
REMARK INTER + INTRA:          -4.610
REMARK INTER:                  -4.183
REMARK INTRA:                  -0.426
REMARK UNBOUND:                -0.602
REMARK SMILES CCCCCCCCCCCCCCC(=O)[O-]
REMARK SMILES IDX 9 1 10 2 11 3 12 4 13 5 14 6 15 7 16 8 17 9 8 10 7 11 6 12
REMARK SMILES IDX 5 13 4 14 3 15 2 16 1 17
REMARK H PARENT
REMARK Flexibility Score: inf
ROOT
ATOM      1  C   UNL     1       6.280  20.181  15.914  1.00  0.00     0.000 C 
ENDROOT
BRANCH   1   2
ATOM      2  C   UNL     1       4.945  20.898  16.184  1.00  0.00     0.000 C 
BRANCH   2   3
ATOM      3  C   UNL     1       3.734  19.959  16.073  1.00  0.00     0.000 C 
BRANCH   3   4
ATOM      4  C   UNL     1       2.449  20.581  16.647  1.00  0.00     0.000 C 
BRANCH   4   5
ATOM      5  C   UNL     1       1.171  20.000  16.013  1.00  0.00     0.006 C 
BRANCH   5   6
ATOM      6  C   UNL     1      -0.018  19.875  16.980  1.00  0.00     0.053 C 
BRANCH   6   7
ATOM      7  C   UNL     1      -1.241  20.565  16.459  1.00  0.00     0.041 C 
ATOM      8  O   UNL     1      -2.377  20.274  16.919  1.00  0.00    -0.550 OA
ATOM      9  O   UNL     1      -1.130  21.507  15.443  1.00  0.00    -0.550 OA
ENDBRANCH   6   7
ENDBRANCH   5   6
ENDBRANCH   4   5
ENDBRANCH   3   4
ENDBRANCH   2   3
ENDBRANCH   1   2
BRANCH   1  10
ATOM     10  C   UNL     1       6.972  20.691  14.639  1.00  0.00     0.000 C 
BRANCH  10  11
ATOM     11  C   UNL     1       8.302  19.969  14.359  1.00  0.00    -0.000 C 
BRANCH  11  12
ATOM     12  C   UNL     1       9.400  20.938  13.873  1.00  0.00    -0.000 C 
BRANCH  12  13
ATOM     13  C   UNL     1       9.744  20.790  12.378  1.00  0.00    -0.000 C 
BRANCH  13  14
ATOM     14  C   UNL     1      10.435  22.009  11.745  1.00  0.00    -0.000 C 
BRANCH  14  15
ATOM     15  C   UNL     1      10.427  23.242  12.666  1.00  0.00    -0.000 C 
BRANCH  15  16
ATOM     16  C   UNL     1      11.094  24.464  12.016  1.00  0.00    -0.003 C 
ATOM     17  C   UNL     1      11.083  24.405  10.489  1.00  0.00     0.004 C 
ENDBRANCH  15  16
ENDBRANCH  14  15
ENDBRANCH  13  14
ENDBRANCH  12  13
ENDBRANCH  11  12
ENDBRANCH  10  11
ENDBRANCH   1  10
TORSDOF 13
ENDMDL
MODEL 8
REMARK VINA RESULT:    -2.249      4.296      8.263
REMARK INTER + INTRA:          -4.560
REMARK INTER:                  -4.189
REMARK INTRA:                  -0.371
REMARK UNBOUND:                -0.602
REMARK SMILES CCCCCCCCCCCCCCC(=O)[O-]
REMARK SMILES IDX 9 1 10 2 11 3 12 4 13 5 14 6 15 7 16 8 17 9 8 10 7 11 6 12
REMARK SMILES IDX 5 13 4 14 3 15 2 16 1 17
REMARK H PARENT
REMARK Flexibility Score: inf
ROOT
ATOM      1  C   UNL     1       6.069  21.145  14.757  1.00  0.00     0.000 C 
ENDROOT
BRANCH   1   2
ATOM      2  C   UNL     1       7.097  20.151  14.185  1.00  0.00     0.000 C 
BRANCH   2   3
ATOM      3  C   UNL     1       8.451  20.808  13.878  1.00  0.00     0.000 C 
BRANCH   3   4
ATOM      4  C   UNL     1       9.149  20.182  12.659  1.00  0.00     0.000 C 
BRANCH   4   5
ATOM      5  C   UNL     1       9.735  21.236  11.701  1.00  0.00     0.006 C 
BRANCH   5   6
ATOM      6  C   UNL     1      11.125  21.757  12.101  1.00  0.00     0.053 C 
BRANCH   6   7
ATOM      7  C   UNL     1      11.053  23.094  12.770  1.00  0.00     0.041 C 
ATOM      8  O   UNL     1      11.080  23.175  14.027  1.00  0.00    -0.550 OA
ATOM      9  O   UNL     1      10.921  24.249  12.008  1.00  0.00    -0.550 OA
ENDBRANCH   6   7
ENDBRANCH   5   6
ENDBRANCH   4   5
ENDBRANCH   3   4
ENDBRANCH   2   3
ENDBRANCH   1   2
BRANCH   1  10
ATOM     10  C   UNL     1       5.498  20.686  16.108  1.00  0.00     0.000 C 
BRANCH  10  11
ATOM     11  C   UNL     1       4.066  20.134  15.988  1.00  0.00    -0.000 C 
BRANCH  11  12
ATOM     12  C   UNL     1       3.076  20.877  16.909  1.00  0.00    -0.000 C 
BRANCH  12  13
ATOM     13  C   UNL     1       1.657  21.007  16.322  1.00  0.00    -0.000 C 
BRANCH  13  14
ATOM     14  C   UNL     1       0.687  19.876  16.705  1.00  0.00    -0.000 C 
BRANCH  14  15
ATOM     15  C   UNL     1      -0.762  20.164  16.277  1.00  0.00    -0.000 C 
BRANCH  15  16
ATOM     16  C   UNL     1      -1.754  20.044  17.444  1.00  0.00    -0.003 C 
ATOM     17  C   UNL     1      -3.212  20.148  16.998  1.00  0.00     0.004 C 
ENDBRANCH  15  16
ENDBRANCH  14  15
ENDBRANCH  13  14
ENDBRANCH  12  13
ENDBRANCH  11  12
ENDBRANCH  10  11
ENDBRANCH   1  10
TORSDOF 13
ENDMDL
