MODEL 1
REMARK VINA RESULT:    -2.943      0.000      0.000
REMARK INTER + INTRA:          -3.344
REMARK INTER:                  -3.287
REMARK INTRA:                  -0.058
REMARK UNBOUND:                -0.058
REMARK SMILES CCCC(=O)[O-]
REMARK SMILES IDX 3 1 4 2 5 3 6 4 2 5 1 6
REMARK H PARENT
REMARK Flexibility Score: inf
ROOT
ATOM      1  C   UNL     1     -14.188   8.802  32.394  1.00  0.00     0.052 C 
ENDROOT
BRANCH   1   2
ATOM      2  C   UNL     1     -14.256   7.892  31.208  1.00  0.00     0.041 C 
ATOM      3  O   UNL     1     -13.854   8.288  30.082  1.00  0.00    -0.550 OA
ATOM      4  O   UNL     1     -14.718   6.591  31.357  1.00  0.00    -0.550 OA
ENDBRANCH   1   2
BRANCH   1   5
ATOM      5  C   UNL     1     -15.259   9.892  32.293  1.00  0.00     0.003 C 
ATOM      6  C   UNL     1     -16.628   9.358  32.704  1.00  0.00     0.004 C 
ENDBRANCH   1   5
TORSDOF 2
ENDMDL
MODEL 2
REMARK VINA RESULT:    -2.936      1.819      2.245
REMARK INTER + INTRA:          -3.337
REMARK INTER:                  -3.295
REMARK INTRA:                  -0.042
REMARK UNBOUND:                -0.058
REMARK SMILES CCCC(=O)[O-]
REMARK SMILES IDX 3 1 4 2 5 3 6 4 2 5 1 6
REMARK H PARENT
REMARK Flexibility Score: inf
ROOT
ATOM      1  C   UNL     1     -15.357  10.026  32.228  1.00  0.00     0.052 C 
ENDROOT
BRANCH   1   2
ATOM      2  C   UNL     1     -14.254   9.117  32.671  1.00  0.00     0.041 C 
ATOM      3  O   UNL     1     -13.795   9.201  33.840  1.00  0.00    -0.550 OA
ATOM      4  O   UNL     1     -13.766   8.145  31.807  1.00  0.00    -0.550 OA
ENDBRANCH   1   2
BRANCH   1   5
ATOM      5  C   UNL     1     -16.721   9.407  32.548  1.00  0.00     0.003 C 
ATOM      6  C   UNL     1     -17.298   8.688  31.333  1.00  0.00     0.004 C 
ENDBRANCH   1   5
TORSDOF 2
ENDMDL
MODEL 3
REMARK VINA RESULT:    -2.883      2.169      2.708
REMARK INTER + INTRA:          -3.278
REMARK INTER:                  -3.248
REMARK INTRA:                  -0.029
REMARK UNBOUND:                -0.058
REMARK SMILES CCCC(=O)[O-]
REMARK SMILES IDX 3 1 4 2 5 3 6 4 2 5 1 6
REMARK H PARENT
REMARK Flexibility Score: inf
ROOT
ATOM      1  C   UNL     1     -15.018  10.421  32.112  1.00  0.00     0.052 C 
ENDROOT
BRANCH   1   2
ATOM      2  C   UNL     1     -14.270   9.219  32.594  1.00  0.00     0.041 C 
ATOM      3  O   UNL     1     -13.907   9.139  33.797  1.00  0.00    -0.550 OA
ATOM      4  O   UNL     1     -14.014   8.166  31.725  1.00  0.00    -0.550 OA
ENDBRANCH   1   2
BRANCH   1   5
ATOM      5  C   UNL     1     -15.319  10.300  30.616  1.00  0.00     0.003 C 
ATOM      6  C   UNL     1     -14.728  11.472  29.838  1.00  0.00     0.004 C 
ENDBRANCH   1   5
TORSDOF 2
ENDMDL
MODEL 4
REMARK VINA RESULT:    -2.758      7.326      8.075
REMARK INTER + INTRA:          -3.139
REMARK INTER:                  -3.096
REMARK INTRA:                  -0.042
REMARK UNBOUND:                -0.058
REMARK SMILES CCCC(=O)[O-]
REMARK SMILES IDX 3 1 4 2 5 3 6 4 2 5 1 6
REMARK H PARENT
REMARK Flexibility Score: inf
ROOT
ATOM      1  C   UNL     1     -19.086   1.577  32.782  1.00  0.00     0.052 C 
ENDROOT
BRANCH   1   2
ATOM      2  C   UNL     1     -18.218   2.724  32.369  1.00  0.00     0.041 C 
ATOM      3  O   UNL     1     -18.719   3.866  32.193  1.00  0.00    -0.550 OA
ATOM      4  O   UNL     1     -16.848   2.542  32.226  1.00  0.00    -0.550 OA
ENDBRANCH   1   2
BRANCH   1   5
ATOM      5  C   UNL     1     -19.690   0.895  31.551  1.00  0.00     0.003 C 
ATOM      6  C   UNL     1     -18.844  -0.296  31.111  1.00  0.00     0.004 C 
ENDBRANCH   1   5
TORSDOF 2
ENDMDL
MODEL 5
REMARK VINA RESULT:    -2.744      1.178      1.474
REMARK INTER + INTRA:          -3.123
REMARK INTER:                  -3.060
REMARK INTRA:                  -0.063
REMARK UNBOUND:                -0.058
REMARK SMILES CCCC(=O)[O-]
REMARK SMILES IDX 3 1 4 2 5 3 6 4 2 5 1 6
REMARK H PARENT
REMARK Flexibility Score: inf
ROOT
ATOM      1  C   UNL     1     -15.245  10.088  32.038  1.00  0.00     0.052 C 
ENDROOT
BRANCH   1   2
ATOM      2  C   UNL     1     -14.461   9.152  31.173  1.00  0.00     0.041 C 
ATOM      3  O   UNL     1     -14.288   9.411  29.953  1.00  0.00    -0.550 OA
ATOM      4  O   UNL     1     -13.879   8.018  31.726  1.00  0.00    -0.550 OA
ENDBRANCH   1   2
BRANCH   1   5
ATOM      5  C   UNL     1     -16.486   9.386  32.596  1.00  0.00     0.003 C 
ATOM      6  C   UNL     1     -17.409   8.923  31.473  1.00  0.00     0.004 C 
ENDBRANCH   1   5
TORSDOF 2
ENDMDL
MODEL 6
REMARK VINA RESULT:    -2.717      1.326      1.788
REMARK INTER + INTRA:          -3.093
REMARK INTER:                  -3.061
REMARK INTRA:                  -0.032
REMARK UNBOUND:                -0.058
REMARK SMILES CCCC(=O)[O-]
REMARK SMILES IDX 3 1 4 2 5 3 6 4 2 5 1 6
REMARK H PARENT
REMARK Flexibility Score: inf
ROOT
ATOM      1  C   UNL     1     -14.441   9.102  32.632  1.00  0.00     0.052 C 
ENDROOT
BRANCH   1   2
ATOM      2  C   UNL     1     -15.101   8.010  31.850  1.00  0.00     0.041 C 
ATOM      3  O   UNL     1     -14.407   7.103  31.319  1.00  0.00    -0.550 OA
ATOM      4  O   UNL     1     -16.485   7.967  31.749  1.00  0.00    -0.550 OA
ENDBRANCH   1   2
BRANCH   1   5
ATOM      5  C   UNL     1     -15.028  10.463  32.248  1.00  0.00     0.003 C 
ATOM      6  C   UNL     1     -14.807  10.761  30.768  1.00  0.00     0.004 C 
ENDBRANCH   1   5
TORSDOF 2
ENDMDL
MODEL 7
REMARK VINA RESULT:    -2.710      2.126      3.135
REMARK INTER + INTRA:          -3.084
REMARK INTER:                  -3.038
REMARK INTRA:                  -0.046
REMARK UNBOUND:                -0.058
REMARK SMILES CCCC(=O)[O-]
REMARK SMILES IDX 3 1 4 2 5 3 6 4 2 5 1 6
REMARK H PARENT
REMARK Flexibility Score: inf
ROOT
ATOM      1  C   UNL     1     -14.272   8.812  32.540  1.00  0.00     0.052 C 
ENDROOT
BRANCH   1   2
ATOM      2  C   UNL     1     -15.356   9.805  32.261  1.00  0.00     0.041 C 
ATOM      3  O   UNL     1     -16.506   9.639  32.745  1.00  0.00    -0.550 OA
ATOM      4  O   UNL     1     -15.082  10.937  31.505  1.00  0.00    -0.550 OA
ENDBRANCH   1   2
BRANCH   1   5
ATOM      5  C   UNL     1     -14.004   7.950  31.303  1.00  0.00     0.003 C 
ATOM      6  C   UNL     1     -14.960   6.763  31.242  1.00  0.00     0.004 C 
ENDBRANCH   1   5
TORSDOF 2
ENDMDL
MODEL 8
REMARK VINA RESULT:    -2.645     16.912     17.929
REMARK INTER + INTRA:          -3.013
REMARK INTER:                  -2.949
REMARK INTRA:                  -0.064
REMARK UNBOUND:                -0.058
REMARK SMILES CCCC(=O)[O-]
REMARK SMILES IDX 3 1 4 2 5 3 6 4 2 5 1 6
REMARK H PARENT
REMARK Flexibility Score: inf
ROOT
ATOM      1  C   UNL     1     -15.106  -6.155  21.241  1.00  0.00     0.052 C 
ENDROOT
BRANCH   1   2
ATOM      2  C   UNL     1     -15.683  -5.791  19.910  1.00  0.00     0.041 C 
ATOM      3  O   UNL     1     -16.618  -6.475  19.416  1.00  0.00    -0.550 OA
ATOM      4  O   UNL     1     -15.220  -4.668  19.236  1.00  0.00    -0.550 OA
ENDBRANCH   1   2
BRANCH   1   5
ATOM      5  C   UNL     1     -16.154  -5.981  22.344  1.00  0.00     0.003 C 
ATOM      6  C   UNL     1     -16.598  -4.526  22.457  1.00  0.00     0.004 C 
ENDBRANCH   1   5
TORSDOF 2
ENDMDL
