MODEL 1
REMARK VINA RESULT:    -3.503      0.000      0.000
REMARK INTER + INTRA:          -3.720
REMARK INTER:                  -3.708
REMARK INTRA:                  -0.012
REMARK UNBOUND:                -0.012
REMARK SMILES O=Cc1ccco1
REMARK SMILES IDX 5 1 6 2 7 3 3 4 4 5 2 6 1 7
REMARK H PARENT
REMARK Flexibility Score: inf
ROOT
ATOM      1  C   UNL     1     -19.104  -4.358 -13.506  1.00  0.00     0.043 A 
ATOM      2  C   UNL     1     -19.706  -3.143 -13.245  1.00  0.00     0.196 A 
ATOM      3  O   UNL     1     -19.021  -2.497 -12.329  1.00  0.00    -0.462 OA
ATOM      4  C   UNL     1     -17.995  -3.237 -11.978  1.00  0.00     0.166 A 
ATOM      5  C   UNL     1     -17.996  -4.420 -12.688  1.00  0.00     0.054 A 
ENDROOT
BRANCH   4   6
ATOM      6  C   UNL     1     -17.001  -2.846 -10.977  1.00  0.00     0.298 C 
ATOM      7  O   UNL     1     -15.874  -3.405 -10.951  1.00  0.00    -0.294 OA
ENDBRANCH   4   6
TORSDOF 1
ENDMDL
MODEL 2
REMARK VINA RESULT:    -3.490      1.129      1.449
REMARK INTER + INTRA:          -3.706
REMARK INTER:                  -3.690
REMARK INTRA:                  -0.016
REMARK UNBOUND:                -0.012
REMARK SMILES O=Cc1ccco1
REMARK SMILES IDX 5 1 6 2 7 3 3 4 4 5 2 6 1 7
REMARK H PARENT
REMARK Flexibility Score: inf
ROOT
ATOM      1  C   UNL     1     -19.456  -3.741 -13.596  1.00  0.00     0.043 A 
ATOM      2  C   UNL     1     -18.537  -4.771 -13.638  1.00  0.00     0.196 A 
ATOM      3  O   UNL     1     -17.618  -4.582 -12.719  1.00  0.00    -0.462 OA
ATOM      4  C   UNL     1     -17.895  -3.471 -12.076  1.00  0.00     0.166 A 
ATOM      5  C   UNL     1     -19.042  -2.900 -12.586  1.00  0.00     0.054 A 
ENDROOT
BRANCH   4   6
ATOM      6  C   UNL     1     -17.091  -2.933 -10.978  1.00  0.00     0.298 C 
ATOM      7  O   UNL     1     -15.906  -3.323 -10.809  1.00  0.00    -0.294 OA
ENDBRANCH   4   6
TORSDOF 1
ENDMDL
MODEL 3
REMARK VINA RESULT:    -3.472      1.365      3.044
REMARK INTER + INTRA:          -3.686
REMARK INTER:                  -3.670
REMARK INTRA:                  -0.016
REMARK UNBOUND:                -0.012
REMARK SMILES O=Cc1ccco1
REMARK SMILES IDX 5 1 6 2 7 3 3 4 4 5 2 6 1 7
REMARK H PARENT
REMARK Flexibility Score: inf
ROOT
ATOM      1  C   UNL     1     -18.022  -4.692 -13.104  1.00  0.00     0.043 A 
ATOM      2  C   UNL     1     -17.705  -3.803 -12.096  1.00  0.00     0.196 A 
ATOM      3  O   UNL     1     -18.666  -2.917 -11.967  1.00  0.00    -0.462 OA
ATOM      4  C   UNL     1     -19.601  -3.187 -12.850  1.00  0.00     0.166 A 
ATOM      5  C   UNL     1     -19.248  -4.295 -13.592  1.00  0.00     0.054 A 
ENDROOT
BRANCH   4   6
ATOM      6  C   UNL     1     -20.833  -2.414 -13.007  1.00  0.00     0.298 C 
ATOM      7  O   UNL     1     -20.983  -1.326 -12.391  1.00  0.00    -0.294 OA
ENDBRANCH   4   6
TORSDOF 1
ENDMDL
MODEL 4
REMARK VINA RESULT:    -3.438      2.640      3.984
REMARK INTER + INTRA:          -3.651
REMARK INTER:                  -3.639
REMARK INTRA:                  -0.012
REMARK UNBOUND:                -0.012
REMARK SMILES O=Cc1ccco1
REMARK SMILES IDX 5 1 6 2 7 3 3 4 4 5 2 6 1 7
REMARK H PARENT
REMARK Flexibility Score: inf
ROOT
ATOM      1  C   UNL     1     -22.684  -0.676 -12.512  1.00  0.00     0.043 A 
ATOM      2  C   UNL     1     -22.492  -1.360 -11.328  1.00  0.00     0.196 A 
ATOM      3  O   UNL     1     -21.504  -2.215 -11.463  1.00  0.00    -0.462 OA
ATOM      4  C   UNL     1     -21.039  -2.121 -12.688  1.00  0.00     0.166 A 
ATOM      5  C   UNL     1     -21.744  -1.167 -13.393  1.00  0.00     0.054 A 
ENDROOT
BRANCH   4   6
ATOM      6  C   UNL     1     -19.930  -2.920 -13.212  1.00  0.00     0.298 C 
ATOM      7  O   UNL     1     -18.748  -2.672 -12.860  1.00  0.00    -0.294 OA
ENDBRANCH   4   6
TORSDOF 1
ENDMDL
MODEL 5
REMARK VINA RESULT:    -3.365      2.141      3.225
REMARK INTER + INTRA:          -3.574
REMARK INTER:                  -3.562
REMARK INTRA:                  -0.012
REMARK UNBOUND:                -0.012
REMARK SMILES O=Cc1ccco1
REMARK SMILES IDX 5 1 6 2 7 3 3 4 4 5 2 6 1 7
REMARK H PARENT
REMARK Flexibility Score: inf
ROOT
ATOM      1  C   UNL     1     -17.744  -3.959 -12.381  1.00  0.00     0.043 A 
ATOM      2  C   UNL     1     -18.344  -4.773 -13.321  1.00  0.00     0.196 A 
ATOM      3  O   UNL     1     -19.534  -4.306 -13.618  1.00  0.00    -0.462 OA
ATOM      4  C   UNL     1     -19.742  -3.219 -12.911  1.00  0.00     0.166 A 
ATOM      5  C   UNL     1     -18.647  -2.952 -12.115  1.00  0.00     0.054 A 
ENDROOT
BRANCH   4   6
ATOM      6  C   UNL     1     -20.965  -2.416 -12.973  1.00  0.00     0.298 C 
ATOM      7  O   UNL     1     -20.996  -1.267 -12.461  1.00  0.00    -0.294 OA
ENDBRANCH   4   6
TORSDOF 1
ENDMDL
MODEL 6
REMARK VINA RESULT:    -3.191      1.995      2.924
REMARK INTER + INTRA:          -3.389
REMARK INTER:                  -3.375
REMARK INTRA:                  -0.015
REMARK UNBOUND:                -0.012
REMARK SMILES O=Cc1ccco1
REMARK SMILES IDX 5 1 6 2 7 3 3 4 4 5 2 6 1 7
REMARK H PARENT
REMARK Flexibility Score: inf
ROOT
ATOM      1  C   UNL     1     -20.664  -2.582 -11.987  1.00  0.00     0.043 A 
ATOM      2  C   UNL     1     -19.864  -3.316 -11.134  1.00  0.00     0.196 A 
ATOM      3  O   UNL     1     -19.001  -4.020 -11.832  1.00  0.00    -0.462 OA
ATOM      4  C   UNL     1     -19.203  -3.779 -13.107  1.00  0.00     0.166 A 
ATOM      5  C   UNL     1     -20.238  -2.880 -13.264  1.00  0.00     0.054 A 
ENDROOT
BRANCH   4   6
ATOM      6  C   UNL     1     -18.430  -4.386 -14.192  1.00  0.00     0.298 C 
ATOM      7  O   UNL     1     -18.042  -5.580 -14.103  1.00  0.00    -0.294 OA
ENDBRANCH   4   6
TORSDOF 1
ENDMDL
MODEL 7
REMARK VINA RESULT:    -3.128      9.982     10.531
REMARK INTER + INTRA:          -3.322
REMARK INTER:                  -3.309
REMARK INTRA:                  -0.013
REMARK UNBOUND:                -0.012
REMARK SMILES O=Cc1ccco1
REMARK SMILES IDX 5 1 6 2 7 3 3 4 4 5 2 6 1 7
REMARK H PARENT
REMARK Flexibility Score: inf
ROOT
ATOM      1  C   UNL     1     -14.275  -7.166 -22.981  1.00  0.00     0.043 A 
ATOM      2  C   UNL     1     -14.947  -8.322 -22.636  1.00  0.00     0.196 A 
ATOM      3  O   UNL     1     -14.964  -8.453 -21.329  1.00  0.00    -0.462 OA
ATOM      4  C   UNL     1     -14.330  -7.431 -20.801  1.00  0.00     0.166 A 
ATOM      5  C   UNL     1     -13.875  -6.588 -21.795  1.00  0.00     0.054 A 
ENDROOT
BRANCH   4   6
ATOM      6  C   UNL     1     -14.143  -7.231 -19.364  1.00  0.00     0.298 C 
ATOM      7  O   UNL     1     -15.135  -7.234 -18.589  1.00  0.00    -0.294 OA
ENDBRANCH   4   6
TORSDOF 1
ENDMDL
MODEL 8
REMARK VINA RESULT:    -3.032      3.805      5.422
REMARK INTER + INTRA:          -3.221
REMARK INTER:                  -3.210
REMARK INTRA:                  -0.011
REMARK UNBOUND:                -0.012
REMARK SMILES O=Cc1ccco1
REMARK SMILES IDX 5 1 6 2 7 3 3 4 4 5 2 6 1 7
REMARK H PARENT
REMARK Flexibility Score: inf
ROOT
ATOM      1  C   UNL     1     -21.751  -0.994 -13.209  1.00  0.00     0.043 A 
ATOM      2  C   UNL     1     -20.786  -1.773 -12.602  1.00  0.00     0.196 A 
ATOM      3  O   UNL     1     -21.322  -2.458 -11.618  1.00  0.00    -0.462 OA
ATOM      4  C   UNL     1     -22.600  -2.162 -11.553  1.00  0.00     0.166 A 
ATOM      5  C   UNL     1     -22.926  -1.245 -12.532  1.00  0.00     0.054 A 
ENDROOT
BRANCH   4   6
ATOM      6  C   UNL     1     -23.530  -2.732 -10.578  1.00  0.00     0.298 C 
ATOM      7  O   UNL     1     -24.716  -2.991 -10.908  1.00  0.00    -0.294 OA
ENDBRANCH   4   6
TORSDOF 1
ENDMDL
MODEL 9
REMARK VINA RESULT:    -2.929      5.123      5.718
REMARK INTER + INTRA:          -3.112
REMARK INTER:                  -3.101
REMARK INTRA:                  -0.011
REMARK UNBOUND:                -0.012
REMARK SMILES O=Cc1ccco1
REMARK SMILES IDX 5 1 6 2 7 3 3 4 4 5 2 6 1 7
REMARK H PARENT
REMARK Flexibility Score: inf
ROOT
ATOM      1  C   UNL     1     -24.291  -2.553 -10.850  1.00  0.00     0.043 A 
ATOM      2  C   UNL     1     -23.207  -2.396 -10.010  1.00  0.00     0.196 A 
ATOM      3  O   UNL     1     -22.298  -1.650 -10.595  1.00  0.00    -0.462 OA
ATOM      4  C   UNL     1     -22.740  -1.311 -11.784  1.00  0.00     0.166 A 
ATOM      5  C   UNL     1     -23.991  -1.852 -11.998  1.00  0.00     0.054 A 
ENDROOT
BRANCH   4   6
ATOM      6  C   UNL     1     -21.998  -0.479 -12.733  1.00  0.00     0.298 C 
ATOM      7  O   UNL     1     -21.846  -0.856 -13.923  1.00  0.00    -0.294 OA
ENDBRANCH   4   6
TORSDOF 1
ENDMDL
