MODEL 1
REMARK VINA RESULT:    -3.664      0.000      0.000
REMARK INTER + INTRA:          -3.771
REMARK INTER:                  -3.771
REMARK INTRA:                   0.000
REMARK UNBOUND:                 0.000
REMARK SMILES Oc1ccc2[nH]ccc2c1
REMARK SMILES IDX 3 1 4 2 5 3 9 4 8 5 7 6 6 7 10 8 2 9 1 11
REMARK H PARENT 6 10 1 12
REMARK Flexibility Score: inf
ROOT
ATOM      1  C   UNL     1     116.407 117.423 123.125  1.00  0.00     0.048 A 
ATOM      2  C   UNL     1     117.436 116.466 123.075  1.00  0.00     0.030 A 
ATOM      3  C   UNL     1     117.535 115.676 121.932  1.00  0.00     0.046 A 
ATOM      4  C   UNL     1     116.666 115.815 120.883  1.00  0.00     0.003 A 
ATOM      5  C   UNL     1     117.030 114.898 119.922  1.00  0.00     0.028 A 
ATOM      6  C   UNL     1     118.130 114.232 120.453  1.00  0.00     0.083 A 
ATOM      7  N   UNL     1     118.435 114.711 121.681  1.00  0.00    -0.361 N 
ATOM      8  C   UNL     1     115.636 116.753 120.899  1.00  0.00     0.056 A 
ATOM      9  C   UNL     1     115.508 117.570 122.043  1.00  0.00     0.116 A 
ATOM     10  H   UNL     1     119.212 114.393 122.303  1.00  0.00     0.166 HD
ENDROOT
BRANCH   9  11
ATOM     11  O   UNL     1     114.497 118.526 122.117  1.00  0.00    -0.508 OA
ATOM     12  H   UNL     1     114.691 119.512 121.984  1.00  0.00     0.293 HD
ENDBRANCH   9  11
TORSDOF 1
ENDMDL
MODEL 2
REMARK VINA RESULT:    -3.629      2.728      3.626
REMARK INTER + INTRA:          -3.735
REMARK INTER:                  -3.735
REMARK INTRA:                   0.000
REMARK UNBOUND:                 0.000
REMARK SMILES Oc1ccc2[nH]ccc2c1
REMARK SMILES IDX 3 1 4 2 5 3 9 4 8 5 7 6 6 7 10 8 2 9 1 11
REMARK H PARENT 6 10 1 12
REMARK Flexibility Score: inf
ROOT
ATOM      1  C   UNL     1     116.732 115.525 123.125  1.00  0.00     0.048 A 
ATOM      2  C   UNL     1     115.678 116.453 123.052  1.00  0.00     0.030 A 
ATOM      3  C   UNL     1     115.653 117.327 121.967  1.00  0.00     0.046 A 
ATOM      4  C   UNL     1     116.617 117.295 120.995  1.00  0.00     0.003 A 
ATOM      5  C   UNL     1     116.308 118.273 120.076  1.00  0.00     0.028 A 
ATOM      6  C   UNL     1     115.141 118.863 120.552  1.00  0.00     0.083 A 
ATOM      7  N   UNL     1     114.745 118.282 121.708  1.00  0.00    -0.361 N 
ATOM      8  C   UNL     1     117.674 116.389 121.036  1.00  0.00     0.056 A 
ATOM      9  C   UNL     1     117.729 115.489 122.122  1.00  0.00     0.116 A 
ATOM     10  H   UNL     1     113.905 118.527 122.277  1.00  0.00     0.166 HD
ENDROOT
BRANCH   9  11
ATOM     11  O   UNL     1     118.763 114.561 122.218  1.00  0.00    -0.508 OA
ATOM     12  H   UNL     1     119.711 114.846 122.437  1.00  0.00     0.293 HD
ENDBRANCH   9  11
TORSDOF 1
ENDMDL
MODEL 3
REMARK VINA RESULT:    -3.616      2.280      2.551
REMARK INTER + INTRA:          -3.722
REMARK INTER:                  -3.722
REMARK INTRA:                   0.000
REMARK UNBOUND:                 0.000
REMARK SMILES Oc1ccc2[nH]ccc2c1
REMARK SMILES IDX 3 1 4 2 5 3 9 4 8 5 7 6 6 7 10 8 2 9 1 11
REMARK H PARENT 6 10 1 12
REMARK Flexibility Score: inf
ROOT
ATOM      1  C   UNL     1     117.663 116.767 123.124  1.00  0.00     0.048 A 
ATOM      2  C   UNL     1     116.728 115.719 123.059  1.00  0.00     0.030 A 
ATOM      3  C   UNL     1     115.880 115.671 121.955  1.00  0.00     0.046 A 
ATOM      4  C   UNL     1     115.944 116.606 120.957  1.00  0.00     0.003 A 
ATOM      5  C   UNL     1     114.985 116.279 120.023  1.00  0.00     0.028 A 
ATOM      6  C   UNL     1     114.373 115.132 120.517  1.00  0.00     0.083 A 
ATOM      7  N   UNL     1     114.923 114.764 121.698  1.00  0.00    -0.361 N 
ATOM      8  C   UNL     1     116.859 117.656 120.989  1.00  0.00     0.056 A 
ATOM      9  C   UNL     1     117.733 117.734 122.095  1.00  0.00     0.116 A 
ATOM     10  H   UNL     1     114.656 113.942 122.284  1.00  0.00     0.166 HD
ENDROOT
BRANCH   9  11
ATOM     11  O   UNL     1     118.668 118.763 122.184  1.00  0.00    -0.508 OA
ATOM     12  H   UNL     1     119.632 118.579 122.439  1.00  0.00     0.293 HD
ENDBRANCH   9  11
TORSDOF 1
ENDMDL
MODEL 4
REMARK VINA RESULT:    -3.555      2.298      3.097
REMARK INTER + INTRA:          -3.658
REMARK INTER:                  -3.658
REMARK INTRA:                   0.000
REMARK UNBOUND:                 0.000
REMARK SMILES Oc1ccc2[nH]ccc2c1
REMARK SMILES IDX 3 1 4 2 5 3 9 4 8 5 7 6 6 7 10 8 2 9 1 11
REMARK H PARENT 6 10 1 12
REMARK Flexibility Score: inf
ROOT
ATOM      1  C   UNL     1     116.681 118.922 119.224  1.00  0.00     0.048 A 
ATOM      2  C   UNL     1     117.730 118.485 120.052  1.00  0.00     0.030 A 
ATOM      3  C   UNL     1     117.396 117.833 121.237  1.00  0.00     0.046 A 
ATOM      4  C   UNL     1     116.093 117.615 121.596  1.00  0.00     0.003 A 
ATOM      5  C   UNL     1     116.103 116.954 122.805  1.00  0.00     0.028 A 
ATOM      6  C   UNL     1     117.448 116.802 123.124  1.00  0.00     0.083 A 
ATOM      7  N   UNL     1     118.235 117.340 122.163  1.00  0.00    -0.361 N 
ATOM      8  C   UNL     1     115.030 118.033 120.799  1.00  0.00     0.056 A 
ATOM      9  C   UNL     1     115.334 118.698 119.591  1.00  0.00     0.116 A 
ATOM     10  H   UNL     1     119.278 117.364 122.149  1.00  0.00     0.166 HD
ENDROOT
BRANCH   9  11
ATOM     11  O   UNL     1     114.313 119.140 118.753  1.00  0.00    -0.508 OA
ATOM     12  H   UNL     1     113.410 118.679 118.731  1.00  0.00     0.293 HD
ENDBRANCH   9  11
TORSDOF 1
ENDMDL
MODEL 5
REMARK VINA RESULT:    -3.553      2.625      3.560
REMARK INTER + INTRA:          -3.657
REMARK INTER:                  -3.657
REMARK INTRA:                   0.000
REMARK UNBOUND:                 0.000
REMARK SMILES Oc1ccc2[nH]ccc2c1
REMARK SMILES IDX 3 1 4 2 5 3 9 4 8 5 7 6 6 7 10 8 2 9 1 11
REMARK H PARENT 6 10 1 12
REMARK Flexibility Score: inf
ROOT
ATOM      1  C   UNL     1     118.922 116.532 119.145  1.00  0.00     0.048 A 
ATOM      2  C   UNL     1     118.456 115.524 120.010  1.00  0.00     0.030 A 
ATOM      3  C   UNL     1     117.860 115.918 121.206  1.00  0.00     0.046 A 
ATOM      4  C   UNL     1     117.724 117.238 121.542  1.00  0.00     0.003 A 
ATOM      5  C   UNL     1     117.102 117.289 122.771  1.00  0.00     0.028 A 
ATOM      6  C   UNL     1     116.888 115.960 123.125  1.00  0.00     0.083 A 
ATOM      7  N   UNL     1     117.353 115.126 122.165  1.00  0.00    -0.361 N 
ATOM      8  C   UNL     1     118.173 118.260 120.709  1.00  0.00     0.056 A 
ATOM      9  C   UNL     1     118.782 117.896 119.489  1.00  0.00     0.116 A 
ATOM     10  H   UNL     1     117.321 114.083 122.174  1.00  0.00     0.166 HD
ENDROOT
BRANCH   9  11
ATOM     11  O   UNL     1     119.251 118.874 118.615  1.00  0.00    -0.508 OA
ATOM     12  H   UNL     1     118.986 119.847 118.720  1.00  0.00     0.293 HD
ENDBRANCH   9  11
TORSDOF 1
ENDMDL
MODEL 6
REMARK VINA RESULT:    -3.536      2.665      3.788
REMARK INTER + INTRA:          -3.639
REMARK INTER:                  -3.639
REMARK INTRA:                   0.000
REMARK UNBOUND:                 0.000
REMARK SMILES Oc1ccc2[nH]ccc2c1
REMARK SMILES IDX 3 1 4 2 5 3 9 4 8 5 7 6 6 7 10 8 2 9 1 11
REMARK H PARENT 6 10 1 12
REMARK Flexibility Score: inf
ROOT
ATOM      1  C   UNL     1     114.273 116.710 119.164  1.00  0.00     0.048 A 
ATOM      2  C   UNL     1     114.731 117.728 120.021  1.00  0.00     0.030 A 
ATOM      3  C   UNL     1     115.342 117.347 121.214  1.00  0.00     0.046 A 
ATOM      4  C   UNL     1     115.500 116.031 121.554  1.00  0.00     0.003 A 
ATOM      5  C   UNL     1     116.132 115.994 122.778  1.00  0.00     0.028 A 
ATOM      6  C   UNL     1     116.330 117.327 123.125  1.00  0.00     0.083 A 
ATOM      7  N   UNL     1     115.845 118.150 122.166  1.00  0.00    -0.361 N 
ATOM      8  C   UNL     1     115.059 114.999 120.729  1.00  0.00     0.056 A 
ATOM      9  C   UNL     1     114.435 115.349 119.512  1.00  0.00     0.116 A 
ATOM     10  H   UNL     1     115.862 119.194 122.170  1.00  0.00     0.166 HD
ENDROOT
BRANCH   9  11
ATOM     11  O   UNL     1     113.973 114.361 118.646  1.00  0.00    -0.508 OA
ATOM     12  H   UNL     1     114.383 113.434 118.635  1.00  0.00     0.293 HD
ENDBRANCH   9  11
TORSDOF 1
ENDMDL
MODEL 7
REMARK VINA RESULT:    -3.510      2.727      4.102
REMARK INTER + INTRA:          -3.612
REMARK INTER:                  -3.612
REMARK INTRA:                   0.000
REMARK UNBOUND:                 0.000
REMARK SMILES Oc1ccc2[nH]ccc2c1
REMARK SMILES IDX 3 1 4 2 5 3 9 4 8 5 7 6 6 7 10 8 2 9 1 11
REMARK H PARENT 6 10 1 12
REMARK Flexibility Score: inf
ROOT
ATOM      1  C   UNL     1     116.528 114.280 119.162  1.00  0.00     0.048 A 
ATOM      2  C   UNL     1     115.521 114.749 120.025  1.00  0.00     0.030 A 
ATOM      3  C   UNL     1     115.915 115.357 121.215  1.00  0.00     0.046 A 
ATOM      4  C   UNL     1     117.236 115.501 121.547  1.00  0.00     0.003 A 
ATOM      5  C   UNL     1     117.287 116.134 122.770  1.00  0.00     0.028 A 
ATOM      6  C   UNL     1     115.958 116.346 123.125  1.00  0.00     0.083 A 
ATOM      7  N   UNL     1     115.124 115.869 122.172  1.00  0.00    -0.361 N 
ATOM      8  C   UNL     1     118.258 115.049 120.716  1.00  0.00     0.056 A 
ATOM      9  C   UNL     1     117.893 114.428 119.502  1.00  0.00     0.116 A 
ATOM     10  H   UNL     1     114.080 115.897 122.182  1.00  0.00     0.166 HD
ENDROOT
BRANCH   9  11
ATOM     11  O   UNL     1     118.871 113.955 118.630  1.00  0.00    -0.508 OA
ATOM     12  H   UNL     1     118.887 114.230 117.654  1.00  0.00     0.293 HD
ENDBRANCH   9  11
TORSDOF 1
ENDMDL
