MODEL 1
REMARK VINA RESULT:    -3.992      0.000      0.000
REMARK INTER + INTRA:          -4.759
REMARK INTER:                  -4.693
REMARK INTRA:                  -0.067
REMARK UNBOUND:                -0.067
REMARK SMILES O=C([O-])CCC(=O)[O-]
REMARK SMILES IDX 4 1 2 2 1 3 3 4 5 5 6 6 7 7 8 8
REMARK H PARENT
REMARK Flexibility Score: inf
ROOT
ATOM      1  C   UNL     1       6.022  16.305  -8.029  1.00  0.00     0.059 C 
ENDROOT
BRANCH   1   2
ATOM      2  C   UNL     1       7.506  16.508  -8.003  1.00  0.00     0.042 C 
ATOM      3  O   UNL     1       8.009  17.414  -7.289  1.00  0.00    -0.550 OA
ATOM      4  O   UNL     1       8.336  15.670  -8.738  1.00  0.00    -0.550 OA
ENDBRANCH   1   2
BRANCH   1   5
ATOM      5  C   UNL     1       5.274  17.538  -7.511  1.00  0.00     0.059 C 
BRANCH   5   6
ATOM      6  C   UNL     1       4.862  17.374  -6.080  1.00  0.00     0.042 C 
ATOM      7  O   UNL     1       3.876  16.650  -5.784  1.00  0.00    -0.550 OA
ATOM      8  O   UNL     1       5.593  17.987  -5.071  1.00  0.00    -0.550 OA
ENDBRANCH   5   6
ENDBRANCH   1   5
TORSDOF 3
ENDMDL
MODEL 2
REMARK VINA RESULT:    -3.978      0.142      3.875
REMARK INTER + INTRA:          -4.743
REMARK INTER:                  -4.658
REMARK INTRA:                  -0.085
REMARK UNBOUND:                -0.067
REMARK SMILES O=C([O-])CCC(=O)[O-]
REMARK SMILES IDX 4 1 2 2 1 3 3 4 5 5 6 6 7 7 8 8
REMARK H PARENT
REMARK Flexibility Score: inf
ROOT
ATOM      1  C   UNL     1       5.272  17.641  -7.385  1.00  0.00     0.059 C 
ENDROOT
BRANCH   1   2
ATOM      2  C   UNL     1       4.903  17.417  -5.950  1.00  0.00     0.042 C 
ATOM      3  O   UNL     1       3.875  16.752  -5.658  1.00  0.00    -0.550 OA
ATOM      4  O   UNL     1       5.717  17.909  -4.937  1.00  0.00    -0.550 OA
ENDBRANCH   1   2
BRANCH   1   5
ATOM      5  C   UNL     1       5.969  16.416  -7.987  1.00  0.00     0.059 C 
BRANCH   5   6
ATOM      6  C   UNL     1       7.457  16.584  -8.014  1.00  0.00     0.042 C 
ATOM      7  O   UNL     1       8.002  17.513  -7.362  1.00  0.00    -0.550 OA
ATOM      8  O   UNL     1       8.245  15.690  -8.728  1.00  0.00    -0.550 OA
ENDBRANCH   5   6
ENDBRANCH   1   5
TORSDOF 3
ENDMDL
MODEL 3
REMARK VINA RESULT:    -3.943      1.960      3.013
REMARK INTER + INTRA:          -4.702
REMARK INTER:                  -4.588
REMARK INTRA:                  -0.114
REMARK UNBOUND:                -0.067
REMARK SMILES O=C([O-])CCC(=O)[O-]
REMARK SMILES IDX 4 1 2 2 1 3 3 4 5 5 6 6 7 7 8 8
REMARK H PARENT
REMARK Flexibility Score: inf
ROOT
ATOM      1  C   UNL     1       4.792  17.554  -6.672  1.00  0.00     0.059 C 
ENDROOT
BRANCH   1   2
ATOM      2  C   UNL     1       6.091  17.689  -5.938  1.00  0.00     0.042 C 
ATOM      3  O   UNL     1       6.125  18.236  -4.805  1.00  0.00    -0.550 OA
ATOM      4  O   UNL     1       7.258  17.173  -6.489  1.00  0.00    -0.550 OA
ENDBRANCH   1   2
BRANCH   1   5
ATOM      5  C   UNL     1       4.254  16.120  -6.609  1.00  0.00     0.059 C 
BRANCH   5   6
ATOM      6  C   UNL     1       4.558  15.360  -7.863  1.00  0.00     0.042 C 
ATOM      7  O   UNL     1       4.175  14.168  -7.990  1.00  0.00    -0.550 OA
ATOM      8  O   UNL     1       5.229  15.982  -8.908  1.00  0.00    -0.550 OA
ENDBRANCH   5   6
ENDBRANCH   1   5
TORSDOF 3
ENDMDL
MODEL 4
REMARK VINA RESULT:    -3.925      1.952      2.887
REMARK INTER + INTRA:          -4.680
REMARK INTER:                  -4.564
REMARK INTRA:                  -0.116
REMARK UNBOUND:                -0.067
REMARK SMILES O=C([O-])CCC(=O)[O-]
REMARK SMILES IDX 4 1 2 2 1 3 3 4 5 5 6 6 7 7 8 8
REMARK H PARENT
REMARK Flexibility Score: inf
ROOT
ATOM      1  C   UNL     1       4.310  16.072  -6.650  1.00  0.00     0.059 C 
ENDROOT
BRANCH   1   2
ATOM      2  C   UNL     1       4.592  15.345  -7.929  1.00  0.00     0.042 C 
ATOM      3  O   UNL     1       4.158  14.176  -8.102  1.00  0.00    -0.550 OA
ATOM      4  O   UNL     1       5.301  15.974  -8.946  1.00  0.00    -0.550 OA
ENDBRANCH   1   2
BRANCH   1   5
ATOM      5  C   UNL     1       4.820  17.517  -6.697  1.00  0.00     0.059 C 
BRANCH   5   6
ATOM      6  C   UNL     1       6.108  17.673  -5.950  1.00  0.00     0.042 C 
ATOM      7  O   UNL     1       6.128  18.261  -4.837  1.00  0.00    -0.550 OA
ATOM      8  O   UNL     1       7.280  17.131  -6.463  1.00  0.00    -0.550 OA
ENDBRANCH   5   6
ENDBRANCH   1   5
TORSDOF 3
ENDMDL
MODEL 5
REMARK VINA RESULT:    -3.903     11.151     12.913
REMARK INTER + INTRA:          -4.654
REMARK INTER:                  -4.606
REMARK INTRA:                  -0.047
REMARK UNBOUND:                -0.067
REMARK SMILES O=C([O-])CCC(=O)[O-]
REMARK SMILES IDX 4 1 2 2 1 3 3 4 5 5 6 6 7 7 8 8
REMARK H PARENT
REMARK Flexibility Score: inf
ROOT
ATOM      1  C   UNL     1      16.100  20.114 -12.182  1.00  0.00     0.059 C 
ENDROOT
BRANCH   1   2
ATOM      2  C   UNL     1      15.457  21.466 -12.189  1.00  0.00     0.042 C 
ATOM      3  O   UNL     1      15.974  22.410 -12.843  1.00  0.00    -0.550 OA
ATOM      4  O   UNL     1      14.265  21.674 -11.505  1.00  0.00    -0.550 OA
ENDBRANCH   1   2
BRANCH   1   5
ATOM      5  C   UNL     1      17.497  20.148 -12.812  1.00  0.00     0.059 C 
BRANCH   5   6
ATOM      6  C   UNL     1      18.428  19.183 -12.145  1.00  0.00     0.042 C 
ATOM      7  O   UNL     1      19.556  18.941 -12.648  1.00  0.00    -0.550 OA
ATOM      8  O   UNL     1      18.066  18.582 -10.946  1.00  0.00    -0.550 OA
ENDBRANCH   5   6
ENDBRANCH   1   5
TORSDOF 3
ENDMDL
MODEL 6
REMARK VINA RESULT:    -3.902     11.139     12.529
REMARK INTER + INTRA:          -4.654
REMARK INTER:                  -4.609
REMARK INTRA:                  -0.045
REMARK UNBOUND:                -0.067
REMARK SMILES O=C([O-])CCC(=O)[O-]
REMARK SMILES IDX 4 1 2 2 1 3 3 4 5 5 6 6 7 7 8 8
REMARK H PARENT
REMARK Flexibility Score: inf
ROOT
ATOM      1  C   UNL     1      17.509  20.158 -12.789  1.00  0.00     0.059 C 
ENDROOT
BRANCH   1   2
ATOM      2  C   UNL     1      18.424  19.154 -12.158  1.00  0.00     0.042 C 
ATOM      3  O   UNL     1      19.513  18.853 -12.714  1.00  0.00    -0.550 OA
ATOM      4  O   UNL     1      18.093  18.581 -10.936  1.00  0.00    -0.550 OA
ENDBRANCH   1   2
BRANCH   1   5
ATOM      5  C   UNL     1      16.106  20.109 -12.173  1.00  0.00     0.059 C 
BRANCH   5   6
ATOM      6  C   UNL     1      15.444  21.453 -12.199  1.00  0.00     0.042 C 
ATOM      7  O   UNL     1      15.950  22.395 -12.863  1.00  0.00    -0.550 OA
ATOM      8  O   UNL     1      14.247  21.652 -11.523  1.00  0.00    -0.550 OA
ENDBRANCH   5   6
ENDBRANCH   1   5
TORSDOF 3
ENDMDL
MODEL 7
REMARK VINA RESULT:    -3.869     11.075     12.167
REMARK INTER + INTRA:          -4.614
REMARK INTER:                  -4.576
REMARK INTRA:                  -0.037
REMARK UNBOUND:                -0.067
REMARK SMILES O=C([O-])CCC(=O)[O-]
REMARK SMILES IDX 4 1 2 2 1 3 3 4 5 5 6 6 7 7 8 8
REMARK H PARENT
REMARK Flexibility Score: inf
ROOT
ATOM      1  C   UNL     1      16.266  20.088 -12.238  1.00  0.00     0.059 C 
ENDROOT
BRANCH   1   2
ATOM      2  C   UNL     1      17.662  19.559 -12.112  1.00  0.00     0.042 C 
ATOM      3  O   UNL     1      18.547  19.906 -12.937  1.00  0.00    -0.550 OA
ATOM      4  O   UNL     1      17.994  18.715 -11.060  1.00  0.00    -0.550 OA
ENDBRANCH   1   2
BRANCH   1   5
ATOM      5  C   UNL     1      16.257  21.574 -12.616  1.00  0.00     0.059 C 
BRANCH   5   6
ATOM      6  C   UNL     1      14.947  22.220 -12.284  1.00  0.00     0.042 C 
ATOM      7  O   UNL     1      14.091  21.602 -11.599  1.00  0.00    -0.550 OA
ATOM      8  O   UNL     1      14.689  23.521 -12.697  1.00  0.00    -0.550 OA
ENDBRANCH   5   6
ENDBRANCH   1   5
TORSDOF 3
ENDMDL
MODEL 8
REMARK VINA RESULT:    -3.856     12.200     13.496
REMARK INTER + INTRA:          -4.599
REMARK INTER:                  -4.489
REMARK INTRA:                  -0.110
REMARK UNBOUND:                -0.067
REMARK SMILES O=C([O-])CCC(=O)[O-]
REMARK SMILES IDX 4 1 2 2 1 3 3 4 5 5 6 6 7 7 8 8
REMARK H PARENT
REMARK Flexibility Score: inf
ROOT
ATOM      1  C   UNL     1      17.872  20.622 -13.247  1.00  0.00     0.059 C 
ENDROOT
BRANCH   1   2
ATOM      2  C   UNL     1      16.631  21.256 -12.697  1.00  0.00     0.042 C 
ATOM      3  O   UNL     1      16.192  22.326 -13.196  1.00  0.00    -0.550 OA
ATOM      4  O   UNL     1      15.936  20.643 -11.661  1.00  0.00    -0.550 OA
ENDBRANCH   1   2
BRANCH   1   5
ATOM      5  C   UNL     1      17.867  19.103 -13.045  1.00  0.00     0.059 C 
BRANCH   5   6
ATOM      6  C   UNL     1      18.836  18.683 -11.983  1.00  0.00     0.042 C 
ATOM      7  O   UNL     1      20.006  18.340 -12.294  1.00  0.00    -0.550 OA
ATOM      8  O   UNL     1      18.458  18.711 -10.647  1.00  0.00    -0.550 OA
ENDBRANCH   5   6
ENDBRANCH   1   5
TORSDOF 3
ENDMDL
MODEL 9
REMARK VINA RESULT:    -3.843      1.248      4.097
REMARK INTER + INTRA:          -4.583
REMARK INTER:                  -4.547
REMARK INTRA:                  -0.037
REMARK UNBOUND:                -0.067
REMARK SMILES O=C([O-])CCC(=O)[O-]
REMARK SMILES IDX 4 1 2 2 1 3 3 4 5 5 6 6 7 7 8 8
REMARK H PARENT
REMARK Flexibility Score: inf
ROOT
ATOM      1  C   UNL     1       6.123  16.604  -7.151  1.00  0.00     0.059 C 
ENDROOT
BRANCH   1   2
ATOM      2  C   UNL     1       5.786  17.632  -6.115  1.00  0.00     0.042 C 
ATOM      3  O   UNL     1       6.536  18.628  -5.944  1.00  0.00    -0.550 OA
ATOM      4  O   UNL     1       4.621  17.510  -5.366  1.00  0.00    -0.550 OA
ENDBRANCH   1   2
BRANCH   1   5
ATOM      5  C   UNL     1       7.512  16.843  -7.754  1.00  0.00     0.059 C 
BRANCH   5   6
ATOM      6  C   UNL     1       7.799  15.893  -8.875  1.00  0.00     0.042 C 
ATOM      7  O   UNL     1       8.985  15.570  -9.145  1.00  0.00    -0.550 OA
ATOM      8  O   UNL     1       6.752  15.333  -9.597  1.00  0.00    -0.550 OA
ENDBRANCH   5   6
ENDBRANCH   1   5
TORSDOF 3
ENDMDL
