MODEL 1
REMARK VINA RESULT:    -4.632      0.000      0.000
REMARK INTER + INTRA:         -10.877
REMARK INTER:                  -8.423
REMARK INTRA:                  -2.454
REMARK UNBOUND:                -2.454
REMARK SMILES CCCCCCCCCCCCCCCC(=O)[O-]
REMARK SMILES IDX 9 1 10 2 11 3 12 4 13 5 14 6 15 7 16 8 17 9 18 10 8 11 7 12
REMARK SMILES IDX 6 13 5 14 4 15 3 16 2 17 1 18
REMARK H PARENT
REMARK Flexibility Score: inf
ROOT
ATOM      1  C   UNL     1      62.519  30.043  25.440  1.00  0.00     0.000 C 
ENDROOT
BRANCH   1   2
ATOM      2  C   UNL     1      62.585  29.222  24.140  1.00  0.00     0.000 C 
BRANCH   2   3
ATOM      3  C   UNL     1      61.880  27.861  24.267  1.00  0.00     0.000 C 
BRANCH   3   4
ATOM      4  C   UNL     1      61.214  27.662  25.638  1.00  0.00     0.000 C 
BRANCH   4   5
ATOM      5  C   UNL     1      62.049  26.727  26.521  1.00  0.00     0.000 C 
BRANCH   5   6
ATOM      6  C   UNL     1      61.631  26.840  27.992  1.00  0.00     0.006 C 
BRANCH   6   7
ATOM      7  C   UNL     1      62.471  27.891  28.723  1.00  0.00     0.053 C 
BRANCH   7   8
ATOM      8  C   UNL     1      61.656  29.115  28.997  1.00  0.00     0.041 C 
ATOM      9  O   UNL     1      60.404  29.031  29.105  1.00  0.00    -0.550 OA
ATOM     10  O   UNL     1      62.272  30.356  29.086  1.00  0.00    -0.550 OA
ENDBRANCH   7   8
ENDBRANCH   6   7
ENDBRANCH   5   6
ENDBRANCH   4   5
ENDBRANCH   3   4
ENDBRANCH   2   3
ENDBRANCH   1   2
BRANCH   1  11
ATOM     11  C   UNL     1      63.911  30.380  26.005  1.00  0.00     0.000 C 
BRANCH  11  12
ATOM     12  C   UNL     1      64.839  29.170  26.222  1.00  0.00    -0.000 C 
BRANCH  12  13
ATOM     13  C   UNL     1      66.268  29.334  25.670  1.00  0.00    -0.000 C 
BRANCH  13  14
ATOM     14  C   UNL     1      66.321  29.653  24.161  1.00  0.00    -0.000 C 
BRANCH  14  15
ATOM     15  C   UNL     1      66.781  28.452  23.321  1.00  0.00    -0.000 C 
BRANCH  15  16
ATOM     16  C   UNL     1      65.584  27.726  22.697  1.00  0.00    -0.000 C 
BRANCH  16  17
ATOM     17  C   UNL     1      65.613  26.229  23.028  1.00  0.00    -0.003 C 
ATOM     18  C   UNL     1      65.021  25.958  24.407  1.00  0.00     0.004 C 
ENDBRANCH  16  17
ENDBRANCH  15  16
ENDBRANCH  14  15
ENDBRANCH  13  14
ENDBRANCH  12  13
ENDBRANCH  11  12
ENDBRANCH   1  11
TORSDOF 14
ENDMDL
MODEL 2
REMARK VINA RESULT:    -4.618      2.859      5.715
REMARK INTER + INTRA:         -10.851
REMARK INTER:                  -8.373
REMARK INTRA:                  -2.478
REMARK UNBOUND:                -2.454
REMARK SMILES CCCCCCCCCCCCCCCC(=O)[O-]
REMARK SMILES IDX 9 1 10 2 11 3 12 4 13 5 14 6 15 7 16 8 17 9 18 10 8 11 7 12
REMARK SMILES IDX 6 13 5 14 4 15 3 16 2 17 1 18
REMARK H PARENT
REMARK Flexibility Score: inf
ROOT
ATOM      1  C   UNL     1      60.927  28.778  24.992  1.00  0.00     0.000 C 
ENDROOT
BRANCH   1   2
ATOM      2  C   UNL     1      62.312  29.098  24.404  1.00  0.00     0.000 C 
BRANCH   2   3
ATOM      3  C   UNL     1      63.071  30.153  25.226  1.00  0.00     0.000 C 
BRANCH   3   4
ATOM      4  C   UNL     1      64.595  29.975  25.158  1.00  0.00     0.000 C 
BRANCH   4   5
ATOM      5  C   UNL     1      65.011  28.599  25.692  1.00  0.00     0.000 C 
BRANCH   5   6
ATOM      6  C   UNL     1      65.576  27.720  24.572  1.00  0.00     0.006 C 
BRANCH   6   7
ATOM      7  C   UNL     1      65.015  26.297  24.653  1.00  0.00     0.053 C 
BRANCH   7   8
ATOM      8  C   UNL     1      64.179  25.994  23.450  1.00  0.00     0.041 C 
ATOM      9  O   UNL     1      64.434  26.544  22.347  1.00  0.00    -0.550 OA
ATOM     10  O   UNL     1      63.088  25.141  23.559  1.00  0.00    -0.550 OA
ENDBRANCH   7   8
ENDBRANCH   6   7
ENDBRANCH   5   6
ENDBRANCH   4   5
ENDBRANCH   3   4
ENDBRANCH   2   3
ENDBRANCH   1   2
BRANCH   1  11
ATOM     11  C   UNL     1      60.802  27.317  25.467  1.00  0.00     0.000 C 
BRANCH  11  12
ATOM     12  C   UNL     1      61.890  26.857  26.457  1.00  0.00    -0.000 C 
BRANCH  12  13
ATOM     13  C   UNL     1      61.524  27.004  27.946  1.00  0.00    -0.000 C 
BRANCH  13  14
ATOM     14  C   UNL     1      62.388  28.037  28.701  1.00  0.00    -0.000 C 
BRANCH  14  15
ATOM     15  C   UNL     1      61.655  29.368  28.922  1.00  0.00    -0.000 C 
BRANCH  15  16
ATOM     16  C   UNL     1      62.595  30.558  28.696  1.00  0.00    -0.000 C 
BRANCH  16  17
ATOM     17  C   UNL     1      64.039  30.197  29.065  1.00  0.00    -0.003 C 
ATOM     18  C   UNL     1      64.996  31.334  28.723  1.00  0.00     0.004 C 
ENDBRANCH  16  17
ENDBRANCH  15  16
ENDBRANCH  14  15
ENDBRANCH  13  14
ENDBRANCH  12  13
ENDBRANCH  11  12
ENDBRANCH   1  11
TORSDOF 14
ENDMDL
MODEL 3
REMARK VINA RESULT:    -4.571      3.421      6.207
REMARK INTER + INTRA:         -10.767
REMARK INTER:                  -8.482
REMARK INTRA:                  -2.285
REMARK UNBOUND:                -2.454
REMARK SMILES CCCCCCCCCCCCCCCC(=O)[O-]
REMARK SMILES IDX 9 1 10 2 11 3 12 4 13 5 14 6 15 7 16 8 17 9 18 10 8 11 7 12
REMARK SMILES IDX 6 13 5 14 4 15 3 16 2 17 1 18
REMARK H PARENT
REMARK Flexibility Score: inf
ROOT
ATOM      1  C   UNL     1      61.824  29.494  24.962  1.00  0.00     0.000 C 
ENDROOT
BRANCH   1   2
ATOM      2  C   UNL     1      63.244  29.867  24.504  1.00  0.00     0.000 C 
BRANCH   2   3
ATOM      3  C   UNL     1      64.025  28.658  23.962  1.00  0.00     0.000 C 
BRANCH   3   4
ATOM      4  C   UNL     1      64.914  27.999  25.028  1.00  0.00     0.000 C 
BRANCH   4   5
ATOM      5  C   UNL     1      64.875  26.471  24.906  1.00  0.00     0.000 C 
BRANCH   5   6
ATOM      6  C   UNL     1      64.566  26.041  23.468  1.00  0.00     0.006 C 
BRANCH   6   7
ATOM      7  C   UNL     1      65.805  25.441  22.795  1.00  0.00     0.053 C 
BRANCH   7   8
ATOM      8  C   UNL     1      66.273  26.321  21.679  1.00  0.00     0.041 C 
ATOM      9  O   UNL     1      66.332  25.875  20.503  1.00  0.00    -0.550 OA
ATOM     10  O   UNL     1      66.691  27.618  21.945  1.00  0.00    -0.550 OA
ENDBRANCH   7   8
ENDBRANCH   6   7
ENDBRANCH   5   6
ENDBRANCH   4   5
ENDBRANCH   3   4
ENDBRANCH   2   3
ENDBRANCH   1   2
BRANCH   1  11
ATOM     11  C   UNL     1      61.399  28.085  24.506  1.00  0.00     0.000 C 
BRANCH  11  12
ATOM     12  C   UNL     1      60.823  27.185  25.615  1.00  0.00    -0.000 C 
BRANCH  12  13
ATOM     13  C   UNL     1      61.812  26.813  26.736  1.00  0.00    -0.000 C 
BRANCH  13  14
ATOM     14  C   UNL     1      61.365  27.275  28.140  1.00  0.00    -0.000 C 
BRANCH  14  15
ATOM     15  C   UNL     1      62.349  28.270  28.772  1.00  0.00    -0.000 C 
BRANCH  15  16
ATOM     16  C   UNL     1      61.832  29.708  28.649  1.00  0.00    -0.000 C 
BRANCH  16  17
ATOM     17  C   UNL     1      62.993  30.710  28.628  1.00  0.00    -0.003 C 
ATOM     18  C   UNL     1      64.256  30.079  28.052  1.00  0.00     0.004 C 
ENDBRANCH  16  17
ENDBRANCH  15  16
ENDBRANCH  14  15
ENDBRANCH  13  14
ENDBRANCH  12  13
ENDBRANCH  11  12
ENDBRANCH   1  11
TORSDOF 14
ENDMDL
MODEL 4
REMARK VINA RESULT:    -4.454     11.797     13.820
REMARK INTER + INTRA:         -10.554
REMARK INTER:                  -8.629
REMARK INTRA:                  -1.925
REMARK UNBOUND:                -2.454
REMARK SMILES CCCCCCCCCCCCCCCC(=O)[O-]
REMARK SMILES IDX 9 1 10 2 11 3 12 4 13 5 14 6 15 7 16 8 17 9 18 10 8 11 7 12
REMARK SMILES IDX 6 13 5 14 4 15 3 16 2 17 1 18
REMARK H PARENT
REMARK Flexibility Score: inf
ROOT
ATOM      1  C   UNL     1      62.716  29.121  13.280  1.00  0.00     0.000 C 
ENDROOT
BRANCH   1   2
ATOM      2  C   UNL     1      63.457  30.461  13.422  1.00  0.00     0.000 C 
BRANCH   2   3
ATOM      3  C   UNL     1      62.979  31.510  12.405  1.00  0.00     0.000 C 
BRANCH   3   4
ATOM      4  C   UNL     1      62.672  32.869  13.052  1.00  0.00     0.000 C 
BRANCH   4   5
ATOM      5  C   UNL     1      61.187  32.980  13.417  1.00  0.00     0.000 C 
BRANCH   5   6
ATOM      6  C   UNL     1      61.003  33.666  14.776  1.00  0.00     0.006 C 
BRANCH   6   7
ATOM      7  C   UNL     1      61.651  32.849  15.897  1.00  0.00     0.053 C 
BRANCH   7   8
ATOM      8  C   UNL     1      61.755  33.664  17.147  1.00  0.00     0.041 C 
ATOM      9  O   UNL     1      61.323  34.847  17.169  1.00  0.00    -0.550 OA
ATOM     10  O   UNL     1      62.372  33.136  18.273  1.00  0.00    -0.550 OA
ENDBRANCH   7   8
ENDBRANCH   6   7
ENDBRANCH   5   6
ENDBRANCH   4   5
ENDBRANCH   3   4
ENDBRANCH   2   3
ENDBRANCH   1   2
BRANCH   1  11
ATOM     11  C   UNL     1      61.192  29.258  13.462  1.00  0.00     0.000 C 
BRANCH  11  12
ATOM     12  C   UNL     1      60.342  28.705  12.303  1.00  0.00    -0.000 C 
BRANCH  12  13
ATOM     13  C   UNL     1      60.251  29.617  11.065  1.00  0.00    -0.000 C 
BRANCH  13  14
ATOM     14  C   UNL     1      60.020  28.853   9.743  1.00  0.00    -0.000 C 
BRANCH  14  15
ATOM     15  C   UNL     1      61.306  28.211   9.202  1.00  0.00    -0.000 C 
BRANCH  15  16
ATOM     16  C   UNL     1      62.370  29.275   8.908  1.00  0.00    -0.000 C 
BRANCH  16  17
ATOM     17  C   UNL     1      63.690  28.942   9.614  1.00  0.00    -0.003 C 
ATOM     18  C   UNL     1      64.722  30.045   9.402  1.00  0.00     0.004 C 
ENDBRANCH  16  17
ENDBRANCH  15  16
ENDBRANCH  14  15
ENDBRANCH  13  14
ENDBRANCH  12  13
ENDBRANCH  11  12
ENDBRANCH   1  11
TORSDOF 14
ENDMDL
MODEL 5
REMARK VINA RESULT:    -4.364      2.519      5.445
REMARK INTER + INTRA:         -10.391
REMARK INTER:                  -8.242
REMARK INTRA:                  -2.148
REMARK UNBOUND:                -2.454
REMARK SMILES CCCCCCCCCCCCCCCC(=O)[O-]
REMARK SMILES IDX 9 1 10 2 11 3 12 4 13 5 14 6 15 7 16 8 17 9 18 10 8 11 7 12
REMARK SMILES IDX 6 13 5 14 4 15 3 16 2 17 1 18
REMARK H PARENT
REMARK Flexibility Score: inf
ROOT
ATOM      1  C   UNL     1      64.519  30.377  26.893  1.00  0.00     0.000 C 
ENDROOT
BRANCH   1   2
ATOM      2  C   UNL     1      65.322  29.266  26.193  1.00  0.00     0.000 C 
BRANCH   2   3
ATOM      3  C   UNL     1      66.717  29.737  25.750  1.00  0.00     0.000 C 
BRANCH   3   4
ATOM      4  C   UNL     1      67.032  29.370  24.291  1.00  0.00     0.000 C 
BRANCH   4   5
ATOM      5  C   UNL     1      65.742  29.146  23.491  1.00  0.00     0.000 C 
BRANCH   5   6
ATOM      6  C   UNL     1      65.745  27.772  22.814  1.00  0.00     0.006 C 
BRANCH   6   7
ATOM      7  C   UNL     1      64.331  27.187  22.750  1.00  0.00     0.053 C 
BRANCH   7   8
ATOM      8  C   UNL     1      64.174  26.084  23.749  1.00  0.00     0.041 C 
ATOM      9  O   UNL     1      63.214  25.275  23.652  1.00  0.00    -0.550 OA
ATOM     10  O   UNL     1      65.058  25.979  24.813  1.00  0.00    -0.550 OA
ENDBRANCH   7   8
ENDBRANCH   6   7
ENDBRANCH   5   6
ENDBRANCH   4   5
ENDBRANCH   3   4
ENDBRANCH   2   3
ENDBRANCH   1   2
BRANCH   1  11
ATOM     11  C   UNL     1      64.054  29.978  28.306  1.00  0.00     0.000 C 
BRANCH  11  12
ATOM     12  C   UNL     1      62.582  30.299  28.624  1.00  0.00    -0.000 C 
BRANCH  12  13
ATOM     13  C   UNL     1      61.580  29.179  28.288  1.00  0.00    -0.000 C 
BRANCH  13  14
ATOM     14  C   UNL     1      62.231  27.787  28.133  1.00  0.00    -0.000 C 
BRANCH  14  15
ATOM     15  C   UNL     1      62.277  27.318  26.672  1.00  0.00    -0.000 C 
BRANCH  15  16
ATOM     16  C   UNL     1      60.922  27.527  25.984  1.00  0.00    -0.000 C 
BRANCH  16  17
ATOM     17  C   UNL     1      61.105  28.087  24.569  1.00  0.00    -0.003 C 
ATOM     18  C   UNL     1      61.944  29.360  24.584  1.00  0.00     0.004 C 
ENDBRANCH  16  17
ENDBRANCH  15  16
ENDBRANCH  14  15
ENDBRANCH  13  14
ENDBRANCH  12  13
ENDBRANCH  11  12
ENDBRANCH   1  11
TORSDOF 14
ENDMDL
MODEL 6
REMARK VINA RESULT:    -4.357     12.199     14.355
REMARK INTER + INTRA:         -10.378
REMARK INTER:                  -8.464
REMARK INTRA:                  -1.913
REMARK UNBOUND:                -2.454
REMARK SMILES CCCCCCCCCCCCCCCC(=O)[O-]
REMARK SMILES IDX 9 1 10 2 11 3 12 4 13 5 14 6 15 7 16 8 17 9 18 10 8 11 7 12
REMARK SMILES IDX 6 13 5 14 4 15 3 16 2 17 1 18
REMARK H PARENT
REMARK Flexibility Score: inf
ROOT
ATOM      1  C   UNL     1      64.845  31.181  10.071  1.00  0.00     0.000 C 
ENDROOT
BRANCH   1   2
ATOM      2  C   UNL     1      64.772  32.250  11.174  1.00  0.00     0.000 C 
BRANCH   2   3
ATOM      3  C   UNL     1      64.055  31.745  12.437  1.00  0.00     0.000 C 
BRANCH   3   4
ATOM      4  C   UNL     1      63.065  32.771  13.010  1.00  0.00     0.000 C 
BRANCH   4   5
ATOM      5  C   UNL     1      61.616  32.332  12.764  1.00  0.00     0.000 C 
BRANCH   5   6
ATOM      6  C   UNL     1      60.735  32.631  13.982  1.00  0.00     0.006 C 
BRANCH   6   7
ATOM      7  C   UNL     1      61.212  33.892  14.709  1.00  0.00     0.053 C 
BRANCH   7   8
ATOM      8  C   UNL     1      61.436  33.607  16.161  1.00  0.00     0.041 C 
ATOM      9  O   UNL     1      61.465  32.419  16.575  1.00  0.00    -0.550 OA
ATOM     10  O   UNL     1      61.563  34.654  17.063  1.00  0.00    -0.550 OA
ENDBRANCH   7   8
ENDBRANCH   6   7
ENDBRANCH   5   6
ENDBRANCH   4   5
ENDBRANCH   3   4
ENDBRANCH   2   3
ENDBRANCH   1   2
BRANCH   1  11
ATOM     11  C   UNL     1      64.112  29.880  10.449  1.00  0.00     0.000 C 
BRANCH  11  12
ATOM     12  C   UNL     1      63.651  29.019   9.258  1.00  0.00    -0.000 C 
BRANCH  12  13
ATOM     13  C   UNL     1      62.155  28.655   9.254  1.00  0.00    -0.000 C 
BRANCH  13  14
ATOM     14  C   UNL     1      61.215  29.880   9.203  1.00  0.00    -0.000 C 
BRANCH  14  15
ATOM     15  C   UNL     1      60.382  30.035  10.483  1.00  0.00    -0.000 C 
BRANCH  15  16
ATOM     16  C   UNL     1      60.096  28.672  11.123  1.00  0.00    -0.000 C 
BRANCH  16  17
ATOM     17  C   UNL     1      60.308  28.720  12.641  1.00  0.00    -0.003 C 
ATOM     18  C   UNL     1      61.793  28.704  12.990  1.00  0.00     0.004 C 
ENDBRANCH  16  17
ENDBRANCH  15  16
ENDBRANCH  14  15
ENDBRANCH  13  14
ENDBRANCH  12  13
ENDBRANCH  11  12
ENDBRANCH   1  11
TORSDOF 14
ENDMDL
MODEL 7
REMARK VINA RESULT:    -4.313      1.474      3.292
REMARK INTER + INTRA:         -10.297
REMARK INTER:                  -8.493
REMARK INTRA:                  -1.804
REMARK UNBOUND:                -2.454
REMARK SMILES CCCCCCCCCCCCCCCC(=O)[O-]
REMARK SMILES IDX 9 1 10 2 11 3 12 4 13 5 14 6 15 7 16 8 17 9 18 10 8 11 7 12
REMARK SMILES IDX 6 13 5 14 4 15 3 16 2 17 1 18
REMARK H PARENT
REMARK Flexibility Score: inf
ROOT
ATOM      1  C   UNL     1      63.035  29.235  24.341  1.00  0.00     0.000 C 
ENDROOT
BRANCH   1   2
ATOM      2  C   UNL     1      62.973  30.085  25.622  1.00  0.00     0.000 C 
BRANCH   2   3
ATOM      3  C   UNL     1      63.985  29.624  26.684  1.00  0.00     0.000 C 
BRANCH   3   4
ATOM      4  C   UNL     1      64.049  30.570  27.893  1.00  0.00     0.000 C 
BRANCH   4   5
ATOM      5  C   UNL     1      62.712  30.591  28.644  1.00  0.00     0.000 C 
BRANCH   5   6
ATOM      6  C   UNL     1      62.325  29.187  29.120  1.00  0.00     0.006 C 
BRANCH   6   7
ATOM      7  C   UNL     1      60.925  28.806  28.629  1.00  0.00     0.053 C 
BRANCH   7   8
ATOM      8  C   UNL     1      60.766  27.319  28.601  1.00  0.00     0.041 C 
ATOM      9  O   UNL     1      61.654  26.597  28.078  1.00  0.00    -0.550 OA
ATOM     10  O   UNL     1      59.614  26.733  29.110  1.00  0.00    -0.550 OA
ENDBRANCH   7   8
ENDBRANCH   6   7
ENDBRANCH   5   6
ENDBRANCH   4   5
ENDBRANCH   3   4
ENDBRANCH   2   3
ENDBRANCH   1   2
BRANCH   1  11
ATOM     11  C   UNL     1      62.119  27.998  24.400  1.00  0.00     0.000 C 
BRANCH  11  12
ATOM     12  C   UNL     1      62.811  26.692  24.834  1.00  0.00    -0.000 C 
BRANCH  12  13
ATOM     13  C   UNL     1      63.489  25.902  23.698  1.00  0.00    -0.000 C 
BRANCH  13  14
ATOM     14  C   UNL     1      65.024  26.070  23.652  1.00  0.00    -0.000 C 
BRANCH  14  15
ATOM     15  C   UNL     1      65.511  26.660  22.320  1.00  0.00    -0.000 C 
BRANCH  15  16
ATOM     16  C   UNL     1      66.385  27.898  22.553  1.00  0.00    -0.000 C 
BRANCH  16  17
ATOM     17  C   UNL     1      66.414  28.280  24.038  1.00  0.00    -0.003 C 
ATOM     18  C   UNL     1      66.723  29.762  24.220  1.00  0.00     0.004 C 
ENDBRANCH  16  17
ENDBRANCH  15  16
ENDBRANCH  14  15
ENDBRANCH  13  14
ENDBRANCH  12  13
ENDBRANCH  11  12
ENDBRANCH   1  11
TORSDOF 14
ENDMDL
MODEL 8
REMARK VINA RESULT:    -4.301     12.744     15.201
REMARK INTER + INTRA:         -10.275
REMARK INTER:                  -7.963
REMARK INTRA:                  -2.312
REMARK UNBOUND:                -2.454
REMARK SMILES CCCCCCCCCCCCCCCC(=O)[O-]
REMARK SMILES IDX 9 1 10 2 11 3 12 4 13 5 14 6 15 7 16 8 17 9 18 10 8 11 7 12
REMARK SMILES IDX 6 13 5 14 4 15 3 16 2 17 1 18
REMARK H PARENT
REMARK Flexibility Score: inf
ROOT
ATOM      1  C   UNL     1      63.934  30.270  13.875  1.00  0.00     0.000 C 
ENDROOT
BRANCH   1   2
ATOM      2  C   UNL     1      63.966  31.776  13.562  1.00  0.00     0.000 C 
BRANCH   2   3
ATOM      3  C   UNL     1      64.169  32.063  12.065  1.00  0.00     0.000 C 
BRANCH   3   4
ATOM      4  C   UNL     1      64.531  30.804  11.263  1.00  0.00     0.000 C 
BRANCH   4   5
ATOM      5  C   UNL     1      64.768  31.143   9.786  1.00  0.00     0.000 C 
BRANCH   5   6
ATOM      6  C   UNL     1      63.875  30.294   8.875  1.00  0.00     0.006 C 
BRANCH   6   7
ATOM      7  C   UNL     1      63.199  29.168   9.662  1.00  0.00     0.053 C 
BRANCH   7   8
ATOM      8  C   UNL     1      61.757  29.054   9.280  1.00  0.00     0.041 C 
ATOM      9  O   UNL     1      61.049  30.089   9.165  1.00  0.00    -0.550 OA
ATOM     10  O   UNL     1      61.182  27.804   9.099  1.00  0.00    -0.550 OA
ENDBRANCH   7   8
ENDBRANCH   6   7
ENDBRANCH   5   6
ENDBRANCH   4   5
ENDBRANCH   3   4
ENDBRANCH   2   3
ENDBRANCH   1   2
BRANCH   1  11
ATOM     11  C   UNL     1      62.525  29.765  14.238  1.00  0.00     0.000 C 
BRANCH  11  12
ATOM     12  C   UNL     1      61.755  29.092  13.086  1.00  0.00    -0.000 C 
BRANCH  12  13
ATOM     13  C   UNL     1      60.415  29.757  12.719  1.00  0.00    -0.000 C 
BRANCH  13  14
ATOM     14  C   UNL     1      60.529  31.269  12.428  1.00  0.00    -0.000 C 
BRANCH  14  15
ATOM     15  C   UNL     1      60.038  32.132  13.600  1.00  0.00    -0.000 C 
BRANCH  15  16
ATOM     16  C   UNL     1      60.862  33.419  13.720  1.00  0.00    -0.000 C 
BRANCH  16  17
ATOM     17  C   UNL     1      61.098  33.787  15.190  1.00  0.00    -0.003 C 
ATOM     18  C   UNL     1      61.289  32.539  16.046  1.00  0.00     0.004 C 
ENDBRANCH  16  17
ENDBRANCH  15  16
ENDBRANCH  14  15
ENDBRANCH  13  14
ENDBRANCH  12  13
ENDBRANCH  11  12
ENDBRANCH   1  11
TORSDOF 14
ENDMDL
MODEL 9
REMARK VINA RESULT:    -4.286      1.754      2.891
REMARK INTER + INTRA:         -10.248
REMARK INTER:                  -8.409
REMARK INTRA:                  -1.840
REMARK UNBOUND:                -2.454
REMARK SMILES CCCCCCCCCCCCCCCC(=O)[O-]
REMARK SMILES IDX 9 1 10 2 11 3 12 4 13 5 14 6 15 7 16 8 17 9 18 10 8 11 7 12
REMARK SMILES IDX 6 13 5 14 4 15 3 16 2 17 1 18
REMARK H PARENT
REMARK Flexibility Score: inf
ROOT
ATOM      1  C   UNL     1      61.062  27.903  25.321  1.00  0.00     0.000 C 
ENDROOT
BRANCH   1   2
ATOM      2  C   UNL     1      61.924  26.907  26.116  1.00  0.00     0.000 C 
BRANCH   2   3
ATOM      3  C   UNL     1      62.064  27.301  27.596  1.00  0.00     0.000 C 
BRANCH   3   4
ATOM      4  C   UNL     1      60.952  28.251  28.066  1.00  0.00     0.000 C 
BRANCH   4   5
ATOM      5  C   UNL     1      61.482  29.242  29.109  1.00  0.00     0.000 C 
BRANCH   5   6
ATOM      6  C   UNL     1      63.004  29.392  29.003  1.00  0.00     0.006 C 
BRANCH   6   7
ATOM      7  C   UNL     1      63.395  30.843  28.710  1.00  0.00     0.053 C 
BRANCH   7   8
ATOM      8  C   UNL     1      64.872  31.028  28.856  1.00  0.00     0.041 C 
ATOM      9  O   UNL     1      65.633  30.027  28.909  1.00  0.00    -0.550 OA
ATOM     10  O   UNL     1      65.404  32.304  28.983  1.00  0.00    -0.550 OA
ENDBRANCH   7   8
ENDBRANCH   6   7
ENDBRANCH   5   6
ENDBRANCH   4   5
ENDBRANCH   3   4
ENDBRANCH   2   3
ENDBRANCH   1   2
BRANCH   1  11
ATOM     11  C   UNL     1      61.868  28.676  24.260  1.00  0.00     0.000 C 
BRANCH  11  12
ATOM     12  C   UNL     1      62.991  29.572  24.817  1.00  0.00    -0.000 C 
BRANCH  12  13
ATOM     13  C   UNL     1      64.262  29.644  23.949  1.00  0.00    -0.000 C 
BRANCH  13  14
ATOM     14  C   UNL     1      65.521  29.076  24.640  1.00  0.00    -0.000 C 
BRANCH  14  15
ATOM     15  C   UNL     1      66.439  28.325  23.665  1.00  0.00    -0.000 C 
BRANCH  15  16
ATOM     16  C   UNL     1      65.664  27.242  22.903  1.00  0.00    -0.000 C 
BRANCH  16  17
ATOM     17  C   UNL     1      65.166  26.149  23.856  1.00  0.00    -0.003 C 
ATOM     18  C   UNL     1      63.802  25.621  23.423  1.00  0.00     0.004 C 
ENDBRANCH  16  17
ENDBRANCH  15  16
ENDBRANCH  14  15
ENDBRANCH  13  14
ENDBRANCH  12  13
ENDBRANCH  11  12
ENDBRANCH   1  11
TORSDOF 14
ENDMDL
