MODEL 1
REMARK VINA RESULT:    -4.421      0.000      0.000
REMARK INTER + INTRA:          -5.203
REMARK INTER:                  -5.067
REMARK INTRA:                  -0.136
REMARK UNBOUND:                -0.136
REMARK SMILES O=C([O-])C=Cc1ccc(O)cc1
REMARK SMILES IDX 6 1 7 2 12 3 8 4 11 5 9 6 5 7 4 8 2 9 1 10 3 11 10 12
REMARK H PARENT 10 13
REMARK Flexibility Score: inf
ROOT
ATOM      1  C   UNL     1       0.943 -15.525  -6.387  1.00  0.00    -0.025 A 
ATOM      2  C   UNL     1       0.419 -16.017  -7.593  1.00  0.00     0.012 A 
ATOM      3  C   UNL     1       0.231 -14.524  -5.695  1.00  0.00     0.012 A 
ATOM      4  C   UNL     1      -0.799 -15.542  -8.087  1.00  0.00     0.047 A 
ATOM      5  C   UNL     1      -0.987 -14.050  -6.193  1.00  0.00     0.047 A 
ATOM      6  C   UNL     1      -1.507 -14.561  -7.389  1.00  0.00     0.115 A 
ENDROOT
BRANCH   1   7
ATOM      7  C   UNL     1       2.246 -16.054  -5.909  1.00  0.00     0.010 C 
ATOM      8  C   UNL     1       2.364 -17.037  -5.005  1.00  0.00     0.025 C 
BRANCH   8   9
ATOM      9  C   UNL     1       3.674 -17.544  -4.564  1.00  0.00     0.064 C 
ATOM     10  O   UNL     1       4.738 -16.921  -4.827  1.00  0.00    -0.545 OA
ATOM     11  O   UNL     1       3.740 -18.730  -3.844  1.00  0.00    -0.545 OA
ENDBRANCH   8   9
ENDBRANCH   1   7
BRANCH   6  12
ATOM     12  O   UNL     1      -2.719 -14.097  -7.892  1.00  0.00    -0.508 OA
ATOM     13  H   UNL     1      -2.819 -13.820  -8.863  1.00  0.00     0.293 HD
ENDBRANCH   6  12
TORSDOF 3
ENDMDL
MODEL 2
REMARK VINA RESULT:    -4.364      2.908      3.497
REMARK INTER + INTRA:          -5.138
REMARK INTER:                  -5.000
REMARK INTRA:                  -0.138
REMARK UNBOUND:                -0.136
REMARK SMILES O=C([O-])C=Cc1ccc(O)cc1
REMARK SMILES IDX 6 1 7 2 12 3 8 4 11 5 9 6 5 7 4 8 2 9 1 10 3 11 10 12
REMARK H PARENT 10 13
REMARK Flexibility Score: inf
ROOT
ATOM      1  C   UNL     1       0.154 -17.251  -7.837  1.00  0.00    -0.025 A 
ATOM      2  C   UNL     1       0.457 -16.021  -7.232  1.00  0.00     0.012 A 
ATOM      3  C   UNL     1      -1.110 -17.419  -8.440  1.00  0.00     0.012 A 
ATOM      4  C   UNL     1      -0.466 -14.971  -7.250  1.00  0.00     0.047 A 
ATOM      5  C   UNL     1      -2.032 -16.367  -8.455  1.00  0.00     0.047 A 
ATOM      6  C   UNL     1      -1.710 -15.139  -7.862  1.00  0.00     0.115 A 
ENDROOT
BRANCH   1   7
ATOM      7  C   UNL     1       1.164 -18.338  -7.783  1.00  0.00     0.010 C 
ATOM      8  C   UNL     1       0.861 -19.642  -7.871  1.00  0.00     0.025 C 
BRANCH   8   9
ATOM      9  C   UNL     1       1.892 -20.692  -7.825  1.00  0.00     0.064 C 
ATOM     10  O   UNL     1       2.803 -20.675  -6.955  1.00  0.00    -0.545 OA
ATOM     11  O   UNL     1       1.859 -21.721  -8.757  1.00  0.00    -0.545 OA
ENDBRANCH   8   9
ENDBRANCH   1   7
BRANCH   6  12
ATOM     12  O   UNL     1      -2.621 -14.085  -7.872  1.00  0.00    -0.508 OA
ATOM     13  H   UNL     1      -3.273 -13.941  -7.110  1.00  0.00     0.293 HD
ENDBRANCH   6  12
TORSDOF 3
ENDMDL
MODEL 3
REMARK VINA RESULT:    -4.361      2.863      3.219
REMARK INTER + INTRA:          -5.134
REMARK INTER:                  -4.986
REMARK INTRA:                  -0.148
REMARK UNBOUND:                -0.136
REMARK SMILES O=C([O-])C=Cc1ccc(O)cc1
REMARK SMILES IDX 6 1 7 2 12 3 8 4 11 5 9 6 5 7 4 8 2 9 1 10 3 11 10 12
REMARK H PARENT 10 13
REMARK Flexibility Score: inf
ROOT
ATOM      1  C   UNL     1       0.255 -17.180  -7.726  1.00  0.00    -0.025 A 
ATOM      2  C   UNL     1      -0.976 -17.388  -8.368  1.00  0.00     0.012 A 
ATOM      3  C   UNL     1       0.522 -15.918  -7.159  1.00  0.00     0.012 A 
ATOM      4  C   UNL     1      -1.931 -16.369  -8.423  1.00  0.00     0.047 A 
ATOM      5  C   UNL     1      -0.436 -14.900  -7.216  1.00  0.00     0.047 A 
ATOM      6  C   UNL     1      -1.667 -15.125  -7.845  1.00  0.00     0.115 A 
ENDROOT
BRANCH   1   7
ATOM      7  C   UNL     1       1.242 -18.290  -7.704  1.00  0.00     0.010 C 
ATOM      8  C   UNL     1       0.905 -19.587  -7.753  1.00  0.00     0.025 C 
BRANCH   8   9
ATOM      9  C   UNL     1       1.913 -20.661  -7.741  1.00  0.00     0.064 C 
ATOM     10  O   UNL     1       2.835 -20.681  -6.882  1.00  0.00    -0.545 OA
ATOM     11  O   UNL     1       1.845 -21.670  -8.692  1.00  0.00    -0.545 OA
ENDBRANCH   8   9
ENDBRANCH   1   7
BRANCH   6  12
ATOM     12  O   UNL     1      -2.628 -14.119  -7.906  1.00  0.00    -0.508 OA
ATOM     13  H   UNL     1      -3.591 -14.288  -7.636  1.00  0.00     0.293 HD
ENDBRANCH   6  12
TORSDOF 3
ENDMDL
MODEL 4
REMARK VINA RESULT:    -4.131      3.242      4.877
REMARK INTER + INTRA:          -4.871
REMARK INTER:                  -4.721
REMARK INTRA:                  -0.150
REMARK UNBOUND:                -0.136
REMARK SMILES O=C([O-])C=Cc1ccc(O)cc1
REMARK SMILES IDX 6 1 7 2 12 3 8 4 11 5 9 6 5 7 4 8 2 9 1 10 3 11 10 12
REMARK H PARENT 10 13
REMARK Flexibility Score: inf
ROOT
ATOM      1  C   UNL     1      -0.321 -15.441  -6.909  1.00  0.00    -0.025 A 
ATOM      2  C   UNL     1      -0.196 -16.563  -6.073  1.00  0.00     0.012 A 
ATOM      3  C   UNL     1      -0.157 -15.606  -8.299  1.00  0.00     0.012 A 
ATOM      4  C   UNL     1       0.061 -17.826  -6.613  1.00  0.00     0.047 A 
ATOM      5  C   UNL     1       0.101 -16.872  -8.835  1.00  0.00     0.047 A 
ATOM      6  C   UNL     1       0.208 -17.986  -7.993  1.00  0.00     0.115 A 
ENDROOT
BRANCH   1   7
ATOM      7  C   UNL     1      -0.583 -14.118  -6.287  1.00  0.00     0.010 C 
ATOM      8  C   UNL     1      -0.330 -13.835  -5.001  1.00  0.00     0.025 C 
BRANCH   8   9
ATOM      9  C   UNL     1      -0.593 -12.507  -4.422  1.00  0.00     0.064 C 
ATOM     10  O   UNL     1       0.348 -11.776  -4.013  1.00  0.00    -0.545 OA
ATOM     11  O   UNL     1      -1.902 -12.051  -4.328  1.00  0.00    -0.545 OA
ENDBRANCH   8   9
ENDBRANCH   1   7
BRANCH   6  12
ATOM     12  O   UNL     1       0.463 -19.251  -8.516  1.00  0.00    -0.508 OA
ATOM     13  H   UNL     1      -0.268 -19.803  -8.951  1.00  0.00     0.293 HD
ENDBRANCH   6  12
TORSDOF 3
ENDMDL
MODEL 5
REMARK VINA RESULT:    -3.973      2.866      3.573
REMARK INTER + INTRA:          -4.690
REMARK INTER:                  -4.547
REMARK INTRA:                  -0.143
REMARK UNBOUND:                -0.136
REMARK SMILES O=C([O-])C=Cc1ccc(O)cc1
REMARK SMILES IDX 6 1 7 2 12 3 8 4 11 5 9 6 5 7 4 8 2 9 1 10 3 11 10 12
REMARK H PARENT 10 13
REMARK Flexibility Score: inf
ROOT
ATOM      1  C   UNL     1      -0.129 -16.275  -7.473  1.00  0.00    -0.025 A 
ATOM      2  C   UNL     1       0.589 -15.806  -6.361  1.00  0.00     0.012 A 
ATOM      3  C   UNL     1      -1.245 -15.538  -7.922  1.00  0.00     0.012 A 
ATOM      4  C   UNL     1       0.220 -14.617  -5.725  1.00  0.00     0.047 A 
ATOM      5  C   UNL     1      -1.611 -14.350  -7.282  1.00  0.00     0.047 A 
ATOM      6  C   UNL     1      -0.878 -13.885  -6.183  1.00  0.00     0.115 A 
ENDROOT
BRANCH   1   7
ATOM      7  C   UNL     1       0.296 -17.548  -8.108  1.00  0.00     0.010 C 
ATOM      8  C   UNL     1       0.552 -18.672  -7.424  1.00  0.00     0.025 C 
BRANCH   8   9
ATOM      9  C   UNL     1       0.960 -19.921  -8.090  1.00  0.00     0.064 C 
ATOM     10  O   UNL     1       0.189 -20.515  -8.890  1.00  0.00    -0.545 OA
ATOM     11  O   UNL     1       2.217 -20.451  -7.833  1.00  0.00    -0.545 OA
ENDBRANCH   8   9
ENDBRANCH   1   7
BRANCH   6  12
ATOM     12  O   UNL     1      -1.234 -12.702  -5.540  1.00  0.00    -0.508 OA
ATOM     13  H   UNL     1      -2.196 -12.384  -5.510  1.00  0.00     0.293 HD
ENDBRANCH   6  12
TORSDOF 3
ENDMDL
MODEL 6
REMARK VINA RESULT:    -3.964      8.402     11.290
REMARK INTER + INTRA:          -4.679
REMARK INTER:                  -4.546
REMARK INTRA:                  -0.133
REMARK UNBOUND:                -0.136
REMARK SMILES O=C([O-])C=Cc1ccc(O)cc1
REMARK SMILES IDX 6 1 7 2 12 3 8 4 11 5 9 6 5 7 4 8 2 9 1 10 3 11 10 12
REMARK H PARENT 10 13
REMARK Flexibility Score: inf
ROOT
ATOM      1  C   UNL     1      11.557 -17.342  -6.669  1.00  0.00    -0.025 A 
ATOM      2  C   UNL     1      11.260 -18.151  -7.778  1.00  0.00     0.012 A 
ATOM      3  C   UNL     1      12.756 -16.601  -6.669  1.00  0.00     0.012 A 
ATOM      4  C   UNL     1      12.127 -18.202  -8.874  1.00  0.00     0.047 A 
ATOM      5  C   UNL     1      13.621 -16.655  -7.767  1.00  0.00     0.047 A 
ATOM      6  C   UNL     1      13.306 -17.454  -8.874  1.00  0.00     0.115 A 
ENDROOT
BRANCH   1   7
ATOM      7  C   UNL     1      10.611 -17.329  -5.525  1.00  0.00     0.010 C 
ATOM      8  C   UNL     1       9.825 -16.287  -5.219  1.00  0.00     0.025 C 
BRANCH   8   9
ATOM      9  C   UNL     1       8.889 -16.315  -4.083  1.00  0.00     0.064 C 
ATOM     10  O   UNL     1       9.262 -15.998  -2.922  1.00  0.00    -0.545 OA
ATOM     11  O   UNL     1       7.571 -16.697  -4.294  1.00  0.00    -0.545 OA
ENDBRANCH   8   9
ENDBRANCH   1   7
BRANCH   6  12
ATOM     12  O   UNL     1      14.160 -17.514  -9.973  1.00  0.00    -0.508 OA
ATOM     13  H   UNL     1      14.954 -16.890 -10.062  1.00  0.00     0.293 HD
ENDBRANCH   6  12
TORSDOF 3
ENDMDL
MODEL 7
REMARK VINA RESULT:    -3.958      9.025     11.302
REMARK INTER + INTRA:          -4.673
REMARK INTER:                  -4.534
REMARK INTRA:                  -0.139
REMARK UNBOUND:                -0.136
REMARK SMILES O=C([O-])C=Cc1ccc(O)cc1
REMARK SMILES IDX 6 1 7 2 12 3 8 4 11 5 9 6 5 7 4 8 2 9 1 10 3 11 10 12
REMARK H PARENT 10 13
REMARK Flexibility Score: inf
ROOT
ATOM      1  C   UNL     1      11.261 -18.265  -7.792  1.00  0.00    -0.025 A 
ATOM      2  C   UNL     1      12.526 -17.687  -7.986  1.00  0.00     0.012 A 
ATOM      3  C   UNL     1      10.633 -18.906  -8.879  1.00  0.00     0.012 A 
ATOM      4  C   UNL     1      13.162 -17.767  -9.229  1.00  0.00     0.047 A 
ATOM      5  C   UNL     1      11.272 -18.984 -10.121  1.00  0.00     0.047 A 
ATOM      6  C   UNL     1      12.540 -18.416 -10.297  1.00  0.00     0.115 A 
ENDROOT
BRANCH   1   7
ATOM      7  C   UNL     1      10.622 -18.145  -6.457  1.00  0.00     0.010 C 
ATOM      8  C   UNL     1      10.251 -16.977  -5.912  1.00  0.00     0.025 C 
BRANCH   8   9
ATOM      9  C   UNL     1       9.608 -16.898  -4.589  1.00  0.00     0.064 C 
ATOM     10  O   UNL     1      10.162 -17.380  -3.565  1.00  0.00    -0.545 OA
ATOM     11  O   UNL     1       8.370 -16.280  -4.468  1.00  0.00    -0.545 OA
ENDBRANCH   8   9
ENDBRANCH   1   7
BRANCH   6  12
ATOM     12  O   UNL     1      13.186 -18.489 -11.529  1.00  0.00    -0.508 OA
ATOM     13  H   UNL     1      14.034 -19.030 -11.652  1.00  0.00     0.293 HD
ENDBRANCH   6  12
TORSDOF 3
ENDMDL
MODEL 8
REMARK VINA RESULT:    -3.920     18.097     18.925
REMARK INTER + INTRA:          -4.629
REMARK INTER:                  -4.486
REMARK INTRA:                  -0.143
REMARK UNBOUND:                -0.136
REMARK SMILES O=C([O-])C=Cc1ccc(O)cc1
REMARK SMILES IDX 6 1 7 2 12 3 8 4 11 5 9 6 5 7 4 8 2 9 1 10 3 11 10 12
REMARK H PARENT 10 13
REMARK Flexibility Score: inf
ROOT
ATOM      1  C   UNL     1      13.505 -11.831 -18.929  1.00  0.00    -0.025 A 
ATOM      2  C   UNL     1      13.992 -12.130 -17.646  1.00  0.00     0.012 A 
ATOM      3  C   UNL     1      13.341 -10.480 -19.296  1.00  0.00     0.012 A 
ATOM      4  C   UNL     1      14.333 -11.106 -16.757  1.00  0.00     0.047 A 
ATOM      5  C   UNL     1      13.682  -9.458 -18.404  1.00  0.00     0.047 A 
ATOM      6  C   UNL     1      14.182  -9.769 -17.133  1.00  0.00     0.115 A 
ENDROOT
BRANCH   1   7
ATOM      7  C   UNL     1      13.148 -12.953 -19.833  1.00  0.00     0.010 C 
ATOM      8  C   UNL     1      13.915 -14.038 -20.014  1.00  0.00     0.025 C 
BRANCH   8   9
ATOM      9  C   UNL     1      13.521 -15.138 -20.910  1.00  0.00     0.064 C 
ATOM     10  O   UNL     1      12.768 -16.066 -20.512  1.00  0.00    -0.545 OA
ATOM     11  O   UNL     1      13.988 -15.151 -22.218  1.00  0.00    -0.545 OA
ENDBRANCH   8   9
ENDBRANCH   1   7
BRANCH   6  12
ATOM     12  O   UNL     1      14.525  -8.760 -16.237  1.00  0.00    -0.508 OA
ATOM     13  H   UNL     1      15.436  -8.733 -15.792  1.00  0.00     0.293 HD
ENDBRANCH   6  12
TORSDOF 3
ENDMDL
MODEL 9
REMARK VINA RESULT:    -3.918      3.753      4.507
REMARK INTER + INTRA:          -4.627
REMARK INTER:                  -4.475
REMARK INTRA:                  -0.152
REMARK UNBOUND:                -0.136
REMARK SMILES O=C([O-])C=Cc1ccc(O)cc1
REMARK SMILES IDX 6 1 7 2 12 3 8 4 11 5 9 6 5 7 4 8 2 9 1 10 3 11 10 12
REMARK H PARENT 10 13
REMARK Flexibility Score: inf
ROOT
ATOM      1  C   UNL     1      -0.562 -17.720  -8.172  1.00  0.00    -0.025 A 
ATOM      2  C   UNL     1      -1.934 -17.614  -8.449  1.00  0.00     0.012 A 
ATOM      3  C   UNL     1       0.151 -16.558  -7.812  1.00  0.00     0.012 A 
ATOM      4  C   UNL     1      -2.588 -16.382  -8.345  1.00  0.00     0.047 A 
ATOM      5  C   UNL     1      -0.506 -15.328  -7.710  1.00  0.00     0.047 A 
ATOM      6  C   UNL     1      -1.879 -15.238  -7.974  1.00  0.00     0.115 A 
ENDROOT
BRANCH   1   7
ATOM      7  C   UNL     1       0.090 -19.048  -8.306  1.00  0.00     0.010 C 
ATOM      8  C   UNL     1      -0.584 -20.195  -8.472  1.00  0.00     0.025 C 
BRANCH   8   9
ATOM      9  C   UNL     1       0.098 -21.492  -8.614  1.00  0.00     0.064 C 
ATOM     10  O   UNL     1      -0.479 -22.569  -8.304  1.00  0.00    -0.545 OA
ATOM     11  O   UNL     1       1.398 -21.530  -9.098  1.00  0.00    -0.545 OA
ENDBRANCH   8   9
ENDBRANCH   1   7
BRANCH   6  12
ATOM     12  O   UNL     1      -2.543 -14.018  -7.874  1.00  0.00    -0.508 OA
ATOM     13  H   UNL     1      -3.539 -13.941  -8.047  1.00  0.00     0.293 HD
ENDBRANCH   6  12
TORSDOF 3
ENDMDL
