MODEL 1
REMARK VINA RESULT:    -5.170      0.000      0.000
REMARK INTER + INTRA:          -6.561
REMARK INTER:                  -6.227
REMARK INTRA:                  -0.334
REMARK UNBOUND:                -0.334
REMARK SMILES O=c1c(O)c(-c2ccc(O)c(O)c2)oc2cc(O)cc(O)c12
REMARK SMILES IDX 5 1 3 2 2 3 1 4 22 5 20 6 19 7 17 8 16 9 15 10 14 11 6 12
REMARK SMILES IDX 7 13 8 14 9 15 13 16 11 17 10 18 12 20 4 22 21 24 18 26
REMARK H PARENT 10 19 12 21 4 23 21 25 18 27
REMARK Flexibility Score: inf
ROOT
ATOM      1  C   UNL     1       4.409  33.266  87.024  1.00  0.00     0.180 A 
ATOM      2  C   UNL     1       4.967  32.677  85.876  1.00  0.00     0.208 A 
ATOM      3  C   UNL     1       6.302  32.960  85.546  1.00  0.00     0.238 A 
ATOM      4  O   UNL     1       6.813  32.387  84.549  1.00  0.00    -0.285 OA
ATOM      5  C   UNL     1       7.057  33.841  86.358  1.00  0.00     0.111 A 
ATOM      6  C   UNL     1       8.405  34.229  86.097  1.00  0.00     0.134 A 
ATOM      7  C   UNL     1       9.096  35.002  87.038  1.00  0.00     0.093 A 
ATOM      8  C   UNL     1       8.470  35.454  88.198  1.00  0.00     0.123 A 
ATOM      9  C   UNL     1       7.133  35.130  88.436  1.00  0.00     0.094 A 
ATOM     10  C   UNL     1       6.428  34.330  87.533  1.00  0.00     0.146 A 
ATOM     11  O   UNL     1       5.162  34.035  87.801  1.00  0.00    -0.452 OA
ENDROOT
BRANCH   1  12
ATOM     12  C   UNL     1       3.001  33.036  87.422  1.00  0.00     0.025 A 
ATOM     13  C   UNL     1       2.703  32.032  88.357  1.00  0.00     0.016 A 
ATOM     14  C   UNL     1       1.384  31.812  88.762  1.00  0.00     0.051 A 
ATOM     15  C   UNL     1       0.346  32.598  88.254  1.00  0.00     0.157 A 
ATOM     16  C   UNL     1       1.959  33.840  86.926  1.00  0.00     0.062 A 
ATOM     17  C   UNL     1       0.634  33.621  87.334  1.00  0.00     0.158 A 
BRANCH  15  18
ATOM     18  O   UNL     1      -0.960  32.353  88.674  1.00  0.00    -0.504 OA
ATOM     19  H   UNL     1      -1.697  32.108  88.025  1.00  0.00     0.293 HD
ENDBRANCH  15  18
BRANCH  17  20
ATOM     20  O   UNL     1      -0.393  34.419  86.833  1.00  0.00    -0.504 OA
ATOM     21  H   UNL     1      -0.624  35.313  87.250  1.00  0.00     0.293 HD
ENDBRANCH  17  20
ENDBRANCH   1  12
BRANCH   2  22
ATOM     22  O   UNL     1       4.211  31.794  85.100  1.00  0.00    -0.502 OA
ATOM     23  H   UNL     1       3.199  31.829  85.066  1.00  0.00     0.293 HD
ENDBRANCH   2  22
BRANCH   6  24
ATOM     24  O   UNL     1       9.096  33.909  84.924  1.00  0.00    -0.507 OA
ATOM     25  H   UNL     1       9.560  34.579  84.330  1.00  0.00     0.293 HD
ENDBRANCH   6  24
BRANCH   8  26
ATOM     26  O   UNL     1       9.182  36.234  89.106  1.00  0.00    -0.508 OA
ATOM     27  H   UNL     1       9.355  37.219  88.939  1.00  0.00     0.293 HD
ENDBRANCH   8  26
TORSDOF 6
ENDMDL
MODEL 2
REMARK VINA RESULT:    -5.047      1.991      2.493
REMARK INTER + INTRA:          -6.414
REMARK INTER:                  -6.127
REMARK INTRA:                  -0.287
REMARK UNBOUND:                -0.334
REMARK SMILES O=c1c(O)c(-c2ccc(O)c(O)c2)oc2cc(O)cc(O)c12
REMARK SMILES IDX 5 1 3 2 2 3 1 4 22 5 20 6 19 7 17 8 16 9 15 10 14 11 6 12
REMARK SMILES IDX 7 13 8 14 9 15 13 16 11 17 10 18 12 20 4 22 21 24 18 26
REMARK H PARENT 10 19 12 21 4 23 21 25 18 27
REMARK Flexibility Score: inf
ROOT
ATOM      1  C   UNL     1       3.784  32.880  86.611  1.00  0.00     0.180 A 
ATOM      2  C   UNL     1       4.298  31.849  87.415  1.00  0.00     0.208 A 
ATOM      3  C   UNL     1       5.672  31.834  87.708  1.00  0.00     0.238 A 
ATOM      4  O   UNL     1       6.117  30.940  88.473  1.00  0.00    -0.285 OA
ATOM      5  C   UNL     1       6.515  32.841  87.180  1.00  0.00     0.111 A 
ATOM      6  C   UNL     1       7.927  32.902  87.378  1.00  0.00     0.134 A 
ATOM      7  C   UNL     1       8.643  34.014  86.917  1.00  0.00     0.093 A 
ATOM      8  C   UNL     1       8.009  35.035  86.210  1.00  0.00     0.123 A 
ATOM      9  C   UNL     1       6.639  34.956  85.958  1.00  0.00     0.094 A 
ATOM     10  C   UNL     1       5.891  33.877  86.437  1.00  0.00     0.146 A 
ATOM     11  O   UNL     1       4.589  33.846  86.185  1.00  0.00    -0.452 OA
ENDROOT
BRANCH   1  12
ATOM     12  C   UNL     1       2.352  32.949  86.239  1.00  0.00     0.025 A 
ATOM     13  C   UNL     1       1.860  32.110  85.227  1.00  0.00     0.016 A 
ATOM     14  C   UNL     1       0.509  32.144  84.874  1.00  0.00     0.051 A 
ATOM     15  C   UNL     1      -0.374  33.003  85.535  1.00  0.00     0.157 A 
ATOM     16  C   UNL     1       1.459  33.797  86.918  1.00  0.00     0.062 A 
ATOM     17  C   UNL     1       0.101  33.831  86.566  1.00  0.00     0.158 A 
BRANCH  15  18
ATOM     18  O   UNL     1      -1.717  33.016  85.159  1.00  0.00    -0.504 OA
ATOM     19  H   UNL     1      -2.433  33.434  85.740  1.00  0.00     0.293 HD
ENDBRANCH  15  18
BRANCH  17  20
ATOM     20  O   UNL     1      -0.776  34.679  87.240  1.00  0.00    -0.504 OA
ATOM     21  H   UNL     1      -0.926  34.603  88.239  1.00  0.00     0.293 HD
ENDBRANCH  17  20
ENDBRANCH   1  12
BRANCH   2  22
ATOM     22  O   UNL     1       3.444  30.877  87.945  1.00  0.00    -0.502 OA
ATOM     23  H   UNL     1       2.447  30.877  87.772  1.00  0.00     0.293 HD
ENDBRANCH   2  22
BRANCH   6  24
ATOM     24  O   UNL     1       8.673  31.890  87.991  1.00  0.00    -0.507 OA
ATOM     25  H   UNL     1       8.343  30.952  88.157  1.00  0.00     0.293 HD
ENDBRANCH   6  24
BRANCH   8  26
ATOM     26  O   UNL     1       8.754  36.119  85.753  1.00  0.00    -0.508 OA
ATOM     27  H   UNL     1       8.759  37.005  86.246  1.00  0.00     0.293 HD
ENDBRANCH   8  26
TORSDOF 6
ENDMDL
MODEL 3
REMARK VINA RESULT:    -4.857      1.832      6.682
REMARK INTER + INTRA:          -6.185
REMARK INTER:                  -5.873
REMARK INTRA:                  -0.312
REMARK UNBOUND:                -0.334
REMARK SMILES O=c1c(O)c(-c2ccc(O)c(O)c2)oc2cc(O)cc(O)c12
REMARK SMILES IDX 5 1 3 2 2 3 1 4 22 5 20 6 19 7 17 8 16 9 15 10 14 11 6 12
REMARK SMILES IDX 7 13 8 14 9 15 13 16 11 17 10 18 12 20 4 22 21 24 18 26
REMARK H PARENT 10 19 12 21 4 23 21 25 18 27
REMARK Flexibility Score: inf
ROOT
ATOM      1  C   UNL     1       4.658  32.989  86.279  1.00  0.00     0.180 A 
ATOM      2  C   UNL     1       4.465  32.064  85.239  1.00  0.00     0.208 A 
ATOM      3  C   UNL     1       3.157  31.691  84.892  1.00  0.00     0.238 A 
ATOM      4  O   UNL     1       2.989  30.905  83.923  1.00  0.00    -0.285 OA
ATOM      5  C   UNL     1       2.058  32.234  85.600  1.00  0.00     0.111 A 
ATOM      6  C   UNL     1       0.693  31.898  85.360  1.00  0.00     0.134 A 
ATOM      7  C   UNL     1      -0.320  32.594  86.032  1.00  0.00     0.093 A 
ATOM      8  C   UNL     1      -0.015  33.568  86.981  1.00  0.00     0.123 A 
ATOM      9  C   UNL     1       1.319  33.864  87.267  1.00  0.00     0.094 A 
ATOM     10  C   UNL     1       2.350  33.212  86.587  1.00  0.00     0.146 A 
ATOM     11  O   UNL     1       3.605  33.530  86.881  1.00  0.00    -0.452 OA
ENDROOT
BRANCH   1  12
ATOM     12  C   UNL     1       6.007  33.411  86.719  1.00  0.00     0.025 A 
ATOM     13  C   UNL     1       6.726  32.605  87.615  1.00  0.00     0.016 A 
ATOM     14  C   UNL     1       8.008  32.974  88.027  1.00  0.00     0.051 A 
ATOM     15  C   UNL     1       8.599  34.143  87.539  1.00  0.00     0.157 A 
ATOM     16  C   UNL     1       6.611  34.577  86.212  1.00  0.00     0.062 A 
ATOM     17  C   UNL     1       7.900  34.947  86.624  1.00  0.00     0.158 A 
BRANCH  15  18
ATOM     18  O   UNL     1       9.880  34.488  87.970  1.00  0.00    -0.504 OA
ATOM     19  H   UNL     1      10.712  34.073  87.569  1.00  0.00     0.293 HD
ENDBRANCH  15  18
BRANCH  17  20
ATOM     20  O   UNL     1       8.488  36.107  86.122  1.00  0.00    -0.504 OA
ATOM     21  H   UNL     1       7.931  36.900  85.826  1.00  0.00     0.293 HD
ENDBRANCH  17  20
ENDBRANCH   1  12
BRANCH   2  22
ATOM     22  O   UNL     1       5.563  31.556  84.538  1.00  0.00    -0.502 OA
ATOM     23  H   UNL     1       5.498  31.247  83.576  1.00  0.00     0.293 HD
ENDBRANCH   2  22
BRANCH   6  24
ATOM     24  O   UNL     1       0.281  30.875  84.500  1.00  0.00    -0.507 OA
ATOM     25  H   UNL     1      -0.245  31.015  83.650  1.00  0.00     0.293 HD
ENDBRANCH   6  24
BRANCH   8  26
ATOM     26  O   UNL     1      -1.046  34.231  87.642  1.00  0.00    -0.508 OA
ATOM     27  H   UNL     1      -1.146  34.187  88.650  1.00  0.00     0.293 HD
ENDBRANCH   8  26
TORSDOF 6
ENDMDL
MODEL 4
REMARK VINA RESULT:    -4.577      2.034      7.441
REMARK INTER + INTRA:          -5.847
REMARK INTER:                  -5.592
REMARK INTRA:                  -0.255
REMARK UNBOUND:                -0.334
REMARK SMILES O=c1c(O)c(-c2ccc(O)c(O)c2)oc2cc(O)cc(O)c12
REMARK SMILES IDX 5 1 3 2 2 3 1 4 22 5 20 6 19 7 17 8 16 9 15 10 14 11 6 12
REMARK SMILES IDX 7 13 8 14 9 15 13 16 11 17 10 18 12 20 4 22 21 24 18 26
REMARK H PARENT 10 19 12 21 4 23 21 25 18 27
REMARK Flexibility Score: inf
ROOT
ATOM      1  C   UNL     1       3.657  33.004  86.411  1.00  0.00     0.180 A 
ATOM      2  C   UNL     1       3.153  33.142  87.715  1.00  0.00     0.208 A 
ATOM      3  C   UNL     1       1.786  32.916  87.945  1.00  0.00     0.238 A 
ATOM      4  O   UNL     1       1.352  32.987  89.124  1.00  0.00    -0.285 OA
ATOM      5  C   UNL     1       0.938  32.571  86.865  1.00  0.00     0.111 A 
ATOM      6  C   UNL     1      -0.468  32.359  86.976  1.00  0.00     0.134 A 
ATOM      7  C   UNL     1      -1.187  31.894  85.867  1.00  0.00     0.093 A 
ATOM      8  C   UNL     1      -0.562  31.697  84.636  1.00  0.00     0.123 A 
ATOM      9  C   UNL     1       0.802  31.959  84.501  1.00  0.00     0.094 A 
ATOM     10  C   UNL     1       1.553  32.389  85.599  1.00  0.00     0.146 A 
ATOM     11  O   UNL     1       2.849  32.616  85.431  1.00  0.00    -0.452 OA
ENDROOT
BRANCH   1  12
ATOM     12  C   UNL     1       5.081  33.251  86.086  1.00  0.00     0.025 A 
ATOM     13  C   UNL     1       5.901  32.174  85.714  1.00  0.00     0.016 A 
ATOM     14  C   UNL     1       7.241  32.387  85.384  1.00  0.00     0.051 A 
ATOM     15  C   UNL     1       7.780  33.677  85.404  1.00  0.00     0.157 A 
ATOM     16  C   UNL     1       5.617  34.551  86.085  1.00  0.00     0.062 A 
ATOM     17  C   UNL     1       6.963  34.766  85.752  1.00  0.00     0.158 A 
BRANCH  15  18
ATOM     18  O   UNL     1       9.121  33.858  85.072  1.00  0.00    -0.504 OA
ATOM     19  H   UNL     1       9.869  33.430  85.603  1.00  0.00     0.293 HD
ENDBRANCH  15  18
BRANCH  17  20
ATOM     20  O   UNL     1       7.488  36.057  85.760  1.00  0.00    -0.504 OA
ATOM     21  H   UNL     1       7.861  36.485  84.921  1.00  0.00     0.293 HD
ENDBRANCH  17  20
ENDBRANCH   1  12
BRANCH   2  22
ATOM     22  O   UNL     1       4.012  33.462  88.771  1.00  0.00    -0.502 OA
ATOM     23  H   UNL     1       4.959  33.788  88.622  1.00  0.00     0.293 HD
ENDBRANCH   2  22
BRANCH   6  24
ATOM     24  O   UNL     1      -1.208  32.614  88.135  1.00  0.00    -0.507 OA
ATOM     25  H   UNL     1      -2.181  32.878  88.150  1.00  0.00     0.293 HD
ENDBRANCH   6  24
BRANCH   8  26
ATOM     26  O   UNL     1      -1.310  31.249  83.550  1.00  0.00    -0.508 OA
ATOM     27  H   UNL     1      -1.736  30.329  83.542  1.00  0.00     0.293 HD
ENDBRANCH   8  26
TORSDOF 6
ENDMDL
MODEL 5
REMARK VINA RESULT:    -4.512     12.572     14.452
REMARK INTER + INTRA:          -5.769
REMARK INTER:                  -5.791
REMARK INTRA:                   0.022
REMARK UNBOUND:                -0.334
REMARK SMILES O=c1c(O)c(-c2ccc(O)c(O)c2)oc2cc(O)cc(O)c12
REMARK SMILES IDX 5 1 3 2 2 3 1 4 22 5 20 6 19 7 17 8 16 9 15 10 14 11 6 12
REMARK SMILES IDX 7 13 8 14 9 15 13 16 11 17 10 18 12 20 4 22 21 24 18 26
REMARK H PARENT 10 19 12 21 4 23 21 25 18 27
REMARK Flexibility Score: inf
ROOT
ATOM      1  C   UNL     1      -4.122  36.010  77.831  1.00  0.00     0.180 A 
ATOM      2  C   UNL     1      -4.549  35.005  78.716  1.00  0.00     0.208 A 
ATOM      3  C   UNL     1      -4.604  33.677  78.263  1.00  0.00     0.238 A 
ATOM      4  O   UNL     1      -4.936  32.774  79.075  1.00  0.00    -0.285 OA
ATOM      5  C   UNL     1      -4.246  33.372  76.928  1.00  0.00     0.111 A 
ATOM      6  C   UNL     1      -4.301  32.069  76.351  1.00  0.00     0.134 A 
ATOM      7  C   UNL     1      -3.800  31.862  75.060  1.00  0.00     0.093 A 
ATOM      8  C   UNL     1      -3.305  32.922  74.302  1.00  0.00     0.123 A 
ATOM      9  C   UNL     1      -3.301  34.212  74.834  1.00  0.00     0.094 A 
ATOM     10  C   UNL     1      -3.761  34.444  76.133  1.00  0.00     0.146 A 
ATOM     11  O   UNL     1      -3.730  35.684  76.605  1.00  0.00    -0.452 OA
ENDROOT
BRANCH   1  12
ATOM     12  C   UNL     1      -4.062  37.436  78.228  1.00  0.00     0.025 A 
ATOM     13  C   UNL     1      -3.370  37.800  79.393  1.00  0.00     0.016 A 
ATOM     14  C   UNL     1      -3.284  39.141  79.774  1.00  0.00     0.051 A 
ATOM     15  C   UNL     1      -3.872  40.139  78.992  1.00  0.00     0.157 A 
ATOM     16  C   UNL     1      -4.636  38.442  77.429  1.00  0.00     0.062 A 
ATOM     17  C   UNL     1      -4.548  39.789  77.811  1.00  0.00     0.158 A 
BRANCH  15  18
ATOM     18  O   UNL     1      -3.772  41.469  79.399  1.00  0.00    -0.504 OA
ATOM     19  H   UNL     1      -4.255  42.217  78.917  1.00  0.00     0.293 HD
ENDBRANCH  15  18
BRANCH  17  20
ATOM     20  O   UNL     1      -5.125  40.780  77.017  1.00  0.00    -0.504 OA
ATOM     21  H   UNL     1      -5.021  41.763  77.236  1.00  0.00     0.293 HD
ENDBRANCH  17  20
ENDBRANCH   1  12
BRANCH   2  22
ATOM     22  O   UNL     1      -4.878  35.324  80.037  1.00  0.00    -0.502 OA
ATOM     23  H   UNL     1      -4.372  36.020  80.570  1.00  0.00     0.293 HD
ENDBRANCH   2  22
BRANCH   6  24
ATOM     24  O   UNL     1      -4.862  30.957  76.987  1.00  0.00    -0.507 OA
ATOM     25  H   UNL     1      -5.649  30.991  77.617  1.00  0.00     0.293 HD
ENDBRANCH   6  24
BRANCH   8  26
ATOM     26  O   UNL     1      -2.827  32.683  73.015  1.00  0.00    -0.508 OA
ATOM     27  H   UNL     1      -3.200  31.937  72.440  1.00  0.00     0.293 HD
ENDBRANCH   8  26
TORSDOF 6
ENDMDL
MODEL 6
REMARK VINA RESULT:    -4.340      1.845      7.188
REMARK INTER + INTRA:          -5.562
REMARK INTER:                  -5.283
REMARK INTRA:                  -0.279
REMARK UNBOUND:                -0.334
REMARK SMILES O=c1c(O)c(-c2ccc(O)c(O)c2)oc2cc(O)cc(O)c12
REMARK SMILES IDX 5 1 3 2 2 3 1 4 22 5 20 6 19 7 17 8 16 9 15 10 14 11 6 12
REMARK SMILES IDX 7 13 8 14 9 15 13 16 11 17 10 18 12 20 4 22 21 24 18 26
REMARK H PARENT 10 19 12 21 4 23 21 25 18 27
REMARK Flexibility Score: inf
ROOT
ATOM      1  C   UNL     1       3.869  33.040  86.691  1.00  0.00     0.180 A 
ATOM      2  C   UNL     1       3.775  32.134  87.761  1.00  0.00     0.208 A 
ATOM      3  C   UNL     1       2.504  31.728  88.200  1.00  0.00     0.238 A 
ATOM      4  O   UNL     1       2.427  30.875  89.122  1.00  0.00    -0.285 OA
ATOM      5  C   UNL     1       1.344  32.244  87.574  1.00  0.00     0.111 A 
ATOM      6  C   UNL     1       0.007  31.933  87.962  1.00  0.00     0.134 A 
ATOM      7  C   UNL     1      -1.063  32.400  87.189  1.00  0.00     0.093 A 
ATOM      8  C   UNL     1      -0.848  33.218  86.081  1.00  0.00     0.123 A 
ATOM      9  C   UNL     1       0.453  33.578  85.727  1.00  0.00     0.094 A 
ATOM     10  C   UNL     1       1.544  33.098  86.458  1.00  0.00     0.146 A 
ATOM     11  O   UNL     1       2.765  33.455  86.082  1.00  0.00    -0.452 OA
ENDROOT
BRANCH   1  12
ATOM     12  C   UNL     1       5.172  33.533  86.189  1.00  0.00     0.025 A 
ATOM     13  C   UNL     1       5.935  32.724  85.333  1.00  0.00     0.016 A 
ATOM     14  C   UNL     1       7.157  33.178  84.831  1.00  0.00     0.051 A 
ATOM     15  C   UNL     1       7.629  34.451  85.163  1.00  0.00     0.157 A 
ATOM     16  C   UNL     1       5.637  34.823  86.505  1.00  0.00     0.062 A 
ATOM     17  C   UNL     1       6.864  35.281  86.001  1.00  0.00     0.158 A 
BRANCH  15  18
ATOM     18  O   UNL     1       8.853  34.876  84.650  1.00  0.00    -0.504 OA
ATOM     19  H   UNL     1       8.971  35.124  83.675  1.00  0.00     0.293 HD
ENDBRANCH  15  18
BRANCH  17  20
ATOM     20  O   UNL     1       7.321  36.557  86.325  1.00  0.00    -0.504 OA
ATOM     21  H   UNL     1       7.178  36.955  87.245  1.00  0.00     0.293 HD
ENDBRANCH  17  20
ENDBRANCH   1  12
BRANCH   2  22
ATOM     22  O   UNL     1       4.933  31.619  88.351  1.00  0.00    -0.502 OA
ATOM     23  H   UNL     1       5.226  30.658  88.227  1.00  0.00     0.293 HD
ENDBRANCH   2  22
BRANCH   6  24
ATOM     24  O   UNL     1      -0.323  31.199  89.106  1.00  0.00    -0.507 OA
ATOM     25  H   UNL     1      -0.871  31.551  89.875  1.00  0.00     0.293 HD
ENDBRANCH   6  24
BRANCH   8  26
ATOM     26  O   UNL     1      -1.937  33.676  85.343  1.00  0.00    -0.508 OA
ATOM     27  H   UNL     1      -2.614  34.318  85.739  1.00  0.00     0.293 HD
ENDBRANCH   8  26
TORSDOF 6
ENDMDL
MODEL 7
REMARK VINA RESULT:    -3.852      1.762      2.449
REMARK INTER + INTRA:          -4.974
REMARK INTER:                  -5.014
REMARK INTRA:                   0.040
REMARK UNBOUND:                -0.334
REMARK SMILES O=c1c(O)c(-c2ccc(O)c(O)c2)oc2cc(O)cc(O)c12
REMARK SMILES IDX 5 1 3 2 2 3 1 4 22 5 20 6 19 7 17 8 16 9 15 10 14 11 6 12
REMARK SMILES IDX 7 13 8 14 9 15 13 16 11 17 10 18 12 20 4 22 21 24 18 26
REMARK H PARENT 10 19 12 21 4 23 21 25 18 27
REMARK Flexibility Score: inf
ROOT
ATOM      1  C   UNL     1       2.793  32.486  86.072  1.00  0.00     0.180 A 
ATOM      2  C   UNL     1       3.542  31.756  85.133  1.00  0.00     0.208 A 
ATOM      3  C   UNL     1       4.940  31.894  85.120  1.00  0.00     0.238 A 
ATOM      4  O   UNL     1       5.609  31.196  84.314  1.00  0.00    -0.285 OA
ATOM      5  C   UNL     1       5.569  32.773  86.035  1.00  0.00     0.111 A 
ATOM      6  C   UNL     1       6.973  33.021  86.084  1.00  0.00     0.134 A 
ATOM      7  C   UNL     1       7.500  33.810  87.115  1.00  0.00     0.093 A 
ATOM      8  C   UNL     1       6.668  34.411  88.058  1.00  0.00     0.123 A 
ATOM      9  C   UNL     1       5.287  34.223  87.983  1.00  0.00     0.094 A 
ATOM     10  C   UNL     1       4.735  33.412  86.988  1.00  0.00     0.146 A 
ATOM     11  O   UNL     1       3.418  33.251  86.959  1.00  0.00    -0.452 OA
ENDROOT
BRANCH   1  12
ATOM     12  C   UNL     1       1.315  32.412  86.130  1.00  0.00     0.025 A 
ATOM     13  C   UNL     1       0.570  32.543  84.949  1.00  0.00     0.016 A 
ATOM     14  C   UNL     1      -0.824  32.456  84.978  1.00  0.00     0.051 A 
ATOM     15  C   UNL     1      -1.493  32.221  86.182  1.00  0.00     0.157 A 
ATOM     16  C   UNL     1       0.643  32.153  87.339  1.00  0.00     0.062 A 
ATOM     17  C   UNL     1      -0.757  32.064  87.369  1.00  0.00     0.158 A 
BRANCH  15  18
ATOM     18  O   UNL     1      -2.885  32.141  86.181  1.00  0.00    -0.504 OA
ATOM     19  H   UNL     1      -3.407  31.863  85.360  1.00  0.00     0.293 HD
ENDBRANCH  15  18
BRANCH  17  20
ATOM     20  O   UNL     1      -1.416  31.815  88.571  1.00  0.00    -0.504 OA
ATOM     21  H   UNL     1      -1.086  32.200  89.448  1.00  0.00     0.293 HD
ENDBRANCH  17  20
ENDBRANCH   1  12
BRANCH   2  22
ATOM     22  O   UNL     1       2.903  30.877  84.254  1.00  0.00    -0.502 OA
ATOM     23  H   UNL     1       2.872  29.877  84.410  1.00  0.00     0.293 HD
ENDBRANCH   2  22
BRANCH   6  24
ATOM     24  O   UNL     1       7.884  32.544  85.136  1.00  0.00    -0.507 OA
ATOM     25  H   UNL     1       8.532  33.120  84.621  1.00  0.00     0.293 HD
ENDBRANCH   6  24
BRANCH   8  26
ATOM     26  O   UNL     1       7.224  35.202  89.060  1.00  0.00    -0.508 OA
ATOM     27  H   UNL     1       7.893  35.933  88.850  1.00  0.00     0.293 HD
ENDBRANCH   8  26
TORSDOF 6
ENDMDL
MODEL 8
REMARK VINA RESULT:    -3.566      2.792      8.405
REMARK INTER + INTRA:          -4.629
REMARK INTER:                  -4.343
REMARK INTRA:                  -0.286
REMARK UNBOUND:                -0.334
REMARK SMILES O=c1c(O)c(-c2ccc(O)c(O)c2)oc2cc(O)cc(O)c12
REMARK SMILES IDX 5 1 3 2 2 3 1 4 22 5 20 6 19 7 17 8 16 9 15 10 14 11 6 12
REMARK SMILES IDX 7 13 8 14 9 15 13 16 11 17 10 18 12 20 4 22 21 24 18 26
REMARK H PARENT 10 19 12 21 4 23 21 25 18 27
REMARK Flexibility Score: inf
ROOT
ATOM      1  C   UNL     1       1.141  31.841  86.423  1.00  0.00     0.180 A 
ATOM      2  C   UNL     1       0.676  31.405  87.675  1.00  0.00     0.208 A 
ATOM      3  C   UNL     1      -0.708  31.318  87.896  1.00  0.00     0.238 A 
ATOM      4  O   UNL     1      -1.117  30.875  89.001  1.00  0.00    -0.285 OA
ATOM      5  C   UNL     1      -1.610  31.683  86.868  1.00  0.00     0.111 A 
ATOM      6  C   UNL     1      -3.031  31.672  86.995  1.00  0.00     0.134 A 
ATOM      7  C   UNL     1      -3.827  31.928  85.871  1.00  0.00     0.093 A 
ATOM      8  C   UNL     1      -3.255  32.258  84.644  1.00  0.00     0.123 A 
ATOM      9  C   UNL     1      -1.866  32.330  84.523  1.00  0.00     0.094 A 
ATOM     10  C   UNL     1      -1.045  32.044  85.617  1.00  0.00     0.146 A 
ATOM     11  O   UNL     1       0.271  32.113  85.457  1.00  0.00    -0.452 OA
ENDROOT
BRANCH   1  12
ATOM     12  C   UNL     1       2.584  31.982  86.123  1.00  0.00     0.025 A 
ATOM     13  C   UNL     1       3.211  31.048  85.284  1.00  0.00     0.016 A 
ATOM     14  C   UNL     1       4.566  31.174  84.972  1.00  0.00     0.051 A 
ATOM     15  C   UNL     1       5.313  32.242  85.479  1.00  0.00     0.157 A 
ATOM     16  C   UNL     1       3.331  33.068  86.616  1.00  0.00     0.062 A 
ATOM     17  C   UNL     1       4.693  33.197  86.301  1.00  0.00     0.158 A 
BRANCH  15  18
ATOM     18  O   UNL     1       6.665  32.340  85.152  1.00  0.00    -0.504 OA
ATOM     19  H   UNL     1       7.021  33.075  84.553  1.00  0.00     0.293 HD
ENDBRANCH  15  18
BRANCH  17  20
ATOM     20  O   UNL     1       5.426  34.272  86.799  1.00  0.00    -0.504 OA
ATOM     21  H   UNL     1       5.782  34.280  87.748  1.00  0.00     0.293 HD
ENDBRANCH  17  20
ENDBRANCH   1  12
BRANCH   2  22
ATOM     22  O   UNL     1       1.584  31.028  88.670  1.00  0.00    -0.502 OA
ATOM     23  H   UNL     1       2.285  31.661  89.035  1.00  0.00     0.293 HD
ENDBRANCH   2  22
BRANCH   6  24
ATOM     24  O   UNL     1      -3.705  31.446  88.199  1.00  0.00    -0.507 OA
ATOM     25  H   UNL     1      -4.658  31.125  88.272  1.00  0.00     0.293 HD
ENDBRANCH   6  24
BRANCH   8  26
ATOM     26  O   UNL     1      -4.077  32.521  83.551  1.00  0.00    -0.508 OA
ATOM     27  H   UNL     1      -4.090  31.915  82.738  1.00  0.00     0.293 HD
ENDBRANCH   8  26
TORSDOF 6
ENDMDL
