MODEL 1
REMARK VINA RESULT:    -7.198      0.000      0.000
REMARK INTER + INTRA:          -8.984
REMARK INTER:                  -8.671
REMARK INTRA:                  -0.313
REMARK UNBOUND:                -0.313
REMARK SMILES O=c1c(O)c(-c2ccc(O)c(O)c2)oc2cc(O)cc(O)c12
REMARK SMILES IDX 5 1 3 2 2 3 1 4 22 5 20 6 19 7 17 8 16 9 15 10 14 11 6 12
REMARK SMILES IDX 7 13 8 14 9 15 13 16 11 17 10 18 12 20 4 22 21 24 18 26
REMARK H PARENT 10 19 12 21 4 23 21 25 18 27
REMARK Flexibility Score: inf
ROOT
ATOM      1  C   UNL     1      15.153 -32.576 -19.760  1.00  0.00     0.180 A 
ATOM      2  C   UNL     1      15.340 -31.183 -19.849  1.00  0.00     0.208 A 
ATOM      3  C   UNL     1      16.514 -30.692 -20.440  1.00  0.00     0.238 A 
ATOM      4  O   UNL     1      16.696 -29.446 -20.515  1.00  0.00    -0.285 OA
ATOM      5  C   UNL     1      17.469 -31.596 -20.949  1.00  0.00     0.111 A 
ATOM      6  C   UNL     1      18.676 -31.183 -21.563  1.00  0.00     0.134 A 
ATOM      7  C   UNL     1      19.571 -32.144 -22.053  1.00  0.00     0.093 A 
ATOM      8  C   UNL     1      19.283 -33.510 -21.942  1.00  0.00     0.123 A 
ATOM      9  C   UNL     1      18.095 -33.922 -21.336  1.00  0.00     0.094 A 
ATOM     10  C   UNL     1      17.189 -32.978 -20.840  1.00  0.00     0.146 A 
ATOM     11  O   UNL     1      16.069 -33.398 -20.265  1.00  0.00    -0.452 OA
ENDROOT
BRANCH   1  12
ATOM     12  C   UNL     1      13.951 -33.171 -19.135  1.00  0.00     0.025 A 
ATOM     13  C   UNL     1      13.983 -33.529 -17.778  1.00  0.00     0.016 A 
ATOM     14  C   UNL     1      12.854 -34.073 -17.161  1.00  0.00     0.051 A 
ATOM     15  C   UNL     1      11.670 -34.253 -17.886  1.00  0.00     0.157 A 
ATOM     16  C   UNL     1      12.753 -33.333 -19.856  1.00  0.00     0.062 A 
ATOM     17  C   UNL     1      11.618 -33.877 -19.239  1.00  0.00     0.158 A 
BRANCH  15  18
ATOM     18  O   UNL     1      10.560 -34.799 -17.244  1.00  0.00    -0.504 OA
ATOM     19  H   UNL     1       9.969 -34.251 -16.630  1.00  0.00     0.293 HD
ENDBRANCH  15  18
BRANCH  17  20
ATOM     20  O   UNL     1      10.437 -34.040 -19.962  1.00  0.00    -0.504 OA
ATOM     21  H   UNL     1      10.367 -33.758 -20.932  1.00  0.00     0.293 HD
ENDBRANCH  17  20
ENDBRANCH   1  12
BRANCH   2  22
ATOM     22  O   UNL     1      14.354 -30.308 -19.382  1.00  0.00    -0.502 OA
ATOM     23  H   UNL     1      13.814 -30.497 -18.547  1.00  0.00     0.293 HD
ENDBRANCH   2  22
BRANCH   6  24
ATOM     24  O   UNL     1      18.991 -29.829 -21.691  1.00  0.00    -0.507 OA
ATOM     25  H   UNL     1      18.394 -29.105 -21.309  1.00  0.00     0.293 HD
ENDBRANCH   6  24
BRANCH   8  26
ATOM     26  O   UNL     1      20.172 -34.465 -22.429  1.00  0.00    -0.508 OA
ATOM     27  H   UNL     1      20.742 -34.289 -23.248  1.00  0.00     0.293 HD
ENDBRANCH   8  26
TORSDOF 6
ENDMDL
MODEL 2
REMARK VINA RESULT:    -7.070      1.547      7.265
REMARK INTER + INTRA:          -8.830
REMARK INTER:                  -8.539
REMARK INTRA:                  -0.291
REMARK UNBOUND:                -0.313
REMARK SMILES O=c1c(O)c(-c2ccc(O)c(O)c2)oc2cc(O)cc(O)c12
REMARK SMILES IDX 5 1 3 2 2 3 1 4 22 5 20 6 19 7 17 8 16 9 15 10 14 11 6 12
REMARK SMILES IDX 7 13 8 14 9 15 13 16 11 17 10 18 12 20 4 22 21 24 18 26
REMARK H PARENT 10 19 12 21 4 23 21 25 18 27
REMARK Flexibility Score: inf
ROOT
ATOM      1  C   UNL     1      14.400 -32.951 -19.638  1.00  0.00     0.180 A 
ATOM      2  C   UNL     1      14.362 -33.762 -18.487  1.00  0.00     0.208 A 
ATOM      3  C   UNL     1      13.118 -34.198 -18.004  1.00  0.00     0.238 A 
ATOM      4  O   UNL     1      13.071 -34.915 -16.968  1.00  0.00    -0.285 OA
ATOM      5  C   UNL     1      11.939 -33.836 -18.689  1.00  0.00     0.111 A 
ATOM      6  C   UNL     1      10.647 -34.237 -18.271  1.00  0.00     0.134 A 
ATOM      7  C   UNL     1       9.524 -33.843 -19.012  1.00  0.00     0.093 A 
ATOM      8  C   UNL     1       9.667 -33.057 -20.162  1.00  0.00     0.123 A 
ATOM      9  C   UNL     1      10.938 -32.659 -20.576  1.00  0.00     0.094 A 
ATOM     10  C   UNL     1      12.072 -33.040 -19.851  1.00  0.00     0.146 A 
ATOM     11  O   UNL     1      13.268 -32.643 -20.265  1.00  0.00    -0.452 OA
ENDROOT
BRANCH   1  12
ATOM     12  C   UNL     1      15.670 -32.437 -20.197  1.00  0.00     0.025 A 
ATOM     13  C   UNL     1      16.076 -31.127 -19.899  1.00  0.00     0.016 A 
ATOM     14  C   UNL     1      17.281 -30.628 -20.399  1.00  0.00     0.051 A 
ATOM     15  C   UNL     1      18.107 -31.434 -21.189  1.00  0.00     0.157 A 
ATOM     16  C   UNL     1      16.512 -33.254 -20.975  1.00  0.00     0.062 A 
ATOM     17  C   UNL     1      17.724 -32.755 -21.476  1.00  0.00     0.158 A 
BRANCH  15  18
ATOM     18  O   UNL     1      19.303 -30.908 -21.675  1.00  0.00    -0.504 OA
ATOM     19  H   UNL     1      19.459 -29.910 -21.755  1.00  0.00     0.293 HD
ENDBRANCH  15  18
BRANCH  17  20
ATOM     20  O   UNL     1      18.549 -33.568 -22.251  1.00  0.00    -0.504 OA
ATOM     21  H   UNL     1      18.201 -34.412 -22.689  1.00  0.00     0.293 HD
ENDBRANCH  17  20
ENDBRANCH   1  12
BRANCH   2  22
ATOM     22  O   UNL     1      15.548 -34.148 -17.856  1.00  0.00    -0.502 OA
ATOM     23  H   UNL     1      15.971 -35.055 -18.007  1.00  0.00     0.293 HD
ENDBRANCH   2  22
BRANCH   6  24
ATOM     24  O   UNL     1      10.472 -35.022 -17.130  1.00  0.00    -0.507 OA
ATOM     25  H   UNL     1      10.207 -34.617 -16.241  1.00  0.00     0.293 HD
ENDBRANCH   6  24
BRANCH   8  26
ATOM     26  O   UNL     1       8.551 -32.666 -20.898  1.00  0.00    -0.508 OA
ATOM     27  H   UNL     1       7.667 -32.456 -20.449  1.00  0.00     0.293 HD
ENDBRANCH   8  26
TORSDOF 6
ENDMDL
MODEL 3
REMARK VINA RESULT:    -6.972      1.669      6.931
REMARK INTER + INTRA:          -8.712
REMARK INTER:                  -8.886
REMARK INTRA:                   0.174
REMARK UNBOUND:                -0.313
REMARK SMILES O=c1c(O)c(-c2ccc(O)c(O)c2)oc2cc(O)cc(O)c12
REMARK SMILES IDX 5 1 3 2 2 3 1 4 22 5 20 6 19 7 17 8 16 9 15 10 14 11 6 12
REMARK SMILES IDX 7 13 8 14 9 15 13 16 11 17 10 18 12 20 4 22 21 24 18 26
REMARK H PARENT 10 19 12 21 4 23 21 25 18 27
REMARK Flexibility Score: inf
ROOT
ATOM      1  C   UNL     1      14.234 -32.109 -20.082  1.00  0.00     0.180 A 
ATOM      2  C   UNL     1      13.319 -31.038 -20.073  1.00  0.00     0.208 A 
ATOM      3  C   UNL     1      11.981 -31.290 -19.732  1.00  0.00     0.238 A 
ATOM      4  O   UNL     1      11.152 -30.341 -19.731  1.00  0.00    -0.285 OA
ATOM      5  C   UNL     1      11.585 -32.599 -19.388  1.00  0.00     0.111 A 
ATOM      6  C   UNL     1      10.258 -32.937 -19.029  1.00  0.00     0.134 A 
ATOM      7  C   UNL     1       9.945 -34.261 -18.689  1.00  0.00     0.093 A 
ATOM      8  C   UNL     1      10.933 -35.254 -18.702  1.00  0.00     0.123 A 
ATOM      9  C   UNL     1      12.242 -34.925 -19.057  1.00  0.00     0.094 A 
ATOM     10  C   UNL     1      12.574 -33.611 -19.399  1.00  0.00     0.146 A 
ATOM     11  O   UNL     1      13.826 -33.328 -19.737  1.00  0.00    -0.452 OA
ENDROOT
BRANCH   1  12
ATOM     12  C   UNL     1      15.656 -31.927 -20.448  1.00  0.00     0.025 A 
ATOM     13  C   UNL     1      16.293 -32.888 -21.249  1.00  0.00     0.016 A 
ATOM     14  C   UNL     1      17.629 -32.725 -21.623  1.00  0.00     0.051 A 
ATOM     15  C   UNL     1      18.344 -31.594 -21.218  1.00  0.00     0.157 A 
ATOM     16  C   UNL     1      16.372 -30.779 -20.058  1.00  0.00     0.062 A 
ATOM     17  C   UNL     1      17.712 -30.613 -20.435  1.00  0.00     0.158 A 
BRANCH  15  18
ATOM     18  O   UNL     1      19.677 -31.460 -21.606  1.00  0.00    -0.504 OA
ATOM     19  H   UNL     1      20.415 -32.019 -21.196  1.00  0.00     0.293 HD
ENDBRANCH  15  18
BRANCH  17  20
ATOM     20  O   UNL     1      18.416 -29.476 -20.039  1.00  0.00    -0.504 OA
ATOM     21  H   UNL     1      18.522 -28.678 -20.654  1.00  0.00     0.293 HD
ENDBRANCH  17  20
ENDBRANCH   1  12
BRANCH   2  22
ATOM     22  O   UNL     1      13.749 -29.741 -20.369  1.00  0.00    -0.502 OA
ATOM     23  H   UNL     1      13.205 -29.108 -20.944  1.00  0.00     0.293 HD
ENDBRANCH   2  22
BRANCH   6  24
ATOM     24  O   UNL     1       9.251 -31.970 -19.005  1.00  0.00    -0.507 OA
ATOM     25  H   UNL     1       8.886 -31.560 -19.856  1.00  0.00     0.293 HD
ENDBRANCH   6  24
BRANCH   8  26
ATOM     26  O   UNL     1      10.622 -36.569 -18.365  1.00  0.00    -0.508 OA
ATOM     27  H   UNL     1      10.242 -37.215 -19.047  1.00  0.00     0.293 HD
ENDBRANCH   8  26
TORSDOF 6
ENDMDL
MODEL 4
REMARK VINA RESULT:    -6.933      3.123      7.538
REMARK INTER + INTRA:          -8.665
REMARK INTER:                  -8.426
REMARK INTRA:                  -0.238
REMARK UNBOUND:                -0.313
REMARK SMILES O=c1c(O)c(-c2ccc(O)c(O)c2)oc2cc(O)cc(O)c12
REMARK SMILES IDX 5 1 3 2 2 3 1 4 22 5 20 6 19 7 17 8 16 9 15 10 14 11 6 12
REMARK SMILES IDX 7 13 8 14 9 15 13 16 11 17 10 18 12 20 4 22 21 24 18 26
REMARK H PARENT 10 19 12 21 4 23 21 25 18 27
REMARK Flexibility Score: inf
ROOT
ATOM      1  C   UNL     1      17.412 -29.296 -21.435  1.00  0.00     0.180 A 
ATOM      2  C   UNL     1      17.648 -29.255 -20.047  1.00  0.00     0.208 A 
ATOM      3  C   UNL     1      17.056 -30.230 -19.229  1.00  0.00     0.238 A 
ATOM      4  O   UNL     1      17.252 -30.196 -17.984  1.00  0.00    -0.285 OA
ATOM      5  C   UNL     1      16.259 -31.237 -19.811  1.00  0.00     0.111 A 
ATOM      6  C   UNL     1      15.630 -32.258 -19.058  1.00  0.00     0.134 A 
ATOM      7  C   UNL     1      14.859 -33.230 -19.712  1.00  0.00     0.093 A 
ATOM      8  C   UNL     1      14.706 -33.201 -21.103  1.00  0.00     0.123 A 
ATOM      9  C   UNL     1      15.323 -32.196 -21.849  1.00  0.00     0.094 A 
ATOM     10  C   UNL     1      16.095 -31.216 -21.216  1.00  0.00     0.146 A 
ATOM     11  O   UNL     1      16.666 -30.269 -21.950  1.00  0.00    -0.452 OA
ENDROOT
BRANCH   1  12
ATOM     12  C   UNL     1      17.986 -28.293 -22.361  1.00  0.00     0.025 A 
ATOM     13  C   UNL     1      17.157 -27.297 -22.900  1.00  0.00     0.016 A 
ATOM     14  C   UNL     1      17.681 -26.328 -23.759  1.00  0.00     0.051 A 
ATOM     15  C   UNL     1      19.043 -26.329 -24.081  1.00  0.00     0.157 A 
ATOM     16  C   UNL     1      19.359 -28.281 -22.669  1.00  0.00     0.062 A 
ATOM     17  C   UNL     1      19.887 -27.308 -23.530  1.00  0.00     0.158 A 
BRANCH  15  18
ATOM     18  O   UNL     1      19.536 -25.351 -24.942  1.00  0.00    -0.504 OA
ATOM     19  H   UNL     1      19.360 -25.374 -25.939  1.00  0.00     0.293 HD
ENDBRANCH  15  18
BRANCH  17  20
ATOM     20  O   UNL     1      21.248 -27.307 -23.835  1.00  0.00    -0.504 OA
ATOM     21  H   UNL     1      21.675 -28.063 -24.355  1.00  0.00     0.293 HD
ENDBRANCH  17  20
ENDBRANCH   1  12
BRANCH   2  22
ATOM     22  O   UNL     1      18.484 -28.276 -19.502  1.00  0.00    -0.502 OA
ATOM     23  H   UNL     1      19.301 -27.929 -19.989  1.00  0.00     0.293 HD
ENDBRANCH   2  22
BRANCH   6  24
ATOM     24  O   UNL     1      15.765 -32.314 -17.670  1.00  0.00    -0.507 OA
ATOM     25  H   UNL     1      16.664 -32.467 -17.228  1.00  0.00     0.293 HD
ENDBRANCH   6  24
BRANCH   8  26
ATOM     26  O   UNL     1      13.941 -34.167 -21.753  1.00  0.00    -0.508 OA
ATOM     27  H   UNL     1      13.099 -34.546 -21.335  1.00  0.00     0.293 HD
ENDBRANCH   8  26
TORSDOF 6
ENDMDL
MODEL 5
REMARK VINA RESULT:    -6.722      1.807      3.485
REMARK INTER + INTRA:          -8.410
REMARK INTER:                  -8.137
REMARK INTRA:                  -0.273
REMARK UNBOUND:                -0.313
REMARK SMILES O=c1c(O)c(-c2ccc(O)c(O)c2)oc2cc(O)cc(O)c12
REMARK SMILES IDX 5 1 3 2 2 3 1 4 22 5 20 6 19 7 17 8 16 9 15 10 14 11 6 12
REMARK SMILES IDX 7 13 8 14 9 15 13 16 11 17 10 18 12 20 4 22 21 24 18 26
REMARK H PARENT 10 19 12 21 4 23 21 25 18 27
REMARK Flexibility Score: inf
ROOT
ATOM      1  C   UNL     1      16.278 -32.017 -20.410  1.00  0.00     0.180 A 
ATOM      2  C   UNL     1      17.370 -32.624 -21.059  1.00  0.00     0.208 A 
ATOM      3  C   UNL     1      18.298 -31.813 -21.731  1.00  0.00     0.238 A 
ATOM      4  O   UNL     1      19.273 -32.347 -22.325  1.00  0.00    -0.285 OA
ATOM      5  C   UNL     1      18.130 -30.413 -21.726  1.00  0.00     0.111 A 
ATOM      6  C   UNL     1      19.021 -29.524 -22.376  1.00  0.00     0.134 A 
ATOM      7  C   UNL     1      18.791 -28.142 -22.317  1.00  0.00     0.093 A 
ATOM      8  C   UNL     1      17.688 -27.632 -21.622  1.00  0.00     0.123 A 
ATOM      9  C   UNL     1      16.807 -28.504 -20.981  1.00  0.00     0.094 A 
ATOM     10  C   UNL     1      17.018 -29.885 -21.029  1.00  0.00     0.146 A 
ATOM     11  O   UNL     1      16.161 -30.692 -20.414  1.00  0.00    -0.452 OA
ENDROOT
BRANCH   1  12
ATOM     12  C   UNL     1      15.248 -32.805 -19.696  1.00  0.00     0.025 A 
ATOM     13  C   UNL     1      15.528 -33.310 -18.417  1.00  0.00     0.016 A 
ATOM     14  C   UNL     1      14.564 -34.039 -17.716  1.00  0.00     0.051 A 
ATOM     15  C   UNL     1      13.301 -34.262 -18.276  1.00  0.00     0.157 A 
ATOM     16  C   UNL     1      13.971 -33.013 -20.249  1.00  0.00     0.062 A 
ATOM     17  C   UNL     1      13.001 -33.743 -19.547  1.00  0.00     0.158 A 
BRANCH  15  18
ATOM     18  O   UNL     1      12.361 -34.995 -17.554  1.00  0.00    -0.504 OA
ATOM     19  H   UNL     1      12.360 -35.021 -16.542  1.00  0.00     0.293 HD
ENDBRANCH  15  18
BRANCH  17  20
ATOM     20  O   UNL     1      11.740 -33.949 -20.104  1.00  0.00    -0.504 OA
ATOM     21  H   UNL     1      11.279 -33.233 -20.652  1.00  0.00     0.293 HD
ENDBRANCH  17  20
ENDBRANCH   1  12
BRANCH   2  22
ATOM     22  O   UNL     1      17.540 -34.011 -21.006  1.00  0.00    -0.502 OA
ATOM     23  H   UNL     1      16.807 -34.657 -21.271  1.00  0.00     0.293 HD
ENDBRANCH   2  22
BRANCH   6  24
ATOM     24  O   UNL     1      20.130 -30.003 -23.075  1.00  0.00    -0.507 OA
ATOM     25  H   UNL     1      20.984 -29.464 -23.152  1.00  0.00     0.293 HD
ENDBRANCH   6  24
BRANCH   8  26
ATOM     26  O   UNL     1      17.460 -26.259 -21.563  1.00  0.00    -0.508 OA
ATOM     27  H   UNL     1      16.620 -25.879 -21.141  1.00  0.00     0.293 HD
ENDBRANCH   8  26
TORSDOF 6
ENDMDL
MODEL 6
REMARK VINA RESULT:    -6.717      8.489     12.364
REMARK INTER + INTRA:          -8.404
REMARK INTER:                  -8.190
REMARK INTRA:                  -0.214
REMARK UNBOUND:                -0.313
REMARK SMILES O=c1c(O)c(-c2ccc(O)c(O)c2)oc2cc(O)cc(O)c12
REMARK SMILES IDX 5 1 3 2 2 3 1 4 22 5 20 6 19 7 17 8 16 9 15 10 14 11 6 12
REMARK SMILES IDX 7 13 8 14 9 15 13 16 11 17 10 18 12 20 4 22 21 24 18 26
REMARK H PARENT 10 19 12 21 4 23 21 25 18 27
REMARK Flexibility Score: inf
ROOT
ATOM      1  C   UNL     1      13.254 -36.002 -10.317  1.00  0.00     0.180 A 
ATOM      2  C   UNL     1      13.253 -37.405 -10.184  1.00  0.00     0.208 A 
ATOM      3  C   UNL     1      13.682 -37.972  -8.974  1.00  0.00     0.238 A 
ATOM      4  O   UNL     1      13.695 -39.226  -8.848  1.00  0.00    -0.285 OA
ATOM      5  C   UNL     1      14.084 -37.132  -7.915  1.00  0.00     0.111 A 
ATOM      6  C   UNL     1      14.527 -37.624  -6.663  1.00  0.00     0.134 A 
ATOM      7  C   UNL     1      14.901 -36.723  -5.656  1.00  0.00     0.093 A 
ATOM      8  C   UNL     1      14.841 -35.341  -5.876  1.00  0.00     0.123 A 
ATOM      9  C   UNL     1      14.407 -34.853  -7.109  1.00  0.00     0.094 A 
ATOM     10  C   UNL     1      14.030 -35.734  -8.127  1.00  0.00     0.146 A 
ATOM     11  O   UNL     1      13.626 -35.242  -9.291  1.00  0.00    -0.452 OA
ENDROOT
BRANCH   1  12
ATOM     12  C   UNL     1      12.833 -35.330 -11.567  1.00  0.00     0.025 A 
ATOM     13  C   UNL     1      13.799 -34.720 -12.383  1.00  0.00     0.016 A 
ATOM     14  C   UNL     1      13.426 -34.097 -13.577  1.00  0.00     0.051 A 
ATOM     15  C   UNL     1      12.088 -34.089 -13.983  1.00  0.00     0.157 A 
ATOM     16  C   UNL     1      11.490 -35.339 -11.988  1.00  0.00     0.062 A 
ATOM     17  C   UNL     1      11.114 -34.717 -13.187  1.00  0.00     0.158 A 
BRANCH  15  18
ATOM     18  O   UNL     1      11.747 -33.459 -15.179  1.00  0.00    -0.504 OA
ATOM     19  H   UNL     1      12.424 -33.298 -15.915  1.00  0.00     0.293 HD
ENDBRANCH  15  18
BRANCH  17  20
ATOM     20  O   UNL     1       9.781 -34.725 -13.593  1.00  0.00    -0.504 OA
ATOM     21  H   UNL     1       9.525 -34.755 -14.573  1.00  0.00     0.293 HD
ENDBRANCH  17  20
ENDBRANCH   1  12
BRANCH   2  22
ATOM     22  O   UNL     1      12.802 -38.212 -11.232  1.00  0.00    -0.502 OA
ATOM     23  H   UNL     1      11.909 -38.689 -11.203  1.00  0.00     0.293 HD
ENDBRANCH   2  22
BRANCH   6  24
ATOM     24  O   UNL     1      14.595 -38.995  -6.413  1.00  0.00    -0.507 OA
ATOM     25  H   UNL     1      15.114 -39.368  -5.627  1.00  0.00     0.293 HD
ENDBRANCH   6  24
BRANCH   8  26
ATOM     26  O   UNL     1      15.213 -34.447  -4.875  1.00  0.00    -0.508 OA
ATOM     27  H   UNL     1      15.912 -33.731  -5.037  1.00  0.00     0.293 HD
ENDBRANCH   8  26
TORSDOF 6
ENDMDL
MODEL 7
REMARK VINA RESULT:    -6.663      1.837      7.183
REMARK INTER + INTRA:          -8.340
REMARK INTER:                  -8.170
REMARK INTRA:                  -0.170
REMARK UNBOUND:                -0.313
REMARK SMILES O=c1c(O)c(-c2ccc(O)c(O)c2)oc2cc(O)cc(O)c12
REMARK SMILES IDX 5 1 3 2 2 3 1 4 22 5 20 6 19 7 17 8 16 9 15 10 14 11 6 12
REMARK SMILES IDX 7 13 8 14 9 15 13 16 11 17 10 18 12 20 4 22 21 24 18 26
REMARK H PARENT 10 19 12 21 4 23 21 25 18 27
REMARK Flexibility Score: inf
ROOT
ATOM      1  C   UNL     1      14.894 -32.999 -19.052  1.00  0.00     0.180 A 
ATOM      2  C   UNL     1      13.769 -33.626 -19.621  1.00  0.00     0.208 A 
ATOM      3  C   UNL     1      12.751 -34.093 -18.774  1.00  0.00     0.238 A 
ATOM      4  O   UNL     1      11.744 -34.666 -19.272  1.00  0.00    -0.285 OA
ATOM      5  C   UNL     1      12.866 -33.909 -17.381  1.00  0.00     0.111 A 
ATOM      6  C   UNL     1      11.884 -34.347 -16.459  1.00  0.00     0.134 A 
ATOM      7  C   UNL     1      12.067 -34.117 -15.088  1.00  0.00     0.093 A 
ATOM      8  C   UNL     1      13.211 -33.459 -14.621  1.00  0.00     0.123 A 
ATOM      9  C   UNL     1      14.182 -33.027 -15.525  1.00  0.00     0.094 A 
ATOM     10  C   UNL     1      14.019 -33.247 -16.897  1.00  0.00     0.146 A 
ATOM     11  O   UNL     1      14.960 -32.830 -17.735  1.00  0.00    -0.452 OA
ENDROOT
BRANCH   1  12
ATOM     12  C   UNL     1      16.016 -32.497 -19.877  1.00  0.00     0.025 A 
ATOM     13  C   UNL     1      16.346 -31.133 -19.838  1.00  0.00     0.016 A 
ATOM     14  C   UNL     1      17.414 -30.641 -20.593  1.00  0.00     0.051 A 
ATOM     15  C   UNL     1      18.178 -31.505 -21.385  1.00  0.00     0.157 A 
ATOM     16  C   UNL     1      16.799 -33.368 -20.658  1.00  0.00     0.062 A 
ATOM     17  C   UNL     1      17.872 -32.876 -21.415  1.00  0.00     0.158 A 
BRANCH  15  18
ATOM     18  O   UNL     1      19.236 -30.984 -22.128  1.00  0.00    -0.504 OA
ATOM     19  H   UNL     1      19.144 -30.138 -22.677  1.00  0.00     0.293 HD
ENDBRANCH  15  18
BRANCH  17  20
ATOM     20  O   UNL     1      18.638 -33.745 -22.191  1.00  0.00    -0.504 OA
ATOM     21  H   UNL     1      19.650 -33.751 -22.137  1.00  0.00     0.293 HD
ENDBRANCH  17  20
ENDBRANCH   1  12
BRANCH   2  22
ATOM     22  O   UNL     1      13.657 -33.751 -21.009  1.00  0.00    -0.502 OA
ATOM     23  H   UNL     1      12.762 -33.750 -21.483  1.00  0.00     0.293 HD
ENDBRANCH   2  22
BRANCH   6  24
ATOM     24  O   UNL     1      10.732 -35.004 -16.894  1.00  0.00    -0.507 OA
ATOM     25  H   UNL     1       9.882 -35.008 -16.344  1.00  0.00     0.293 HD
ENDBRANCH   6  24
BRANCH   8  26
ATOM     26  O   UNL     1      13.392 -33.231 -13.259  1.00  0.00    -0.508 OA
ATOM     27  H   UNL     1      13.002 -33.853 -12.560  1.00  0.00     0.293 HD
ENDBRANCH   8  26
TORSDOF 6
ENDMDL
MODEL 8
REMARK VINA RESULT:    -6.614      3.422      5.509
REMARK INTER + INTRA:          -8.281
REMARK INTER:                  -7.968
REMARK INTRA:                  -0.313
REMARK UNBOUND:                -0.313
REMARK SMILES O=c1c(O)c(-c2ccc(O)c(O)c2)oc2cc(O)cc(O)c12
REMARK SMILES IDX 5 1 3 2 2 3 1 4 22 5 20 6 19 7 17 8 16 9 15 10 14 11 6 12
REMARK SMILES IDX 7 13 8 14 9 15 13 16 11 17 10 18 12 20 4 22 21 24 18 26
REMARK H PARENT 10 19 12 21 4 23 21 25 18 27
REMARK Flexibility Score: inf
ROOT
ATOM      1  C   UNL     1      17.256 -29.778 -21.808  1.00  0.00     0.180 A 
ATOM      2  C   UNL     1      18.629 -29.885 -22.103  1.00  0.00     0.208 A 
ATOM      3  C   UNL     1      19.253 -28.848 -22.814  1.00  0.00     0.238 A 
ATOM      4  O   UNL     1      20.480 -28.938 -23.093  1.00  0.00    -0.285 OA
ATOM      5  C   UNL     1      18.503 -27.718 -23.199  1.00  0.00     0.111 A 
ATOM      6  C   UNL     1      19.057 -26.628 -23.915  1.00  0.00     0.134 A 
ATOM      7  C   UNL     1      18.247 -25.535 -24.253  1.00  0.00     0.093 A 
ATOM      8  C   UNL     1      16.895 -25.510 -23.890  1.00  0.00     0.123 A 
ATOM      9  C   UNL     1      16.344 -26.582 -23.186  1.00  0.00     0.094 A 
ATOM     10  C   UNL     1      17.135 -27.682 -22.840  1.00  0.00     0.146 A 
ATOM     11  O   UNL     1      16.585 -28.690 -22.174  1.00  0.00    -0.452 OA
ENDROOT
BRANCH   1  12
ATOM     12  C   UNL     1      16.523 -30.837 -21.078  1.00  0.00     0.025 A 
ATOM     13  C   UNL     1      16.540 -30.848 -19.675  1.00  0.00     0.016 A 
ATOM     14  C   UNL     1      15.838 -31.826 -18.965  1.00  0.00     0.051 A 
ATOM     15  C   UNL     1      15.097 -32.798 -19.645  1.00  0.00     0.157 A 
ATOM     16  C   UNL     1      15.760 -31.803 -21.760  1.00  0.00     0.062 A 
ATOM     17  C   UNL     1      15.053 -32.784 -21.050  1.00  0.00     0.158 A 
BRANCH  15  18
ATOM     18  O   UNL     1      14.409 -33.762 -18.911  1.00  0.00    -0.504 OA
ATOM     19  H   UNL     1      13.408 -33.711 -18.760  1.00  0.00     0.293 HD
ENDBRANCH  15  18
BRANCH  17  20
ATOM     20  O   UNL     1      14.305 -33.741 -21.734  1.00  0.00    -0.504 OA
ATOM     21  H   UNL     1      13.368 -33.544 -22.064  1.00  0.00     0.293 HD
ENDBRANCH  17  20
ENDBRANCH   1  12
BRANCH   2  22
ATOM     22  O   UNL     1      19.361 -30.993 -21.666  1.00  0.00    -0.502 OA
ATOM     23  H   UNL     1      20.366 -31.057 -21.776  1.00  0.00     0.293 HD
ENDBRANCH   2  22
BRANCH   6  24
ATOM     24  O   UNL     1      20.402 -26.623 -24.289  1.00  0.00    -0.507 OA
ATOM     25  H   UNL     1      21.122 -27.008 -23.691  1.00  0.00     0.293 HD
ENDBRANCH   6  24
BRANCH   8  26
ATOM     26  O   UNL     1      16.090 -24.423 -24.226  1.00  0.00    -0.508 OA
ATOM     27  H   UNL     1      15.355 -24.502 -24.919  1.00  0.00     0.293 HD
ENDBRANCH   8  26
TORSDOF 6
ENDMDL
MODEL 9
REMARK VINA RESULT:    -6.613      1.779      3.351
REMARK INTER + INTRA:          -8.279
REMARK INTER:                  -7.947
REMARK INTRA:                  -0.333
REMARK UNBOUND:                -0.313
REMARK SMILES O=c1c(O)c(-c2ccc(O)c(O)c2)oc2cc(O)cc(O)c12
REMARK SMILES IDX 5 1 3 2 2 3 1 4 22 5 20 6 19 7 17 8 16 9 15 10 14 11 6 12
REMARK SMILES IDX 7 13 8 14 9 15 13 16 11 17 10 18 12 20 4 22 21 24 18 26
REMARK H PARENT 10 19 12 21 4 23 21 25 18 27
REMARK Flexibility Score: inf
ROOT
ATOM      1  C   UNL     1      14.688 -32.333 -19.530  1.00  0.00     0.180 A 
ATOM      2  C   UNL     1      15.570 -32.612 -20.592  1.00  0.00     0.208 A 
ATOM      3  C   UNL     1      16.703 -31.801 -20.764  1.00  0.00     0.238 A 
ATOM      4  O   UNL     1      17.494 -32.035 -21.718  1.00  0.00    -0.285 OA
ATOM      5  C   UNL     1      16.945 -30.742 -19.865  1.00  0.00     0.111 A 
ATOM      6  C   UNL     1      18.064 -29.881 -19.967  1.00  0.00     0.134 A 
ATOM      7  C   UNL     1      18.239 -28.855 -19.026  1.00  0.00     0.093 A 
ATOM      8  C   UNL     1      17.319 -28.674 -17.987  1.00  0.00     0.123 A 
ATOM      9  C   UNL     1      16.214 -29.520 -17.884  1.00  0.00     0.094 A 
ATOM     10  C   UNL     1      16.020 -30.549 -18.812  1.00  0.00     0.146 A 
ATOM     11  O   UNL     1      14.957 -31.335 -18.693  1.00  0.00    -0.452 OA
ENDROOT
BRANCH   1  12
ATOM     12  C   UNL     1      13.464 -33.131 -19.293  1.00  0.00     0.025 A 
ATOM     13  C   UNL     1      13.492 -34.180 -18.361  1.00  0.00     0.016 A 
ATOM     14  C   UNL     1      12.343 -34.933 -18.107  1.00  0.00     0.051 A 
ATOM     15  C   UNL     1      11.145 -34.640 -18.768  1.00  0.00     0.157 A 
ATOM     16  C   UNL     1      12.253 -32.824 -19.941  1.00  0.00     0.062 A 
ATOM     17  C   UNL     1      11.098 -33.578 -19.686  1.00  0.00     0.158 A 
BRANCH  15  18
ATOM     18  O   UNL     1      10.015 -35.409 -18.495  1.00  0.00    -0.504 OA
ATOM     19  H   UNL     1       9.612 -36.035 -19.182  1.00  0.00     0.293 HD
ENDBRANCH  15  18
BRANCH  17  20
ATOM     20  O   UNL     1       9.904 -33.271 -20.338  1.00  0.00    -0.504 OA
ATOM     21  H   UNL     1       9.809 -32.439 -20.907  1.00  0.00     0.293 HD
ENDBRANCH  17  20
ENDBRANCH   1  12
BRANCH   2  22
ATOM     22  O   UNL     1      15.334 -33.699 -21.438  1.00  0.00    -0.502 OA
ATOM     23  H   UNL     1      14.400 -33.978 -21.714  1.00  0.00     0.293 HD
ENDBRANCH   2  22
BRANCH   6  24
ATOM     24  O   UNL     1      19.000 -30.036 -20.990  1.00  0.00    -0.507 OA
ATOM     25  H   UNL     1      19.640 -29.294 -21.244  1.00  0.00     0.293 HD
ENDBRANCH   6  24
BRANCH   8  26
ATOM     26  O   UNL     1      17.493 -27.656 -17.054  1.00  0.00    -0.508 OA
ATOM     27  H   UNL     1      18.410 -27.274 -16.851  1.00  0.00     0.293 HD
ENDBRANCH   8  26
TORSDOF 6
ENDMDL
