MODEL 1
REMARK VINA RESULT:    -5.206      0.000      0.000
REMARK INTER + INTRA:         -10.969
REMARK INTER:                  -9.162
REMARK INTRA:                  -1.807
REMARK UNBOUND:                -1.807
REMARK SMILES CCCCCCCCCCCCCCC(=O)[O-]
REMARK SMILES IDX 9 1 10 2 11 3 12 4 13 5 14 6 15 7 16 8 17 9 8 10 7 11 6 12
REMARK SMILES IDX 5 13 4 14 3 15 2 16 1 17
REMARK H PARENT
REMARK Flexibility Score: inf
ROOT
ATOM      1  C   UNL     1      10.249 -25.507  21.878  1.00  0.00     0.000 C 
ENDROOT
BRANCH   1   2
ATOM      2  C   UNL     1      11.189 -24.857  20.840  1.00  0.00     0.000 C 
BRANCH   2   3
ATOM      3  C   UNL     1      12.177 -23.872  21.491  1.00  0.00     0.000 C 
BRANCH   3   4
ATOM      4  C   UNL     1      12.795 -22.897  20.478  1.00  0.00     0.000 C 
BRANCH   4   5
ATOM      5  C   UNL     1      14.290 -23.166  20.233  1.00  0.00     0.006 C 
BRANCH   5   6
ATOM      6  C   UNL     1      14.886 -24.113  21.281  1.00  0.00     0.053 C 
BRANCH   6   7
ATOM      7  C   UNL     1      15.085 -25.494  20.732  1.00  0.00     0.041 C 
ATOM      8  O   UNL     1      14.676 -25.780  19.576  1.00  0.00    -0.550 OA
ATOM      9  O   UNL     1      15.754 -26.451  21.483  1.00  0.00    -0.550 OA
ENDBRANCH   6   7
ENDBRANCH   5   6
ENDBRANCH   4   5
ENDBRANCH   3   4
ENDBRANCH   2   3
ENDBRANCH   1   2
BRANCH   1  10
ATOM     10  C   UNL     1       9.292 -24.510  22.552  1.00  0.00     0.000 C 
BRANCH  10  11
ATOM     11  C   UNL     1       9.387 -24.537  24.086  1.00  0.00    -0.000 C 
BRANCH  11  12
ATOM     12  C   UNL     1       9.436 -23.131  24.712  1.00  0.00    -0.000 C 
BRANCH  12  13
ATOM     13  C   UNL     1      10.836 -22.496  24.793  1.00  0.00    -0.000 C 
BRANCH  13  14
ATOM     14  C   UNL     1      11.896 -23.448  25.369  1.00  0.00    -0.000 C 
BRANCH  14  15
ATOM     15  C   UNL     1      13.301 -23.059  24.894  1.00  0.00    -0.000 C 
BRANCH  15  16
ATOM     16  C   UNL     1      13.280 -21.720  24.150  1.00  0.00    -0.003 C 
ATOM     17  C   UNL     1      14.691 -21.271  23.783  1.00  0.00     0.004 C 
ENDBRANCH  15  16
ENDBRANCH  14  15
ENDBRANCH  13  14
ENDBRANCH  12  13
ENDBRANCH  11  12
ENDBRANCH  10  11
ENDBRANCH   1  10
TORSDOF 13
ENDMDL
MODEL 2
REMARK VINA RESULT:    -5.111      1.154      3.504
REMARK INTER + INTRA:         -10.802
REMARK INTER:                  -9.519
REMARK INTRA:                  -1.282
REMARK UNBOUND:                -1.807
REMARK SMILES CCCCCCCCCCCCCCC(=O)[O-]
REMARK SMILES IDX 9 1 10 2 11 3 12 4 13 5 14 6 15 7 16 8 17 9 8 10 7 11 6 12
REMARK SMILES IDX 5 13 4 14 3 15 2 16 1 17
REMARK H PARENT
REMARK Flexibility Score: inf
ROOT
ATOM      1  C   UNL     1      13.880 -22.497  24.576  1.00  0.00     0.000 C 
ENDROOT
BRANCH   1   2
ATOM      2  C   UNL     1      13.698 -22.066  23.105  1.00  0.00     0.000 C 
BRANCH   2   3
ATOM      3  C   UNL     1      12.351 -22.537  22.527  1.00  0.00     0.000 C 
BRANCH   3   4
ATOM      4  C   UNL     1      12.520 -23.492  21.335  1.00  0.00     0.000 C 
BRANCH   4   5
ATOM      5  C   UNL     1      13.242 -22.832  20.147  1.00  0.00     0.006 C 
BRANCH   5   6
ATOM      6  C   UNL     1      14.697 -23.300  20.021  1.00  0.00     0.053 C 
BRANCH   6   7
ATOM      7  C   UNL     1      14.865 -24.717  20.481  1.00  0.00     0.041 C 
ATOM      8  O   UNL     1      14.633 -25.671  19.692  1.00  0.00    -0.550 OA
ATOM      9  O   UNL     1      15.313 -24.981  21.768  1.00  0.00    -0.550 OA
ENDBRANCH   6   7
ENDBRANCH   5   6
ENDBRANCH   4   5
ENDBRANCH   3   4
ENDBRANCH   2   3
ENDBRANCH   1   2
BRANCH   1  10
ATOM     10  C   UNL     1      12.793 -23.464  25.075  1.00  0.00     0.000 C 
BRANCH  10  11
ATOM     11  C   UNL     1      12.208 -23.054  26.436  1.00  0.00    -0.000 C 
BRANCH  11  12
ATOM     12  C   UNL     1      10.669 -23.022  26.446  1.00  0.00    -0.000 C 
BRANCH  12  13
ATOM     13  C   UNL     1       9.983 -24.395  26.573  1.00  0.00    -0.000 C 
BRANCH  13  14
ATOM     14  C   UNL     1       9.441 -24.922  25.237  1.00  0.00    -0.000 C 
BRANCH  14  15
ATOM     15  C   UNL     1       9.289 -23.786  24.218  1.00  0.00    -0.000 C 
BRANCH  15  16
ATOM     16  C   UNL     1       8.582 -24.275  22.950  1.00  0.00    -0.003 C 
ATOM     17  C   UNL     1       9.428 -25.306  22.209  1.00  0.00     0.004 C 
ENDBRANCH  15  16
ENDBRANCH  14  15
ENDBRANCH  13  14
ENDBRANCH  12  13
ENDBRANCH  11  12
ENDBRANCH  10  11
ENDBRANCH   1  10
TORSDOF 13
ENDMDL
MODEL 3
REMARK VINA RESULT:    -5.086      3.057      5.424
REMARK INTER + INTRA:         -10.757
REMARK INTER:                  -9.154
REMARK INTRA:                  -1.604
REMARK UNBOUND:                -1.807
REMARK SMILES CCCCCCCCCCCCCCC(=O)[O-]
REMARK SMILES IDX 9 1 10 2 11 3 12 4 13 5 14 6 15 7 16 8 17 9 8 10 7 11 6 12
REMARK SMILES IDX 5 13 4 14 3 15 2 16 1 17
REMARK H PARENT
REMARK Flexibility Score: inf
ROOT
ATOM      1  C   UNL     1      11.338 -24.272  21.992  1.00  0.00     0.000 C 
ENDROOT
BRANCH   1   2
ATOM      2  C   UNL     1       9.945 -24.927  21.876  1.00  0.00     0.000 C 
BRANCH   2   3
ATOM      3  C   UNL     1       9.179 -24.900  23.211  1.00  0.00     0.000 C 
BRANCH   3   4
ATOM      4  C   UNL     1       9.734 -23.855  24.190  1.00  0.00     0.000 C 
BRANCH   4   5
ATOM      5  C   UNL     1       9.660 -24.319  25.655  1.00  0.00     0.006 C 
BRANCH   5   6
ATOM      6  C   UNL     1      11.048 -24.430  26.299  1.00  0.00     0.053 C 
BRANCH   6   7
ATOM      7  C   UNL     1      11.403 -23.193  27.067  1.00  0.00     0.041 C 
ATOM      8  O   UNL     1      12.399 -23.190  27.837  1.00  0.00    -0.550 OA
ATOM      9  O   UNL     1      10.655 -22.035  26.903  1.00  0.00    -0.550 OA
ENDBRANCH   6   7
ENDBRANCH   5   6
ENDBRANCH   4   5
ENDBRANCH   3   4
ENDBRANCH   2   3
ENDBRANCH   1   2
BRANCH   1  10
ATOM     10  C   UNL     1      12.183 -24.387  20.713  1.00  0.00     0.000 C 
BRANCH  10  11
ATOM     11  C   UNL     1      12.731 -23.032  20.236  1.00  0.00    -0.000 C 
BRANCH  11  12
ATOM     12  C   UNL     1      14.265 -23.016  20.104  1.00  0.00    -0.000 C 
BRANCH  12  13
ATOM     13  C   UNL     1      15.012 -24.031  20.988  1.00  0.00    -0.000 C 
BRANCH  13  14
ATOM     14  C   UNL     1      15.634 -23.396  22.240  1.00  0.00    -0.000 C 
BRANCH  14  15
ATOM     15  C   UNL     1      14.608 -23.296  23.375  1.00  0.00    -0.000 C 
BRANCH  15  16
ATOM     16  C   UNL     1      14.337 -21.835  23.745  1.00  0.00    -0.003 C 
ATOM     17  C   UNL     1      12.876 -21.626  24.132  1.00  0.00     0.004 C 
ENDBRANCH  15  16
ENDBRANCH  14  15
ENDBRANCH  13  14
ENDBRANCH  12  13
ENDBRANCH  11  12
ENDBRANCH  10  11
ENDBRANCH   1  10
TORSDOF 13
ENDMDL
MODEL 4
REMARK VINA RESULT:    -5.079      2.960      6.150
REMARK INTER + INTRA:         -10.746
REMARK INTER:                  -9.017
REMARK INTRA:                  -1.729
REMARK UNBOUND:                -1.807
REMARK SMILES CCCCCCCCCCCCCCC(=O)[O-]
REMARK SMILES IDX 9 1 10 2 11 3 12 4 13 5 14 6 15 7 16 8 17 9 8 10 7 11 6 12
REMARK SMILES IDX 5 13 4 14 3 15 2 16 1 17
REMARK H PARENT
REMARK Flexibility Score: inf
ROOT
ATOM      1  C   UNL     1      15.332 -22.582  23.859  1.00  0.00     0.000 C 
ENDROOT
BRANCH   1   2
ATOM      2  C   UNL     1      14.252 -21.511  23.593  1.00  0.00     0.000 C 
BRANCH   2   3
ATOM      3  C   UNL     1      12.896 -21.890  24.217  1.00  0.00     0.000 C 
BRANCH   3   4
ATOM      4  C   UNL     1      13.002 -23.076  25.187  1.00  0.00     0.000 C 
BRANCH   4   5
ATOM      5  C   UNL     1      12.015 -22.969  26.362  1.00  0.00     0.006 C 
BRANCH   5   6
ATOM      6  C   UNL     1      11.402 -24.327  26.729  1.00  0.00     0.053 C 
BRANCH   6   7
ATOM      7  C   UNL     1      10.033 -24.495  26.142  1.00  0.00     0.041 C 
ATOM      8  O   UNL     1       9.361 -25.531  26.387  1.00  0.00    -0.550 OA
ATOM      9  O   UNL     1       9.488 -23.489  25.354  1.00  0.00    -0.550 OA
ENDBRANCH   6   7
ENDBRANCH   5   6
ENDBRANCH   4   5
ENDBRANCH   3   4
ENDBRANCH   2   3
ENDBRANCH   1   2
BRANCH   1  10
ATOM     10  C   UNL     1      15.890 -23.225  22.579  1.00  0.00     0.000 C 
BRANCH  10  11
ATOM     11  C   UNL     1      15.095 -24.465  22.139  1.00  0.00    -0.000 C 
BRANCH  11  12
ATOM     12  C   UNL     1      14.808 -24.492  20.626  1.00  0.00    -0.000 C 
BRANCH  12  13
ATOM     13  C   UNL     1      14.249 -23.182  20.040  1.00  0.00    -0.000 C 
BRANCH  13  14
ATOM     14  C   UNL     1      12.808 -22.891  20.485  1.00  0.00    -0.000 C 
BRANCH  14  15
ATOM     15  C   UNL     1      12.009 -24.190  20.645  1.00  0.00    -0.000 C 
BRANCH  15  16
ATOM     16  C   UNL     1      11.266 -24.217  21.985  1.00  0.00    -0.003 C 
ATOM     17  C   UNL     1      10.204 -25.311  22.005  1.00  0.00     0.004 C 
ENDBRANCH  15  16
ENDBRANCH  14  15
ENDBRANCH  13  14
ENDBRANCH  12  13
ENDBRANCH  11  12
ENDBRANCH  10  11
ENDBRANCH   1  10
TORSDOF 13
ENDMDL
MODEL 5
REMARK VINA RESULT:    -5.055      2.749      5.842
REMARK INTER + INTRA:         -10.703
REMARK INTER:                  -9.212
REMARK INTRA:                  -1.492
REMARK UNBOUND:                -1.807
REMARK SMILES CCCCCCCCCCCCCCC(=O)[O-]
REMARK SMILES IDX 9 1 10 2 11 3 12 4 13 5 14 6 15 7 16 8 17 9 8 10 7 11 6 12
REMARK SMILES IDX 5 13 4 14 3 15 2 16 1 17
REMARK H PARENT
REMARK Flexibility Score: inf
ROOT
ATOM      1  C   UNL     1      13.001 -23.362  24.883  1.00  0.00     0.000 C 
ENDROOT
BRANCH   1   2
ATOM      2  C   UNL     1      12.431 -23.399  26.318  1.00  0.00     0.000 C 
BRANCH   2   3
ATOM      3  C   UNL     1      11.199 -22.489  26.475  1.00  0.00     0.000 C 
BRANCH   3   4
ATOM      4  C   UNL     1       9.878 -23.239  26.255  1.00  0.00     0.000 C 
BRANCH   4   5
ATOM      5  C   UNL     1       9.340 -23.082  24.822  1.00  0.00     0.006 C 
BRANCH   5   6
ATOM      6  C   UNL     1       9.279 -24.422  24.076  1.00  0.00     0.053 C 
BRANCH   6   7
ATOM      7  C   UNL     1       8.406 -24.340  22.861  1.00  0.00     0.041 C 
ATOM      8  O   UNL     1       8.693 -25.003  21.829  1.00  0.00    -0.550 OA
ATOM      9  O   UNL     1       7.258 -23.559  22.881  1.00  0.00    -0.550 OA
ENDBRANCH   6   7
ENDBRANCH   5   6
ENDBRANCH   4   5
ENDBRANCH   3   4
ENDBRANCH   2   3
ENDBRANCH   1   2
BRANCH   1  10
ATOM     10  C   UNL     1      12.828 -22.002  24.187  1.00  0.00     0.000 C 
BRANCH  10  11
ATOM     11  C   UNL     1      12.397 -22.135  22.717  1.00  0.00    -0.000 C 
BRANCH  11  12
ATOM     12  C   UNL     1      12.207 -23.598  22.275  1.00  0.00    -0.000 C 
BRANCH  12  13
ATOM     13  C   UNL     1      12.292 -23.842  20.757  1.00  0.00    -0.000 C 
BRANCH  13  14
ATOM     14  C   UNL     1      13.248 -22.874  20.045  1.00  0.00    -0.000 C 
BRANCH  14  15
ATOM     15  C   UNL     1      14.690 -23.394  20.090  1.00  0.00    -0.000 C 
BRANCH  15  16
ATOM     16  C   UNL     1      14.722 -24.913  20.288  1.00  0.00    -0.003 C 
ATOM     17  C   UNL     1      15.371 -25.611  19.096  1.00  0.00     0.004 C 
ENDBRANCH  15  16
ENDBRANCH  14  15
ENDBRANCH  13  14
ENDBRANCH  12  13
ENDBRANCH  11  12
ENDBRANCH  10  11
ENDBRANCH   1  10
TORSDOF 13
ENDMDL
MODEL 6
REMARK VINA RESULT:    -4.952      2.844      4.841
REMARK INTER + INTRA:         -10.523
REMARK INTER:                  -8.966
REMARK INTRA:                  -1.556
REMARK UNBOUND:                -1.807
REMARK SMILES CCCCCCCCCCCCCCC(=O)[O-]
REMARK SMILES IDX 9 1 10 2 11 3 12 4 13 5 14 6 15 7 16 8 17 9 8 10 7 11 6 12
REMARK SMILES IDX 5 13 4 14 3 15 2 16 1 17
REMARK H PARENT
REMARK Flexibility Score: inf
ROOT
ATOM      1  C   UNL     1      14.576 -23.410  22.184  1.00  0.00     0.000 C 
ENDROOT
BRANCH   1   2
ATOM      2  C   UNL     1      14.138 -22.670  20.901  1.00  0.00     0.000 C 
BRANCH   2   3
ATOM      3  C   UNL     1      12.832 -23.242  20.321  1.00  0.00     0.000 C 
BRANCH   3   4
ATOM      4  C   UNL     1      12.465 -24.606  20.924  1.00  0.00     0.000 C 
BRANCH   4   5
ATOM      5  C   UNL     1      10.946 -24.788  21.093  1.00  0.00     0.006 C 
BRANCH   5   6
ATOM      6  C   UNL     1      10.479 -24.461  22.517  1.00  0.00     0.053 C 
BRANCH   6   7
ATOM      7  C   UNL     1       8.986 -24.506  22.635  1.00  0.00     0.041 C 
ATOM      8  O   UNL     1       8.315 -25.274  21.896  1.00  0.00    -0.550 OA
ATOM      9  O   UNL     1       8.340 -23.728  23.586  1.00  0.00    -0.550 OA
ENDBRANCH   6   7
ENDBRANCH   5   6
ENDBRANCH   4   5
ENDBRANCH   3   4
ENDBRANCH   2   3
ENDBRANCH   1   2
BRANCH   1  10
ATOM     10  C   UNL     1      14.449 -22.561  23.460  1.00  0.00     0.000 C 
BRANCH  10  11
ATOM     11  C   UNL     1      13.195 -22.900  24.279  1.00  0.00    -0.000 C 
BRANCH  11  12
ATOM     12  C   UNL     1      12.231 -21.708  24.428  1.00  0.00    -0.000 C 
BRANCH  12  13
ATOM     13  C   UNL     1      11.008 -21.960  25.329  1.00  0.00    -0.000 C 
BRANCH  13  14
ATOM     14  C   UNL     1      11.260 -23.030  26.400  1.00  0.00    -0.000 C 
BRANCH  14  15
ATOM     15  C   UNL     1       9.981 -23.821  26.701  1.00  0.00    -0.000 C 
BRANCH  15  16
ATOM     16  C   UNL     1      10.041 -25.221  26.082  1.00  0.00    -0.003 C 
ATOM     17  C   UNL     1       9.256 -26.228  26.918  1.00  0.00     0.004 C 
ENDBRANCH  15  16
ENDBRANCH  14  15
ENDBRANCH  13  14
ENDBRANCH  12  13
ENDBRANCH  11  12
ENDBRANCH  10  11
ENDBRANCH   1  10
TORSDOF 13
ENDMDL
MODEL 7
REMARK VINA RESULT:    -4.870      2.772      4.939
REMARK INTER + INTRA:         -10.378
REMARK INTER:                  -8.827
REMARK INTRA:                  -1.551
REMARK UNBOUND:                -1.807
REMARK SMILES CCCCCCCCCCCCCCC(=O)[O-]
REMARK SMILES IDX 9 1 10 2 11 3 12 4 13 5 14 6 15 7 16 8 17 9 8 10 7 11 6 12
REMARK SMILES IDX 5 13 4 14 3 15 2 16 1 17
REMARK H PARENT
REMARK Flexibility Score: inf
ROOT
ATOM      1  C   UNL     1      14.481 -23.544  19.961  1.00  0.00     0.000 C 
ENDROOT
BRANCH   1   2
ATOM      2  C   UNL     1      14.537 -25.047  20.312  1.00  0.00     0.000 C 
BRANCH   2   3
ATOM      3  C   UNL     1      13.136 -25.682  20.361  1.00  0.00     0.000 C 
BRANCH   3   4
ATOM      4  C   UNL     1      12.035 -24.662  20.689  1.00  0.00     0.000 C 
BRANCH   4   5
ATOM      5  C   UNL     1      10.890 -25.273  21.516  1.00  0.00     0.006 C 
BRANCH   5   6
ATOM      6  C   UNL     1      10.347 -24.293  22.565  1.00  0.00     0.053 C 
BRANCH   6   7
ATOM      7  C   UNL     1       8.857 -24.390  22.695  1.00  0.00     0.041 C 
ATOM      8  O   UNL     1       8.205 -25.161  21.943  1.00  0.00    -0.550 OA
ATOM      9  O   UNL     1       8.196 -23.656  23.670  1.00  0.00    -0.550 OA
ENDBRANCH   6   7
ENDBRANCH   5   6
ENDBRANCH   4   5
ENDBRANCH   3   4
ENDBRANCH   2   3
ENDBRANCH   1   2
BRANCH   1  10
ATOM     10  C   UNL     1      14.872 -22.623  21.128  1.00  0.00     0.000 C 
BRANCH  10  11
ATOM     11  C   UNL     1      15.420 -23.395  22.339  1.00  0.00    -0.000 C 
BRANCH  11  12
ATOM     12  C   UNL     1      14.982 -22.792  23.687  1.00  0.00    -0.000 C 
BRANCH  12  13
ATOM     13  C   UNL     1      13.517 -23.056  24.080  1.00  0.00    -0.000 C 
BRANCH  13  14
ATOM     14  C   UNL     1      12.682 -21.772  24.188  1.00  0.00    -0.000 C 
BRANCH  14  15
ATOM     15  C   UNL     1      11.408 -22.010  25.007  1.00  0.00    -0.000 C 
BRANCH  15  16
ATOM     16  C   UNL     1      11.661 -23.008  26.141  1.00  0.00    -0.003 C 
ATOM     17  C   UNL     1      10.400 -23.802  26.470  1.00  0.00     0.004 C 
ENDBRANCH  15  16
ENDBRANCH  14  15
ENDBRANCH  13  14
ENDBRANCH  12  13
ENDBRANCH  11  12
ENDBRANCH  10  11
ENDBRANCH   1  10
TORSDOF 13
ENDMDL
MODEL 8
REMARK VINA RESULT:    -4.831      2.591      5.411
REMARK INTER + INTRA:         -10.309
REMARK INTER:                  -9.025
REMARK INTRA:                  -1.284
REMARK UNBOUND:                -1.807
REMARK SMILES CCCCCCCCCCCCCCC(=O)[O-]
REMARK SMILES IDX 9 1 10 2 11 3 12 4 13 5 14 6 15 7 16 8 17 9 8 10 7 11 6 12
REMARK SMILES IDX 5 13 4 14 3 15 2 16 1 17
REMARK H PARENT
REMARK Flexibility Score: inf
ROOT
ATOM      1  C   UNL     1      10.042 -25.444  21.989  1.00  0.00     0.000 C 
ENDROOT
BRANCH   1   2
ATOM      2  C   UNL     1       8.813 -24.608  22.408  1.00  0.00     0.000 C 
BRANCH   2   3
ATOM      3  C   UNL     1       8.995 -23.966  23.795  1.00  0.00     0.000 C 
BRANCH   3   4
ATOM      4  C   UNL     1       9.563 -24.947  24.831  1.00  0.00     0.000 C 
BRANCH   4   5
ATOM      5  C   UNL     1       9.653 -24.334  26.240  1.00  0.00     0.006 C 
BRANCH   5   6
ATOM      6  C   UNL     1      10.439 -23.017  26.249  1.00  0.00     0.053 C 
BRANCH   6   7
ATOM      7  C   UNL     1      11.898 -23.244  26.502  1.00  0.00     0.041 C 
ATOM      8  O   UNL     1      12.711 -23.273  25.540  1.00  0.00    -0.550 OA
ATOM      9  O   UNL     1      12.364 -23.387  27.802  1.00  0.00    -0.550 OA
ENDBRANCH   6   7
ENDBRANCH   5   6
ENDBRANCH   4   5
ENDBRANCH   3   4
ENDBRANCH   2   3
ENDBRANCH   1   2
BRANCH   1  10
ATOM     10  C   UNL     1      11.094 -24.642  21.206  1.00  0.00     0.000 C 
BRANCH  10  11
ATOM     11  C   UNL     1      11.983 -23.777  22.114  1.00  0.00    -0.000 C 
BRANCH  11  12
ATOM     12  C   UNL     1      12.783 -22.714  21.340  1.00  0.00    -0.000 C 
BRANCH  12  13
ATOM     13  C   UNL     1      14.182 -22.404  21.903  1.00  0.00    -0.000 C 
BRANCH  13  14
ATOM     14  C   UNL     1      15.289 -23.258  21.268  1.00  0.00    -0.000 C 
BRANCH  14  15
ATOM     15  C   UNL     1      14.950 -23.605  19.814  1.00  0.00    -0.000 C 
BRANCH  15  16
ATOM     16  C   UNL     1      14.998 -25.119  19.584  1.00  0.00    -0.003 C 
ATOM     17  C   UNL     1      15.083 -25.876  20.906  1.00  0.00     0.004 C 
ENDBRANCH  15  16
ENDBRANCH  14  15
ENDBRANCH  13  14
ENDBRANCH  12  13
ENDBRANCH  11  12
ENDBRANCH  10  11
ENDBRANCH   1  10
TORSDOF 13
ENDMDL
MODEL 9
REMARK VINA RESULT:    -4.795      2.092      4.672
REMARK INTER + INTRA:         -10.245
REMARK INTER:                  -9.059
REMARK INTRA:                  -1.186
REMARK UNBOUND:                -1.807
REMARK SMILES CCCCCCCCCCCCCCC(=O)[O-]
REMARK SMILES IDX 9 1 10 2 11 3 12 4 13 5 14 6 15 7 16 8 17 9 8 10 7 11 6 12
REMARK SMILES IDX 5 13 4 14 3 15 2 16 1 17
REMARK H PARENT
REMARK Flexibility Score: inf
ROOT
ATOM      1  C   UNL     1       9.245 -24.545  23.765  1.00  0.00     0.000 C 
ENDROOT
BRANCH   1   2
ATOM      2  C   UNL     1       9.588 -24.495  25.270  1.00  0.00     0.000 C 
BRANCH   2   3
ATOM      3  C   UNL     1       9.973 -23.076  25.728  1.00  0.00     0.000 C 
BRANCH   3   4
ATOM      4  C   UNL     1      11.466 -22.949  26.067  1.00  0.00     0.000 C 
BRANCH   4   5
ATOM      5  C   UNL     1      12.268 -22.256  24.951  1.00  0.00     0.006 C 
BRANCH   5   6
ATOM      6  C   UNL     1      13.602 -22.963  24.673  1.00  0.00     0.053 C 
BRANCH   6   7
ATOM      7  C   UNL     1      14.653 -22.001  24.210  1.00  0.00     0.041 C 
ATOM      8  O   UNL     1      14.326 -20.861  23.786  1.00  0.00    -0.550 OA
ATOM      9  O   UNL     1      15.995 -22.350  24.282  1.00  0.00    -0.550 OA
ENDBRANCH   6   7
ENDBRANCH   5   6
ENDBRANCH   4   5
ENDBRANCH   3   4
ENDBRANCH   2   3
ENDBRANCH   1   2
BRANCH   1  10
ATOM     10  C   UNL     1      10.416 -24.145  22.853  1.00  0.00     0.000 C 
BRANCH  10  11
ATOM     11  C   UNL     1      10.557 -25.061  21.627  1.00  0.00    -0.000 C 
BRANCH  11  12
ATOM     12  C   UNL     1      11.721 -24.659  20.704  1.00  0.00    -0.000 C 
BRANCH  12  13
ATOM     13  C   UNL     1      12.491 -23.394  21.129  1.00  0.00    -0.000 C 
BRANCH  13  14
ATOM     14  C   UNL     1      13.491 -22.913  20.068  1.00  0.00    -0.000 C 
BRANCH  14  15
ATOM     15  C   UNL     1      14.694 -23.860  19.977  1.00  0.00    -0.000 C 
BRANCH  15  16
ATOM     16  C   UNL     1      15.064 -24.414  21.356  1.00  0.00    -0.003 C 
ATOM     17  C   UNL     1      15.443 -25.890  21.275  1.00  0.00     0.004 C 
ENDBRANCH  15  16
ENDBRANCH  14  15
ENDBRANCH  13  14
ENDBRANCH  12  13
ENDBRANCH  11  12
ENDBRANCH  10  11
ENDBRANCH   1  10
TORSDOF 13
ENDMDL
