MODEL 1
REMARK VINA RESULT:    -4.954      0.000      0.000
REMARK INTER + INTRA:          -5.637
REMARK INTER:                  -5.533
REMARK INTRA:                  -0.104
REMARK UNBOUND:                -0.104
REMARK SMILES O=C([O-])c1ccccc1C(=O)[O-]
REMARK SMILES IDX 4 1 9 2 5 3 8 4 6 5 7 6 2 7 1 8 3 9 10 10 11 11 12 12
REMARK H PARENT
REMARK Flexibility Score: inf
ROOT
ATOM      1  C   UNL     1      99.531  89.845  88.407  1.00  0.00     0.006 A 
ATOM      2  C   UNL     1      99.474  91.012  87.596  1.00  0.00     0.006 A 
ATOM      3  C   UNL     1      99.778  88.600  87.798  1.00  0.00     0.010 A 
ATOM      4  C   UNL     1      99.730  90.900  86.216  1.00  0.00     0.010 A 
ATOM      5  C   UNL     1     100.007  88.510  86.425  1.00  0.00     0.001 A 
ATOM      6  C   UNL     1      99.996  89.659  85.638  1.00  0.00     0.001 A 
ENDROOT
BRANCH   1   7
ATOM      7  C   UNL     1      99.411  89.882  89.883  1.00  0.00     0.072 C 
ATOM      8  O   UNL     1     100.381  89.555  90.617  1.00  0.00    -0.545 OA
ATOM      9  O   UNL     1      98.198  90.216  90.475  1.00  0.00    -0.545 OA
ENDBRANCH   1   7
BRANCH   2  10
ATOM     10  C   UNL     1      99.084  92.338  88.128  1.00  0.00     0.072 C 
ATOM     11  O   UNL     1      99.942  93.078  88.678  1.00  0.00    -0.545 OA
ATOM     12  O   UNL     1      97.787  92.812  87.969  1.00  0.00    -0.545 OA
ENDBRANCH   2  10
TORSDOF 2
ENDMDL
MODEL 2
REMARK VINA RESULT:    -4.949      0.099      2.881
REMARK INTER + INTRA:          -5.631
REMARK INTER:                  -5.517
REMARK INTRA:                  -0.114
REMARK UNBOUND:                -0.104
REMARK SMILES O=C([O-])c1ccccc1C(=O)[O-]
REMARK SMILES IDX 4 1 9 2 5 3 8 4 6 5 7 6 2 7 1 8 3 9 10 10 11 11 12 12
REMARK H PARENT
REMARK Flexibility Score: inf
ROOT
ATOM      1  C   UNL     1      99.487  90.931  87.558  1.00  0.00     0.006 A 
ATOM      2  C   UNL     1      99.515  89.781  88.395  1.00  0.00     0.006 A 
ATOM      3  C   UNL     1      99.743  90.782  86.182  1.00  0.00     0.010 A 
ATOM      4  C   UNL     1      99.732  88.517  87.814  1.00  0.00     0.010 A 
ATOM      5  C   UNL     1      99.978  89.521  85.632  1.00  0.00     0.001 A 
ATOM      6  C   UNL     1      99.961  88.391  86.444  1.00  0.00     0.001 A 
ENDROOT
BRANCH   1   7
ATOM      7  C   UNL     1      99.132  92.280  88.054  1.00  0.00     0.072 C 
ATOM      8  O   UNL     1      99.977  92.984  88.670  1.00  0.00    -0.545 OA
ATOM      9  O   UNL     1      97.835  92.759  87.905  1.00  0.00    -0.545 OA
ENDBRANCH   1   7
BRANCH   2  10
ATOM     10  C   UNL     1      99.395  89.860  89.869  1.00  0.00     0.072 C 
ATOM     11  O   UNL     1     100.403  89.665  90.599  1.00  0.00    -0.545 OA
ATOM     12  O   UNL     1      98.189  90.215  90.463  1.00  0.00    -0.545 OA
ENDBRANCH   2  10
TORSDOF 2
ENDMDL
MODEL 3
REMARK VINA RESULT:    -4.931      2.446      4.430
REMARK INTER + INTRA:          -5.611
REMARK INTER:                  -5.411
REMARK INTRA:                  -0.200
REMARK UNBOUND:                -0.104
REMARK SMILES O=C([O-])c1ccccc1C(=O)[O-]
REMARK SMILES IDX 4 1 9 2 5 3 8 4 6 5 7 6 2 7 1 8 3 9 10 10 11 11 12 12
REMARK H PARENT
REMARK Flexibility Score: inf
ROOT
ATOM      1  C   UNL     1      99.880  90.994  87.229  1.00  0.00     0.006 A 
ATOM      2  C   UNL     1      99.933  89.856  88.080  1.00  0.00     0.006 A 
ATOM      3  C   UNL     1      99.197  92.144  87.666  1.00  0.00     0.010 A 
ATOM      4  C   UNL     1      99.357  89.933  89.363  1.00  0.00     0.010 A 
ATOM      5  C   UNL     1      98.614  92.190  88.932  1.00  0.00     0.001 A 
ATOM      6  C   UNL     1      98.704  91.092  89.783  1.00  0.00     0.001 A 
ENDROOT
BRANCH   1   7
ATOM      7  C   UNL     1     100.573  91.055  85.921  1.00  0.00     0.072 C 
ATOM      8  O   UNL     1     100.016  90.627  84.875  1.00  0.00    -0.545 OA
ATOM      9  O   UNL     1     101.879  91.526  85.846  1.00  0.00    -0.545 OA
ENDBRANCH   1   7
BRANCH   2  10
ATOM     10  C   UNL     1     100.508  88.561  87.651  1.00  0.00     0.072 C 
ATOM     11  O   UNL     1     101.738  88.332  87.801  1.00  0.00    -0.545 OA
ATOM     12  O   UNL     1      99.692  87.558  87.139  1.00  0.00    -0.545 OA
ENDBRANCH   2  10
TORSDOF 2
ENDMDL
MODEL 4
REMARK VINA RESULT:    -4.913      2.459      3.414
REMARK INTER + INTRA:          -5.591
REMARK INTER:                  -5.373
REMARK INTRA:                  -0.218
REMARK UNBOUND:                -0.104
REMARK SMILES O=C([O-])c1ccccc1C(=O)[O-]
REMARK SMILES IDX 4 1 9 2 5 3 8 4 6 5 7 6 2 7 1 8 3 9 10 10 11 11 12 12
REMARK H PARENT
REMARK Flexibility Score: inf
ROOT
ATOM      1  C   UNL     1      99.960  89.821  88.092  1.00  0.00     0.006 A 
ATOM      2  C   UNL     1      99.887  90.953  87.233  1.00  0.00     0.006 A 
ATOM      3  C   UNL     1      99.389  89.899  89.376  1.00  0.00     0.010 A 
ATOM      4  C   UNL     1      99.190  92.097  87.666  1.00  0.00     0.010 A 
ATOM      5  C   UNL     1      98.723  91.051  89.792  1.00  0.00     0.001 A 
ATOM      6  C   UNL     1      98.612  92.143  88.935  1.00  0.00     0.001 A 
ENDROOT
BRANCH   1   7
ATOM      7  C   UNL     1     100.551  88.529  87.673  1.00  0.00     0.072 C 
ATOM      8  O   UNL     1     101.773  88.287  87.864  1.00  0.00    -0.545 OA
ATOM      9  O   UNL     1      99.774  87.592  87.000  1.00  0.00    -0.545 OA
ENDBRANCH   1   7
BRANCH   2  10
ATOM     10  C   UNL     1     100.577  91.010  85.923  1.00  0.00     0.072 C 
ATOM     11  O   UNL     1      99.977  90.651  84.875  1.00  0.00    -0.545 OA
ATOM     12  O   UNL     1     101.866  91.521  85.823  1.00  0.00    -0.545 OA
ENDBRANCH   2  10
TORSDOF 2
ENDMDL
MODEL 5
REMARK VINA RESULT:    -4.709      2.031      3.463
REMARK INTER + INTRA:          -5.364
REMARK INTER:                  -5.208
REMARK INTRA:                  -0.156
REMARK UNBOUND:                -0.104
REMARK SMILES O=C([O-])c1ccccc1C(=O)[O-]
REMARK SMILES IDX 4 1 9 2 5 3 8 4 6 5 7 6 2 7 1 8 3 9 10 10 11 11 12 12
REMARK H PARENT
REMARK Flexibility Score: inf
ROOT
ATOM      1  C   UNL     1      99.099  91.273  88.471  1.00  0.00     0.006 A 
ATOM      2  C   UNL     1      99.694  90.316  87.603  1.00  0.00     0.006 A 
ATOM      3  C   UNL     1      99.053  91.007  89.852  1.00  0.00     0.010 A 
ATOM      4  C   UNL     1     100.277  89.159  88.155  1.00  0.00     0.010 A 
ATOM      5  C   UNL     1      99.617  89.843  90.375  1.00  0.00     0.001 A 
ATOM      6  C   UNL     1     100.239  88.928  89.530  1.00  0.00     0.001 A 
ENDROOT
BRANCH   1   7
ATOM      7  C   UNL     1      98.584  92.578  87.999  1.00  0.00     0.072 C 
ATOM      8  O   UNL     1      99.170  93.651  88.305  1.00  0.00    -0.545 OA
ATOM      9  O   UNL     1      97.404  92.639  87.266  1.00  0.00    -0.545 OA
ENDBRANCH   1   7
BRANCH   2  10
ATOM     10  C   UNL     1      99.665  90.446  86.128  1.00  0.00     0.072 C 
ATOM     11  O   UNL     1     100.644  90.950  85.516  1.00  0.00    -0.545 OA
ATOM     12  O   UNL     1      98.591  89.955  85.394  1.00  0.00    -0.545 OA
ENDBRANCH   2  10
TORSDOF 2
ENDMDL
MODEL 6
REMARK VINA RESULT:    -4.694      1.855      3.360
REMARK INTER + INTRA:          -5.346
REMARK INTER:                  -5.188
REMARK INTRA:                  -0.158
REMARK UNBOUND:                -0.104
REMARK SMILES O=C([O-])c1ccccc1C(=O)[O-]
REMARK SMILES IDX 4 1 9 2 5 3 8 4 6 5 7 6 2 7 1 8 3 9 10 10 11 11 12 12
REMARK H PARENT
REMARK Flexibility Score: inf
ROOT
ATOM      1  C   UNL     1      99.418  90.725  89.037  1.00  0.00     0.006 A 
ATOM      2  C   UNL     1      99.628  90.012  87.824  1.00  0.00     0.006 A 
ATOM      3  C   UNL     1      99.264  92.123  88.991  1.00  0.00     0.010 A 
ATOM      4  C   UNL     1      99.611  90.717  86.605  1.00  0.00     0.010 A 
ATOM      5  C   UNL     1      99.273  92.803  87.773  1.00  0.00     0.001 A 
ATOM      6  C   UNL     1      99.434  92.100  86.582  1.00  0.00     0.001 A 
ENDROOT
BRANCH   1   7
ATOM      7  C   UNL     1      99.283  90.056  90.352  1.00  0.00     0.072 C 
ATOM      8  O   UNL     1      98.170  90.012  90.941  1.00  0.00    -0.545 OA
ATOM      9  O   UNL     1     100.403  89.526  90.983  1.00  0.00    -0.545 OA
ENDBRANCH   1   7
BRANCH   2  10
ATOM     10  C   UNL     1      99.936  88.565  87.789  1.00  0.00     0.072 C 
ATOM     11  O   UNL     1      99.049  87.735  87.453  1.00  0.00    -0.545 OA
ATOM     12  O   UNL     1     101.220  88.107  88.060  1.00  0.00    -0.545 OA
ENDBRANCH   2  10
TORSDOF 2
ENDMDL
MODEL 7
REMARK VINA RESULT:    -4.558     11.304     12.325
REMARK INTER + INTRA:          -5.194
REMARK INTER:                  -4.987
REMARK INTRA:                  -0.207
REMARK UNBOUND:                -0.104
REMARK SMILES O=C([O-])c1ccccc1C(=O)[O-]
REMARK SMILES IDX 4 1 9 2 5 3 8 4 6 5 7 6 2 7 1 8 3 9 10 10 11 11 12 12
REMARK H PARENT
REMARK Flexibility Score: inf
ROOT
ATOM      1  C   UNL     1     102.954  97.912  96.451  1.00  0.00     0.006 A 
ATOM      2  C   UNL     1     103.697  97.129  97.377  1.00  0.00     0.006 A 
ATOM      3  C   UNL     1     103.583  98.361  95.275  1.00  0.00     0.010 A 
ATOM      4  C   UNL     1     105.022  96.770  97.062  1.00  0.00     0.010 A 
ATOM      5  C   UNL     1     104.904  98.012  94.994  1.00  0.00     0.001 A 
ATOM      6  C   UNL     1     105.618  97.208  95.879  1.00  0.00     0.001 A 
ENDROOT
BRANCH   1   7
ATOM      7  C   UNL     1     101.517  98.223  96.630  1.00  0.00     0.072 C 
ATOM      8  O   UNL     1     101.153  99.313  97.145  1.00  0.00    -0.545 OA
ATOM      9  O   UNL     1     100.552  97.280  96.292  1.00  0.00    -0.545 OA
ENDBRANCH   1   7
BRANCH   2  10
ATOM     10  C   UNL     1     103.162  96.730  98.699  1.00  0.00     0.072 C 
ATOM     11  O   UNL     1     102.898  95.521  98.938  1.00  0.00    -0.545 OA
ATOM     12  O   UNL     1     103.009  97.668  99.713  1.00  0.00    -0.545 OA
ENDBRANCH   2  10
TORSDOF 2
ENDMDL
MODEL 8
REMARK VINA RESULT:    -4.552     12.000     12.629
REMARK INTER + INTRA:          -5.188
REMARK INTER:                  -5.000
REMARK INTRA:                  -0.187
REMARK UNBOUND:                -0.104
REMARK SMILES O=C([O-])c1ccccc1C(=O)[O-]
REMARK SMILES IDX 4 1 9 2 5 3 8 4 6 5 7 6 2 7 1 8 3 9 10 10 11 11 12 12
REMARK H PARENT
REMARK Flexibility Score: inf
ROOT
ATOM      1  C   UNL     1     103.339  97.787  97.086  1.00  0.00     0.006 A 
ATOM      2  C   UNL     1     104.490  96.952  97.075  1.00  0.00     0.006 A 
ATOM      3  C   UNL     1     102.217  97.396  97.840  1.00  0.00     0.010 A 
ATOM      4  C   UNL     1     104.499  95.789  97.870  1.00  0.00     0.010 A 
ATOM      5  C   UNL     1     102.240  96.228  98.602  1.00  0.00     0.001 A 
ATOM      6  C   UNL     1     103.383  95.433  98.628  1.00  0.00     0.001 A 
ENDROOT
BRANCH   1   7
ATOM      7  C   UNL     1     103.286  99.095  96.393  1.00  0.00     0.072 C 
ATOM      8  O   UNL     1     103.483 100.167  97.024  1.00  0.00    -0.545 OA
ATOM      9  O   UNL     1     102.951  99.156  95.045  1.00  0.00    -0.545 OA
ENDBRANCH   1   7
BRANCH   2  10
ATOM     10  C   UNL     1     105.660  97.211  96.206  1.00  0.00     0.072 C 
ATOM     11  O   UNL     1     106.768  97.535  96.713  1.00  0.00    -0.545 OA
ATOM     12  O   UNL     1     105.573  97.038  94.830  1.00  0.00    -0.545 OA
ENDBRANCH   2  10
TORSDOF 2
ENDMDL
MODEL 9
REMARK VINA RESULT:    -4.538     11.987     12.441
REMARK INTER + INTRA:          -5.172
REMARK INTER:                  -4.979
REMARK INTRA:                  -0.193
REMARK UNBOUND:                -0.104
REMARK SMILES O=C([O-])c1ccccc1C(=O)[O-]
REMARK SMILES IDX 4 1 9 2 5 3 8 4 6 5 7 6 2 7 1 8 3 9 10 10 11 11 12 12
REMARK H PARENT
REMARK Flexibility Score: inf
ROOT
ATOM      1  C   UNL     1     104.458  96.933  97.090  1.00  0.00     0.006 A 
ATOM      2  C   UNL     1     103.315  97.780  97.084  1.00  0.00     0.006 A 
ATOM      3  C   UNL     1     104.450  95.778  97.894  1.00  0.00     0.010 A 
ATOM      4  C   UNL     1     102.183  97.406  97.833  1.00  0.00     0.010 A 
ATOM      5  C   UNL     1     103.325  95.439  98.646  1.00  0.00     0.001 A 
ATOM      6  C   UNL     1     102.190  96.244  98.606  1.00  0.00     0.001 A 
ENDROOT
BRANCH   1   7
ATOM      7  C   UNL     1     105.640  97.170  96.230  1.00  0.00     0.072 C 
ATOM      8  O   UNL     1     106.721  97.590  96.722  1.00  0.00    -0.545 OA
ATOM      9  O   UNL     1     105.548  96.996  94.853  1.00  0.00    -0.545 OA
ENDBRANCH   1   7
BRANCH   2  10
ATOM     10  C   UNL     1     103.286  99.082  96.379  1.00  0.00     0.072 C 
ATOM     11  O   UNL     1     103.606 100.139  96.986  1.00  0.00    -0.545 OA
ATOM     12  O   UNL     1     102.972  99.148  95.027  1.00  0.00    -0.545 OA
ENDBRANCH   2  10
TORSDOF 2
ENDMDL
