MODEL 1
REMARK VINA RESULT:    -4.263      0.000      0.000
REMARK INTER + INTRA:          -4.932
REMARK INTER:                  -4.887
REMARK INTRA:                  -0.046
REMARK UNBOUND:                -0.046
REMARK SMILES O=C([O-])c1cc(O)c(O)c(O)c1
REMARK SMILES IDX 4 1 5 2 12 3 6 4 10 5 8 6 2 7 1 8 3 9 7 10 11 12 9 14
REMARK H PARENT 7 11 11 13 9 15
REMARK Flexibility Score: inf
ROOT
ATOM      1  C   UNL     1     141.557 153.523 120.366  1.00  0.00     0.005 A 
ATOM      2  C   UNL     1     140.226 153.085 120.455  1.00  0.00     0.060 A 
ATOM      3  C   UNL     1     142.573 152.577 120.141  1.00  0.00     0.060 A 
ATOM      4  C   UNL     1     139.912 151.726 120.322  1.00  0.00     0.162 A 
ATOM      5  C   UNL     1     142.264 151.217 120.008  1.00  0.00     0.162 A 
ATOM      6  C   UNL     1     140.929 150.790 120.098  1.00  0.00     0.200 A 
ENDROOT
BRANCH   1   7
ATOM      7  C   UNL     1     141.883 154.960 120.508  1.00  0.00     0.072 C 
ATOM      8  O   UNL     1     142.548 155.372 121.495  1.00  0.00    -0.545 OA
ATOM      9  O   UNL     1     141.459 155.876 119.551  1.00  0.00    -0.545 OA
ENDBRANCH   1   7
BRANCH   4  10
ATOM     10  O   UNL     1     138.588 151.297 120.412  1.00  0.00    -0.504 OA
ATOM     11  H   UNL     1     138.327 150.498 120.978  1.00  0.00     0.293 HD
ENDBRANCH   4  10
BRANCH   5  12
ATOM     12  O   UNL     1     143.280 150.288 119.784  1.00  0.00    -0.504 OA
ATOM     13  H   UNL     1     144.145 150.309 120.310  1.00  0.00     0.293 HD
ENDBRANCH   5  12
BRANCH   6  14
ATOM     14  O   UNL     1     140.596 149.441 119.968  1.00  0.00    -0.502 OA
ATOM     15  H   UNL     1     141.290 148.706 120.041  1.00  0.00     0.293 HD
ENDBRANCH   6  14
TORSDOF 4
ENDMDL
MODEL 2
REMARK VINA RESULT:    -4.263      1.450      1.956
REMARK INTER + INTRA:          -4.932
REMARK INTER:                  -4.882
REMARK INTRA:                  -0.050
REMARK UNBOUND:                -0.046
REMARK SMILES O=C([O-])c1cc(O)c(O)c(O)c1
REMARK SMILES IDX 4 1 5 2 12 3 6 4 10 5 8 6 2 7 1 8 3 9 7 10 11 12 9 14
REMARK H PARENT 7 11 11 13 9 15
REMARK Flexibility Score: inf
ROOT
ATOM      1  C   UNL     1     141.351 154.123 120.496  1.00  0.00     0.005 A 
ATOM      2  C   UNL     1     140.688 152.897 120.671  1.00  0.00     0.060 A 
ATOM      3  C   UNL     1     142.684 154.120 120.049  1.00  0.00     0.060 A 
ATOM      4  C   UNL     1     141.344 151.688 120.404  1.00  0.00     0.162 A 
ATOM      5  C   UNL     1     143.344 152.913 119.780  1.00  0.00     0.162 A 
ATOM      6  C   UNL     1     142.671 151.694 119.958  1.00  0.00     0.200 A 
ENDROOT
BRANCH   1   7
ATOM      7  C   UNL     1     140.654 155.397 120.781  1.00  0.00     0.072 C 
ATOM      8  O   UNL     1     139.842 155.484 121.740  1.00  0.00    -0.545 OA
ATOM      9  O   UNL     1     140.888 156.519 119.992  1.00  0.00    -0.545 OA
ENDBRANCH   1   7
BRANCH   4  10
ATOM     10  O   UNL     1     140.681 150.474 120.579  1.00  0.00    -0.504 OA
ATOM     11  H   UNL     1     140.378 150.162 121.495  1.00  0.00     0.293 HD
ENDBRANCH   4  10
BRANCH   5  12
ATOM     12  O   UNL     1     144.666 152.923 119.336  1.00  0.00    -0.504 OA
ATOM     13  H   UNL     1     145.403 152.455 119.850  1.00  0.00     0.293 HD
ENDBRANCH   5  12
BRANCH   6  14
ATOM     14  O   UNL     1     143.307 150.479 119.697  1.00  0.00    -0.502 OA
ATOM     15  H   UNL     1     143.840 150.321 118.850  1.00  0.00     0.293 HD
ENDBRANCH   6  14
TORSDOF 4
ENDMDL
MODEL 3
REMARK VINA RESULT:    -4.257      1.567      2.821
REMARK INTER + INTRA:          -4.925
REMARK INTER:                  -4.878
REMARK INTRA:                  -0.046
REMARK UNBOUND:                -0.046
REMARK SMILES O=C([O-])c1cc(O)c(O)c(O)c1
REMARK SMILES IDX 4 1 5 2 12 3 6 4 10 5 8 6 2 7 1 8 3 9 7 10 11 12 9 14
REMARK H PARENT 7 11 11 13 9 15
REMARK Flexibility Score: inf
ROOT
ATOM      1  C   UNL     1     139.976 152.842 120.698  1.00  0.00     0.005 A 
ATOM      2  C   UNL     1     139.819 151.478 120.404  1.00  0.00     0.060 A 
ATOM      3  C   UNL     1     141.265 153.402 120.672  1.00  0.00     0.060 A 
ATOM      4  C   UNL     1     140.931 150.684 120.090  1.00  0.00     0.162 A 
ATOM      5  C   UNL     1     142.380 152.613 120.358  1.00  0.00     0.162 A 
ATOM      6  C   UNL     1     142.212 151.250 120.066  1.00  0.00     0.200 A 
ENDROOT
BRANCH   1   7
ATOM      7  C   UNL     1     138.798 153.675 121.031  1.00  0.00     0.072 C 
ATOM      8  O   UNL     1     138.481 154.656 120.307  1.00  0.00    -0.545 OA
ATOM      9  O   UNL     1     138.024 153.384 122.149  1.00  0.00    -0.545 OA
ENDBRANCH   1   7
BRANCH   4  10
ATOM     10  O   UNL     1     140.770 149.330 119.799  1.00  0.00    -0.504 OA
ATOM     11  H   UNL     1     140.470 149.016 118.883  1.00  0.00     0.293 HD
ENDBRANCH   4  10
BRANCH   5  12
ATOM     12  O   UNL     1     143.653 153.180 120.335  1.00  0.00    -0.504 OA
ATOM     13  H   UNL     1     143.852 154.020 119.805  1.00  0.00     0.293 HD
ENDBRANCH   5  12
BRANCH   6  14
ATOM     14  O   UNL     1     143.306 150.444 119.750  1.00  0.00    -0.502 OA
ATOM     15  H   UNL     1     143.645 149.725 120.379  1.00  0.00     0.293 HD
ENDBRANCH   6  14
TORSDOF 4
ENDMDL
MODEL 4
REMARK VINA RESULT:    -4.247      1.440      2.834
REMARK INTER + INTRA:          -4.913
REMARK INTER:                  -4.863
REMARK INTRA:                  -0.050
REMARK UNBOUND:                -0.046
REMARK SMILES O=C([O-])c1cc(O)c(O)c(O)c1
REMARK SMILES IDX 4 1 5 2 12 3 6 4 10 5 8 6 2 7 1 8 3 9 7 10 11 12 9 14
REMARK H PARENT 7 11 11 13 9 15
REMARK Flexibility Score: inf
ROOT
ATOM      1  C   UNL     1     141.343 154.129 120.507  1.00  0.00     0.005 A 
ATOM      2  C   UNL     1     142.669 154.110 120.043  1.00  0.00     0.060 A 
ATOM      3  C   UNL     1     140.668 152.911 120.695  1.00  0.00     0.060 A 
ATOM      4  C   UNL     1     143.311 152.894 119.772  1.00  0.00     0.162 A 
ATOM      5  C   UNL     1     141.306 151.693 120.426  1.00  0.00     0.162 A 
ATOM      6  C   UNL     1     142.632 151.685 119.963  1.00  0.00     0.200 A 
ENDROOT
BRANCH   1   7
ATOM      7  C   UNL     1     140.669 155.416 120.790  1.00  0.00     0.072 C 
ATOM      8  O   UNL     1     139.842 155.513 121.735  1.00  0.00    -0.545 OA
ATOM      9  O   UNL     1     140.941 156.539 120.015  1.00  0.00    -0.545 OA
ENDBRANCH   1   7
BRANCH   4  10
ATOM     10  O   UNL     1     144.627 152.881 119.312  1.00  0.00    -0.504 OA
ATOM     11  H   UNL     1     145.237 153.682 119.425  1.00  0.00     0.293 HD
ENDBRANCH   4  10
BRANCH   5  12
ATOM     12  O   UNL     1     140.627 150.490 120.618  1.00  0.00    -0.504 OA
ATOM     13  H   UNL     1     139.824 150.425 121.232  1.00  0.00     0.293 HD
ENDBRANCH   5  12
BRANCH   6  14
ATOM     14  O   UNL     1     143.289 150.485 119.689  1.00  0.00    -0.502 OA
ATOM     15  H   UNL     1     142.806 149.594 119.687  1.00  0.00     0.293 HD
ENDBRANCH   6  14
TORSDOF 4
ENDMDL
MODEL 5
REMARK VINA RESULT:    -4.244      0.062      2.422
REMARK INTER + INTRA:          -4.911
REMARK INTER:                  -4.865
REMARK INTRA:                  -0.046
REMARK UNBOUND:                -0.046
REMARK SMILES O=C([O-])c1cc(O)c(O)c(O)c1
REMARK SMILES IDX 4 1 5 2 12 3 6 4 10 5 8 6 2 7 1 8 3 9 7 10 11 12 9 14
REMARK H PARENT 7 11 11 13 9 15
REMARK Flexibility Score: inf
ROOT
ATOM      1  C   UNL     1     141.514 153.498 120.382  1.00  0.00     0.005 A 
ATOM      2  C   UNL     1     142.544 152.573 120.148  1.00  0.00     0.060 A 
ATOM      3  C   UNL     1     140.190 153.035 120.480  1.00  0.00     0.060 A 
ATOM      4  C   UNL     1     142.260 151.208 120.013  1.00  0.00     0.162 A 
ATOM      5  C   UNL     1     139.900 151.670 120.346  1.00  0.00     0.162 A 
ATOM      6  C   UNL     1     140.938 150.754 120.112  1.00  0.00     0.200 A 
ENDROOT
BRANCH   1   7
ATOM      7  C   UNL     1     141.821 154.939 120.523  1.00  0.00     0.072 C 
ATOM      8  O   UNL     1     142.486 155.361 121.505  1.00  0.00    -0.545 OA
ATOM      9  O   UNL     1     141.377 155.849 119.569  1.00  0.00    -0.545 OA
ENDBRANCH   1   7
BRANCH   4  10
ATOM     10  O   UNL     1     143.287 150.294 119.781  1.00  0.00    -0.504 OA
ATOM     11  H   UNL     1     144.209 150.595 119.487  1.00  0.00     0.293 HD
ENDBRANCH   4  10
BRANCH   5  12
ATOM     12  O   UNL     1     138.584 151.222 120.445  1.00  0.00    -0.504 OA
ATOM     13  H   UNL     1     137.960 151.561 121.168  1.00  0.00     0.293 HD
ENDBRANCH   5  12
BRANCH   6  14
ATOM     14  O   UNL     1     140.675 149.390 119.976  1.00  0.00    -0.502 OA
ATOM     15  H   UNL     1     140.619 148.941 119.069  1.00  0.00     0.293 HD
ENDBRANCH   6  14
TORSDOF 4
ENDMDL
MODEL 6
REMARK VINA RESULT:    -4.235      1.633      3.090
REMARK INTER + INTRA:          -4.900
REMARK INTER:                  -4.855
REMARK INTRA:                  -0.045
REMARK UNBOUND:                -0.046
REMARK SMILES O=C([O-])c1cc(O)c(O)c(O)c1
REMARK SMILES IDX 4 1 5 2 12 3 6 4 10 5 8 6 2 7 1 8 3 9 7 10 11 12 9 14
REMARK H PARENT 7 11 11 13 9 15
REMARK Flexibility Score: inf
ROOT
ATOM      1  C   UNL     1     139.932 152.867 120.670  1.00  0.00     0.005 A 
ATOM      2  C   UNL     1     141.222 153.423 120.663  1.00  0.00     0.060 A 
ATOM      3  C   UNL     1     139.775 151.501 120.375  1.00  0.00     0.060 A 
ATOM      4  C   UNL     1     142.338 152.629 120.365  1.00  0.00     0.162 A 
ATOM      5  C   UNL     1     140.888 150.704 120.077  1.00  0.00     0.162 A 
ATOM      6  C   UNL     1     142.173 151.270 120.072  1.00  0.00     0.200 A 
ENDROOT
BRANCH   1   7
ATOM      7  C   UNL     1     138.756 153.710 120.985  1.00  0.00     0.072 C 
ATOM      8  O   UNL     1     138.283 153.742 122.151  1.00  0.00    -0.545 OA
ATOM      9  O   UNL     1     138.158 154.481 119.993  1.00  0.00    -0.545 OA
ENDBRANCH   1   7
BRANCH   4  10
ATOM     10  O   UNL     1     143.616 153.186 120.359  1.00  0.00    -0.504 OA
ATOM     11  H   UNL     1     144.044 153.523 119.504  1.00  0.00     0.293 HD
ENDBRANCH   4  10
BRANCH   5  12
ATOM     12  O   UNL     1     140.721 149.351 119.786  1.00  0.00    -0.504 OA
ATOM     13  H   UNL     1     140.507 148.674 120.508  1.00  0.00     0.293 HD
ENDBRANCH   5  12
BRANCH   6  14
ATOM     14  O   UNL     1     143.297 150.496 119.779  1.00  0.00    -0.502 OA
ATOM     15  H   UNL     1     144.239 150.857 119.876  1.00  0.00     0.293 HD
ENDBRANCH   6  14
TORSDOF 4
ENDMDL
MODEL 7
REMARK VINA RESULT:    -4.009      1.607      4.043
REMARK INTER + INTRA:          -4.641
REMARK INTER:                  -4.589
REMARK INTRA:                  -0.052
REMARK UNBOUND:                -0.046
REMARK SMILES O=C([O-])c1cc(O)c(O)c(O)c1
REMARK SMILES IDX 4 1 5 2 12 3 6 4 10 5 8 6 2 7 1 8 3 9 7 10 11 12 9 14
REMARK H PARENT 7 11 11 13 9 15
REMARK Flexibility Score: inf
ROOT
ATOM      1  C   UNL     1     140.193 153.295 121.003  1.00  0.00     0.005 A 
ATOM      2  C   UNL     1     140.898 152.361 120.227  1.00  0.00     0.060 A 
ATOM      3  C   UNL     1     140.885 154.389 121.551  1.00  0.00     0.060 A 
ATOM      4  C   UNL     1     142.273 152.515 120.001  1.00  0.00     0.162 A 
ATOM      5  C   UNL     1     142.259 154.547 121.328  1.00  0.00     0.162 A 
ATOM      6  C   UNL     1     142.955 153.607 120.551  1.00  0.00     0.200 A 
ENDROOT
BRANCH   1   7
ATOM      7  C   UNL     1     138.741 153.126 121.238  1.00  0.00     0.072 C 
ATOM      8  O   UNL     1     138.052 152.383 120.491  1.00  0.00    -0.545 OA
ATOM      9  O   UNL     1     138.118 153.788 122.291  1.00  0.00    -0.545 OA
ENDBRANCH   1   7
BRANCH   4  10
ATOM     10  O   UNL     1     142.969 151.585 119.230  1.00  0.00    -0.504 OA
ATOM     11  H   UNL     1     142.755 151.443 118.249  1.00  0.00     0.293 HD
ENDBRANCH   4  10
BRANCH   5  12
ATOM     12  O   UNL     1     142.936 155.636 121.877  1.00  0.00    -0.504 OA
ATOM     13  H   UNL     1     143.946 155.706 121.846  1.00  0.00     0.293 HD
ENDBRANCH   5  12
BRANCH   6  14
ATOM     14  O   UNL     1     144.324 153.744 120.314  1.00  0.00    -0.502 OA
ATOM     15  H   UNL     1     144.983 153.004 120.526  1.00  0.00     0.293 HD
ENDBRANCH   6  14
TORSDOF 4
ENDMDL
MODEL 8
REMARK VINA RESULT:    -4.005      1.232      3.886
REMARK INTER + INTRA:          -4.636
REMARK INTER:                  -4.585
REMARK INTRA:                  -0.051
REMARK UNBOUND:                -0.046
REMARK SMILES O=C([O-])c1cc(O)c(O)c(O)c1
REMARK SMILES IDX 4 1 5 2 12 3 6 4 10 5 8 6 2 7 1 8 3 9 7 10 11 12 9 14
REMARK H PARENT 7 11 11 13 9 15
REMARK Flexibility Score: inf
ROOT
ATOM      1  C   UNL     1     139.792 151.566 119.973  1.00  0.00     0.005 A 
ATOM      2  C   UNL     1     139.977 152.932 120.246  1.00  0.00     0.060 A 
ATOM      3  C   UNL     1     140.921 150.736 119.853  1.00  0.00     0.060 A 
ATOM      4  C   UNL     1     141.265 153.461 120.396  1.00  0.00     0.162 A 
ATOM      5  C   UNL     1     142.212 151.260 120.003  1.00  0.00     0.162 A 
ATOM      6  C   UNL     1     142.384 152.627 120.276  1.00  0.00     0.200 A 
ENDROOT
BRANCH   1   7
ATOM      7  C   UNL     1     138.429 151.013 119.814  1.00  0.00     0.072 C 
ATOM      8  O   UNL     1     138.210 149.786 119.993  1.00  0.00    -0.545 OA
ATOM      9  O   UNL     1     137.369 151.844 119.466  1.00  0.00    -0.545 OA
ENDBRANCH   1   7
BRANCH   4  10
ATOM     10  O   UNL     1     141.443 154.817 120.667  1.00  0.00    -0.504 OA
ATOM     11  H   UNL     1     141.407 155.514 119.931  1.00  0.00     0.293 HD
ENDBRANCH   4  10
BRANCH   5  12
ATOM     12  O   UNL     1     143.323 150.427 119.883  1.00  0.00    -0.504 OA
ATOM     13  H   UNL     1     144.257 150.750 120.107  1.00  0.00     0.293 HD
ENDBRANCH   5  12
BRANCH   6  14
ATOM     14  O   UNL     1     143.659 153.173 120.430  1.00  0.00    -0.502 OA
ATOM     15  H   UNL     1     144.305 153.261 119.653  1.00  0.00     0.293 HD
ENDBRANCH   6  14
TORSDOF 4
ENDMDL
MODEL 9
REMARK VINA RESULT:    -3.994      1.219      4.384
REMARK INTER + INTRA:          -4.624
REMARK INTER:                  -4.571
REMARK INTRA:                  -0.052
REMARK UNBOUND:                -0.046
REMARK SMILES O=C([O-])c1cc(O)c(O)c(O)c1
REMARK SMILES IDX 4 1 5 2 12 3 6 4 10 5 8 6 2 7 1 8 3 9 7 10 11 12 9 14
REMARK H PARENT 7 11 11 13 9 15
REMARK Flexibility Score: inf
ROOT
ATOM      1  C   UNL     1     139.737 151.549 120.167  1.00  0.00     0.005 A 
ATOM      2  C   UNL     1     140.869 150.745 119.956  1.00  0.00     0.060 A 
ATOM      3  C   UNL     1     139.915 152.910 120.473  1.00  0.00     0.060 A 
ATOM      4  C   UNL     1     142.157 151.288 120.048  1.00  0.00     0.162 A 
ATOM      5  C   UNL     1     141.201 153.458 120.566  1.00  0.00     0.162 A 
ATOM      6  C   UNL     1     142.325 152.645 120.353  1.00  0.00     0.200 A 
ENDROOT
BRANCH   1   7
ATOM      7  C   UNL     1     138.379 150.970 120.069  1.00  0.00     0.072 C 
ATOM      8  O   UNL     1     137.366 151.716 119.995  1.00  0.00    -0.545 OA
ATOM      9  O   UNL     1     138.202 149.590 120.056  1.00  0.00    -0.545 OA
ENDBRANCH   1   7
BRANCH   4  10
ATOM     10  O   UNL     1     143.277 150.485 119.838  1.00  0.00    -0.504 OA
ATOM     11  H   UNL     1     143.810 150.105 120.611  1.00  0.00     0.293 HD
ENDBRANCH   4  10
BRANCH   5  12
ATOM     12  O   UNL     1     141.365 154.810 120.870  1.00  0.00    -0.504 OA
ATOM     13  H   UNL     1     140.628 155.485 120.702  1.00  0.00     0.293 HD
ENDBRANCH   5  12
BRANCH   6  14
ATOM     14  O   UNL     1     143.616 153.168 120.440  1.00  0.00    -0.502 OA
ATOM     15  H   UNL     1     143.795 154.107 120.776  1.00  0.00     0.293 HD
ENDBRANCH   6  14
TORSDOF 4
ENDMDL
