MODEL 1
REMARK VINA RESULT:    -2.036      0.000      0.000
REMARK INTER + INTRA:          -4.908
REMARK INTER:                  -4.416
REMARK INTRA:                  -0.492
REMARK UNBOUND:                -0.492
REMARK SMILES CCCCCCCCCCCCCCCCCCCCCC(=O)[O-]
REMARK SMILES IDX 12 1 11 2 10 3 9 4 8 5 7 6 6 7 5 8 4 9 3 10 2 11 1 12 13 13
REMARK SMILES IDX 14 14 15 15 16 16 17 17 18 18 19 19 20 20 21 21 22 22 23 23
REMARK SMILES IDX 24 24
REMARK H PARENT
REMARK Flexibility Score: inf
ROOT
ATOM      1  C   UNL     1      -2.086  37.187  20.245  1.00  0.00     0.000 C 
ENDROOT
BRANCH   1   2
ATOM      2  C   UNL     1      -1.106  37.641  19.152  1.00  0.00     0.000 C 
BRANCH   2   3
ATOM      3  C   UNL     1      -1.739  37.629  17.749  1.00  0.00     0.000 C 
BRANCH   3   4
ATOM      4  C   UNL     1      -1.454  36.329  16.975  1.00  0.00    -0.000 C 
BRANCH   4   5
ATOM      5  C   UNL     1      -1.617  36.436  15.446  1.00  0.00    -0.000 C 
BRANCH   5   6
ATOM      6  C   UNL     1      -2.986  35.989  14.901  1.00  0.00    -0.000 C 
BRANCH   6   7
ATOM      7  C   UNL     1      -4.132  36.976  15.209  1.00  0.00    -0.000 C 
BRANCH   7   8
ATOM      8  C   UNL     1      -4.662  37.675  13.947  1.00  0.00    -0.000 C 
BRANCH   8   9
ATOM      9  C   UNL     1      -4.490  39.195  14.045  1.00  0.00    -0.000 C 
BRANCH   9  10
ATOM     10  C   UNL     1      -5.839  39.912  13.875  1.00  0.00    -0.000 C 
BRANCH  10  11
ATOM     11  C   UNL     1      -5.702  41.442  13.909  1.00  0.00    -0.003 C 
ATOM     12  C   UNL     1      -5.694  42.003  15.331  1.00  0.00     0.004 C 
ENDBRANCH  10  11
ENDBRANCH   9  10
ENDBRANCH   8   9
ENDBRANCH   7   8
ENDBRANCH   6   7
ENDBRANCH   5   6
ENDBRANCH   4   5
ENDBRANCH   3   4
ENDBRANCH   2   3
ENDBRANCH   1   2
BRANCH   1  13
ATOM     13  C   UNL     1      -3.384  36.606  19.668  1.00  0.00     0.000 C 
BRANCH  13  14
ATOM     14  C   UNL     1      -3.978  35.548  20.605  1.00  0.00     0.000 C 
BRANCH  14  15
ATOM     15  C   UNL     1      -5.510  35.552  20.538  1.00  0.00     0.000 C 
BRANCH  15  16
ATOM     16  C   UNL     1      -6.125  35.257  21.910  1.00  0.00     0.000 C 
BRANCH  16  17
ATOM     17  C   UNL     1      -5.048  34.796  22.905  1.00  0.00     0.000 C 
BRANCH  17  18
ATOM     18  C   UNL     1      -5.422  35.087  24.369  1.00  0.00     0.000 C 
BRANCH  18  19
ATOM     19  C   UNL     1      -5.625  36.578  24.709  1.00  0.00     0.000 C 
BRANCH  19  20
ATOM     20  C   UNL     1      -5.987  37.477  23.514  1.00  0.00     0.006 C 
BRANCH  20  21
ATOM     21  C   UNL     1      -5.616  38.948  23.740  1.00  0.00     0.053 C 
BRANCH  21  22
ATOM     22  C   UNL     1      -5.633  39.698  22.445  1.00  0.00     0.041 C 
ATOM     23  O   UNL     1      -5.845  40.938  22.434  1.00  0.00    -0.550 OA
ATOM     24  O   UNL     1      -5.442  39.021  21.246  1.00  0.00    -0.550 OA
ENDBRANCH  21  22
ENDBRANCH  20  21
ENDBRANCH  19  20
ENDBRANCH  18  19
ENDBRANCH  17  18
ENDBRANCH  16  17
ENDBRANCH  15  16
ENDBRANCH  14  15
ENDBRANCH  13  14
ENDBRANCH   1  13
TORSDOF 20
ENDMDL
MODEL 2
REMARK VINA RESULT:    -0.628      2.229      5.141
REMARK INTER + INTRA:          -1.854
REMARK INTER:                  -0.752
REMARK INTRA:                  -1.102
REMARK UNBOUND:                -0.492
REMARK SMILES CCCCCCCCCCCCCCCCCCCCCC(=O)[O-]
REMARK SMILES IDX 12 1 11 2 10 3 9 4 8 5 7 6 6 7 5 8 4 9 3 10 2 11 1 12 13 13
REMARK SMILES IDX 14 14 15 15 16 16 17 17 18 18 19 19 20 20 21 21 22 22 23 23
REMARK SMILES IDX 24 24
REMARK H PARENT
REMARK Flexibility Score: inf
ROOT
ATOM      1  C   UNL     1      -6.124  35.537  23.814  1.00  0.00     0.000 C 
ENDROOT
BRANCH   1   2
ATOM      2  C   UNL     1      -5.292  34.727  22.807  1.00  0.00     0.000 C 
BRANCH   2   3
ATOM      3  C   UNL     1      -6.091  34.353  21.546  1.00  0.00     0.000 C 
BRANCH   3   4
ATOM      4  C   UNL     1      -6.085  35.465  20.482  1.00  0.00    -0.000 C 
BRANCH   4   5
ATOM      5  C   UNL     1      -6.125  34.968  19.024  1.00  0.00    -0.000 C 
BRANCH   5   6
ATOM      6  C   UNL     1      -4.776  34.483  18.462  1.00  0.00    -0.000 C 
BRANCH   6   7
ATOM      7  C   UNL     1      -4.029  35.548  17.630  1.00  0.00    -0.000 C 
BRANCH   7   8
ATOM      8  C   UNL     1      -3.317  34.948  16.407  1.00  0.00    -0.000 C 
BRANCH   8   9
ATOM      9  C   UNL     1      -2.518  36.018  15.654  1.00  0.00    -0.000 C 
BRANCH   9  10
ATOM     10  C   UNL     1      -3.327  37.318  15.526  1.00  0.00    -0.000 C 
BRANCH  10  11
ATOM     11  C   UNL     1      -4.278  37.305  14.320  1.00  0.00    -0.003 C 
ATOM     12  C   UNL     1      -4.738  38.706  13.914  1.00  0.00     0.004 C 
ENDBRANCH  10  11
ENDBRANCH   9  10
ENDBRANCH   8   9
ENDBRANCH   7   8
ENDBRANCH   6   7
ENDBRANCH   5   6
ENDBRANCH   4   5
ENDBRANCH   3   4
ENDBRANCH   2   3
ENDBRANCH   1   2
BRANCH   1  13
ATOM     13  C   UNL     1      -5.275  36.098  24.964  1.00  0.00     0.000 C 
BRANCH  13  14
ATOM     14  C   UNL     1      -5.196  37.627  24.894  1.00  0.00     0.000 C 
BRANCH  14  15
ATOM     15  C   UNL     1      -6.010  38.166  23.711  1.00  0.00     0.000 C 
BRANCH  15  16
ATOM     16  C   UNL     1      -5.350  39.409  23.106  1.00  0.00     0.000 C 
BRANCH  16  17
ATOM     17  C   UNL     1      -5.777  39.598  21.642  1.00  0.00     0.000 C 
BRANCH  17  18
ATOM     18  C   UNL     1      -5.387  38.410  20.746  1.00  0.00     0.000 C 
BRANCH  18  19
ATOM     19  C   UNL     1      -3.953  37.879  20.949  1.00  0.00     0.000 C 
BRANCH  19  20
ATOM     20  C   UNL     1      -3.220  37.468  19.660  1.00  0.00     0.006 C 
BRANCH  20  21
ATOM     21  C   UNL     1      -1.726  37.205  19.882  1.00  0.00     0.053 C 
BRANCH  21  22
ATOM     22  C   UNL     1      -0.925  37.723  18.729  1.00  0.00     0.041 C 
ATOM     23  O   UNL     1      -0.571  38.930  18.695  1.00  0.00    -0.550 OA
ATOM     24  O   UNL     1      -0.594  36.878  17.676  1.00  0.00    -0.550 OA
ENDBRANCH  21  22
ENDBRANCH  20  21
ENDBRANCH  19  20
ENDBRANCH  18  19
ENDBRANCH  17  18
ENDBRANCH  16  17
ENDBRANCH  15  16
ENDBRANCH  14  15
ENDBRANCH  13  14
ENDBRANCH   1  13
TORSDOF 20
ENDMDL
MODEL 3
REMARK VINA RESULT:    -0.346      2.778      4.394
REMARK INTER + INTRA:          -1.243
REMARK INTER:                   0.680
REMARK INTRA:                  -1.923
REMARK UNBOUND:                -0.492
REMARK SMILES CCCCCCCCCCCCCCCCCCCCCC(=O)[O-]
REMARK SMILES IDX 12 1 11 2 10 3 9 4 8 5 7 6 6 7 5 8 4 9 3 10 2 11 1 12 13 13
REMARK SMILES IDX 14 14 15 15 16 16 17 17 18 18 19 19 20 20 21 21 22 22 23 23
REMARK SMILES IDX 24 24
REMARK H PARENT
REMARK Flexibility Score: inf
ROOT
ATOM      1  C   UNL     1      -3.642  34.710  17.544  1.00  0.00     0.000 C 
ENDROOT
BRANCH   1   2
ATOM      2  C   UNL     1      -3.767  35.575  16.280  1.00  0.00     0.000 C 
BRANCH   2   3
ATOM      3  C   UNL     1      -2.403  36.064  15.761  1.00  0.00     0.000 C 
BRANCH   3   4
ATOM      4  C   UNL     1      -1.583  36.800  16.836  1.00  0.00    -0.000 C 
BRANCH   4   5
ATOM      5  C   UNL     1      -2.405  37.708  17.771  1.00  0.00    -0.000 C 
BRANCH   5   6
ATOM      6  C   UNL     1      -2.091  37.559  19.271  1.00  0.00    -0.000 C 
BRANCH   6   7
ATOM      7  C   UNL     1      -3.345  37.506  20.169  1.00  0.00    -0.000 C 
BRANCH   7   8
ATOM      8  C   UNL     1      -4.635  37.826  19.398  1.00  0.00    -0.000 C 
BRANCH   8   9
ATOM      9  C   UNL     1      -5.806  38.069  20.358  1.00  0.00    -0.000 C 
BRANCH   9  10
ATOM     10  C   UNL     1      -5.809  39.519  20.864  1.00  0.00    -0.000 C 
BRANCH  10  11
ATOM     11  C   UNL     1      -5.701  39.611  22.394  1.00  0.00    -0.003 C 
ATOM     12  C   UNL     1      -5.895  41.035  22.917  1.00  0.00     0.004 C 
ENDBRANCH  10  11
ENDBRANCH   9  10
ENDBRANCH   8   9
ENDBRANCH   7   8
ENDBRANCH   6   7
ENDBRANCH   5   6
ENDBRANCH   4   5
ENDBRANCH   3   4
ENDBRANCH   2   3
ENDBRANCH   1   2
BRANCH   1  13
ATOM     13  C   UNL     1      -4.935  33.946  17.865  1.00  0.00     0.000 C 
BRANCH  13  14
ATOM     14  C   UNL     1      -5.840  34.761  18.796  1.00  0.00     0.000 C 
BRANCH  14  15
ATOM     15  C   UNL     1      -5.952  34.096  20.173  1.00  0.00     0.000 C 
BRANCH  15  16
ATOM     16  C   UNL     1      -6.082  35.143  21.284  1.00  0.00     0.000 C 
BRANCH  16  17
ATOM     17  C   UNL     1      -4.874  35.091  22.231  1.00  0.00     0.000 C 
BRANCH  17  18
ATOM     18  C   UNL     1      -5.156  34.301  23.521  1.00  0.00     0.000 C 
BRANCH  18  19
ATOM     19  C   UNL     1      -6.118  34.988  24.512  1.00  0.00     0.000 C 
BRANCH  19  20
ATOM     20  C   UNL     1      -5.958  36.514  24.626  1.00  0.00     0.006 C 
BRANCH  20  21
ATOM     21  C   UNL     1      -5.548  36.967  26.033  1.00  0.00     0.053 C 
BRANCH  21  22
ATOM     22  C   UNL     1      -4.274  37.751  25.980  1.00  0.00     0.041 C 
ATOM     23  O   UNL     1      -4.230  38.845  25.360  1.00  0.00    -0.550 OA
ATOM     24  O   UNL     1      -3.127  37.259  26.592  1.00  0.00    -0.550 OA
ENDBRANCH  21  22
ENDBRANCH  20  21
ENDBRANCH  19  20
ENDBRANCH  18  19
ENDBRANCH  17  18
ENDBRANCH  16  17
ENDBRANCH  15  16
ENDBRANCH  14  15
ENDBRANCH  13  14
ENDBRANCH   1  13
TORSDOF 20
ENDMDL
MODEL 4
REMARK VINA RESULT:    -0.317      3.107      7.013
REMARK INTER + INTRA:          -1.180
REMARK INTER:                   0.246
REMARK INTRA:                  -1.426
REMARK UNBOUND:                -0.492
REMARK SMILES CCCCCCCCCCCCCCCCCCCCCC(=O)[O-]
REMARK SMILES IDX 12 1 11 2 10 3 9 4 8 5 7 6 6 7 5 8 4 9 3 10 2 11 1 12 13 13
REMARK SMILES IDX 14 14 15 15 16 16 17 17 18 18 19 19 20 20 21 21 22 22 23 23
REMARK SMILES IDX 24 24
REMARK H PARENT
REMARK Flexibility Score: inf
ROOT
ATOM      1  C   UNL     1      -6.028  35.932  25.082  1.00  0.00     0.000 C 
ENDROOT
BRANCH   1   2
ATOM      2  C   UNL     1      -4.767  36.768  25.354  1.00  0.00     0.000 C 
BRANCH   2   3
ATOM      3  C   UNL     1      -5.014  38.278  25.192  1.00  0.00     0.000 C 
BRANCH   3   4
ATOM      4  C   UNL     1      -5.818  38.621  23.925  1.00  0.00    -0.000 C 
BRANCH   4   5
ATOM      5  C   UNL     1      -5.449  39.964  23.266  1.00  0.00    -0.000 C 
BRANCH   5   6
ATOM      6  C   UNL     1      -5.581  39.998  21.732  1.00  0.00    -0.000 C 
BRANCH   6   7
ATOM      7  C   UNL     1      -5.637  38.600  21.080  1.00  0.00    -0.000 C 
BRANCH   7   8
ATOM      8  C   UNL     1      -4.281  37.879  21.116  1.00  0.00    -0.000 C 
BRANCH   8   9
ATOM      9  C   UNL     1      -3.566  37.980  19.763  1.00  0.00    -0.000 C 
BRANCH   9  10
ATOM     10  C   UNL     1      -2.053  37.770  19.926  1.00  0.00    -0.000 C 
BRANCH  10  11
ATOM     11  C   UNL     1      -1.277  38.034  18.627  1.00  0.00    -0.003 C 
ATOM     12  C   UNL     1      -0.117  37.059  18.422  1.00  0.00     0.004 C 
ENDBRANCH  10  11
ENDBRANCH   9  10
ENDBRANCH   8   9
ENDBRANCH   7   8
ENDBRANCH   6   7
ENDBRANCH   5   6
ENDBRANCH   4   5
ENDBRANCH   3   4
ENDBRANCH   2   3
ENDBRANCH   1   2
BRANCH   1  13
ATOM     13  C   UNL     1      -6.123  35.468  23.621  1.00  0.00     0.000 C 
BRANCH  13  14
ATOM     14  C   UNL     1      -4.888  34.651  23.222  1.00  0.00     0.000 C 
BRANCH  14  15
ATOM     15  C   UNL     1      -4.652  34.716  21.708  1.00  0.00     0.000 C 
BRANCH  15  16
ATOM     16  C   UNL     1      -5.955  35.010  20.957  1.00  0.00     0.000 C 
BRANCH  16  17
ATOM     17  C   UNL     1      -5.822  34.653  19.469  1.00  0.00     0.000 C 
BRANCH  17  18
ATOM     18  C   UNL     1      -4.647  35.374  18.782  1.00  0.00     0.000 C 
BRANCH  18  19
ATOM     19  C   UNL     1      -4.352  34.916  17.339  1.00  0.00     0.000 C 
BRANCH  19  20
ATOM     20  C   UNL     1      -3.088  35.524  16.707  1.00  0.00     0.006 C 
BRANCH  20  21
ATOM     21  C   UNL     1      -3.305  36.953  16.195  1.00  0.00     0.053 C 
BRANCH  21  22
ATOM     22  C   UNL     1      -3.589  36.946  14.725  1.00  0.00     0.041 C 
ATOM     23  O   UNL     1      -2.808  36.356  13.933  1.00  0.00    -0.550 OA
ATOM     24  O   UNL     1      -4.699  37.616  14.227  1.00  0.00    -0.550 OA
ENDBRANCH  21  22
ENDBRANCH  20  21
ENDBRANCH  19  20
ENDBRANCH  18  19
ENDBRANCH  17  18
ENDBRANCH  16  17
ENDBRANCH  15  16
ENDBRANCH  14  15
ENDBRANCH  13  14
ENDBRANCH   1  13
TORSDOF 20
ENDMDL
MODEL 5
REMARK VINA RESULT:     0.104      2.361      5.448
REMARK INTER + INTRA:          -0.265
REMARK INTER:                   0.340
REMARK INTRA:                  -0.605
REMARK UNBOUND:                -0.492
REMARK SMILES CCCCCCCCCCCCCCCCCCCCCC(=O)[O-]
REMARK SMILES IDX 12 1 11 2 10 3 9 4 8 5 7 6 6 7 5 8 4 9 3 10 2 11 1 12 13 13
REMARK SMILES IDX 14 14 15 15 16 16 17 17 18 18 19 19 20 20 21 21 22 22 23 23
REMARK SMILES IDX 24 24
REMARK H PARENT
REMARK Flexibility Score: inf
ROOT
ATOM      1  C   UNL     1      -6.015  35.383  25.008  1.00  0.00     0.000 C 
ENDROOT
BRANCH   1   2
ATOM      2  C   UNL     1      -6.099  35.184  23.486  1.00  0.00     0.000 C 
BRANCH   2   3
ATOM      3  C   UNL     1      -4.935  34.341  22.936  1.00  0.00     0.000 C 
BRANCH   3   4
ATOM      4  C   UNL     1      -4.417  34.849  21.578  1.00  0.00    -0.000 C 
BRANCH   4   5
ATOM      5  C   UNL     1      -5.495  34.998  20.488  1.00  0.00    -0.000 C 
BRANCH   5   6
ATOM      6  C   UNL     1      -5.522  33.872  19.437  1.00  0.00    -0.000 C 
BRANCH   6   7
ATOM      7  C   UNL     1      -5.406  34.375  17.982  1.00  0.00    -0.000 C 
BRANCH   7   8
ATOM      8  C   UNL     1      -4.173  35.265  17.763  1.00  0.00    -0.000 C 
BRANCH   8   9
ATOM      9  C   UNL     1      -3.471  34.919  16.444  1.00  0.00    -0.000 C 
BRANCH   9  10
ATOM     10  C   UNL     1      -2.462  36.012  16.057  1.00  0.00    -0.000 C 
BRANCH  10  11
ATOM     11  C   UNL     1      -2.680  36.538  14.631  1.00  0.00    -0.003 C 
ATOM     12  C   UNL     1      -3.883  37.475  14.524  1.00  0.00     0.004 C 
ENDBRANCH  10  11
ENDBRANCH   9  10
ENDBRANCH   8   9
ENDBRANCH   7   8
ENDBRANCH   6   7
ENDBRANCH   5   6
ENDBRANCH   4   5
ENDBRANCH   3   4
ENDBRANCH   2   3
ENDBRANCH   1   2
BRANCH   1  13
ATOM     13  C   UNL     1      -6.125  36.860  25.415  1.00  0.00     0.000 C 
BRANCH  13  14
ATOM     14  C   UNL     1      -4.737  37.488  25.587  1.00  0.00     0.000 C 
BRANCH  14  15
ATOM     15  C   UNL     1      -4.569  38.709  24.676  1.00  0.00     0.000 C 
BRANCH  15  16
ATOM     16  C   UNL     1      -5.677  38.767  23.618  1.00  0.00     0.000 C 
BRANCH  16  17
ATOM     17  C   UNL     1      -5.625  40.092  22.843  1.00  0.00     0.000 C 
BRANCH  17  18
ATOM     18  C   UNL     1      -5.747  39.900  21.320  1.00  0.00     0.000 C 
BRANCH  18  19
ATOM     19  C   UNL     1      -5.710  38.435  20.840  1.00  0.00     0.000 C 
BRANCH  19  20
ATOM     20  C   UNL     1      -4.306  37.808  20.760  1.00  0.00     0.006 C 
BRANCH  20  21
ATOM     21  C   UNL     1      -3.758  37.756  19.328  1.00  0.00     0.053 C 
BRANCH  21  22
ATOM     22  C   UNL     1      -2.270  37.592  19.343  1.00  0.00     0.041 C 
ATOM     23  O   UNL     1      -1.589  37.908  18.332  1.00  0.00    -0.550 OA
ATOM     24  O   UNL     1      -1.639  37.065  20.462  1.00  0.00    -0.550 OA
ENDBRANCH  21  22
ENDBRANCH  20  21
ENDBRANCH  19  20
ENDBRANCH  18  19
ENDBRANCH  17  18
ENDBRANCH  16  17
ENDBRANCH  15  16
ENDBRANCH  14  15
ENDBRANCH  13  14
ENDBRANCH   1  13
TORSDOF 20
ENDMDL
MODEL 6
REMARK VINA RESULT:     0.183      1.841      2.242
REMARK INTER + INTRA:          -0.094
REMARK INTER:                  -0.572
REMARK INTRA:                   0.478
REMARK UNBOUND:                -0.492
REMARK SMILES CCCCCCCCCCCCCCCCCCCCCC(=O)[O-]
REMARK SMILES IDX 12 1 11 2 10 3 9 4 8 5 7 6 6 7 5 8 4 9 3 10 2 11 1 12 13 13
REMARK SMILES IDX 14 14 15 15 16 16 17 17 18 18 19 19 20 20 21 21 22 22 23 23
REMARK SMILES IDX 24 24
REMARK H PARENT
REMARK Flexibility Score: inf
ROOT
ATOM      1  C   UNL     1      -2.901  36.550  20.071  1.00  0.00     0.000 C 
ENDROOT
BRANCH   1   2
ATOM      2  C   UNL     1      -1.892  37.529  19.449  1.00  0.00     0.000 C 
BRANCH   2   3
ATOM      3  C   UNL     1      -2.214  37.855  17.980  1.00  0.00     0.000 C 
BRANCH   3   4
ATOM      4  C   UNL     1      -1.294  37.121  16.988  1.00  0.00    -0.000 C 
BRANCH   4   5
ATOM      5  C   UNL     1      -1.880  35.823  16.401  1.00  0.00    -0.000 C 
BRANCH   5   6
ATOM      6  C   UNL     1      -3.304  35.947  15.829  1.00  0.00    -0.000 C 
BRANCH   6   7
ATOM      7  C   UNL     1      -3.349  36.445  14.368  1.00  0.00    -0.000 C 
BRANCH   7   8
ATOM      8  C   UNL     1      -4.627  37.237  14.054  1.00  0.00    -0.000 C 
BRANCH   8   9
ATOM      9  C   UNL     1      -4.328  38.734  13.913  1.00  0.00    -0.000 C 
BRANCH   9  10
ATOM     10  C   UNL     1      -5.612  39.566  14.058  1.00  0.00    -0.000 C 
BRANCH  10  11
ATOM     11  C   UNL     1      -5.363  41.071  13.878  1.00  0.00    -0.003 C 
ATOM     12  C   UNL     1      -5.712  41.882  15.126  1.00  0.00     0.004 C 
ENDBRANCH  10  11
ENDBRANCH   9  10
ENDBRANCH   8   9
ENDBRANCH   7   8
ENDBRANCH   6   7
ENDBRANCH   5   6
ENDBRANCH   4   5
ENDBRANCH   3   4
ENDBRANCH   2   3
ENDBRANCH   1   2
BRANCH   1  13
ATOM     13  C   UNL     1      -4.313  37.145  20.170  1.00  0.00     0.000 C 
BRANCH  13  14
ATOM     14  C   UNL     1      -5.377  36.041  20.158  1.00  0.00     0.000 C 
BRANCH  14  15
ATOM     15  C   UNL     1      -4.734  34.657  20.305  1.00  0.00     0.000 C 
BRANCH  15  16
ATOM     16  C   UNL     1      -3.522  34.705  21.241  1.00  0.00     0.000 C 
BRANCH  16  17
ATOM     17  C   UNL     1      -3.938  34.415  22.691  1.00  0.00     0.000 C 
BRANCH  17  18
ATOM     18  C   UNL     1      -5.464  34.313  22.868  1.00  0.00     0.000 C 
BRANCH  18  19
ATOM     19  C   UNL     1      -6.122  35.510  23.582  1.00  0.00     0.000 C 
BRANCH  19  20
ATOM     20  C   UNL     1      -6.043  35.478  25.119  1.00  0.00     0.006 C 
BRANCH  20  21
ATOM     21  C   UNL     1      -5.939  36.877  25.740  1.00  0.00     0.053 C 
BRANCH  21  22
ATOM     22  C   UNL     1      -4.506  37.241  25.973  1.00  0.00     0.041 C 
ATOM     23  O   UNL     1      -4.077  38.374  25.631  1.00  0.00    -0.550 OA
ATOM     24  O   UNL     1      -3.637  36.318  26.543  1.00  0.00    -0.550 OA
ENDBRANCH  21  22
ENDBRANCH  20  21
ENDBRANCH  19  20
ENDBRANCH  18  19
ENDBRANCH  17  18
ENDBRANCH  16  17
ENDBRANCH  15  16
ENDBRANCH  14  15
ENDBRANCH  13  14
ENDBRANCH   1  13
TORSDOF 20
ENDMDL
MODEL 7
REMARK VINA RESULT:     0.370      2.937      7.671
REMARK INTER + INTRA:           0.310
REMARK INTER:                   0.707
REMARK INTRA:                  -0.397
REMARK UNBOUND:                -0.492
REMARK SMILES CCCCCCCCCCCCCCCCCCCCCC(=O)[O-]
REMARK SMILES IDX 12 1 11 2 10 3 9 4 8 5 7 6 6 7 5 8 4 9 3 10 2 11 1 12 13 13
REMARK SMILES IDX 14 14 15 15 16 16 17 17 18 18 19 19 20 20 21 21 22 22 23 23
REMARK SMILES IDX 24 24
REMARK H PARENT
REMARK Flexibility Score: inf
ROOT
ATOM      1  C   UNL     1      -4.102  34.254  22.248  1.00  0.00     0.000 C 
ENDROOT
BRANCH   1   2
ATOM      2  C   UNL     1      -5.101  34.005  23.389  1.00  0.00     0.000 C 
BRANCH   2   3
ATOM      3  C   UNL     1      -6.027  35.209  23.637  1.00  0.00     0.000 C 
BRANCH   3   4
ATOM      4  C   UNL     1      -6.112  35.603  25.123  1.00  0.00    -0.000 C 
BRANCH   4   5
ATOM      5  C   UNL     1      -5.999  37.114  25.400  1.00  0.00    -0.000 C 
BRANCH   5   6
ATOM      6  C   UNL     1      -4.560  37.653  25.508  1.00  0.00    -0.000 C 
BRANCH   6   7
ATOM      7  C   UNL     1      -4.317  38.947  24.700  1.00  0.00    -0.000 C 
BRANCH   7   8
ATOM      8  C   UNL     1      -5.594  39.466  24.022  1.00  0.00    -0.000 C 
BRANCH   8   9
ATOM      9  C   UNL     1      -5.370  39.691  22.522  1.00  0.00    -0.000 C 
BRANCH   9  10
ATOM     10  C   UNL     1      -5.857  38.482  21.707  1.00  0.00    -0.000 C 
BRANCH  10  11
ATOM     11  C   UNL     1      -5.609  38.648  20.200  1.00  0.00    -0.003 C 
ATOM     12  C   UNL     1      -4.306  37.994  19.740  1.00  0.00     0.004 C 
ENDBRANCH  10  11
ENDBRANCH   9  10
ENDBRANCH   8   9
ENDBRANCH   7   8
ENDBRANCH   6   7
ENDBRANCH   5   6
ENDBRANCH   4   5
ENDBRANCH   3   4
ENDBRANCH   2   3
ENDBRANCH   1   2
BRANCH   1  13
ATOM     13  C   UNL     1      -4.601  35.309  21.249  1.00  0.00     0.000 C 
BRANCH  13  14
ATOM     14  C   UNL     1      -6.018  34.981  20.765  1.00  0.00     0.000 C 
BRANCH  14  15
ATOM     15  C   UNL     1      -6.125  35.121  19.242  1.00  0.00     0.000 C 
BRANCH  15  16
ATOM     16  C   UNL     1      -5.519  33.906  18.531  1.00  0.00     0.000 C 
BRANCH  16  17
ATOM     17  C   UNL     1      -4.154  34.254  17.920  1.00  0.00     0.000 C 
BRANCH  17  18
ATOM     18  C   UNL     1      -4.226  35.416  16.913  1.00  0.00     0.000 C 
BRANCH  18  19
ATOM     19  C   UNL     1      -3.111  36.473  17.052  1.00  0.00     0.000 C 
BRANCH  19  20
ATOM     20  C   UNL     1      -1.999  36.393  15.990  1.00  0.00     0.006 C 
BRANCH  20  21
ATOM     21  C   UNL     1      -2.538  36.476  14.556  1.00  0.00     0.053 C 
BRANCH  21  22
ATOM     22  C   UNL     1      -3.766  37.329  14.506  1.00  0.00     0.041 C 
ATOM     23  O   UNL     1      -3.750  38.492  14.988  1.00  0.00    -0.550 OA
ATOM     24  O   UNL     1      -4.939  36.829  13.953  1.00  0.00    -0.550 OA
ENDBRANCH  21  22
ENDBRANCH  20  21
ENDBRANCH  19  20
ENDBRANCH  18  19
ENDBRANCH  17  18
ENDBRANCH  16  17
ENDBRANCH  15  16
ENDBRANCH  14  15
ENDBRANCH  13  14
ENDBRANCH   1  13
TORSDOF 20
ENDMDL
MODEL 8
REMARK VINA RESULT:     0.496      2.768      7.494
REMARK INTER + INTRA:           0.584
REMARK INTER:                   2.499
REMARK INTRA:                  -1.915
REMARK UNBOUND:                -0.492
REMARK SMILES CCCCCCCCCCCCCCCCCCCCCC(=O)[O-]
REMARK SMILES IDX 12 1 11 2 10 3 9 4 8 5 7 6 6 7 5 8 4 9 3 10 2 11 1 12 13 13
REMARK SMILES IDX 14 14 15 15 16 16 17 17 18 18 19 19 20 20 21 21 22 22 23 23
REMARK SMILES IDX 24 24
REMARK H PARENT
REMARK Flexibility Score: inf
ROOT
ATOM      1  C   UNL     1      -4.747  35.343  22.418  1.00  0.00     0.000 C 
ENDROOT
BRANCH   1   2
ATOM      2  C   UNL     1      -5.890  34.525  23.039  1.00  0.00     0.000 C 
BRANCH   2   3
ATOM      3  C   UNL     1      -6.053  34.787  24.547  1.00  0.00     0.000 C 
BRANCH   3   4
ATOM      4  C   UNL     1      -6.124  36.286  24.889  1.00  0.00    -0.000 C 
BRANCH   4   5
ATOM      5  C   UNL     1      -4.931  36.822  25.703  1.00  0.00    -0.000 C 
BRANCH   5   6
ATOM      6  C   UNL     1      -4.851  38.356  25.814  1.00  0.00    -0.000 C 
BRANCH   6   7
ATOM      7  C   UNL     1      -4.533  39.062  24.478  1.00  0.00    -0.000 C 
BRANCH   7   8
ATOM      8  C   UNL     1      -5.375  40.330  24.267  1.00  0.00    -0.000 C 
BRANCH   8   9
ATOM      9  C   UNL     1      -6.116  40.283  22.925  1.00  0.00    -0.000 C 
BRANCH   9  10
ATOM     10  C   UNL     1      -5.831  38.966  22.187  1.00  0.00    -0.000 C 
BRANCH  10  11
ATOM     11  C   UNL     1      -5.981  39.099  20.664  1.00  0.00    -0.003 C 
ATOM     12  C   UNL     1      -5.183  38.045  19.896  1.00  0.00     0.004 C 
ENDBRANCH  10  11
ENDBRANCH   9  10
ENDBRANCH   8   9
ENDBRANCH   7   8
ENDBRANCH   6   7
ENDBRANCH   5   6
ENDBRANCH   4   5
ENDBRANCH   3   4
ENDBRANCH   2   3
ENDBRANCH   1   2
BRANCH   1  13
ATOM     13  C   UNL     1      -4.587  35.083  20.913  1.00  0.00     0.000 C 
BRANCH  13  14
ATOM     14  C   UNL     1      -5.943  34.798  20.256  1.00  0.00     0.000 C 
BRANCH  14  15
ATOM     15  C   UNL     1      -5.760  34.190  18.860  1.00  0.00     0.000 C 
BRANCH  15  16
ATOM     16  C   UNL     1      -4.911  35.100  17.967  1.00  0.00     0.000 C 
BRANCH  16  17
ATOM     17  C   UNL     1      -3.909  34.277  17.143  1.00  0.00     0.000 C 
BRANCH  17  18
ATOM     18  C   UNL     1      -3.160  35.120  16.095  1.00  0.00     0.000 C 
BRANCH  18  19
ATOM     19  C   UNL     1      -3.573  36.605  16.033  1.00  0.00     0.000 C 
BRANCH  19  20
ATOM     20  C   UNL     1      -2.730  37.555  16.902  1.00  0.00     0.006 C 
BRANCH  20  21
ATOM     21  C   UNL     1      -1.611  36.832  17.663  1.00  0.00     0.053 C 
BRANCH  21  22
ATOM     22  C   UNL     1      -1.149  37.657  18.822  1.00  0.00     0.041 C 
ATOM     23  O   UNL     1      -0.276  38.549  18.656  1.00  0.00    -0.550 OA
ATOM     24  O   UNL     1      -1.660  37.421  20.093  1.00  0.00    -0.550 OA
ENDBRANCH  21  22
ENDBRANCH  20  21
ENDBRANCH  19  20
ENDBRANCH  18  19
ENDBRANCH  17  18
ENDBRANCH  16  17
ENDBRANCH  15  16
ENDBRANCH  14  15
ENDBRANCH  13  14
ENDBRANCH   1  13
TORSDOF 20
ENDMDL
