MODEL 1
REMARK VINA RESULT:    -2.925      0.000      0.000
REMARK INTER + INTRA:          -3.557
REMARK INTER:                  -3.438
REMARK INTRA:                  -0.119
REMARK UNBOUND:                -0.119
REMARK SMILES O=C([O-])CCC(=O)[O-]
REMARK SMILES IDX 4 1 2 2 1 3 3 4 5 5 6 6 7 7 8 8
REMARK H PARENT
REMARK Flexibility Score: inf
ROOT
ATOM      1  C   UNL     1      35.005   5.395 -31.400  1.00  0.00     0.059 C 
ENDROOT
BRANCH   1   2
ATOM      2  C   UNL     1      34.899   5.119 -32.867  1.00  0.00     0.042 C 
ATOM      3  O   UNL     1      35.736   5.615 -33.667  1.00  0.00    -0.550 OA
ATOM      4  O   UNL     1      33.848   4.354 -33.356  1.00  0.00    -0.550 OA
ENDBRANCH   1   2
BRANCH   1   5
ATOM      5  C   UNL     1      35.173   6.894 -31.148  1.00  0.00     0.059 C 
BRANCH   5   6
ATOM      6  C   UNL     1      33.838   7.564 -31.068  1.00  0.00     0.042 C 
ATOM      7  O   UNL     1      33.742   8.808 -31.238  1.00  0.00    -0.550 OA
ATOM      8  O   UNL     1      32.706   6.823 -30.754  1.00  0.00    -0.550 OA
ENDBRANCH   5   6
ENDBRANCH   1   5
TORSDOF 3
ENDMDL
MODEL 2
REMARK VINA RESULT:    -2.903      0.084      3.422
REMARK INTER + INTRA:          -3.531
REMARK INTER:                  -3.402
REMARK INTRA:                  -0.129
REMARK UNBOUND:                -0.119
REMARK SMILES O=C([O-])CCC(=O)[O-]
REMARK SMILES IDX 4 1 2 2 1 3 3 4 5 5 6 6 7 7 8 8
REMARK H PARENT
REMARK Flexibility Score: inf
ROOT
ATOM      1  C   UNL     1      35.162   6.880 -31.093  1.00  0.00     0.059 C 
ENDROOT
BRANCH   1   2
ATOM      2  C   UNL     1      33.828   7.552 -31.004  1.00  0.00     0.042 C 
ATOM      3  O   UNL     1      33.722   8.783 -31.245  1.00  0.00    -0.550 OA
ATOM      4  O   UNL     1      32.710   6.829 -30.607  1.00  0.00    -0.550 OA
ENDBRANCH   1   2
BRANCH   1   5
ATOM      5  C   UNL     1      34.990   5.382 -31.349  1.00  0.00     0.059 C 
BRANCH   5   6
ATOM      6  C   UNL     1      34.854   5.113 -32.814  1.00  0.00     0.042 C 
ATOM      7  O   UNL     1      35.703   5.570 -33.623  1.00  0.00    -0.550 OA
ATOM      8  O   UNL     1      33.763   4.400 -33.291  1.00  0.00    -0.550 OA
ENDBRANCH   5   6
ENDBRANCH   1   5
TORSDOF 3
ENDMDL
MODEL 3
REMARK VINA RESULT:    -2.755      1.660      3.691
REMARK INTER + INTRA:          -3.357
REMARK INTER:                  -3.292
REMARK INTRA:                  -0.065
REMARK UNBOUND:                -0.119
REMARK SMILES O=C([O-])CCC(=O)[O-]
REMARK SMILES IDX 4 1 2 2 1 3 3 4 5 5 6 6 7 7 8 8
REMARK H PARENT
REMARK Flexibility Score: inf
ROOT
ATOM      1  C   UNL     1      34.668   5.044 -31.379  1.00  0.00     0.059 C 
ENDROOT
BRANCH   1   2
ATOM      2  C   UNL     1      34.966   6.498 -31.193  1.00  0.00     0.042 C 
ATOM      3  O   UNL     1      36.124   6.871 -30.868  1.00  0.00    -0.550 OA
ATOM      4  O   UNL     1      33.953   7.439 -31.331  1.00  0.00    -0.550 OA
ENDBRANCH   1   2
BRANCH   1   5
ATOM      5  C   UNL     1      34.611   4.696 -32.867  1.00  0.00     0.059 C 
BRANCH   5   6
ATOM      6  C   UNL     1      33.396   3.876 -33.168  1.00  0.00     0.042 C 
ATOM      7  O   UNL     1      33.512   2.658 -33.466  1.00  0.00    -0.550 OA
ATOM      8  O   UNL     1      32.140   4.469 -33.168  1.00  0.00    -0.550 OA
ENDBRANCH   5   6
ENDBRANCH   1   5
TORSDOF 3
ENDMDL
MODEL 4
REMARK VINA RESULT:    -2.694      2.147      2.919
REMARK INTER + INTRA:          -3.286
REMARK INTER:                  -3.176
REMARK INTRA:                  -0.110
REMARK UNBOUND:                -0.119
REMARK SMILES O=C([O-])CCC(=O)[O-]
REMARK SMILES IDX 4 1 2 2 1 3 3 4 5 5 6 6 7 7 8 8
REMARK H PARENT
REMARK Flexibility Score: inf
ROOT
ATOM      1  C   UNL     1      33.943   3.953 -33.025  1.00  0.00     0.059 C 
ENDROOT
BRANCH   1   2
ATOM      2  C   UNL     1      32.461   4.126 -33.125  1.00  0.00     0.042 C 
ATOM      3  O   UNL     1      31.892   5.074 -32.522  1.00  0.00    -0.550 OA
ATOM      4  O   UNL     1      31.701   3.213 -33.845  1.00  0.00    -0.550 OA
ENDBRANCH   1   2
BRANCH   1   5
ATOM      5  C   UNL     1      34.643   5.312 -33.041  1.00  0.00     0.059 C 
BRANCH   5   6
ATOM      6  C   UNL     1      35.266   5.597 -31.710  1.00  0.00     0.042 C 
ATOM      7  O   UNL     1      36.123   6.512 -31.595  1.00  0.00    -0.550 OA
ATOM      8  O   UNL     1      34.937   4.818 -30.608  1.00  0.00    -0.550 OA
ENDBRANCH   5   6
ENDBRANCH   1   5
TORSDOF 3
ENDMDL
MODEL 5
REMARK VINA RESULT:    -2.691      1.508      1.808
REMARK INTER + INTRA:          -3.282
REMARK INTER:                  -3.148
REMARK INTRA:                  -0.135
REMARK UNBOUND:                -0.119
REMARK SMILES O=C([O-])CCC(=O)[O-]
REMARK SMILES IDX 4 1 2 2 1 3 3 4 5 5 6 6 7 7 8 8
REMARK H PARENT
REMARK Flexibility Score: inf
ROOT
ATOM      1  C   UNL     1      34.679   5.444 -33.230  1.00  0.00     0.059 C 
ENDROOT
BRANCH   1   2
ATOM      2  C   UNL     1      33.586   4.433 -33.084  1.00  0.00     0.042 C 
ATOM      3  O   UNL     1      33.856   3.202 -33.099  1.00  0.00    -0.550 OA
ATOM      4  O   UNL     1      32.265   4.846 -32.981  1.00  0.00    -0.550 OA
ENDBRANCH   1   2
BRANCH   1   5
ATOM      5  C   UNL     1      35.358   5.696 -31.883  1.00  0.00     0.059 C 
BRANCH   5   6
ATOM      6  C   UNL     1      34.520   6.599 -31.034  1.00  0.00     0.042 C 
ATOM      7  O   UNL     1      34.297   7.783 -31.398  1.00  0.00    -0.550 OA
ATOM      8  O   UNL     1      34.027   6.148 -29.817  1.00  0.00    -0.550 OA
ENDBRANCH   5   6
ENDBRANCH   1   5
TORSDOF 3
ENDMDL
MODEL 6
REMARK VINA RESULT:    -2.655      1.598      4.157
REMARK INTER + INTRA:          -3.240
REMARK INTER:                  -3.210
REMARK INTRA:                  -0.030
REMARK UNBOUND:                -0.119
REMARK SMILES O=C([O-])CCC(=O)[O-]
REMARK SMILES IDX 4 1 2 2 1 3 3 4 5 5 6 6 7 7 8 8
REMARK H PARENT
REMARK Flexibility Score: inf
ROOT
ATOM      1  C   UNL     1      33.334   7.450 -30.785  1.00  0.00     0.059 C 
ENDROOT
BRANCH   1   2
ATOM      2  C   UNL     1      33.055   8.870 -30.405  1.00  0.00     0.042 C 
ATOM      3  O   UNL     1      33.274   9.800 -31.226  1.00  0.00    -0.550 OA
ATOM      4  O   UNL     1      32.598   9.172 -29.129  1.00  0.00    -0.550 OA
ENDBRANCH   1   2
BRANCH   1   5
ATOM      5  C   UNL     1      34.784   7.294 -31.245  1.00  0.00     0.059 C 
BRANCH   5   6
ATOM      6  C   UNL     1      35.069   5.870 -31.604  1.00  0.00     0.042 C 
ATOM      7  O   UNL     1      35.090   4.984 -30.711  1.00  0.00    -0.550 OA
ATOM      8  O   UNL     1      35.363   5.530 -32.918  1.00  0.00    -0.550 OA
ENDBRANCH   5   6
ENDBRANCH   1   5
TORSDOF 3
ENDMDL
MODEL 7
REMARK VINA RESULT:    -2.627      2.161      3.979
REMARK INTER + INTRA:          -3.207
REMARK INTER:                  -3.089
REMARK INTRA:                  -0.118
REMARK UNBOUND:                -0.119
REMARK SMILES O=C([O-])CCC(=O)[O-]
REMARK SMILES IDX 4 1 2 2 1 3 3 4 5 5 6 6 7 7 8 8
REMARK H PARENT
REMARK Flexibility Score: inf
ROOT
ATOM      1  C   UNL     1      33.997   4.605 -31.827  1.00  0.00     0.059 C 
ENDROOT
BRANCH   1   2
ATOM      2  C   UNL     1      35.108   5.484 -32.308  1.00  0.00     0.042 C 
ATOM      3  O   UNL     1      35.430   5.489 -33.525  1.00  0.00    -0.550 OA
ATOM      4  O   UNL     1      35.820   6.262 -31.404  1.00  0.00    -0.550 OA
ENDBRANCH   1   2
BRANCH   1   5
ATOM      5  C   UNL     1      32.850   4.591 -32.838  1.00  0.00     0.059 C 
BRANCH   5   6
ATOM      6  C   UNL     1      32.681   3.223 -33.420  1.00  0.00     0.042 C 
ATOM      7  O   UNL     1      33.631   2.398 -33.386  1.00  0.00    -0.550 OA
ATOM      8  O   UNL     1      31.491   2.877 -34.046  1.00  0.00    -0.550 OA
ENDBRANCH   5   6
ENDBRANCH   1   5
TORSDOF 3
ENDMDL
MODEL 8
REMARK VINA RESULT:    -2.625      1.617      2.101
REMARK INTER + INTRA:          -3.205
REMARK INTER:                  -3.174
REMARK INTRA:                  -0.031
REMARK UNBOUND:                -0.119
REMARK SMILES O=C([O-])CCC(=O)[O-]
REMARK SMILES IDX 4 1 2 2 1 3 3 4 5 5 6 6 7 7 8 8
REMARK H PARENT
REMARK Flexibility Score: inf
ROOT
ATOM      1  C   UNL     1      34.706   7.301 -31.317  1.00  0.00     0.059 C 
ENDROOT
BRANCH   1   2
ATOM      2  C   UNL     1      35.022   5.864 -31.585  1.00  0.00     0.042 C 
ATOM      3  O   UNL     1      35.121   5.048 -30.631  1.00  0.00    -0.550 OA
ATOM      4  O   UNL     1      35.255   5.434 -32.885  1.00  0.00    -0.550 OA
ENDBRANCH   1   2
BRANCH   1   5
ATOM      5  C   UNL     1      33.275   7.447 -30.798  1.00  0.00     0.059 C 
BRANCH   5   6
ATOM      6  C   UNL     1      32.988   8.872 -30.442  1.00  0.00     0.042 C 
ATOM      7  O   UNL     1      33.285   9.796 -31.243  1.00  0.00    -0.550 OA
ATOM      8  O   UNL     1      32.440   9.182 -29.204  1.00  0.00    -0.550 OA
ENDBRANCH   5   6
ENDBRANCH   1   5
TORSDOF 3
ENDMDL
MODEL 9
REMARK VINA RESULT:    -2.548     15.866     16.525
REMARK INTER + INTRA:          -3.114
REMARK INTER:                  -3.058
REMARK INTRA:                  -0.056
REMARK UNBOUND:                -0.119
REMARK SMILES O=C([O-])CCC(=O)[O-]
REMARK SMILES IDX 4 1 2 2 1 3 3 4 5 5 6 6 7 7 8 8
REMARK H PARENT
REMARK Flexibility Score: inf
ROOT
ATOM      1  C   UNL     1      24.991  -7.722 -28.917  1.00  0.00     0.059 C 
ENDROOT
BRANCH   1   2
ATOM      2  C   UNL     1      26.220  -7.798 -28.067  1.00  0.00     0.042 C 
ATOM      3  O   UNL     1      26.132  -8.124 -26.853  1.00  0.00    -0.550 OA
ATOM      4  O   UNL     1      27.457  -7.462 -28.601  1.00  0.00    -0.550 OA
ENDBRANCH   1   2
BRANCH   1   5
ATOM      5  C   UNL     1      24.191  -6.461 -28.589  1.00  0.00     0.059 C 
BRANCH   5   6
ATOM      6  C   UNL     1      23.909  -5.680 -29.833  1.00  0.00     0.042 C 
ATOM      7  O   UNL     1      24.132  -6.188 -30.964  1.00  0.00    -0.550 OA
ATOM      8  O   UNL     1      23.446  -4.374 -29.745  1.00  0.00    -0.550 OA
ENDBRANCH   5   6
ENDBRANCH   1   5
TORSDOF 3
ENDMDL
