MODEL 1
REMARK VINA RESULT:    -4.198      0.000      0.000
REMARK INTER + INTRA:          -5.878
REMARK INTER:                  -5.670
REMARK INTRA:                  -0.208
REMARK UNBOUND:                -0.208
REMARK SMILES O=C[C@@H](O)[C@H](O)[C@@H](O)CO
REMARK SMILES IDX 7 1 9 2 10 3 5 5 3 6 2 7 1 8 4 9 6 11 8 13
REMARK H PARENT 10 4 4 10 6 12 8 14
REMARK Flexibility Score: inf
ROOT
ATOM      1  C   UNL     1       2.234   0.125 -24.018  1.00  0.00     0.171 C 
ENDROOT
BRANCH   1   2
ATOM      2  C   UNL     1       3.510   0.726 -24.640  1.00  0.00     0.190 C 
BRANCH   2   3
ATOM      3  O   UNL     1       3.880   1.903 -23.973  1.00  0.00    -0.394 OA
ATOM      4  H   UNL     1       3.041   2.392 -23.763  1.00  0.00     0.210 HD
ENDBRANCH   2   3
ENDBRANCH   1   2
BRANCH   1   5
ATOM      5  C   UNL     1       2.441  -0.327 -22.545  1.00  0.00     0.181 C 
BRANCH   5   6
ATOM      6  C   UNL     1       1.771  -1.691 -22.232  1.00  0.00     0.209 C 
BRANCH   6   7
ATOM      7  C   UNL     1       2.735  -2.615 -21.541  1.00  0.00     0.258 C 
ATOM      8  O   UNL     1       3.124  -3.631 -22.094  1.00  0.00    -0.300 OA
ENDBRANCH   6   7
BRANCH   6   9
ATOM      9  O   UNL     1       0.670  -1.497 -21.383  1.00  0.00    -0.383 OA
ATOM     10  H   UNL     1      -0.136  -1.443 -21.959  1.00  0.00     0.211 HD
ENDBRANCH   6   9
ENDBRANCH   5   6
BRANCH   5  11
ATOM     11  O   UNL     1       1.999   0.664 -21.649  1.00  0.00    -0.387 OA
ATOM     12  H   UNL     1       1.031   0.517 -21.483  1.00  0.00     0.211 HD
ENDBRANCH   5  11
ENDBRANCH   1   5
BRANCH   1  13
ATOM     13  O   UNL     1       1.157   1.024 -24.131  1.00  0.00    -0.388 OA
ATOM     14  H   UNL     1       1.346   1.803 -23.547  1.00  0.00     0.211 HD
ENDBRANCH   1  13
TORSDOF 8
ENDMDL
MODEL 2
REMARK VINA RESULT:    -4.117      6.290      8.292
REMARK INTER + INTRA:          -5.769
REMARK INTER:                  -4.840
REMARK INTRA:                  -0.929
REMARK UNBOUND:                -0.208
REMARK SMILES O=C[C@@H](O)[C@H](O)[C@@H](O)CO
REMARK SMILES IDX 7 1 9 2 10 3 5 5 3 6 2 7 1 8 4 9 6 11 8 13
REMARK H PARENT 10 4 4 10 6 12 8 14
REMARK Flexibility Score: inf
ROOT
ATOM      1  C   UNL     1      -1.762   4.090 -24.624  1.00  0.00     0.171 C 
ENDROOT
BRANCH   1   2
ATOM      2  C   UNL     1      -2.803   3.592 -23.602  1.00  0.00     0.190 C 
BRANCH   2   3
ATOM      3  O   UNL     1      -2.410   3.919 -22.295  1.00  0.00    -0.394 OA
ATOM      4  H   UNL     1      -3.214   4.275 -21.833  1.00  0.00     0.210 HD
ENDBRANCH   2   3
ENDBRANCH   1   2
BRANCH   1   5
ATOM      5  C   UNL     1      -1.735   5.641 -24.743  1.00  0.00     0.181 C 
BRANCH   5   6
ATOM      6  C   UNL     1      -0.467   6.272 -24.109  1.00  0.00     0.209 C 
BRANCH   6   7
ATOM      7  C   UNL     1      -0.267   7.679 -24.599  1.00  0.00     0.258 C 
ATOM      8  O   UNL     1      -1.226   8.372 -24.901  1.00  0.00    -0.300 OA
ENDBRANCH   6   7
BRANCH   6   9
ATOM      9  O   UNL     1      -0.603   6.313 -22.712  1.00  0.00    -0.383 OA
ATOM     10  H   UNL     1      -1.248   5.601 -22.462  1.00  0.00     0.211 HD
ENDBRANCH   6   9
ENDBRANCH   5   6
BRANCH   5  11
ATOM     11  O   UNL     1      -2.901   6.208 -24.197  1.00  0.00    -0.387 OA
ATOM     12  H   UNL     1      -3.414   5.484 -23.753  1.00  0.00     0.211 HD
ENDBRANCH   5  11
ENDBRANCH   1   5
BRANCH   1  13
ATOM     13  O   UNL     1      -0.487   3.578 -24.323  1.00  0.00    -0.388 OA
ATOM     14  H   UNL     1      -0.454   2.636 -24.633  1.00  0.00     0.211 HD
ENDBRANCH   1  13
TORSDOF 8
ENDMDL
MODEL 3
REMARK VINA RESULT:    -4.092      6.435      7.309
REMARK INTER + INTRA:          -5.735
REMARK INTER:                  -5.263
REMARK INTRA:                  -0.472
REMARK UNBOUND:                -0.208
REMARK SMILES O=C[C@@H](O)[C@H](O)[C@@H](O)CO
REMARK SMILES IDX 7 1 9 2 10 3 5 5 3 6 2 7 1 8 4 9 6 11 8 13
REMARK H PARENT 10 4 4 10 6 12 8 14
REMARK Flexibility Score: inf
ROOT
ATOM      1  C   UNL     1      -2.918   3.870 -23.686  1.00  0.00     0.171 C 
ENDROOT
BRANCH   1   2
ATOM      2  C   UNL     1      -1.500   4.446 -23.871  1.00  0.00     0.190 C 
BRANCH   2   3
ATOM      3  O   UNL     1      -1.183   5.330 -22.829  1.00  0.00    -0.394 OA
ATOM      4  H   UNL     1      -1.615   6.198 -23.046  1.00  0.00     0.210 HD
ENDBRANCH   2   3
ENDBRANCH   1   2
BRANCH   1   5
ATOM      5  C   UNL     1      -3.002   2.851 -22.515  1.00  0.00     0.181 C 
BRANCH   5   6
ATOM      6  C   UNL     1      -4.047   3.251 -21.440  1.00  0.00     0.209 C 
BRANCH   6   7
ATOM      7  C   UNL     1      -5.339   2.514 -21.649  1.00  0.00     0.258 C 
ATOM      8  O   UNL     1      -6.113   2.858 -22.528  1.00  0.00    -0.300 OA
ENDBRANCH   6   7
BRANCH   6   9
ATOM      9  O   UNL     1      -3.563   2.927 -20.162  1.00  0.00    -0.383 OA
ATOM     10  H   UNL     1      -3.741   1.961 -20.020  1.00  0.00     0.211 HD
ENDBRANCH   6   9
ENDBRANCH   5   6
BRANCH   5  11
ATOM     11  O   UNL     1      -1.736   2.651 -21.931  1.00  0.00    -0.387 OA
ATOM     12  H   UNL     1      -1.419   3.524 -21.582  1.00  0.00     0.211 HD
ENDBRANCH   5  11
ENDBRANCH   1   5
BRANCH   1  13
ATOM     13  O   UNL     1      -3.857   4.907 -23.530  1.00  0.00    -0.388 OA
ATOM     14  H   UNL     1      -3.939   5.102 -22.561  1.00  0.00     0.211 HD
ENDBRANCH   1  13
TORSDOF 8
ENDMDL
MODEL 4
REMARK VINA RESULT:    -4.052      4.858      6.504
REMARK INTER + INTRA:          -5.680
REMARK INTER:                  -5.370
REMARK INTRA:                  -0.310
REMARK UNBOUND:                -0.208
REMARK SMILES O=C[C@@H](O)[C@H](O)[C@@H](O)CO
REMARK SMILES IDX 7 1 9 2 10 3 5 5 3 6 2 7 1 8 4 9 6 11 8 13
REMARK H PARENT 10 4 4 10 6 12 8 14
REMARK Flexibility Score: inf
ROOT
ATOM      1  C   UNL     1      -1.064   1.687 -23.029  1.00  0.00     0.171 C 
ENDROOT
BRANCH   1   2
ATOM      2  C   UNL     1      -0.565   1.578 -24.483  1.00  0.00     0.190 C 
BRANCH   2   3
ATOM      3  O   UNL     1       0.805   1.275 -24.517  1.00  0.00    -0.394 OA
ATOM      4  H   UNL     1       1.192   1.593 -23.660  1.00  0.00     0.210 HD
ENDBRANCH   2   3
ENDBRANCH   1   2
BRANCH   1   5
ATOM      5  C   UNL     1      -2.246   2.685 -22.875  1.00  0.00     0.181 C 
BRANCH   5   6
ATOM      6  C   UNL     1      -2.067   3.970 -23.727  1.00  0.00     0.209 C 
BRANCH   6   7
ATOM      7  C   UNL     1      -3.395   4.482 -24.209  1.00  0.00     0.258 C 
ATOM      8  O   UNL     1      -4.397   4.343 -23.526  1.00  0.00    -0.300 OA
ENDBRANCH   6   7
BRANCH   6   9
ATOM      9  O   UNL     1      -1.468   4.976 -22.951  1.00  0.00    -0.383 OA
ATOM     10  H   UNL     1      -0.490   4.802 -22.954  1.00  0.00     0.211 HD
ENDBRANCH   6   9
ENDBRANCH   5   6
BRANCH   5  11
ATOM     11  O   UNL     1      -2.457   3.009 -21.522  1.00  0.00    -0.387 OA
ATOM     12  H   UNL     1      -2.830   3.928 -21.481  1.00  0.00     0.211 HD
ENDBRANCH   5  11
ENDBRANCH   1   5
BRANCH   1  13
ATOM     13  O   UNL     1      -1.397   0.417 -22.523  1.00  0.00    -0.388 OA
ATOM     14  H   UNL     1      -0.982  -0.265 -23.111  1.00  0.00     0.211 HD
ENDBRANCH   1  13
TORSDOF 8
ENDMDL
MODEL 5
REMARK VINA RESULT:    -4.034      6.575      7.829
REMARK INTER + INTRA:          -5.657
REMARK INTER:                  -5.179
REMARK INTRA:                  -0.478
REMARK UNBOUND:                -0.208
REMARK SMILES O=C[C@@H](O)[C@H](O)[C@@H](O)CO
REMARK SMILES IDX 7 1 9 2 10 3 5 5 3 6 2 7 1 8 4 9 6 11 8 13
REMARK H PARENT 10 4 4 10 6 12 8 14
REMARK Flexibility Score: inf
ROOT
ATOM      1  C   UNL     1      -2.332   3.090 -23.061  1.00  0.00     0.171 C 
ENDROOT
BRANCH   1   2
ATOM      2  C   UNL     1      -1.278   1.967 -23.022  1.00  0.00     0.190 C 
BRANCH   2   3
ATOM      3  O   UNL     1      -1.818   0.798 -22.465  1.00  0.00    -0.394 OA
ATOM      4  H   UNL     1      -2.695   1.045 -22.070  1.00  0.00     0.210 HD
ENDBRANCH   2   3
ENDBRANCH   1   2
BRANCH   1   5
ATOM      5  C   UNL     1      -3.578   2.773 -22.187  1.00  0.00     0.181 C 
BRANCH   5   6
ATOM      6  C   UNL     1      -4.859   3.499 -22.675  1.00  0.00     0.209 C 
BRANCH   6   7
ATOM      7  C   UNL     1      -5.776   3.802 -21.523  1.00  0.00     0.258 C 
ATOM      8  O   UNL     1      -6.451   4.818 -21.520  1.00  0.00    -0.300 OA
ENDBRANCH   6   7
BRANCH   6   9
ATOM      9  O   UNL     1      -4.514   4.715 -23.287  1.00  0.00    -0.383 OA
ATOM     10  H   UNL     1      -5.351   5.108 -23.647  1.00  0.00     0.211 HD
ENDBRANCH   6   9
ENDBRANCH   5   6
BRANCH   5  11
ATOM     11  O   UNL     1      -3.328   3.060 -20.832  1.00  0.00    -0.387 OA
ATOM     12  H   UNL     1      -3.072   4.016 -20.764  1.00  0.00     0.211 HD
ENDBRANCH   5  11
ENDBRANCH   1   5
BRANCH   1  13
ATOM     13  O   UNL     1      -1.756   4.324 -22.703  1.00  0.00    -0.388 OA
ATOM     14  H   UNL     1      -1.853   4.433 -21.722  1.00  0.00     0.211 HD
ENDBRANCH   1  13
TORSDOF 8
ENDMDL
MODEL 6
REMARK VINA RESULT:    -4.012      5.907      7.895
REMARK INTER + INTRA:          -5.627
REMARK INTER:                  -5.325
REMARK INTRA:                  -0.301
REMARK UNBOUND:                -0.208
REMARK SMILES O=C[C@@H](O)[C@H](O)[C@@H](O)CO
REMARK SMILES IDX 7 1 9 2 10 3 5 5 3 6 2 7 1 8 4 9 6 11 8 13
REMARK H PARENT 10 4 4 10 6 12 8 14
REMARK Flexibility Score: inf
ROOT
ATOM      1  C   UNL     1      -1.740   3.797 -22.978  1.00  0.00     0.171 C 
ENDROOT
BRANCH   1   2
ATOM      2  C   UNL     1      -1.422   2.378 -23.488  1.00  0.00     0.190 C 
BRANCH   2   3
ATOM      3  O   UNL     1      -0.692   1.658 -22.530  1.00  0.00    -0.394 OA
ATOM      4  H   UNL     1      -1.206   1.703 -21.682  1.00  0.00     0.210 HD
ENDBRANCH   2   3
ENDBRANCH   1   2
BRANCH   1   5
ATOM      5  C   UNL     1      -1.704   4.862 -24.111  1.00  0.00     0.181 C 
BRANCH   5   6
ATOM      6  C   UNL     1      -0.588   5.921 -23.909  1.00  0.00     0.209 C 
BRANCH   6   7
ATOM      7  C   UNL     1      -0.782   7.087 -24.836  1.00  0.00     0.258 C 
ATOM      8  O   UNL     1      -1.503   8.020 -24.517  1.00  0.00    -0.300 OA
ENDBRANCH   6   7
BRANCH   6   9
ATOM      9  O   UNL     1      -0.622   6.403 -22.590  1.00  0.00    -0.383 OA
ATOM     10  H   UNL     1      -1.547   6.720 -22.420  1.00  0.00     0.211 HD
ENDBRANCH   6   9
ENDBRANCH   5   6
BRANCH   5  11
ATOM     11  O   UNL     1      -2.959   5.482 -24.258  1.00  0.00    -0.387 OA
ATOM     12  H   UNL     1      -3.427   5.437 -23.384  1.00  0.00     0.211 HD
ENDBRANCH   5  11
ENDBRANCH   1   5
BRANCH   1  13
ATOM     13  O   UNL     1      -2.972   3.815 -22.298  1.00  0.00    -0.388 OA
ATOM     14  H   UNL     1      -3.553   3.119 -22.700  1.00  0.00     0.211 HD
ENDBRANCH   1  13
TORSDOF 8
ENDMDL
MODEL 7
REMARK VINA RESULT:    -3.968      5.394      6.533
REMARK INTER + INTRA:          -5.567
REMARK INTER:                  -4.785
REMARK INTRA:                  -0.782
REMARK UNBOUND:                -0.208
REMARK SMILES O=C[C@@H](O)[C@H](O)[C@@H](O)CO
REMARK SMILES IDX 7 1 9 2 10 3 5 5 3 6 2 7 1 8 4 9 6 11 8 13
REMARK H PARENT 10 4 4 10 6 12 8 14
REMARK Flexibility Score: inf
ROOT
ATOM      1  C   UNL     1      -1.708   5.785 -24.822  1.00  0.00     0.171 C 
ENDROOT
BRANCH   1   2
ATOM      2  C   UNL     1      -0.648   6.662 -24.127  1.00  0.00     0.190 C 
BRANCH   2   3
ATOM      3  O   UNL     1      -0.593   6.381 -22.754  1.00  0.00    -0.394 OA
ATOM      4  H   UNL     1      -0.632   7.252 -22.279  1.00  0.00     0.210 HD
ENDBRANCH   2   3
ENDBRANCH   1   2
BRANCH   1   5
ATOM      5  C   UNL     1      -1.318   4.279 -24.844  1.00  0.00     0.181 C 
BRANCH   5   6
ATOM      6  C   UNL     1      -2.073   3.444 -23.777  1.00  0.00     0.209 C 
BRANCH   6   7
ATOM      7  C   UNL     1      -1.433   2.096 -23.601  1.00  0.00     0.258 C 
ATOM      8  O   UNL     1      -1.066   1.453 -24.571  1.00  0.00    -0.300 OA
ENDBRANCH   6   7
BRANCH   6   9
ATOM      9  O   UNL     1      -2.038   4.108 -22.540  1.00  0.00    -0.383 OA
ATOM     10  H   UNL     1      -1.094   4.100 -22.232  1.00  0.00     0.211 HD
ENDBRANCH   6   9
ENDBRANCH   5   6
BRANCH   5  11
ATOM     11  O   UNL     1       0.074   4.119 -24.711  1.00  0.00    -0.387 OA
ATOM     12  H   UNL     1       0.498   4.401 -25.562  1.00  0.00     0.211 HD
ENDBRANCH   5  11
ENDBRANCH   1   5
BRANCH   1  13
ATOM     13  O   UNL     1      -2.972   5.977 -24.234  1.00  0.00    -0.388 OA
ATOM     14  H   UNL     1      -3.402   6.752 -24.679  1.00  0.00     0.211 HD
ENDBRANCH   1  13
TORSDOF 8
ENDMDL
MODEL 8
REMARK VINA RESULT:    -3.910      4.649      5.618
REMARK INTER + INTRA:          -5.489
REMARK INTER:                  -5.374
REMARK INTRA:                  -0.115
REMARK UNBOUND:                -0.208
REMARK SMILES O=C[C@@H](O)[C@H](O)[C@@H](O)CO
REMARK SMILES IDX 7 1 9 2 10 3 5 5 3 6 2 7 1 8 4 9 6 11 8 13
REMARK H PARENT 10 4 4 10 6 12 8 14
REMARK Flexibility Score: inf
ROOT
ATOM      1  C   UNL     1      -2.064   4.016 -23.779  1.00  0.00     0.171 C 
ENDROOT
BRANCH   1   2
ATOM      2  C   UNL     1      -1.038   5.145 -23.997  1.00  0.00     0.190 C 
BRANCH   2   3
ATOM      3  O   UNL     1      -0.851   5.881 -22.817  1.00  0.00    -0.394 OA
ATOM      4  H   UNL     1      -0.223   6.619 -23.033  1.00  0.00     0.210 HD
ENDBRANCH   2   3
ENDBRANCH   1   2
BRANCH   1   5
ATOM      5  C   UNL     1      -1.635   3.025 -22.660  1.00  0.00     0.181 C 
BRANCH   5   6
ATOM      6  C   UNL     1      -1.320   1.605 -23.199  1.00  0.00     0.209 C 
BRANCH   6   7
ATOM      7  C   UNL     1      -0.930   1.657 -24.649  1.00  0.00     0.258 C 
ATOM      8  O   UNL     1       0.236   1.511 -24.983  1.00  0.00    -0.300 OA
ENDBRANCH   6   7
BRANCH   6   9
ATOM      9  O   UNL     1      -0.249   1.049 -22.480  1.00  0.00    -0.383 OA
ATOM     10  H   UNL     1       0.226   0.433 -23.096  1.00  0.00     0.211 HD
ENDBRANCH   6   9
ENDBRANCH   5   6
BRANCH   5  11
ATOM     11  O   UNL     1      -2.605   2.968 -21.641  1.00  0.00    -0.387 OA
ATOM     12  H   UNL     1      -2.472   3.752 -21.048  1.00  0.00     0.211 HD
ENDBRANCH   5  11
ENDBRANCH   1   5
BRANCH   1  13
ATOM     13  O   UNL     1      -3.342   4.549 -23.529  1.00  0.00    -0.388 OA
ATOM     14  H   UNL     1      -3.571   4.363 -22.582  1.00  0.00     0.211 HD
ENDBRANCH   1  13
TORSDOF 8
ENDMDL
MODEL 9
REMARK VINA RESULT:    -3.894      5.457      6.884
REMARK INTER + INTRA:          -5.467
REMARK INTER:                  -4.820
REMARK INTRA:                  -0.647
REMARK UNBOUND:                -0.208
REMARK SMILES O=C[C@@H](O)[C@H](O)[C@@H](O)CO
REMARK SMILES IDX 7 1 9 2 10 3 5 5 3 6 2 7 1 8 4 9 6 11 8 13
REMARK H PARENT 10 4 4 10 6 12 8 14
REMARK Flexibility Score: inf
ROOT
ATOM      1  C   UNL     1      -3.606   2.914 -22.177  1.00  0.00     0.171 C 
ENDROOT
BRANCH   1   2
ATOM      2  C   UNL     1      -4.897   3.733 -22.377  1.00  0.00     0.190 C 
BRANCH   2   3
ATOM      3  O   UNL     1      -4.666   4.824 -23.230  1.00  0.00    -0.394 OA
ATOM      4  H   UNL     1      -5.429   5.448 -23.112  1.00  0.00     0.210 HD
ENDBRANCH   2   3
ENDBRANCH   1   2
BRANCH   1   5
ATOM      5  C   UNL     1      -2.496   3.288 -23.200  1.00  0.00     0.181 C 
BRANCH   5   6
ATOM      6  C   UNL     1      -1.542   2.106 -23.514  1.00  0.00     0.209 C 
BRANCH   6   7
ATOM      7  C   UNL     1      -0.782   2.354 -24.787  1.00  0.00     0.258 C 
ATOM      8  O   UNL     1      -0.383   3.475 -25.061  1.00  0.00    -0.300 OA
ENDBRANCH   6   7
BRANCH   6   9
ATOM      9  O   UNL     1      -0.611   1.955 -22.473  1.00  0.00    -0.383 OA
ATOM     10  H   UNL     1      -0.046   1.171 -22.699  1.00  0.00     0.211 HD
ENDBRANCH   6   9
ENDBRANCH   5   6
BRANCH   5  11
ATOM     11  O   UNL     1      -1.770   4.413 -22.765  1.00  0.00    -0.387 OA
ATOM     12  H   UNL     1      -1.757   5.074 -23.505  1.00  0.00     0.211 HD
ENDBRANCH   5  11
ENDBRANCH   1   5
BRANCH   1  13
ATOM     13  O   UNL     1      -3.144   3.033 -20.854  1.00  0.00    -0.388 OA
ATOM     14  H   UNL     1      -2.296   3.549 -20.871  1.00  0.00     0.211 HD
ENDBRANCH   1  13
TORSDOF 8
ENDMDL
