MODEL 1
REMARK VINA RESULT:    -2.690      0.000      0.000
REMARK INTER + INTRA:          -8.951
REMARK INTER:                  -5.207
REMARK INTRA:                  -3.744
REMARK UNBOUND:                -3.744
REMARK SMILES CCCCCC=CCC=CCCCCCCCCOC(C)=O
REMARK SMILES IDX 12 1 11 2 10 3 9 4 8 5 7 6 6 7 5 8 4 9 3 10 2 11 1 12 13 13
REMARK SMILES IDX 14 14 15 15 16 16 17 17 18 18 19 19 20 20 22 21 21 22
REMARK H PARENT
REMARK Flexibility Score: inf
ROOT
ATOM      1  C   UNL     1      -3.261   0.820  -3.500  1.00  0.00     0.004 C 
ENDROOT
BRANCH   1   2
ATOM      2  C   UNL     1      -4.612   1.425  -3.905  1.00  0.00     0.027 C 
BRANCH   2   3
ATOM      3  C   UNL     1      -5.202   2.196  -2.750  1.00  0.00    -0.031 C 
ATOM      4  C   UNL     1      -5.228   3.539  -2.650  1.00  0.00    -0.027 C 
BRANCH   4   5
ATOM      5  C   UNL     1      -4.635   4.486  -3.661  1.00  0.00     0.054 C 
BRANCH   5   6
ATOM      6  C   UNL     1      -3.173   4.741  -3.386  1.00  0.00    -0.027 C 
ATOM      7  C   UNL     1      -2.222   4.738  -4.337  1.00  0.00    -0.031 C 
BRANCH   7   8
ATOM      8  C   UNL     1      -2.472   4.446  -5.797  1.00  0.00     0.027 C 
BRANCH   8   9
ATOM      9  C   UNL     1      -2.009   3.037  -6.196  1.00  0.00     0.004 C 
BRANCH   9  10
ATOM     10  C   UNL     1      -0.502   2.838  -5.973  1.00  0.00     0.000 C 
BRANCH  10  11
ATOM     11  C   UNL     1      -0.148   1.348  -5.919  1.00  0.00    -0.003 C 
ATOM     12  C   UNL     1      -1.213   0.502  -6.612  1.00  0.00     0.004 C 
ENDBRANCH  10  11
ENDBRANCH   9  10
ENDBRANCH   8   9
ENDBRANCH   7   8
ENDBRANCH   5   6
ENDBRANCH   4   5
ENDBRANCH   2   3
ENDBRANCH   1   2
BRANCH   1  13
ATOM     13  C   UNL     1      -3.124   0.622  -1.983  1.00  0.00     0.000 C 
BRANCH  13  14
ATOM     14  C   UNL     1      -1.791   1.158  -1.434  1.00  0.00     0.000 C 
BRANCH  14  15
ATOM     15  C   UNL     1      -0.981   1.928  -2.491  1.00  0.00     0.000 C 
BRANCH  15  16
ATOM     16  C   UNL     1       0.531   2.031  -2.203  1.00  0.00     0.003 C 
BRANCH  16  17
ATOM     17  C   UNL     1       1.103   3.452  -2.397  1.00  0.00     0.042 C 
BRANCH  17  18
ATOM     18  C   UNL     1       0.385   4.492  -1.526  1.00  0.00     0.233 C 
BRANCH  18  19
ATOM     19  O   UNL     1       0.452   4.122  -0.150  1.00  0.00    -0.466 OA
BRANCH  19  20
ATOM     20  C   UNL     1      -0.661   4.093   0.696  1.00  0.00     0.302 C 
ATOM     21  O   UNL     1      -0.553   3.716   1.895  1.00  0.00    -0.253 OA
ATOM     22  C   UNL     1      -2.001   4.463   0.159  1.00  0.00     0.139 C 
ENDBRANCH  19  20
ENDBRANCH  18  19
ENDBRANCH  17  18
ENDBRANCH  16  17
ENDBRANCH  15  16
ENDBRANCH  14  15
ENDBRANCH  13  14
ENDBRANCH   1  13
TORSDOF 16
ENDMDL
MODEL 2
REMARK VINA RESULT:    -2.479      1.795      4.075
REMARK INTER + INTRA:          -8.542
REMARK INTER:                  -5.708
REMARK INTRA:                  -2.834
REMARK UNBOUND:                -3.744
REMARK SMILES CCCCCC=CCC=CCCCCCCCCOC(C)=O
REMARK SMILES IDX 12 1 11 2 10 3 9 4 8 5 7 6 6 7 5 8 4 9 3 10 2 11 1 12 13 13
REMARK SMILES IDX 14 14 15 15 16 16 17 17 18 18 19 19 20 20 22 21 21 22
REMARK H PARENT
REMARK Flexibility Score: inf
ROOT
ATOM      1  C   UNL     1      -4.429   4.331  -3.273  1.00  0.00     0.004 C 
ENDROOT
BRANCH   1   2
ATOM      2  C   UNL     1      -4.978   3.344  -2.234  1.00  0.00     0.027 C 
BRANCH   2   3
ATOM      3  C   UNL     1      -5.295   2.023  -2.890  1.00  0.00    -0.031 C 
ATOM      4  C   UNL     1      -4.425   1.005  -3.039  1.00  0.00    -0.027 C 
BRANCH   4   5
ATOM      5  C   UNL     1      -2.982   1.041  -2.607  1.00  0.00     0.054 C 
BRANCH   5   6
ATOM      6  C   UNL     1      -2.087   1.536  -3.717  1.00  0.00    -0.027 C 
ATOM      7  C   UNL     1      -0.808   1.911  -3.533  1.00  0.00    -0.031 C 
BRANCH   7   8
ATOM      8  C   UNL     1      -0.102   1.925  -2.199  1.00  0.00     0.027 C 
BRANCH   8   9
ATOM      9  C   UNL     1       1.155   2.806  -2.215  1.00  0.00     0.004 C 
BRANCH   9  10
ATOM     10  C   UNL     1       1.290   3.598  -3.524  1.00  0.00     0.000 C 
BRANCH  10  11
ATOM     11  C   UNL     1       2.349   4.699  -3.391  1.00  0.00    -0.003 C 
ATOM     12  C   UNL     1       2.200   5.452  -2.073  1.00  0.00     0.004 C 
ENDBRANCH  10  11
ENDBRANCH   9  10
ENDBRANCH   8   9
ENDBRANCH   7   8
ENDBRANCH   5   6
ENDBRANCH   4   5
ENDBRANCH   2   3
ENDBRANCH   1   2
BRANCH   1  13
ATOM     13  C   UNL     1      -3.087   4.952  -2.858  1.00  0.00     0.000 C 
BRANCH  13  14
ATOM     14  C   UNL     1      -2.662   4.547  -1.436  1.00  0.00     0.000 C 
BRANCH  14  15
ATOM     15  C   UNL     1      -1.524   5.423  -0.885  1.00  0.00     0.000 C 
BRANCH  15  16
ATOM     16  C   UNL     1      -0.675   4.764   0.221  1.00  0.00     0.003 C 
BRANCH  16  17
ATOM     17  C   UNL     1      -1.312   3.489   0.814  1.00  0.00     0.042 C 
BRANCH  17  18
ATOM     18  C   UNL     1      -1.425   3.554   2.344  1.00  0.00     0.233 C 
BRANCH  18  19
ATOM     19  O   UNL     1      -0.138   3.729   2.933  1.00  0.00    -0.466 OA
BRANCH  19  20
ATOM     20  C   UNL     1       0.401   2.854   3.882  1.00  0.00     0.302 C 
ATOM     21  O   UNL     1       1.611   2.943   4.230  1.00  0.00    -0.253 OA
ATOM     22  C   UNL     1      -0.450   1.771   4.450  1.00  0.00     0.139 C 
ENDBRANCH  19  20
ENDBRANCH  18  19
ENDBRANCH  17  18
ENDBRANCH  16  17
ENDBRANCH  15  16
ENDBRANCH  14  15
ENDBRANCH  13  14
ENDBRANCH   1  13
TORSDOF 16
ENDMDL
MODEL 3
REMARK VINA RESULT:    -2.452      2.776      5.776
REMARK INTER + INTRA:          -8.490
REMARK INTER:                  -4.763
REMARK INTRA:                  -3.726
REMARK UNBOUND:                -3.744
REMARK SMILES CCCCCC=CCC=CCCCCCCCCOC(C)=O
REMARK SMILES IDX 12 1 11 2 10 3 9 4 8 5 7 6 6 7 5 8 4 9 3 10 2 11 1 12 13 13
REMARK SMILES IDX 14 14 15 15 16 16 17 17 18 18 19 19 20 20 22 21 21 22
REMARK H PARENT
REMARK Flexibility Score: inf
ROOT
ATOM      1  C   UNL     1      -0.004   3.947  -5.556  1.00  0.00     0.004 C 
ENDROOT
BRANCH   1   2
ATOM      2  C   UNL     1       0.889   2.764  -5.159  1.00  0.00     0.027 C 
BRANCH   2   3
ATOM      3  C   UNL     1       0.155   1.857  -4.203  1.00  0.00    -0.031 C 
ATOM      4  C   UNL     1       0.294   1.870  -2.863  1.00  0.00    -0.027 C 
BRANCH   4   5
ATOM      5  C   UNL     1       1.239   2.769  -2.108  1.00  0.00     0.054 C 
BRANCH   5   6
ATOM      6  C   UNL     1       0.495   3.687  -1.171  1.00  0.00    -0.027 C 
ATOM      7  C   UNL     1       0.438   5.022  -1.323  1.00  0.00    -0.031 C 
BRANCH   7   8
ATOM      8  C   UNL     1       1.132   5.791  -2.421  1.00  0.00     0.027 C 
BRANCH   8   9
ATOM      9  C   UNL     1       2.415   6.477  -1.930  1.00  0.00     0.004 C 
BRANCH   9  10
ATOM     10  C   UNL     1       3.677   5.850  -2.542  1.00  0.00     0.000 C 
BRANCH  10  11
ATOM     11  C   UNL     1       3.357   5.165  -3.876  1.00  0.00    -0.003 C 
ATOM     12  C   UNL     1       4.249   3.947  -4.100  1.00  0.00     0.004 C 
ENDBRANCH  10  11
ENDBRANCH   9  10
ENDBRANCH   8   9
ENDBRANCH   7   8
ENDBRANCH   5   6
ENDBRANCH   4   5
ENDBRANCH   2   3
ENDBRANCH   1   2
BRANCH   1  13
ATOM     13  C   UNL     1      -1.385   3.510  -6.067  1.00  0.00     0.000 C 
BRANCH  13  14
ATOM     14  C   UNL     1      -2.539   4.171  -5.295  1.00  0.00     0.000 C 
BRANCH  14  15
ATOM     15  C   UNL     1      -2.073   4.842  -3.991  1.00  0.00     0.000 C 
BRANCH  15  16
ATOM     16  C   UNL     1      -2.984   4.594  -2.772  1.00  0.00     0.003 C 
BRANCH  16  17
ATOM     17  C   UNL     1      -3.116   3.105  -2.389  1.00  0.00     0.042 C 
BRANCH  17  18
ATOM     18  C   UNL     1      -4.571   2.619  -2.438  1.00  0.00     0.233 C 
BRANCH  18  19
ATOM     19  O   UNL     1      -4.640   1.305  -2.990  1.00  0.00    -0.466 OA
BRANCH  19  20
ATOM     20  C   UNL     1      -4.400   1.021  -4.338  1.00  0.00     0.302 C 
ATOM     21  O   UNL     1      -5.041   1.613  -5.249  1.00  0.00    -0.253 OA
ATOM     22  C   UNL     1      -3.409  -0.032  -4.702  1.00  0.00     0.139 C 
ENDBRANCH  19  20
ENDBRANCH  18  19
ENDBRANCH  17  18
ENDBRANCH  16  17
ENDBRANCH  15  16
ENDBRANCH  14  15
ENDBRANCH  13  14
ENDBRANCH   1  13
TORSDOF 16
ENDMDL
MODEL 4
REMARK VINA RESULT:    -2.429      1.718      3.484
REMARK INTER + INTRA:          -8.445
REMARK INTER:                  -5.316
REMARK INTRA:                  -3.129
REMARK UNBOUND:                -3.744
REMARK SMILES CCCCCC=CCC=CCCCCCCCCOC(C)=O
REMARK SMILES IDX 12 1 11 2 10 3 9 4 8 5 7 6 6 7 5 8 4 9 3 10 2 11 1 12 13 13
REMARK SMILES IDX 14 14 15 15 16 16 17 17 18 18 19 19 20 20 22 21 21 22
REMARK H PARENT
REMARK Flexibility Score: inf
ROOT
ATOM      1  C   UNL     1      -1.209   3.273  -4.294  1.00  0.00     0.004 C 
ENDROOT
BRANCH   1   2
ATOM      2  C   UNL     1      -0.959   1.857  -3.757  1.00  0.00     0.027 C 
BRANCH   2   3
ATOM      3  C   UNL     1      -1.342   1.780  -2.300  1.00  0.00    -0.031 C 
ATOM      4  C   UNL     1      -2.432   1.150  -1.820  1.00  0.00    -0.027 C 
BRANCH   4   5
ATOM      5  C   UNL     1      -3.464   0.454  -2.669  1.00  0.00     0.054 C 
BRANCH   5   6
ATOM      6  C   UNL     1      -4.822   1.095  -2.521  1.00  0.00    -0.027 C 
ATOM      7  C   UNL     1      -5.373   1.898  -3.448  1.00  0.00    -0.031 C 
BRANCH   7   8
ATOM      8  C   UNL     1      -4.705   2.300  -4.741  1.00  0.00     0.027 C 
BRANCH   8   9
ATOM      9  C   UNL     1      -4.705   1.164  -5.774  1.00  0.00     0.004 C 
BRANCH   9  10
ATOM     10  C   UNL     1      -3.332   0.988  -6.440  1.00  0.00     0.000 C 
BRANCH  10  11
ATOM     11  C   UNL     1      -2.971  -0.497  -6.565  1.00  0.00    -0.003 C 
ATOM     12  C   UNL     1      -3.961  -1.373  -5.802  1.00  0.00     0.004 C 
ENDBRANCH  10  11
ENDBRANCH   9  10
ENDBRANCH   8   9
ENDBRANCH   7   8
ENDBRANCH   5   6
ENDBRANCH   4   5
ENDBRANCH   2   3
ENDBRANCH   1   2
BRANCH   1  13
ATOM     13  C   UNL     1       0.082   3.995  -4.706  1.00  0.00     0.000 C 
BRANCH  13  14
ATOM     14  C   UNL     1       1.347   3.272  -4.212  1.00  0.00     0.000 C 
BRANCH  14  15
ATOM     15  C   UNL     1       2.128   4.088  -3.169  1.00  0.00     0.000 C 
BRANCH  15  16
ATOM     16  C   UNL     1       1.401   4.288  -1.824  1.00  0.00     0.003 C 
BRANCH  16  17
ATOM     17  C   UNL     1       1.081   5.764  -1.507  1.00  0.00     0.042 C 
BRANCH  17  18
ATOM     18  C   UNL     1      -0.427   6.015  -1.371  1.00  0.00     0.233 C 
BRANCH  18  19
ATOM     19  O   UNL     1      -1.078   4.866  -0.831  1.00  0.00    -0.466 OA
BRANCH  19  20
ATOM     20  C   UNL     1      -2.429   4.842  -0.473  1.00  0.00     0.302 C 
ATOM     21  O   UNL     1      -2.778   4.849   0.739  1.00  0.00    -0.253 OA
ATOM     22  C   UNL     1      -3.470   4.755  -1.538  1.00  0.00     0.139 C 
ENDBRANCH  19  20
ENDBRANCH  18  19
ENDBRANCH  17  18
ENDBRANCH  16  17
ENDBRANCH  15  16
ENDBRANCH  14  15
ENDBRANCH  13  14
ENDBRANCH   1  13
TORSDOF 16
ENDMDL
MODEL 5
REMARK VINA RESULT:    -2.402      2.441      5.046
REMARK INTER + INTRA:          -8.393
REMARK INTER:                  -5.205
REMARK INTRA:                  -3.188
REMARK UNBOUND:                -3.744
REMARK SMILES CCCCCC=CCC=CCCCCCCCCOC(C)=O
REMARK SMILES IDX 12 1 11 2 10 3 9 4 8 5 7 6 6 7 5 8 4 9 3 10 2 11 1 12 13 13
REMARK SMILES IDX 14 14 15 15 16 16 17 17 18 18 19 19 20 20 22 21 21 22
REMARK H PARENT
REMARK Flexibility Score: inf
ROOT
ATOM      1  C   UNL     1       0.675   2.394  -4.050  1.00  0.00     0.004 C 
ENDROOT
BRANCH   1   2
ATOM      2  C   UNL     1       0.957   2.241  -2.549  1.00  0.00     0.027 C 
BRANCH   2   3
ATOM      3  C   UNL     1       1.075   3.599  -1.903  1.00  0.00    -0.031 C 
ATOM      4  C   UNL     1       0.270   4.064  -0.928  1.00  0.00    -0.027 C 
BRANCH   4   5
ATOM      5  C   UNL     1      -0.904   3.313  -0.354  1.00  0.00     0.054 C 
BRANCH   5   6
ATOM      6  C   UNL     1      -2.185   3.663  -1.071  1.00  0.00    -0.027 C 
ATOM      7  C   UNL     1      -2.863   2.804  -1.852  1.00  0.00    -0.031 C 
BRANCH   7   8
ATOM      8  C   UNL     1      -2.425   1.390  -2.152  1.00  0.00     0.027 C 
BRANCH   8   9
ATOM      9  C   UNL     1      -3.587   0.512  -2.637  1.00  0.00     0.004 C 
BRANCH   9  10
ATOM     10  C   UNL     1      -4.551   1.281  -3.554  1.00  0.00     0.000 C 
BRANCH  10  11
ATOM     11  C   UNL     1      -4.518   0.717  -4.979  1.00  0.00    -0.003 C 
ATOM     12  C   UNL     1      -3.507  -0.419  -5.101  1.00  0.00     0.004 C 
ENDBRANCH  10  11
ENDBRANCH   9  10
ENDBRANCH   8   9
ENDBRANCH   7   8
ENDBRANCH   5   6
ENDBRANCH   4   5
ENDBRANCH   2   3
ENDBRANCH   1   2
BRANCH   1  13
ATOM     13  C   UNL     1      -0.300   3.539  -4.362  1.00  0.00     0.000 C 
BRANCH  13  14
ATOM     14  C   UNL     1      -0.906   3.432  -5.772  1.00  0.00     0.000 C 
BRANCH  14  15
ATOM     15  C   UNL     1      -2.427   3.658  -5.784  1.00  0.00     0.000 C 
BRANCH  15  16
ATOM     16  C   UNL     1      -2.926   4.772  -4.841  1.00  0.00     0.003 C 
BRANCH  16  17
ATOM     17  C   UNL     1      -4.452   4.751  -4.610  1.00  0.00     0.042 C 
BRANCH  17  18
ATOM     18  C   UNL     1      -4.963   6.058  -3.988  1.00  0.00     0.233 C 
BRANCH  18  19
ATOM     19  O   UNL     1      -5.824   5.783  -2.885  1.00  0.00    -0.466 OA
BRANCH  19  20
ATOM     20  C   UNL     1      -5.372   5.648  -1.569  1.00  0.00     0.302 C 
ATOM     21  O   UNL     1      -5.833   4.748  -0.815  1.00  0.00    -0.253 OA
ATOM     22  C   UNL     1      -4.370   6.614  -1.034  1.00  0.00     0.139 C 
ENDBRANCH  19  20
ENDBRANCH  18  19
ENDBRANCH  17  18
ENDBRANCH  16  17
ENDBRANCH  15  16
ENDBRANCH  14  15
ENDBRANCH  13  14
ENDBRANCH   1  13
TORSDOF 16
ENDMDL
MODEL 6
REMARK VINA RESULT:    -2.372      3.030      5.949
REMARK INTER + INTRA:          -8.334
REMARK INTER:                  -4.892
REMARK INTRA:                  -3.442
REMARK UNBOUND:                -3.744
REMARK SMILES CCCCCC=CCC=CCCCCCCCCOC(C)=O
REMARK SMILES IDX 12 1 11 2 10 3 9 4 8 5 7 6 6 7 5 8 4 9 3 10 2 11 1 12 13 13
REMARK SMILES IDX 14 14 15 15 16 16 17 17 18 18 19 19 20 20 22 21 21 22
REMARK H PARENT
REMARK Flexibility Score: inf
ROOT
ATOM      1  C   UNL     1      -2.728   4.354  -3.955  1.00  0.00     0.004 C 
ENDROOT
BRANCH   1   2
ATOM      2  C   UNL     1      -4.161   4.142  -3.448  1.00  0.00     0.027 C 
BRANCH   2   3
ATOM      3  C   UNL     1      -4.751   2.899  -4.066  1.00  0.00    -0.031 C 
ATOM      4  C   UNL     1      -4.826   1.697  -3.463  1.00  0.00    -0.027 C 
BRANCH   4   5
ATOM      5  C   UNL     1      -4.296   1.394  -2.085  1.00  0.00     0.054 C 
BRANCH   5   6
ATOM      6  C   UNL     1      -2.951   0.713  -2.150  1.00  0.00    -0.027 C 
ATOM      7  C   UNL     1      -1.815   1.255  -1.676  1.00  0.00    -0.031 C 
BRANCH   7   8
ATOM      8  C   UNL     1      -1.716   2.626  -1.050  1.00  0.00     0.027 C 
BRANCH   8   9
ATOM      9  C   UNL     1      -0.336   3.264  -1.263  1.00  0.00     0.004 C 
BRANCH   9  10
ATOM     10  C   UNL     1       0.643   2.308  -1.961  1.00  0.00     0.000 C 
BRANCH  10  11
ATOM     11  C   UNL     1       1.563   3.071  -2.921  1.00  0.00    -0.003 C 
ATOM     12  C   UNL     1       1.111   4.519  -3.086  1.00  0.00     0.004 C 
ENDBRANCH  10  11
ENDBRANCH   9  10
ENDBRANCH   8   9
ENDBRANCH   7   8
ENDBRANCH   5   6
ENDBRANCH   4   5
ENDBRANCH   2   3
ENDBRANCH   1   2
BRANCH   1  13
ATOM     13  C   UNL     1      -2.587   4.125  -5.467  1.00  0.00     0.000 C 
BRANCH  13  14
ATOM     14  C   UNL     1      -1.263   3.437  -5.841  1.00  0.00     0.000 C 
BRANCH  14  15
ATOM     15  C   UNL     1      -1.101   2.060  -5.173  1.00  0.00     0.000 C 
BRANCH  15  16
ATOM     16  C   UNL     1      -1.995   0.947  -5.755  1.00  0.00     0.003 C 
BRANCH  16  17
ATOM     17  C   UNL     1      -1.956   0.863  -7.296  1.00  0.00     0.042 C 
BRANCH  17  18
ATOM     18  C   UNL     1      -1.137  -0.337  -7.792  1.00  0.00     0.233 C 
BRANCH  18  19
ATOM     19  O   UNL     1      -0.600  -1.065  -6.689  1.00  0.00    -0.466 OA
BRANCH  19  20
ATOM     20  C   UNL     1      -0.296  -2.429  -6.740  1.00  0.00     0.302 C 
ATOM     21  O   UNL     1       0.785  -2.870  -6.263  1.00  0.00    -0.253 OA
ATOM     22  C   UNL     1      -1.240  -3.367  -7.412  1.00  0.00     0.139 C 
ENDBRANCH  19  20
ENDBRANCH  18  19
ENDBRANCH  17  18
ENDBRANCH  16  17
ENDBRANCH  15  16
ENDBRANCH  14  15
ENDBRANCH  13  14
ENDBRANCH   1  13
TORSDOF 16
ENDMDL
MODEL 7
REMARK VINA RESULT:    -2.369      1.679      4.712
REMARK INTER + INTRA:          -8.329
REMARK INTER:                  -4.665
REMARK INTRA:                  -3.664
REMARK UNBOUND:                -3.744
REMARK SMILES CCCCCC=CCC=CCCCCCCCCOC(C)=O
REMARK SMILES IDX 12 1 11 2 10 3 9 4 8 5 7 6 6 7 5 8 4 9 3 10 2 11 1 12 13 13
REMARK SMILES IDX 14 14 15 15 16 16 17 17 18 18 19 19 20 20 22 21 21 22
REMARK H PARENT
REMARK Flexibility Score: inf
ROOT
ATOM      1  C   UNL     1      -0.910   2.297  -5.282  1.00  0.00     0.004 C 
ENDROOT
BRANCH   1   2
ATOM      2  C   UNL     1       0.277   1.827  -4.429  1.00  0.00     0.027 C 
BRANCH   2   3
ATOM      3  C   UNL     1       1.131   3.007  -4.035  1.00  0.00    -0.031 C 
ATOM      4  C   UNL     1       1.319   3.439  -2.774  1.00  0.00    -0.027 C 
BRANCH   4   5
ATOM      5  C   UNL     1       0.672   2.833  -1.555  1.00  0.00     0.054 C 
BRANCH   5   6
ATOM      6  C   UNL     1      -0.665   3.470  -1.267  1.00  0.00    -0.027 C 
ATOM      7  C   UNL     1      -1.828   2.794  -1.258  1.00  0.00    -0.031 C 
BRANCH   7   8
ATOM      8  C   UNL     1      -1.966   1.323  -1.567  1.00  0.00     0.027 C 
BRANCH   8   9
ATOM      9  C   UNL     1      -3.029   1.051  -2.641  1.00  0.00     0.004 C 
BRANCH   9  10
ATOM     10  C   UNL     1      -4.266   1.946  -2.471  1.00  0.00     0.000 C 
BRANCH  10  11
ATOM     11  C   UNL     1      -5.205   1.817  -3.675  1.00  0.00    -0.003 C 
ATOM     12  C   UNL     1      -4.559   1.008  -4.796  1.00  0.00     0.004 C 
ENDBRANCH  10  11
ENDBRANCH   9  10
ENDBRANCH   8   9
ENDBRANCH   7   8
ENDBRANCH   5   6
ENDBRANCH   4   5
ENDBRANCH   2   3
ENDBRANCH   1   2
BRANCH   1  13
ATOM     13  C   UNL     1      -1.112   3.819  -5.241  1.00  0.00     0.000 C 
BRANCH  13  14
ATOM     14  C   UNL     1      -2.524   4.216  -4.777  1.00  0.00     0.000 C 
BRANCH  14  15
ATOM     15  C   UNL     1      -2.518   5.430  -3.833  1.00  0.00     0.000 C 
BRANCH  15  16
ATOM     16  C   UNL     1      -3.871   5.735  -3.158  1.00  0.00     0.003 C 
BRANCH  16  17
ATOM     17  C   UNL     1      -3.736   6.387  -1.766  1.00  0.00     0.042 C 
BRANCH  17  18
ATOM     18  C   UNL     1      -4.108   5.421  -0.633  1.00  0.00     0.233 C 
BRANCH  18  19
ATOM     19  O   UNL     1      -3.732   5.966   0.631  1.00  0.00    -0.466 OA
BRANCH  19  20
ATOM     20  C   UNL     1      -2.602   5.553   1.343  1.00  0.00     0.302 C 
ATOM     21  O   UNL     1      -2.686   4.656   2.227  1.00  0.00    -0.253 OA
ATOM     22  C   UNL     1      -1.292   6.217   1.091  1.00  0.00     0.139 C 
ENDBRANCH  19  20
ENDBRANCH  18  19
ENDBRANCH  17  18
ENDBRANCH  16  17
ENDBRANCH  15  16
ENDBRANCH  14  15
ENDBRANCH  13  14
ENDBRANCH   1  13
TORSDOF 16
ENDMDL
MODEL 8
REMARK VINA RESULT:    -2.340      2.896      5.747
REMARK INTER + INTRA:          -8.274
REMARK INTER:                  -4.618
REMARK INTRA:                  -3.656
REMARK UNBOUND:                -3.744
REMARK SMILES CCCCCC=CCC=CCCCCCCCCOC(C)=O
REMARK SMILES IDX 12 1 11 2 10 3 9 4 8 5 7 6 6 7 5 8 4 9 3 10 2 11 1 12 13 13
REMARK SMILES IDX 14 14 15 15 16 16 17 17 18 18 19 19 20 20 22 21 21 22
REMARK H PARENT
REMARK Flexibility Score: inf
ROOT
ATOM      1  C   UNL     1      -1.104   5.023  -1.280  1.00  0.00     0.004 C 
ENDROOT
BRANCH   1   2
ATOM      2  C   UNL     1      -0.862   3.672  -0.592  1.00  0.00     0.027 C 
BRANCH   2   3
ATOM      3  C   UNL     1       0.509   3.150  -0.944  1.00  0.00    -0.031 C 
ATOM      4  C   UNL     1       0.794   2.392  -2.020  1.00  0.00    -0.027 C 
BRANCH   4   5
ATOM      5  C   UNL     1      -0.222   1.912  -3.025  1.00  0.00     0.054 C 
BRANCH   5   6
ATOM      6  C   UNL     1       0.355   1.879  -4.419  1.00  0.00    -0.027 C 
ATOM      7  C   UNL     1       0.368   2.940  -5.246  1.00  0.00    -0.031 C 
BRANCH   7   8
ATOM      8  C   UNL     1      -0.217   4.292  -4.916  1.00  0.00     0.027 C 
BRANCH   8   9
ATOM      9  C   UNL     1       0.839   5.268  -4.378  1.00  0.00     0.004 C 
BRANCH   9  10
ATOM     10  C   UNL     1       2.262   4.867  -4.793  1.00  0.00     0.000 C 
BRANCH  10  11
ATOM     11  C   UNL     1       3.161   4.688  -3.564  1.00  0.00    -0.003 C 
ATOM     12  C   UNL     1       2.738   5.617  -2.429  1.00  0.00     0.004 C 
ENDBRANCH  10  11
ENDBRANCH   9  10
ENDBRANCH   8   9
ENDBRANCH   7   8
ENDBRANCH   5   6
ENDBRANCH   4   5
ENDBRANCH   2   3
ENDBRANCH   1   2
BRANCH   1  13
ATOM     13  C   UNL     1      -2.434   5.075  -2.046  1.00  0.00     0.000 C 
BRANCH  13  14
ATOM     14  C   UNL     1      -3.271   3.797  -1.866  1.00  0.00     0.000 C 
BRANCH  14  15
ATOM     15  C   UNL     1      -3.544   3.073  -3.196  1.00  0.00     0.000 C 
BRANCH  15  16
ATOM     16  C   UNL     1      -4.376   1.781  -3.073  1.00  0.00     0.003 C 
BRANCH  16  17
ATOM     17  C   UNL     1      -3.542   0.491  -3.219  1.00  0.00     0.042 C 
BRANCH  17  18
ATOM     18  C   UNL     1      -3.657  -0.120  -4.623  1.00  0.00     0.233 C 
BRANCH  18  19
ATOM     19  O   UNL     1      -2.457   0.099  -5.362  1.00  0.00    -0.466 OA
BRANCH  19  20
ATOM     20  C   UNL     1      -2.408   0.828  -6.555  1.00  0.00     0.302 C 
ATOM     21  O   UNL     1      -1.555   0.557  -7.444  1.00  0.00    -0.253 OA
ATOM     22  C   UNL     1      -3.341   1.972  -6.755  1.00  0.00     0.139 C 
ENDBRANCH  19  20
ENDBRANCH  18  19
ENDBRANCH  17  18
ENDBRANCH  16  17
ENDBRANCH  15  16
ENDBRANCH  14  15
ENDBRANCH  13  14
ENDBRANCH   1  13
TORSDOF 16
ENDMDL
MODEL 9
REMARK VINA RESULT:    -2.319      2.962      6.235
REMARK INTER + INTRA:          -8.232
REMARK INTER:                  -4.353
REMARK INTRA:                  -3.880
REMARK UNBOUND:                -3.744
REMARK SMILES CCCCCC=CCC=CCCCCCCCCOC(C)=O
REMARK SMILES IDX 12 1 11 2 10 3 9 4 8 5 7 6 6 7 5 8 4 9 3 10 2 11 1 12 13 13
REMARK SMILES IDX 14 14 15 15 16 16 17 17 18 18 19 19 20 20 22 21 21 22
REMARK H PARENT
REMARK Flexibility Score: inf
ROOT
ATOM      1  C   UNL     1      -0.503   4.607  -4.801  1.00  0.00     0.004 C 
ENDROOT
BRANCH   1   2
ATOM      2  C   UNL     1       0.738   4.703  -3.902  1.00  0.00     0.027 C 
BRANCH   2   3
ATOM      3  C   UNL     1       1.156   3.326  -3.448  1.00  0.00    -0.031 C 
ATOM      4  C   UNL     1       1.020   2.850  -2.196  1.00  0.00    -0.027 C 
BRANCH   4   5
ATOM      5  C   UNL     1       0.463   3.635  -1.036  1.00  0.00     0.054 C 
BRANCH   5   6
ATOM      6  C   UNL     1      -0.891   3.114  -0.619  1.00  0.00    -0.027 C 
ATOM      7  C   UNL     1      -2.049   3.741  -0.893  1.00  0.00    -0.031 C 
BRANCH   7   8
ATOM      8  C   UNL     1      -2.158   5.060  -1.619  1.00  0.00     0.027 C 
BRANCH   8   9
ATOM      9  C   UNL     1      -3.552   5.277  -2.225  1.00  0.00     0.004 C 
BRANCH   9  10
ATOM     10  C   UNL     1      -4.455   4.047  -2.054  1.00  0.00     0.000 C 
BRANCH  10  11
ATOM     11  C   UNL     1      -5.500   3.974  -3.174  1.00  0.00    -0.003 C 
ATOM     12  C   UNL     1      -5.110   4.863  -4.352  1.00  0.00     0.004 C 
ENDBRANCH  10  11
ENDBRANCH   9  10
ENDBRANCH   8   9
ENDBRANCH   7   8
ENDBRANCH   5   6
ENDBRANCH   4   5
ENDBRANCH   2   3
ENDBRANCH   1   2
BRANCH   1  13
ATOM     13  C   UNL     1      -0.829   3.167  -5.221  1.00  0.00     0.000 C 
BRANCH  13  14
ATOM     14  C   UNL     1      -2.221   2.713  -4.748  1.00  0.00     0.000 C 
BRANCH  14  15
ATOM     15  C   UNL     1      -2.158   1.532  -3.765  1.00  0.00     0.000 C 
BRANCH  15  16
ATOM     16  C   UNL     1      -3.494   0.792  -3.552  1.00  0.00     0.003 C 
BRANCH  16  17
ATOM     17  C   UNL     1      -4.249   0.487  -4.864  1.00  0.00     0.042 C 
BRANCH  17  18
ATOM     18  C   UNL     1      -3.783  -0.824  -5.511  1.00  0.00     0.233 C 
BRANCH  18  19
ATOM     19  O   UNL     1      -3.281  -0.582  -6.824  1.00  0.00    -0.466 OA
BRANCH  19  20
ATOM     20  C   UNL     1      -1.989  -0.113  -7.081  1.00  0.00     0.302 C 
ATOM     21  O   UNL     1      -1.001  -0.546  -6.427  1.00  0.00    -0.253 OA
ATOM     22  C   UNL     1      -1.784   0.951  -8.105  1.00  0.00     0.139 C 
ENDBRANCH  19  20
ENDBRANCH  18  19
ENDBRANCH  17  18
ENDBRANCH  16  17
ENDBRANCH  15  16
ENDBRANCH  14  15
ENDBRANCH  13  14
ENDBRANCH   1  13
TORSDOF 16
ENDMDL
