MODEL 1
REMARK VINA RESULT:    -5.118      0.000      0.000
REMARK INTER + INTRA:          -7.876
REMARK INTER:                  -6.763
REMARK INTRA:                  -1.113
REMARK UNBOUND:                -1.113
REMARK SMILES CC[C@@H](C=C[C@H](C)[C@H]1CC[C@@H]2C3=CC[C@H]4C[C@@H](O)CC[C@@]4(C)[C@H]3CC[C@@]21C)C(C)C
REMARK SMILES IDX 6 1 7 2 5 3 4 4 3 5 2 6 1 7 28 8 29 9 30 10 8 11 9 12 26 13
REMARK SMILES IDX 10 14 11 15 25 16 27 17 12 18 24 19 23 20 13 21 21 22 14 23
REMARK SMILES IDX 15 24 20 25 22 26 16 27 19 28 17 29 18 30
REMARK H PARENT 18 31
REMARK Flexibility Score: inf
ROOT
ATOM      1  C   UNL     1       7.796   0.587   0.884  1.00  0.00     0.012 C 
ATOM      2  C   UNL     1       8.738  -0.360   0.097  1.00  0.00     0.012 C 
ENDROOT
BRANCH   1   3
ATOM      3  C   UNL     1       8.230   0.666   2.337  1.00  0.00    -0.028 C 
ATOM      4  C   UNL     1       7.885   1.706   3.115  1.00  0.00    -0.027 C 
BRANCH   4   5
ATOM      5  C   UNL     1       8.397   1.817   4.538  1.00  0.00     0.014 C 
BRANCH   5   6
ATOM      6  C   UNL     1       8.604   0.402   5.131  1.00  0.00     0.004 C 
ATOM      7  C   UNL     1       9.977   0.221   5.785  1.00  0.00     0.004 C 
ENDBRANCH   5   6
BRANCH   5   8
ATOM      8  C   UNL     1       7.510   2.751   5.424  1.00  0.00    -0.011 C 
ATOM      9  C   UNL     1       8.285   3.894   6.099  1.00  0.00     0.008 C 
ATOM     10  C   UNL     1       6.719   1.948   6.473  1.00  0.00     0.008 C 
ENDBRANCH   5   8
ENDBRANCH   4   5
ENDBRANCH   1   3
BRANCH   1  11
ATOM     11  C   UNL     1       7.671   2.039   0.293  1.00  0.00     0.002 C 
ATOM     12  C   UNL     1       9.032   2.597  -0.177  1.00  0.00     0.005 C 
ATOM     13  C   UNL     1       6.680   2.282  -0.897  1.00  0.00    -0.023 C 
ATOM     14  C   UNL     1       8.934   2.845  -1.680  1.00  0.00     0.009 C 
ATOM     15  C   UNL     1       7.583   2.297  -2.144  1.00  0.00     0.021 C 
ATOM     16  C   UNL     1       6.021   3.677  -0.696  1.00  0.00     0.008 C 
ATOM     17  C   UNL     1       5.573   1.206  -1.019  1.00  0.00     0.012 C 
ATOM     18  C   UNL     1       7.053   3.076  -3.346  1.00  0.00    -0.067 C 
ATOM     19  C   UNL     1       5.239   4.162  -1.914  1.00  0.00     0.009 C 
ATOM     20  C   UNL     1       6.126   4.274  -3.177  1.00  0.00     0.021 C 
ATOM     21  C   UNL     1       7.625   2.831  -4.541  1.00  0.00    -0.027 C 
ATOM     22  C   UNL     1       5.292   4.559  -4.482  1.00  0.00    -0.023 C 
ATOM     23  C   UNL     1       7.314   3.578  -5.806  1.00  0.00     0.031 C 
ATOM     24  C   UNL     1       6.295   4.740  -5.667  1.00  0.00     0.002 C 
ATOM     25  C   UNL     1       4.281   3.392  -4.776  1.00  0.00     0.010 C 
ATOM     26  C   UNL     1       4.511   5.895  -4.289  1.00  0.00     0.012 C 
ATOM     27  C   UNL     1       5.574   4.994  -7.020  1.00  0.00     0.036 C 
ATOM     28  C   UNL     1       4.116   3.020  -6.262  1.00  0.00     0.032 C 
ATOM     29  C   UNL     1       4.238   4.222  -7.201  1.00  0.00     0.114 C 
BRANCH  29  30
ATOM     30  O   UNL     1       4.114   3.778  -8.528  1.00  0.00    -0.393 OA
ATOM     31  H   UNL     1       4.629   2.931  -8.595  1.00  0.00     0.210 HD
ENDBRANCH  29  30
ENDBRANCH   1  11
TORSDOF 6
ENDMDL
MODEL 2
REMARK VINA RESULT:    -5.056      6.522      9.651
REMARK INTER + INTRA:          -7.794
REMARK INTER:                  -6.586
REMARK INTRA:                  -1.208
REMARK UNBOUND:                -1.113
REMARK SMILES CC[C@@H](C=C[C@H](C)[C@H]1CC[C@@H]2C3=CC[C@H]4C[C@@H](O)CC[C@@]4(C)[C@H]3CC[C@@]21C)C(C)C
REMARK SMILES IDX 6 1 7 2 5 3 4 4 3 5 2 6 1 7 28 8 29 9 30 10 8 11 9 12 26 13
REMARK SMILES IDX 10 14 11 15 25 16 27 17 12 18 24 19 23 20 13 21 21 22 14 23
REMARK SMILES IDX 15 24 20 25 22 26 16 27 19 28 17 29 18 30
REMARK H PARENT 18 31
REMARK Flexibility Score: inf
ROOT
ATOM      1  C   UNL     1       3.468  -5.707  -1.915  1.00  0.00     0.012 C 
ATOM      2  C   UNL     1       3.332  -5.890  -0.381  1.00  0.00     0.012 C 
ENDROOT
BRANCH   1   3
ATOM      3  C   UNL     1       2.518  -6.644  -2.639  1.00  0.00    -0.028 C 
ATOM      4  C   UNL     1       1.886  -6.269  -3.764  1.00  0.00    -0.027 C 
BRANCH   4   5
ATOM      5  C   UNL     1       0.873  -7.180  -4.429  1.00  0.00     0.014 C 
BRANCH   5   6
ATOM      6  C   UNL     1       1.596  -8.403  -5.044  1.00  0.00     0.004 C 
ATOM      7  C   UNL     1       1.018  -9.741  -4.571  1.00  0.00     0.004 C 
ENDBRANCH   5   6
BRANCH   5   8
ATOM      8  C   UNL     1      -0.051  -6.418  -5.435  1.00  0.00    -0.011 C 
ATOM      9  C   UNL     1       0.044  -4.888  -5.336  1.00  0.00     0.008 C 
ATOM     10  C   UNL     1      -1.516  -6.873  -5.309  1.00  0.00     0.008 C 
ENDBRANCH   5   8
ENDBRANCH   4   5
ENDBRANCH   1   3
BRANCH   1  11
ATOM     11  C   UNL     1       3.250  -4.237  -2.429  1.00  0.00     0.002 C 
ATOM     12  C   UNL     1       2.200  -3.476  -1.591  1.00  0.00     0.005 C 
ATOM     13  C   UNL     1       4.490  -3.283  -2.522  1.00  0.00    -0.023 C 
ATOM     14  C   UNL     1       2.903  -2.286  -0.941  1.00  0.00     0.009 C 
ATOM     15  C   UNL     1       4.395  -2.415  -1.254  1.00  0.00     0.021 C 
ATOM     16  C   UNL     1       4.321  -2.398  -3.790  1.00  0.00     0.008 C 
ATOM     17  C   UNL     1       5.847  -4.026  -2.592  1.00  0.00     0.012 C 
ATOM     18  C   UNL     1       5.064  -1.044  -1.328  1.00  0.00    -0.067 C 
ATOM     19  C   UNL     1       5.314  -1.241  -3.861  1.00  0.00     0.009 C 
ATOM     20  C   UNL     1       5.199  -0.290  -2.647  1.00  0.00     0.021 C 
ATOM     21  C   UNL     1       5.306  -0.411  -0.164  1.00  0.00    -0.027 C 
ATOM     22  C   UNL     1       6.357   0.776  -2.597  1.00  0.00    -0.023 C 
ATOM     23  C   UNL     1       5.851   0.984  -0.047  1.00  0.00     0.031 C 
ATOM     24  C   UNL     1       6.086   1.728  -1.388  1.00  0.00     0.002 C 
ATOM     25  C   UNL     1       7.761   0.083  -2.462  1.00  0.00     0.010 C 
ATOM     26  C   UNL     1       6.311   1.619  -3.908  1.00  0.00     0.012 C 
ATOM     27  C   UNL     1       7.193   2.806  -1.222  1.00  0.00     0.036 C 
ATOM     28  C   UNL     1       8.764   0.799  -1.537  1.00  0.00     0.032 C 
ATOM     29  C   UNL     1       8.629   2.323  -1.567  1.00  0.00     0.114 C 
BRANCH  29  30
ATOM     30  O   UNL     1       9.553   2.880  -0.667  1.00  0.00    -0.393 OA
ATOM     31  H   UNL     1       9.034   3.183   0.125  1.00  0.00     0.210 HD
ENDBRANCH  29  30
ENDBRANCH   1  11
TORSDOF 6
ENDMDL
MODEL 3
REMARK VINA RESULT:    -5.025      3.216      9.611
REMARK INTER + INTRA:          -7.753
REMARK INTER:                  -6.385
REMARK INTRA:                  -1.368
REMARK UNBOUND:                -1.113
REMARK SMILES CC[C@@H](C=C[C@H](C)[C@H]1CC[C@@H]2C3=CC[C@H]4C[C@@H](O)CC[C@@]4(C)[C@H]3CC[C@@]21C)C(C)C
REMARK SMILES IDX 6 1 7 2 5 3 4 4 3 5 2 6 1 7 28 8 29 9 30 10 8 11 9 12 26 13
REMARK SMILES IDX 10 14 11 15 25 16 27 17 12 18 24 19 23 20 13 21 21 22 14 23
REMARK SMILES IDX 15 24 20 25 22 26 16 27 19 28 17 29 18 30
REMARK H PARENT 18 31
REMARK Flexibility Score: inf
ROOT
ATOM      1  C   UNL     1       3.723   4.940  -6.122  1.00  0.00     0.012 C 
ATOM      2  C   UNL     1       2.450   5.173  -5.268  1.00  0.00     0.012 C 
ENDROOT
BRANCH   1   3
ATOM      3  C   UNL     1       3.724   5.871  -7.322  1.00  0.00    -0.028 C 
ATOM      4  C   UNL     1       4.872   6.299  -7.875  1.00  0.00    -0.027 C 
BRANCH   4   5
ATOM      5  C   UNL     1       4.861   7.297  -9.017  1.00  0.00     0.014 C 
BRANCH   5   6
ATOM      6  C   UNL     1       5.855   6.845 -10.114  1.00  0.00     0.004 C 
ATOM      7  C   UNL     1       6.900   5.849  -9.602  1.00  0.00     0.004 C 
ENDBRANCH   5   6
BRANCH   5   8
ATOM      8  C   UNL     1       5.077   8.767  -8.532  1.00  0.00    -0.011 C 
ATOM      9  C   UNL     1       5.946   8.889  -7.270  1.00  0.00     0.008 C 
ATOM     10  C   UNL     1       3.737   9.497  -8.332  1.00  0.00     0.008 C 
ENDBRANCH   5   8
ENDBRANCH   4   5
ENDBRANCH   1   3
BRANCH   1  11
ATOM     11  C   UNL     1       5.081   5.088  -5.341  1.00  0.00     0.002 C 
ATOM     12  C   UNL     1       5.045   6.249  -4.324  1.00  0.00     0.005 C 
ATOM     13  C   UNL     1       5.631   3.850  -4.553  1.00  0.00    -0.023 C 
ATOM     14  C   UNL     1       5.240   5.649  -2.933  1.00  0.00     0.009 C 
ATOM     15  C   UNL     1       5.235   4.127  -3.091  1.00  0.00     0.021 C 
ATOM     16  C   UNL     1       7.180   3.840  -4.696  1.00  0.00     0.008 C 
ATOM     17  C   UNL     1       5.062   2.495  -5.040  1.00  0.00     0.012 C 
ATOM     18  C   UNL     1       6.100   3.459  -2.024  1.00  0.00    -0.067 C 
ATOM     19  C   UNL     1       7.870   2.850  -3.761  1.00  0.00     0.009 C 
ATOM     20  C   UNL     1       7.571   3.140  -2.271  1.00  0.00     0.021 C 
ATOM     21  C   UNL     1       5.597   3.386  -0.777  1.00  0.00    -0.027 C 
ATOM     22  C   UNL     1       8.094   2.004  -1.314  1.00  0.00    -0.023 C 
ATOM     23  C   UNL     1       6.344   2.868   0.418  1.00  0.00     0.031 C 
ATOM     24  C   UNL     1       7.815   2.446   0.159  1.00  0.00     0.002 C 
ATOM     25  C   UNL     1       7.396   0.631  -1.628  1.00  0.00     0.010 C 
ATOM     26  C   UNL     1       9.635   1.866  -1.504  1.00  0.00     0.012 C 
ATOM     27  C   UNL     1       8.263   1.378   1.194  1.00  0.00     0.036 C 
ATOM     28  C   UNL     1       7.046  -0.229  -0.398  1.00  0.00     0.032 C 
ATOM     29  C   UNL     1       8.061  -0.094   0.739  1.00  0.00     0.114 C 
BRANCH  29  30
ATOM     30  O   UNL     1       7.637  -0.879   1.824  1.00  0.00    -0.393 OA
ATOM     31  H   UNL     1       7.001  -1.550   1.460  1.00  0.00     0.210 HD
ENDBRANCH  29  30
ENDBRANCH   1  11
TORSDOF 6
ENDMDL
MODEL 4
REMARK VINA RESULT:    -5.023      7.628      9.569
REMARK INTER + INTRA:          -7.751
REMARK INTER:                  -6.312
REMARK INTRA:                  -1.439
REMARK UNBOUND:                -1.113
REMARK SMILES CC[C@@H](C=C[C@H](C)[C@H]1CC[C@@H]2C3=CC[C@H]4C[C@@H](O)CC[C@@]4(C)[C@H]3CC[C@@]21C)C(C)C
REMARK SMILES IDX 6 1 7 2 5 3 4 4 3 5 2 6 1 7 28 8 29 9 30 10 8 11 9 12 26 13
REMARK SMILES IDX 10 14 11 15 25 16 27 17 12 18 24 19 23 20 13 21 21 22 14 23
REMARK SMILES IDX 15 24 20 25 22 26 16 27 19 28 17 29 18 30
REMARK H PARENT 18 31
REMARK Flexibility Score: inf
ROOT
ATOM      1  C   UNL     1       5.196  -3.770  -0.855  1.00  0.00     0.012 C 
ATOM      2  C   UNL     1       6.038  -4.820  -0.085  1.00  0.00     0.012 C 
ENDROOT
BRANCH   1   3
ATOM      3  C   UNL     1       5.763  -2.380  -0.630  1.00  0.00    -0.028 C 
ATOM      4  C   UNL     1       5.059  -1.277  -0.938  1.00  0.00    -0.027 C 
BRANCH   4   5
ATOM      5  C   UNL     1       5.669   0.103  -0.792  1.00  0.00     0.014 C 
BRANCH   5   6
ATOM      6  C   UNL     1       5.700   0.809  -2.170  1.00  0.00     0.004 C 
ATOM      7  C   UNL     1       5.240  -0.096  -3.317  1.00  0.00     0.004 C 
ENDBRANCH   5   6
BRANCH   5   8
ATOM      8  C   UNL     1       7.052   0.075  -0.063  1.00  0.00    -0.011 C 
ATOM      9  C   UNL     1       7.172   1.082   1.091  1.00  0.00     0.008 C 
ATOM     10  C   UNL     1       8.214   0.255  -1.056  1.00  0.00     0.008 C 
ENDBRANCH   5   8
ENDBRANCH   4   5
ENDBRANCH   1   3
BRANCH   1  11
ATOM     11  C   UNL     1       5.053  -4.037  -2.398  1.00  0.00     0.002 C 
ATOM     12  C   UNL     1       5.818  -5.301  -2.844  1.00  0.00     0.005 C 
ATOM     13  C   UNL     1       3.615  -4.174  -3.005  1.00  0.00    -0.023 C 
ATOM     14  C   UNL     1       4.792  -6.289  -3.397  1.00  0.00     0.009 C 
ATOM     15  C   UNL     1       3.406  -5.693  -3.142  1.00  0.00     0.021 C 
ATOM     16  C   UNL     1       3.621  -3.506  -4.410  1.00  0.00     0.008 C 
ATOM     17  C   UNL     1       2.505  -3.531  -2.137  1.00  0.00     0.012 C 
ATOM     18  C   UNL     1       2.408  -6.140  -4.208  1.00  0.00    -0.067 C 
ATOM     19  C   UNL     1       2.366  -3.800  -5.229  1.00  0.00     0.009 C 
ATOM     20  C   UNL     1       2.159  -5.314  -5.466  1.00  0.00     0.021 C 
ATOM     21  C   UNL     1       1.942  -7.401  -4.128  1.00  0.00    -0.027 C 
ATOM     22  C   UNL     1       0.761  -5.642  -6.115  1.00  0.00    -0.023 C 
ATOM     23  C   UNL     1       1.046  -8.047  -5.146  1.00  0.00     0.031 C 
ATOM     24  C   UNL     1       0.704  -7.180  -6.387  1.00  0.00     0.002 C 
ATOM     25  C   UNL     1      -0.419  -5.193  -5.180  1.00  0.00     0.010 C 
ATOM     26  C   UNL     1       0.663  -4.896  -7.481  1.00  0.00     0.012 C 
ATOM     27  C   UNL     1      -0.653  -7.624  -7.000  1.00  0.00     0.036 C 
ATOM     28  C   UNL     1      -1.626  -6.149  -5.135  1.00  0.00     0.032 C 
ATOM     29  C   UNL     1      -1.891  -6.848  -6.471  1.00  0.00     0.114 C 
BRANCH  29  30
ATOM     30  O   UNL     1      -2.979  -7.723  -6.319  1.00  0.00    -0.393 OA
ATOM     31  H   UNL     1      -2.652  -8.630  -6.560  1.00  0.00     0.210 HD
ENDBRANCH  29  30
ENDBRANCH   1  11
TORSDOF 6
ENDMDL
MODEL 5
REMARK VINA RESULT:    -4.982      1.328      1.788
REMARK INTER + INTRA:          -7.697
REMARK INTER:                  -6.682
REMARK INTRA:                  -1.015
REMARK UNBOUND:                -1.113
REMARK SMILES CC[C@@H](C=C[C@H](C)[C@H]1CC[C@@H]2C3=CC[C@H]4C[C@@H](O)CC[C@@]4(C)[C@H]3CC[C@@]21C)C(C)C
REMARK SMILES IDX 6 1 7 2 5 3 4 4 3 5 2 6 1 7 28 8 29 9 30 10 8 11 9 12 26 13
REMARK SMILES IDX 10 14 11 15 25 16 27 17 12 18 24 19 23 20 13 21 21 22 14 23
REMARK SMILES IDX 15 24 20 25 22 26 16 27 19 28 17 29 18 30
REMARK H PARENT 18 31
REMARK Flexibility Score: inf
ROOT
ATOM      1  C   UNL     1       7.277   0.863   0.950  1.00  0.00     0.012 C 
ATOM      2  C   UNL     1       7.705  -0.621   1.097  1.00  0.00     0.012 C 
ENDROOT
BRANCH   1   3
ATOM      3  C   UNL     1       7.793   1.673   2.125  1.00  0.00    -0.028 C 
ATOM      4  C   UNL     1       8.209   1.079   3.257  1.00  0.00    -0.027 C 
BRANCH   4   5
ATOM      5  C   UNL     1       8.640   1.902   4.456  1.00  0.00     0.014 C 
BRANCH   5   6
ATOM      6  C   UNL     1       9.733   1.143   5.245  1.00  0.00     0.004 C 
ATOM      7  C   UNL     1      10.049  -0.236   4.656  1.00  0.00     0.004 C 
ENDBRANCH   5   6
BRANCH   5   8
ATOM      8  C   UNL     1       7.430   2.364   5.333  1.00  0.00    -0.011 C 
ATOM      9  C   UNL     1       7.560   3.796   5.875  1.00  0.00     0.008 C 
ATOM     10  C   UNL     1       7.160   1.377   6.483  1.00  0.00     0.008 C 
ENDBRANCH   5   8
ENDBRANCH   4   5
ENDBRANCH   1   3
BRANCH   1  11
ATOM     11  C   UNL     1       7.717   1.549  -0.395  1.00  0.00     0.002 C 
ATOM     12  C   UNL     1       8.315   0.538  -1.397  1.00  0.00     0.005 C 
ATOM     13  C   UNL     1       6.652   2.367  -1.203  1.00  0.00    -0.023 C 
ATOM     14  C   UNL     1       7.418   0.529  -2.633  1.00  0.00     0.009 C 
ATOM     15  C   UNL     1       6.205   1.406  -2.319  1.00  0.00     0.021 C 
ATOM     16  C   UNL     1       7.363   3.607  -1.817  1.00  0.00     0.008 C 
ATOM     17  C   UNL     1       5.446   2.837  -0.352  1.00  0.00     0.012 C 
ATOM     18  C   UNL     1       5.653   2.058  -3.585  1.00  0.00    -0.067 C 
ATOM     19  C   UNL     1       6.515   4.346  -2.848  1.00  0.00     0.009 C 
ATOM     20  C   UNL     1       6.110   3.442  -4.036  1.00  0.00     0.021 C 
ATOM     21  C   UNL     1       4.943   1.279  -4.423  1.00  0.00    -0.027 C 
ATOM     22  C   UNL     1       5.058   4.125  -4.990  1.00  0.00    -0.023 C 
ATOM     23  C   UNL     1       4.420   1.716  -5.761  1.00  0.00     0.031 C 
ATOM     24  C   UNL     1       4.796   3.159  -6.190  1.00  0.00     0.002 C 
ATOM     25  C   UNL     1       3.723   4.445  -4.225  1.00  0.00     0.010 C 
ATOM     26  C   UNL     1       5.677   5.445  -5.544  1.00  0.00     0.012 C 
ATOM     27  C   UNL     1       3.742   3.721  -7.184  1.00  0.00     0.036 C 
ATOM     28  C   UNL     1       2.430   4.216  -5.031  1.00  0.00     0.032 C 
ATOM     29  C   UNL     1       2.587   4.524  -6.522  1.00  0.00     0.114 C 
BRANCH  29  30
ATOM     30  O   UNL     1       1.374   4.248  -7.175  1.00  0.00    -0.393 OA
ATOM     31  H   UNL     1       1.395   3.285  -7.421  1.00  0.00     0.210 HD
ENDBRANCH  29  30
ENDBRANCH   1  11
TORSDOF 6
ENDMDL
MODEL 6
REMARK VINA RESULT:    -4.948      3.180      9.250
REMARK INTER + INTRA:          -7.652
REMARK INTER:                  -6.198
REMARK INTRA:                  -1.453
REMARK UNBOUND:                -1.113
REMARK SMILES CC[C@@H](C=C[C@H](C)[C@H]1CC[C@@H]2C3=CC[C@H]4C[C@@H](O)CC[C@@]4(C)[C@H]3CC[C@@]21C)C(C)C
REMARK SMILES IDX 6 1 7 2 5 3 4 4 3 5 2 6 1 7 28 8 29 9 30 10 8 11 9 12 26 13
REMARK SMILES IDX 10 14 11 15 25 16 27 17 12 18 24 19 23 20 13 21 21 22 14 23
REMARK SMILES IDX 15 24 20 25 22 26 16 27 19 28 17 29 18 30
REMARK H PARENT 18 31
REMARK Flexibility Score: inf
ROOT
ATOM      1  C   UNL     1       5.974   6.889  -5.943  1.00  0.00     0.012 C 
ATOM      2  C   UNL     1       6.961   7.404  -7.023  1.00  0.00     0.012 C 
ENDROOT
BRANCH   1   3
ATOM      3  C   UNL     1       4.559   7.320  -6.281  1.00  0.00    -0.028 C 
ATOM      4  C   UNL     1       3.572   6.421  -6.443  1.00  0.00    -0.027 C 
BRANCH   4   5
ATOM      5  C   UNL     1       2.183   6.857  -6.867  1.00  0.00     0.014 C 
BRANCH   5   6
ATOM      6  C   UNL     1       2.004   8.370  -6.591  1.00  0.00     0.004 C 
ATOM      7  C   UNL     1       0.537   8.778  -6.422  1.00  0.00     0.004 C 
ENDBRANCH   5   6
BRANCH   5   8
ATOM      8  C   UNL     1       1.059   5.962  -6.251  1.00  0.00    -0.011 C 
ATOM      9  C   UNL     1       1.550   5.009  -5.150  1.00  0.00     0.008 C 
ATOM     10  C   UNL     1       0.303   5.180  -7.339  1.00  0.00     0.008 C 
ENDBRANCH   5   8
ENDBRANCH   4   5
ENDBRANCH   1   3
BRANCH   1  11
ATOM     11  C   UNL     1       6.007   5.335  -5.702  1.00  0.00     0.002 C 
ATOM     12  C   UNL     1       7.265   4.678  -6.309  1.00  0.00     0.005 C 
ATOM     13  C   UNL     1       5.918   4.802  -4.231  1.00  0.00    -0.023 C 
ATOM     14  C   UNL     1       8.061   4.060  -5.162  1.00  0.00     0.009 C 
ATOM     15  C   UNL     1       7.376   4.475  -3.859  1.00  0.00     0.021 C 
ATOM     16  C   UNL     1       5.064   3.502  -4.242  1.00  0.00     0.008 C 
ATOM     17  C   UNL     1       5.299   5.814  -3.235  1.00  0.00     0.012 C 
ATOM     18  C   UNL     1       7.570   3.420  -2.772  1.00  0.00    -0.067 C 
ATOM     19  C   UNL     1       5.117   2.728  -2.927  1.00  0.00     0.009 C 
ATOM     20  C   UNL     1       6.557   2.302  -2.552  1.00  0.00     0.021 C 
ATOM     21  C   UNL     1       8.779   3.357  -2.181  1.00  0.00    -0.027 C 
ATOM     22  C   UNL     1       6.653   1.699  -1.100  1.00  0.00    -0.023 C 
ATOM     23  C   UNL     1       9.187   2.317  -1.177  1.00  0.00     0.031 C 
ATOM     24  C   UNL     1       8.125   1.228  -0.870  1.00  0.00     0.002 C 
ATOM     25  C   UNL     1       6.227   2.756  -0.017  1.00  0.00     0.010 C 
ATOM     26  C   UNL     1       5.718   0.455  -1.017  1.00  0.00     0.012 C 
ATOM     27  C   UNL     1       8.345   0.643   0.553  1.00  0.00     0.036 C 
ATOM     28  C   UNL     1       7.059   2.744   1.280  1.00  0.00     0.032 C 
ATOM     29  C   UNL     1       7.534   1.345   1.677  1.00  0.00     0.114 C 
BRANCH  29  30
ATOM     30  O   UNL     1       8.312   1.442   2.843  1.00  0.00    -0.393 OA
ATOM     31  H   UNL     1       7.977   0.746   3.469  1.00  0.00     0.210 HD
ENDBRANCH  29  30
ENDBRANCH   1  11
TORSDOF 6
ENDMDL
MODEL 7
REMARK VINA RESULT:    -4.904      2.240      4.457
REMARK INTER + INTRA:          -7.594
REMARK INTER:                  -6.196
REMARK INTRA:                  -1.397
REMARK UNBOUND:                -1.113
REMARK SMILES CC[C@@H](C=C[C@H](C)[C@H]1CC[C@@H]2C3=CC[C@H]4C[C@@H](O)CC[C@@]4(C)[C@H]3CC[C@@]21C)C(C)C
REMARK SMILES IDX 6 1 7 2 5 3 4 4 3 5 2 6 1 7 28 8 29 9 30 10 8 11 9 12 26 13
REMARK SMILES IDX 10 14 11 15 25 16 27 17 12 18 24 19 23 20 13 21 21 22 14 23
REMARK SMILES IDX 15 24 20 25 22 26 16 27 19 28 17 29 18 30
REMARK H PARENT 18 31
REMARK Flexibility Score: inf
ROOT
ATOM      1  C   UNL     1       7.820   1.144   0.488  1.00  0.00     0.012 C 
ATOM      2  C   UNL     1       7.771   1.863   1.861  1.00  0.00     0.012 C 
ENDROOT
BRANCH   1   3
ATOM      3  C   UNL     1       8.144  -0.327   0.681  1.00  0.00    -0.028 C 
ATOM      4  C   UNL     1       7.372  -1.289   0.148  1.00  0.00    -0.027 C 
BRANCH   4   5
ATOM      5  C   UNL     1       7.654  -2.754   0.420  1.00  0.00     0.014 C 
BRANCH   5   6
ATOM      6  C   UNL     1       9.173  -3.026   0.288  1.00  0.00     0.004 C 
ATOM      7  C   UNL     1       9.611  -3.282  -1.157  1.00  0.00     0.004 C 
ENDBRANCH   5   6
BRANCH   5   8
ATOM      8  C   UNL     1       6.762  -3.708  -0.439  1.00  0.00    -0.011 C 
ATOM      9  C   UNL     1       5.494  -3.043  -0.999  1.00  0.00     0.008 C 
ATOM     10  C   UNL     1       6.399  -4.988   0.334  1.00  0.00     0.008 C 
ENDBRANCH   5   8
ENDBRANCH   4   5
ENDBRANCH   1   3
BRANCH   1  11
ATOM     11  C   UNL     1       6.517   1.286  -0.381  1.00  0.00     0.002 C 
ATOM     12  C   UNL     1       5.437   2.136   0.322  1.00  0.00     0.005 C 
ATOM     13  C   UNL     1       6.642   1.872  -1.829  1.00  0.00    -0.023 C 
ATOM     14  C   UNL     1       5.182   3.366  -0.546  1.00  0.00     0.009 C 
ATOM     15  C   UNL     1       6.208   3.342  -1.681  1.00  0.00     0.021 C 
ATOM     16  C   UNL     1       5.643   1.108  -2.745  1.00  0.00     0.008 C 
ATOM     17  C   UNL     1       8.068   1.767  -2.426  1.00  0.00     0.012 C 
ATOM     18  C   UNL     1       5.656   4.009  -2.939  1.00  0.00    -0.067 C 
ATOM     19  C   UNL     1       5.462   1.751  -4.117  1.00  0.00     0.009 C 
ATOM     20  C   UNL     1       4.944   3.206  -4.022  1.00  0.00     0.021 C 
ATOM     21  C   UNL     1       5.595   5.354  -2.949  1.00  0.00    -0.027 C 
ATOM     22  C   UNL     1       4.962   3.950  -5.411  1.00  0.00    -0.023 C 
ATOM     23  C   UNL     1       4.982   6.174  -4.048  1.00  0.00     0.031 C 
ATOM     24  C   UNL     1       4.339   5.368  -5.208  1.00  0.00     0.002 C 
ATOM     25  C   UNL     1       6.424   4.055  -5.979  1.00  0.00     0.010 C 
ATOM     26  C   UNL     1       4.066   3.155  -6.410  1.00  0.00     0.012 C 
ATOM     27  C   UNL     1       4.337   6.208  -6.515  1.00  0.00     0.036 C 
ATOM     28  C   UNL     1       6.763   5.383  -6.683  1.00  0.00     0.032 C 
ATOM     29  C   UNL     1       5.574   5.990  -7.430  1.00  0.00     0.114 C 
BRANCH  29  30
ATOM     30  O   UNL     1       5.969   7.211  -8.002  1.00  0.00    -0.393 OA
ATOM     31  H   UNL     1       6.285   7.006  -8.922  1.00  0.00     0.210 HD
ENDBRANCH  29  30
ENDBRANCH   1  11
TORSDOF 6
ENDMDL
MODEL 8
REMARK VINA RESULT:    -4.873      3.354      9.830
REMARK INTER + INTRA:          -7.553
REMARK INTER:                  -6.327
REMARK INTRA:                  -1.225
REMARK UNBOUND:                -1.113
REMARK SMILES CC[C@@H](C=C[C@H](C)[C@H]1CC[C@@H]2C3=CC[C@H]4C[C@@H](O)CC[C@@]4(C)[C@H]3CC[C@@]21C)C(C)C
REMARK SMILES IDX 6 1 7 2 5 3 4 4 3 5 2 6 1 7 28 8 29 9 30 10 8 11 9 12 26 13
REMARK SMILES IDX 10 14 11 15 25 16 27 17 12 18 24 19 23 20 13 21 21 22 14 23
REMARK SMILES IDX 15 24 20 25 22 26 16 27 19 28 17 29 18 30
REMARK H PARENT 18 31
REMARK Flexibility Score: inf
ROOT
ATOM      1  C   UNL     1       3.707   4.887  -6.062  1.00  0.00     0.012 C 
ATOM      2  C   UNL     1       2.457   5.143  -5.180  1.00  0.00     0.012 C 
ENDROOT
BRANCH   1   3
ATOM      3  C   UNL     1       3.683   5.796  -7.277  1.00  0.00    -0.028 C 
ATOM      4  C   UNL     1       3.162   7.034  -7.216  1.00  0.00    -0.027 C 
BRANCH   4   5
ATOM      5  C   UNL     1       3.064   7.900  -8.457  1.00  0.00     0.014 C 
BRANCH   5   6
ATOM      6  C   UNL     1       4.058   9.081  -8.349  1.00  0.00     0.004 C 
ATOM      7  C   UNL     1       4.533   9.334  -6.914  1.00  0.00     0.004 C 
ENDBRANCH   5   6
BRANCH   5   8
ATOM      8  C   UNL     1       1.595   8.334  -8.772  1.00  0.00    -0.011 C 
ATOM      9  C   UNL     1       1.422   9.846  -8.987  1.00  0.00     0.008 C 
ATOM     10  C   UNL     1       0.616   7.829  -7.697  1.00  0.00     0.008 C 
ENDBRANCH   5   8
ENDBRANCH   4   5
ENDBRANCH   1   3
BRANCH   1  11
ATOM     11  C   UNL     1       5.084   5.038  -5.319  1.00  0.00     0.002 C 
ATOM     12  C   UNL     1       5.086   6.222  -4.328  1.00  0.00     0.005 C 
ATOM     13  C   UNL     1       5.642   3.813  -4.517  1.00  0.00    -0.023 C 
ATOM     14  C   UNL     1       5.310   5.652  -2.929  1.00  0.00     0.009 C 
ATOM     15  C   UNL     1       5.286   4.127  -3.052  1.00  0.00     0.021 C 
ATOM     16  C   UNL     1       7.187   3.783  -4.698  1.00  0.00     0.008 C 
ATOM     17  C   UNL     1       5.048   2.453  -4.958  1.00  0.00     0.012 C 
ATOM     18  C   UNL     1       6.171   3.474  -1.992  1.00  0.00    -0.067 C 
ATOM     19  C   UNL     1       7.891   2.808  -3.758  1.00  0.00     0.009 C 
ATOM     20  C   UNL     1       7.632   3.135  -2.268  1.00  0.00     0.021 C 
ATOM     21  C   UNL     1       5.698   3.435  -0.731  1.00  0.00    -0.027 C 
ATOM     22  C   UNL     1       8.167   2.015  -1.297  1.00  0.00    -0.023 C 
ATOM     23  C   UNL     1       6.470   2.937   0.456  1.00  0.00     0.031 C 
ATOM     24  C   UNL     1       7.930   2.494   0.171  1.00  0.00     0.002 C 
ATOM     25  C   UNL     1       7.449   0.643  -1.563  1.00  0.00     0.010 C 
ATOM     26  C   UNL     1       9.702   1.857  -1.523  1.00  0.00     0.012 C 
ATOM     27  C   UNL     1       8.393   1.445   1.219  1.00  0.00     0.036 C 
ATOM     28  C   UNL     1       7.121  -0.185  -0.305  1.00  0.00     0.032 C 
ATOM     29  C   UNL     1       8.166  -0.035   0.803  1.00  0.00     0.114 C 
BRANCH  29  30
ATOM     30  O   UNL     1       7.761  -0.790   1.916  1.00  0.00    -0.393 OA
ATOM     31  H   UNL     1       7.868  -1.746   1.667  1.00  0.00     0.210 HD
ENDBRANCH  29  30
ENDBRANCH   1  11
TORSDOF 6
ENDMDL
MODEL 9
REMARK VINA RESULT:    -4.819      9.879     13.603
REMARK INTER + INTRA:          -7.482
REMARK INTER:                  -6.187
REMARK INTRA:                  -1.295
REMARK UNBOUND:                -1.113
REMARK SMILES CC[C@@H](C=C[C@H](C)[C@H]1CC[C@@H]2C3=CC[C@H]4C[C@@H](O)CC[C@@]4(C)[C@H]3CC[C@@]21C)C(C)C
REMARK SMILES IDX 6 1 7 2 5 3 4 4 3 5 2 6 1 7 28 8 29 9 30 10 8 11 9 12 26 13
REMARK SMILES IDX 10 14 11 15 25 16 27 17 12 18 24 19 23 20 13 21 21 22 14 23
REMARK SMILES IDX 15 24 20 25 22 26 16 27 19 28 17 29 18 30
REMARK H PARENT 18 31
REMARK Flexibility Score: inf
ROOT
ATOM      1  C   UNL     1      -4.080   0.932  -6.995  1.00  0.00     0.012 C 
ATOM      2  C   UNL     1      -5.178   1.301  -8.027  1.00  0.00     0.012 C 
ENDROOT
BRANCH   1   3
ATOM      3  C   UNL     1      -4.022   1.979  -5.898  1.00  0.00    -0.028 C 
ATOM      4  C   UNL     1      -3.187   1.852  -4.852  1.00  0.00    -0.027 C 
BRANCH   4   5
ATOM      5  C   UNL     1      -3.200   2.860  -3.718  1.00  0.00     0.014 C 
BRANCH   5   6
ATOM      6  C   UNL     1      -4.483   3.723  -3.802  1.00  0.00     0.004 C 
ATOM      7  C   UNL     1      -5.284   3.733  -2.496  1.00  0.00     0.004 C 
ENDBRANCH   5   6
BRANCH   5   8
ATOM      8  C   UNL     1      -1.880   3.693  -3.640  1.00  0.00    -0.011 C 
ATOM      9  C   UNL     1      -1.483   4.105  -2.214  1.00  0.00     0.008 C 
ATOM     10  C   UNL     1      -1.938   4.927  -4.558  1.00  0.00     0.008 C 
ENDBRANCH   5   8
ENDBRANCH   4   5
ENDBRANCH   1   3
BRANCH   1  11
ATOM     11  C   UNL     1      -4.229  -0.496  -6.352  1.00  0.00     0.002 C 
ATOM     12  C   UNL     1      -5.500  -1.225  -6.837  1.00  0.00     0.005 C 
ATOM     13  C   UNL     1      -3.058  -1.523  -6.527  1.00  0.00    -0.023 C 
ATOM     14  C   UNL     1      -5.055  -2.487  -7.573  1.00  0.00     0.009 C 
ATOM     15  C   UNL     1      -3.529  -2.441  -7.670  1.00  0.00     0.021 C 
ATOM     16  C   UNL     1      -2.930  -2.335  -5.206  1.00  0.00     0.008 C 
ATOM     17  C   UNL     1      -1.695  -0.868  -6.860  1.00  0.00     0.012 C 
ATOM     18  C   UNL     1      -2.935  -3.848  -7.688  1.00  0.00    -0.067 C 
ATOM     19  C   UNL     1      -2.013  -3.550  -5.325  1.00  0.00     0.009 C 
ATOM     20  C   UNL     1      -2.494  -4.547  -6.406  1.00  0.00     0.021 C 
ATOM     21  C   UNL     1      -3.042  -4.549  -8.833  1.00  0.00    -0.027 C 
ATOM     22  C   UNL     1      -1.445  -5.687  -6.691  1.00  0.00    -0.023 C 
ATOM     23  C   UNL     1      -2.618  -5.980  -9.002  1.00  0.00     0.031 C 
ATOM     24  C   UNL     1      -2.075  -6.675  -7.725  1.00  0.00     0.002 C 
ATOM     25  C   UNL     1      -0.094  -5.094  -7.231  1.00  0.00     0.010 C 
ATOM     26  C   UNL     1      -1.186  -6.463  -5.363  1.00  0.00     0.012 C 
ATOM     27  C   UNL     1      -1.107  -7.829  -8.107  1.00  0.00     0.036 C 
ATOM     28  C   UNL     1       0.591  -5.916  -8.339  1.00  0.00     0.032 C 
ATOM     29  C   UNL     1       0.392  -7.425  -8.181  1.00  0.00     0.114 C 
BRANCH  29  30
ATOM     30  O   UNL     1       1.015  -8.083  -9.254  1.00  0.00    -0.393 OA
ATOM     31  H   UNL     1       0.398  -8.013 -10.030  1.00  0.00     0.210 HD
ENDBRANCH  29  30
ENDBRANCH   1  11
TORSDOF 6
ENDMDL
