MODEL 1
REMARK VINA RESULT:    -7.080      0.000      0.000
REMARK INTER + INTRA:          -8.632
REMARK INTER:                  -8.322
REMARK INTRA:                  -0.310
REMARK UNBOUND:                -0.310
REMARK SMILES O=c1c(O)c(-c2ccc(O)c(O)c2)oc2cc(O)ccc12
REMARK SMILES IDX 5 1 3 2 2 3 1 4 21 5 15 6 14 7 16 8 17 9 19 10 20 11 6 12
REMARK SMILES IDX 7 13 8 14 9 15 13 16 11 17 10 18 12 20 4 22 18 24
REMARK H PARENT 10 19 12 21 4 23 18 25
REMARK Flexibility Score: inf
ROOT
ATOM      1  C   UNL     1      31.067 108.278  50.715  1.00  0.00     0.180 A 
ATOM      2  C   UNL     1      32.271 108.865  51.159  1.00  0.00     0.208 A 
ATOM      3  C   UNL     1      33.276 109.139  50.219  1.00  0.00     0.235 A 
ATOM      4  O   UNL     1      34.366 109.653  50.593  1.00  0.00    -0.285 OA
ATOM      5  C   UNL     1      33.054 108.845  48.865  1.00  0.00     0.069 A 
ATOM      6  C   UNL     1      31.813 108.282  48.497  1.00  0.00     0.142 A 
ATOM      7  O   UNL     1      30.891 108.028  49.419  1.00  0.00    -0.452 OA
ATOM      8  C   UNL     1      31.549 107.984  47.156  1.00  0.00     0.094 A 
ATOM      9  C   UNL     1      32.513 108.242  46.173  1.00  0.00     0.119 A 
ATOM     10  C   UNL     1      33.745 108.798  46.534  1.00  0.00     0.047 A 
ATOM     11  C   UNL     1      34.017 109.101  47.872  1.00  0.00     0.020 A 
ENDROOT
BRANCH   1  12
ATOM     12  C   UNL     1      29.967 107.941  51.647  1.00  0.00     0.025 A 
ATOM     13  C   UNL     1      29.905 106.654  52.206  1.00  0.00     0.016 A 
ATOM     14  C   UNL     1      28.888 106.320  53.104  1.00  0.00     0.051 A 
ATOM     15  C   UNL     1      27.927 107.273  53.467  1.00  0.00     0.157 A 
ATOM     16  C   UNL     1      29.012 108.900  52.031  1.00  0.00     0.062 A 
ATOM     17  C   UNL     1      27.991 108.566  52.933  1.00  0.00     0.158 A 
BRANCH  15  18
ATOM     18  O   UNL     1      26.909 106.943  54.360  1.00  0.00    -0.504 OA
ATOM     19  H   UNL     1      27.083 106.859  55.355  1.00  0.00     0.293 HD
ENDBRANCH  15  18
BRANCH  17  20
ATOM     20  O   UNL     1      27.042 109.515  53.306  1.00  0.00    -0.504 OA
ATOM     21  H   UNL     1      27.287 110.314  53.880  1.00  0.00     0.293 HD
ENDBRANCH  17  20
ENDBRANCH   1  12
BRANCH   2  22
ATOM     22  O   UNL     1      32.445 109.191  52.506  1.00  0.00    -0.502 OA
ATOM     23  H   UNL     1      31.787 109.771  53.012  1.00  0.00     0.293 HD
ENDBRANCH   2  22
BRANCH   9  24
ATOM     24  O   UNL     1      32.260 107.947  44.835  1.00  0.00    -0.508 OA
ATOM     25  H   UNL     1      32.897 108.232  44.100  1.00  0.00     0.293 HD
ENDBRANCH   9  24
TORSDOF 5
ENDMDL
MODEL 2
REMARK VINA RESULT:    -6.943      1.949      7.077
REMARK INTER + INTRA:          -8.471
REMARK INTER:                  -8.822
REMARK INTRA:                   0.351
REMARK UNBOUND:                -0.310
REMARK SMILES O=c1c(O)c(-c2ccc(O)c(O)c2)oc2cc(O)ccc12
REMARK SMILES IDX 5 1 3 2 2 3 1 4 21 5 15 6 14 7 16 8 17 9 19 10 20 11 6 12
REMARK SMILES IDX 7 13 8 14 9 15 13 16 11 17 10 18 12 20 4 22 18 24
REMARK H PARENT 10 19 12 21 4 23 18 25
REMARK Flexibility Score: inf
ROOT
ATOM      1  C   UNL     1      32.763 108.490  47.605  1.00  0.00     0.180 A 
ATOM      2  C   UNL     1      33.965 108.869  48.239  1.00  0.00     0.208 A 
ATOM      3  C   UNL     1      33.962 109.070  49.627  1.00  0.00     0.235 A 
ATOM      4  O   UNL     1      35.023 109.421  50.216  1.00  0.00    -0.285 OA
ATOM      5  C   UNL     1      32.777 108.870  50.352  1.00  0.00     0.069 A 
ATOM      6  C   UNL     1      31.622 108.468  49.648  1.00  0.00     0.142 A 
ATOM      7  O   UNL     1      31.663 108.297  48.332  1.00  0.00    -0.452 OA
ATOM      8  C   UNL     1      30.424 108.248  50.336  1.00  0.00     0.094 A 
ATOM      9  C   UNL     1      30.364 108.429  51.724  1.00  0.00     0.119 A 
ATOM     10  C   UNL     1      31.507 108.831  52.424  1.00  0.00     0.047 A 
ATOM     11  C   UNL     1      32.709 109.050  51.746  1.00  0.00     0.020 A 
ENDROOT
BRANCH   1  12
ATOM     12  C   UNL     1      32.679 108.277  46.143  1.00  0.00     0.025 A 
ATOM     13  C   UNL     1      31.602 107.548  45.611  1.00  0.00     0.016 A 
ATOM     14  C   UNL     1      31.491 107.352  44.232  1.00  0.00     0.051 A 
ATOM     15  C   UNL     1      32.447 107.895  43.364  1.00  0.00     0.157 A 
ATOM     16  C   UNL     1      33.624 108.837  45.264  1.00  0.00     0.062 A 
ATOM     17  C   UNL     1      33.513 108.642  43.880  1.00  0.00     0.158 A 
BRANCH  15  18
ATOM     18  O   UNL     1      32.341 107.700  41.988  1.00  0.00    -0.504 OA
ATOM     19  H   UNL     1      33.139 107.417  41.430  1.00  0.00     0.293 HD
ENDBRANCH  15  18
BRANCH  17  20
ATOM     20  O   UNL     1      34.454 109.192  43.012  1.00  0.00    -0.504 OA
ATOM     21  H   UNL     1      34.176 109.718  42.191  1.00  0.00     0.293 HD
ENDBRANCH  17  20
ENDBRANCH   1  12
BRANCH   2  22
ATOM     22  O   UNL     1      35.141 109.012  47.498  1.00  0.00    -0.502 OA
ATOM     23  H   UNL     1      35.281 108.550  46.609  1.00  0.00     0.293 HD
ENDBRANCH   2  22
BRANCH   9  24
ATOM     24  O   UNL     1      29.174 108.214  52.417  1.00  0.00    -0.508 OA
ATOM     25  H   UNL     1      28.814 107.280  52.574  1.00  0.00     0.293 HD
ENDBRANCH   9  24
TORSDOF 5
ENDMDL
MODEL 3
REMARK VINA RESULT:    -6.815      2.058      6.883
REMARK INTER + INTRA:          -8.321
REMARK INTER:                  -8.266
REMARK INTRA:                  -0.055
REMARK UNBOUND:                -0.310
REMARK SMILES O=c1c(O)c(-c2ccc(O)c(O)c2)oc2cc(O)ccc12
REMARK SMILES IDX 5 1 3 2 2 3 1 4 21 5 15 6 14 7 16 8 17 9 19 10 20 11 6 12
REMARK SMILES IDX 7 13 8 14 9 15 13 16 11 17 10 18 12 20 4 22 18 24
REMARK H PARENT 10 19 12 21 4 23 18 25
REMARK Flexibility Score: inf
ROOT
ATOM      1  C   UNL     1      30.404 108.902  52.141  1.00  0.00     0.180 A 
ATOM      2  C   UNL     1      30.267 109.947  53.078  1.00  0.00     0.208 A 
ATOM      3  C   UNL     1      29.121 109.985  53.886  1.00  0.00     0.235 A 
ATOM      4  O   UNL     1      28.970 110.917  54.724  1.00  0.00    -0.285 OA
ATOM      5  C   UNL     1      28.153 108.978  53.759  1.00  0.00     0.069 A 
ATOM      6  C   UNL     1      28.374 107.952  52.815  1.00  0.00     0.142 A 
ATOM      7  O   UNL     1      29.468 107.957  52.062  1.00  0.00    -0.452 OA
ATOM      8  C   UNL     1      27.437 106.923  52.666  1.00  0.00     0.094 A 
ATOM      9  C   UNL     1      26.276 106.907  53.450  1.00  0.00     0.119 A 
ATOM     10  C   UNL     1      26.053 107.924  54.384  1.00  0.00     0.047 A 
ATOM     11  C   UNL     1      26.983 108.954  54.542  1.00  0.00     0.020 A 
ENDROOT
BRANCH   1  12
ATOM     12  C   UNL     1      31.574 108.802  51.240  1.00  0.00     0.025 A 
ATOM     13  C   UNL     1      31.377 108.801  49.849  1.00  0.00     0.016 A 
ATOM     14  C   UNL     1      32.468 108.729  48.980  1.00  0.00     0.051 A 
ATOM     15  C   UNL     1      33.772 108.672  49.488  1.00  0.00     0.157 A 
ATOM     16  C   UNL     1      32.887 108.765  51.745  1.00  0.00     0.062 A 
ATOM     17  C   UNL     1      33.982 108.694  50.872  1.00  0.00     0.158 A 
BRANCH  15  18
ATOM     18  O   UNL     1      34.864 108.596  48.624  1.00  0.00    -0.504 OA
ATOM     19  H   UNL     1      34.770 108.791  47.634  1.00  0.00     0.293 HD
ENDBRANCH  15  18
BRANCH  17  20
ATOM     20  O   UNL     1      35.281 108.651  51.374  1.00  0.00    -0.504 OA
ATOM     21  H   UNL     1      35.479 108.827  52.353  1.00  0.00     0.293 HD
ENDBRANCH  17  20
ENDBRANCH   1  12
BRANCH   2  22
ATOM     22  O   UNL     1      31.271 110.909  53.216  1.00  0.00    -0.502 OA
ATOM     23  H   UNL     1      32.223 110.668  53.460  1.00  0.00     0.293 HD
ENDBRANCH   2  22
BRANCH   9  24
ATOM     24  O   UNL     1      25.337 105.888  53.307  1.00  0.00    -0.508 OA
ATOM     25  H   UNL     1      24.481 105.877  53.849  1.00  0.00     0.293 HD
ENDBRANCH   9  24
TORSDOF 5
ENDMDL
MODEL 4
REMARK VINA RESULT:    -6.791     10.416     12.888
REMARK INTER + INTRA:          -8.292
REMARK INTER:                  -7.986
REMARK INTRA:                  -0.306
REMARK UNBOUND:                -0.310
REMARK SMILES O=c1c(O)c(-c2ccc(O)c(O)c2)oc2cc(O)ccc12
REMARK SMILES IDX 5 1 3 2 2 3 1 4 21 5 15 6 14 7 16 8 17 9 19 10 20 11 6 12
REMARK SMILES IDX 7 13 8 14 9 15 13 16 11 17 10 18 12 20 4 22 18 24
REMARK H PARENT 10 19 12 21 4 23 18 25
REMARK Flexibility Score: inf
ROOT
ATOM      1  C   UNL     1      20.161 109.433  49.268  1.00  0.00     0.180 A 
ATOM      2  C   UNL     1      20.667 108.362  50.034  1.00  0.00     0.208 A 
ATOM      3  C   UNL     1      20.674 108.475  51.432  1.00  0.00     0.235 A 
ATOM      4  O   UNL     1      21.132 107.535  52.139  1.00  0.00    -0.285 OA
ATOM      5  C   UNL     1      20.160 109.634  52.034  1.00  0.00     0.069 A 
ATOM      6  C   UNL     1      19.649 110.651  51.199  1.00  0.00     0.142 A 
ATOM      7  O   UNL     1      19.670 110.509  49.879  1.00  0.00    -0.452 OA
ATOM      8  C   UNL     1      19.118 111.818  51.761  1.00  0.00     0.094 A 
ATOM      9  C   UNL     1      19.094 111.983  53.152  1.00  0.00     0.119 A 
ATOM     10  C   UNL     1      19.602 110.978  53.982  1.00  0.00     0.047 A 
ATOM     11  C   UNL     1      20.132 109.808  53.430  1.00  0.00     0.020 A 
ENDROOT
BRANCH   1  12
ATOM     12  C   UNL     1      20.137 109.398  47.788  1.00  0.00     0.025 A 
ATOM     13  C   UNL     1      21.292 109.749  47.070  1.00  0.00     0.016 A 
ATOM     14  C   UNL     1      21.299 109.703  45.674  1.00  0.00     0.051 A 
ATOM     15  C   UNL     1      20.156 109.292  44.976  1.00  0.00     0.157 A 
ATOM     16  C   UNL     1      18.999 108.966  47.084  1.00  0.00     0.062 A 
ATOM     17  C   UNL     1      19.006 108.919  45.682  1.00  0.00     0.158 A 
BRANCH  15  18
ATOM     18  O   UNL     1      20.158 109.248  43.583  1.00  0.00    -0.504 OA
ATOM     19  H   UNL     1      20.179 110.095  43.026  1.00  0.00     0.293 HD
ENDBRANCH  15  18
BRANCH  17  20
ATOM     20  O   UNL     1      17.875 108.498  44.985  1.00  0.00    -0.504 OA
ATOM     21  H   UNL     1      17.519 109.015  44.189  1.00  0.00     0.293 HD
ENDBRANCH  17  20
ENDBRANCH   1  12
BRANCH   2  22
ATOM     22  O   UNL     1      21.127 107.200  49.409  1.00  0.00    -0.502 OA
ATOM     23  H   UNL     1      21.045 107.052  48.412  1.00  0.00     0.293 HD
ENDBRANCH   2  22
BRANCH   9  24
ATOM     24  O   UNL     1      18.569 113.142  53.720  1.00  0.00    -0.508 OA
ATOM     25  H   UNL     1      19.036 113.614  54.486  1.00  0.00     0.293 HD
ENDBRANCH   9  24
TORSDOF 5
ENDMDL
MODEL 5
REMARK VINA RESULT:    -6.775     12.469     14.666
REMARK INTER + INTRA:          -8.273
REMARK INTER:                  -7.953
REMARK INTRA:                  -0.320
REMARK UNBOUND:                -0.310
REMARK SMILES O=c1c(O)c(-c2ccc(O)c(O)c2)oc2cc(O)ccc12
REMARK SMILES IDX 5 1 3 2 2 3 1 4 21 5 15 6 14 7 16 8 17 9 19 10 20 11 6 12
REMARK SMILES IDX 7 13 8 14 9 15 13 16 11 17 10 18 12 20 4 22 18 24
REMARK H PARENT 10 19 12 21 4 23 18 25
REMARK Flexibility Score: inf
ROOT
ATOM      1  C   UNL     1      35.002 102.126  38.993  1.00  0.00     0.180 A 
ATOM      2  C   UNL     1      35.567 100.857  38.745  1.00  0.00     0.208 A 
ATOM      3  C   UNL     1      34.796  99.713  39.001  1.00  0.00     0.235 A 
ATOM      4  O   UNL     1      35.283  98.566  38.799  1.00  0.00    -0.285 OA
ATOM      5  C   UNL     1      33.483  99.856  39.474  1.00  0.00     0.069 A 
ATOM      6  C   UNL     1      32.982 101.160  39.673  1.00  0.00     0.142 A 
ATOM      7  O   UNL     1      33.747 102.218  39.428  1.00  0.00    -0.452 OA
ATOM      8  C   UNL     1      31.673 101.346  40.133  1.00  0.00     0.094 A 
ATOM      9  C   UNL     1      30.856 100.239  40.401  1.00  0.00     0.119 A 
ATOM     10  C   UNL     1      31.351  98.945  40.207  1.00  0.00     0.047 A 
ATOM     11  C   UNL     1      32.656  98.750  39.746  1.00  0.00     0.020 A 
ENDROOT
BRANCH   1  12
ATOM     12  C   UNL     1      35.756 103.379  38.766  1.00  0.00     0.025 A 
ATOM     13  C   UNL     1      35.585 104.080  37.561  1.00  0.00     0.016 A 
ATOM     14  C   UNL     1      36.270 105.276  37.334  1.00  0.00     0.051 A 
ATOM     15  C   UNL     1      37.124 105.797  38.315  1.00  0.00     0.157 A 
ATOM     16  C   UNL     1      36.598 103.917  39.756  1.00  0.00     0.062 A 
ATOM     17  C   UNL     1      37.285 105.119  39.529  1.00  0.00     0.158 A 
BRANCH  15  18
ATOM     18  O   UNL     1      37.812 106.988  38.092  1.00  0.00    -0.504 OA
ATOM     19  H   UNL     1      38.641 107.229  38.623  1.00  0.00     0.293 HD
ENDBRANCH  15  18
BRANCH  17  20
ATOM     20  O   UNL     1      38.125 105.646  40.508  1.00  0.00    -0.504 OA
ATOM     21  H   UNL     1      37.769 106.239  41.250  1.00  0.00     0.293 HD
ENDBRANCH  17  20
ENDBRANCH   1  12
BRANCH   2  22
ATOM     22  O   UNL     1      36.860 100.746  38.228  1.00  0.00    -0.502 OA
ATOM     23  H   UNL     1      37.578 101.435  38.413  1.00  0.00     0.293 HD
ENDBRANCH   2  22
BRANCH   9  24
ATOM     24  O   UNL     1      29.553 100.414  40.861  1.00  0.00    -0.508 OA
ATOM     25  H   UNL     1      29.361 100.860  41.750  1.00  0.00     0.293 HD
ENDBRANCH   9  24
TORSDOF 5
ENDMDL
MODEL 6
REMARK VINA RESULT:    -6.640      7.553     10.771
REMARK INTER + INTRA:          -8.114
REMARK INTER:                  -7.800
REMARK INTRA:                  -0.315
REMARK UNBOUND:                -0.310
REMARK SMILES O=c1c(O)c(-c2ccc(O)c(O)c2)oc2cc(O)ccc12
REMARK SMILES IDX 5 1 3 2 2 3 1 4 21 5 15 6 14 7 16 8 17 9 19 10 20 11 6 12
REMARK SMILES IDX 7 13 8 14 9 15 13 16 11 17 10 18 12 20 4 22 18 24
REMARK H PARENT 10 19 12 21 4 23 18 25
REMARK Flexibility Score: inf
ROOT
ATOM      1  C   UNL     1      32.453 106.244  41.233  1.00  0.00     0.180 A 
ATOM      2  C   UNL     1      33.563 107.109  41.137  1.00  0.00     0.208 A 
ATOM      3  C   UNL     1      33.473 108.389  41.706  1.00  0.00     0.235 A 
ATOM      4  O   UNL     1      34.448 109.186  41.622  1.00  0.00    -0.285 OA
ATOM      5  C   UNL     1      32.297 108.768  42.372  1.00  0.00     0.069 A 
ATOM      6  C   UNL     1      31.241 107.835  42.447  1.00  0.00     0.142 A 
ATOM      7  O   UNL     1      31.361 106.637  41.887  1.00  0.00    -0.452 OA
ATOM      8  C   UNL     1      30.056 108.171  43.112  1.00  0.00     0.094 A 
ATOM      9  C   UNL     1      29.912 109.433  43.704  1.00  0.00     0.119 A 
ATOM     10  C   UNL     1      30.957 110.360  43.629  1.00  0.00     0.047 A 
ATOM     11  C   UNL     1      32.145 110.033  42.969  1.00  0.00     0.020 A 
ENDROOT
BRANCH   1  12
ATOM     12  C   UNL     1      32.462 104.886  40.643  1.00  0.00     0.025 A 
ATOM     13  C   UNL     1      32.111 104.717  39.294  1.00  0.00     0.016 A 
ATOM     14  C   UNL     1      32.134 103.447  38.710  1.00  0.00     0.051 A 
ATOM     15  C   UNL     1      32.521 102.332  39.464  1.00  0.00     0.157 A 
ATOM     16  C   UNL     1      32.870 103.765  41.389  1.00  0.00     0.062 A 
ATOM     17  C   UNL     1      32.894 102.491  40.804  1.00  0.00     0.158 A 
BRANCH  15  18
ATOM     18  O   UNL     1      32.541 101.063  38.886  1.00  0.00    -0.504 OA
ATOM     19  H   UNL     1      33.381 100.495  38.884  1.00  0.00     0.293 HD
ENDBRANCH  15  18
BRANCH  17  20
ATOM     20  O   UNL     1      33.291 101.381  41.546  1.00  0.00    -0.504 OA
ATOM     21  H   UNL     1      33.147 100.436  41.208  1.00  0.00     0.293 HD
ENDBRANCH  17  20
ENDBRANCH   1  12
BRANCH   2  22
ATOM     22  O   UNL     1      34.738 106.687  40.510  1.00  0.00    -0.502 OA
ATOM     23  H   UNL     1      35.411 106.088  40.970  1.00  0.00     0.293 HD
ENDBRANCH   2  22
BRANCH   9  24
ATOM     24  O   UNL     1      28.736 109.776  44.366  1.00  0.00    -0.508 OA
ATOM     25  H   UNL     1      28.042 109.079  44.608  1.00  0.00     0.293 HD
ENDBRANCH   9  24
TORSDOF 5
ENDMDL
MODEL 7
REMARK VINA RESULT:    -6.570     12.350     13.810
REMARK INTER + INTRA:          -8.032
REMARK INTER:                  -7.836
REMARK INTRA:                  -0.196
REMARK UNBOUND:                -0.310
REMARK SMILES O=c1c(O)c(-c2ccc(O)c(O)c2)oc2cc(O)ccc12
REMARK SMILES IDX 5 1 3 2 2 3 1 4 21 5 15 6 14 7 16 8 17 9 19 10 20 11 6 12
REMARK SMILES IDX 7 13 8 14 9 15 13 16 11 17 10 18 12 20 4 22 18 24
REMARK H PARENT 10 19 12 21 4 23 18 25
REMARK Flexibility Score: inf
ROOT
ATOM      1  C   UNL     1      21.130 110.677  41.487  1.00  0.00     0.180 A 
ATOM      2  C   UNL     1      21.607 109.915  40.400  1.00  0.00     0.208 A 
ATOM      3  C   UNL     1      22.261 110.574  39.348  1.00  0.00     0.235 A 
ATOM      4  O   UNL     1      22.686 109.915  38.359  1.00  0.00    -0.285 OA
ATOM      5  C   UNL     1      22.444 111.964  39.411  1.00  0.00     0.069 A 
ATOM      6  C   UNL     1      21.960 112.652  40.545  1.00  0.00     0.142 A 
ATOM      7  O   UNL     1      21.338 111.993  41.515  1.00  0.00    -0.452 OA
ATOM      8  C   UNL     1      22.133 114.036  40.650  1.00  0.00     0.094 A 
ATOM      9  C   UNL     1      22.784 114.746  39.632  1.00  0.00     0.119 A 
ATOM     10  C   UNL     1      23.262 114.067  38.506  1.00  0.00     0.047 A 
ATOM     11  C   UNL     1      23.097 112.684  38.393  1.00  0.00     0.020 A 
ENDROOT
BRANCH   1  12
ATOM     12  C   UNL     1      20.414 110.060  42.626  1.00  0.00     0.025 A 
ATOM     13  C   UNL     1      19.037 110.289  42.782  1.00  0.00     0.016 A 
ATOM     14  C   UNL     1      18.336 109.699  43.837  1.00  0.00     0.051 A 
ATOM     15  C   UNL     1      18.999 108.860  44.742  1.00  0.00     0.157 A 
ATOM     16  C   UNL     1      21.070 109.200  43.525  1.00  0.00     0.062 A 
ATOM     17  C   UNL     1      20.367 108.607  44.584  1.00  0.00     0.158 A 
BRANCH  15  18
ATOM     18  O   UNL     1      18.304 108.272  45.798  1.00  0.00    -0.504 OA
ATOM     19  H   UNL     1      18.742 107.589  46.406  1.00  0.00     0.293 HD
ENDBRANCH  15  18
BRANCH  17  20
ATOM     20  O   UNL     1      21.020 107.761  45.478  1.00  0.00    -0.504 OA
ATOM     21  H   UNL     1      21.467 106.905  45.169  1.00  0.00     0.293 HD
ENDBRANCH  17  20
ENDBRANCH   1  12
BRANCH   2  22
ATOM     22  O   UNL     1      21.453 108.527  40.388  1.00  0.00    -0.502 OA
ATOM     23  H   UNL     1      20.700 108.061  40.877  1.00  0.00     0.293 HD
ENDBRANCH   2  22
BRANCH   9  24
ATOM     24  O   UNL     1      22.958 116.125  39.727  1.00  0.00    -0.508 OA
ATOM     25  H   UNL     1      23.647 116.529  40.351  1.00  0.00     0.293 HD
ENDBRANCH   9  24
TORSDOF 5
ENDMDL
MODEL 8
REMARK VINA RESULT:    -6.538      3.985      9.194
REMARK INTER + INTRA:          -7.995
REMARK INTER:                  -8.202
REMARK INTRA:                   0.208
REMARK UNBOUND:                -0.310
REMARK SMILES O=c1c(O)c(-c2ccc(O)c(O)c2)oc2cc(O)ccc12
REMARK SMILES IDX 5 1 3 2 2 3 1 4 21 5 15 6 14 7 16 8 17 9 19 10 20 11 6 12
REMARK SMILES IDX 7 13 8 14 9 15 13 16 11 17 10 18 12 20 4 22 18 24
REMARK H PARENT 10 19 12 21 4 23 18 25
REMARK Flexibility Score: inf
ROOT
ATOM      1  C   UNL     1      32.876 108.304  44.374  1.00  0.00     0.180 A 
ATOM      2  C   UNL     1      31.542 107.943  44.651  1.00  0.00     0.208 A 
ATOM      3  C   UNL     1      31.107 107.934  45.986  1.00  0.00     0.235 A 
ATOM      4  O   UNL     1      29.920 107.603  46.261  1.00  0.00    -0.285 OA
ATOM      5  C   UNL     1      31.999 108.304  47.005  1.00  0.00     0.069 A 
ATOM      6  C   UNL     1      33.311 108.676  46.643  1.00  0.00     0.142 A 
ATOM      7  O   UNL     1      33.686 108.662  45.369  1.00  0.00    -0.452 OA
ATOM      8  C   UNL     1      34.227 109.061  47.628  1.00  0.00     0.094 A 
ATOM      9  C   UNL     1      33.847 109.077  48.977  1.00  0.00     0.119 A 
ATOM     10  C   UNL     1      32.548 108.705  49.339  1.00  0.00     0.047 A 
ATOM     11  C   UNL     1      31.625 108.321  48.361  1.00  0.00     0.020 A 
ENDROOT
BRANCH   1  12
ATOM     12  C   UNL     1      33.416 108.319  42.995  1.00  0.00     0.025 A 
ATOM     13  C   UNL     1      34.426 109.235  42.659  1.00  0.00     0.016 A 
ATOM     14  C   UNL     1      34.965 109.253  41.370  1.00  0.00     0.051 A 
ATOM     15  C   UNL     1      34.512 108.346  40.403  1.00  0.00     0.157 A 
ATOM     16  C   UNL     1      32.980 107.397  42.027  1.00  0.00     0.062 A 
ATOM     17  C   UNL     1      33.521 107.413  40.733  1.00  0.00     0.158 A 
BRANCH  15  18
ATOM     18  O   UNL     1      35.045 108.363  39.115  1.00  0.00    -0.504 OA
ATOM     19  H   UNL     1      35.560 107.572  38.745  1.00  0.00     0.293 HD
ENDBRANCH  15  18
BRANCH  17  20
ATOM     20  O   UNL     1      33.083 106.504  39.774  1.00  0.00    -0.504 OA
ATOM     21  H   UNL     1      32.461 106.782  39.022  1.00  0.00     0.293 HD
ENDBRANCH  17  20
ENDBRANCH   1  12
BRANCH   2  22
ATOM     22  O   UNL     1      30.663 107.627  43.612  1.00  0.00    -0.502 OA
ATOM     23  H   UNL     1      30.296 106.693  43.478  1.00  0.00     0.293 HD
ENDBRANCH   2  22
BRANCH   9  24
ATOM     24  O   UNL     1      34.752 109.457  49.965  1.00  0.00    -0.508 OA
ATOM     25  H   UNL     1      34.684 109.100  50.911  1.00  0.00     0.293 HD
ENDBRANCH   9  24
TORSDOF 5
ENDMDL
