MODEL 1
REMARK VINA RESULT:    -6.881      0.000      0.000
REMARK INTER + INTRA:         -10.987
REMARK INTER:                  -9.697
REMARK INTRA:                  -1.290
REMARK UNBOUND:                -1.290
REMARK SMILES COc1c(O[C@H]2O[C@@H](C(=O)[O-])[C@@H](O)[C@H](O)[C@@H]2O)cc(O)c2c(=O)cc(-c3ccccc3)oc12
REMARK SMILES IDX 5 1 6 2 8 3 12 4 7 5 14 6 16 7 9 8 10 9 11 10 13 11 15 13
REMARK SMILES IDX 17 15 4 17 3 18 18 19 33 20 19 21 21 22 32 23 22 24 25 25
REMARK SMILES IDX 24 26 23 27 2 28 1 29 20 30 26 32 27 33 31 34 28 35 30 36
REMARK SMILES IDX 29 37
REMARK H PARENT 13 12 15 14 17 16 20 31
REMARK Flexibility Score: inf
ROOT
ATOM      1  O   UNL     1      -1.919 -41.591 -33.091  1.00  0.00    -0.458 OA
ENDROOT
BRANCH   1   2
ATOM      2  C   UNL     1      -2.955 -42.281 -32.388  1.00  0.00     0.339 C 
ATOM      3  C   UNL     1      -3.834 -40.372 -31.261  1.00  0.00     0.199 C 
ATOM      4  C   UNL     1      -5.107 -40.369 -32.146  1.00  0.00     0.180 C 
ATOM      5  O   UNL     1      -3.247 -41.662 -31.139  1.00  0.00    -0.328 OA
ATOM      6  C   UNL     1      -4.847 -41.046 -33.503  1.00  0.00     0.181 C 
ATOM      7  C   UNL     1      -4.205 -42.418 -33.278  1.00  0.00     0.214 C 
BRANCH   3   8
ATOM      8  C   UNL     1      -2.807 -39.317 -31.605  1.00  0.00     0.073 C 
ATOM      9  O   UNL     1      -1.794 -39.176 -30.869  1.00  0.00    -0.547 OA
ATOM     10  O   UNL     1      -2.941 -38.514 -32.732  1.00  0.00    -0.547 OA
ENDBRANCH   3   8
BRANCH   4  11
ATOM     11  O   UNL     1      -5.560 -39.052 -32.330  1.00  0.00    -0.387 OA
ATOM     12  H   UNL     1      -5.767 -38.686 -31.430  1.00  0.00     0.211 HD
ENDBRANCH   4  11
BRANCH   6  13
ATOM     13  O   UNL     1      -6.053 -41.210 -34.204  1.00  0.00    -0.387 OA
ATOM     14  H   UNL     1      -6.303 -42.169 -34.128  1.00  0.00     0.211 HD
ENDBRANCH   6  13
BRANCH   7  15
ATOM     15  O   UNL     1      -5.131 -43.285 -32.670  1.00  0.00    -0.384 OA
ATOM     16  H   UNL     1      -5.995 -43.161 -33.145  1.00  0.00     0.211 HD
ENDBRANCH   7  15
ENDBRANCH   1   2
BRANCH   1  17
ATOM     17  C   UNL     1      -0.749 -42.180 -33.601  1.00  0.00     0.172 A 
ATOM     18  C   UNL     1      -0.579 -42.206 -34.989  1.00  0.00     0.205 A 
ATOM     19  C   UNL     1       0.238 -42.721 -32.764  1.00  0.00     0.097 A 
ATOM     20  C   UNL     1       0.607 -42.749 -35.542  1.00  0.00     0.188 A 
ATOM     21  C   UNL     1       1.401 -43.286 -33.287  1.00  0.00     0.134 A 
ATOM     22  C   UNL     1       1.629 -43.255 -34.690  1.00  0.00     0.111 A 
ATOM     23  O   UNL     1       0.769 -42.780 -36.861  1.00  0.00    -0.452 OA
ATOM     24  C   UNL     1       2.835 -43.674 -35.303  1.00  0.00     0.197 A 
ATOM     25  C   UNL     1       1.870 -43.220 -37.463  1.00  0.00     0.138 A 
ATOM     26  C   UNL     1       2.944 -43.671 -36.691  1.00  0.00     0.100 A 
ATOM     27  O   UNL     1       3.840 -44.023 -34.630  1.00  0.00    -0.289 OA
BRANCH  18  28
ATOM     28  O   UNL     1      -1.620 -41.656 -35.762  1.00  0.00    -0.490 OA
ATOM     29  C   UNL     1      -1.734 -40.299 -36.187  1.00  0.00     0.278 C 
ENDBRANCH  18  28
BRANCH  21  30
ATOM     30  O   UNL     1       2.270 -43.889 -32.372  1.00  0.00    -0.507 OA
ATOM     31  H   UNL     1       2.710 -43.406 -31.602  1.00  0.00     0.293 HD
ENDBRANCH  21  30
BRANCH  25  32
ATOM     32  C   UNL     1       1.930 -43.219 -38.941  1.00  0.00     0.017 A 
ATOM     33  C   UNL     1       1.748 -44.421 -39.646  1.00  0.00     0.012 A 
ATOM     34  C   UNL     1       2.146 -42.029 -39.664  1.00  0.00     0.012 A 
ATOM     35  C   UNL     1       1.797 -44.436 -41.043  1.00  0.00     0.001 A 
ATOM     36  C   UNL     1       2.189 -42.050 -41.061  1.00  0.00     0.001 A 
ATOM     37  C   UNL     1       2.016 -43.252 -41.751  1.00  0.00     0.000 A 
ENDBRANCH  25  32
ENDBRANCH   1  17
TORSDOF 9
ENDMDL
MODEL 2
REMARK VINA RESULT:    -6.600      0.917      2.228
REMARK INTER + INTRA:         -10.591
REMARK INTER:                  -9.383
REMARK INTRA:                  -1.208
REMARK UNBOUND:                -1.290
REMARK SMILES COc1c(O[C@H]2O[C@@H](C(=O)[O-])[C@@H](O)[C@H](O)[C@@H]2O)cc(O)c2c(=O)cc(-c3ccccc3)oc12
REMARK SMILES IDX 5 1 6 2 8 3 12 4 7 5 14 6 16 7 9 8 10 9 11 10 13 11 15 13
REMARK SMILES IDX 17 15 4 17 3 18 18 19 33 20 19 21 21 22 32 23 22 24 25 25
REMARK SMILES IDX 24 26 23 27 2 28 1 29 20 30 26 32 27 33 31 34 28 35 30 36
REMARK SMILES IDX 29 37
REMARK H PARENT 13 12 15 14 17 16 20 31
REMARK Flexibility Score: inf
ROOT
ATOM      1  O   UNL     1      -2.075 -41.518 -33.129  1.00  0.00    -0.458 OA
ENDROOT
BRANCH   1   2
ATOM      2  C   UNL     1      -2.142 -40.456 -32.173  1.00  0.00     0.339 C 
ATOM      3  C   UNL     1      -4.508 -40.171 -32.252  1.00  0.00     0.199 C 
ATOM      4  C   UNL     1      -4.683 -40.795 -30.843  1.00  0.00     0.180 C 
ATOM      5  O   UNL     1      -3.228 -39.576 -32.439  1.00  0.00    -0.328 OA
ATOM      6  C   UNL     1      -3.520 -41.741 -30.501  1.00  0.00     0.181 C 
ATOM      7  C   UNL     1      -2.187 -41.026 -30.744  1.00  0.00     0.214 C 
BRANCH   3   8
ATOM      8  C   UNL     1      -4.884 -41.071 -33.407  1.00  0.00     0.073 C 
ATOM      9  O   UNL     1      -4.859 -40.615 -34.581  1.00  0.00    -0.547 OA
ATOM     10  O   UNL     1      -5.232 -42.402 -33.207  1.00  0.00    -0.547 OA
ENDBRANCH   3   8
BRANCH   4  11
ATOM     11  O   UNL     1      -5.911 -41.473 -30.769  1.00  0.00    -0.387 OA
ATOM     12  H   UNL     1      -6.136 -41.773 -31.688  1.00  0.00     0.211 HD
ENDBRANCH   4  11
BRANCH   6  13
ATOM     13  O   UNL     1      -3.593 -42.136 -29.155  1.00  0.00    -0.387 OA
ATOM     14  H   UNL     1      -2.772 -41.799 -28.709  1.00  0.00     0.211 HD
ENDBRANCH   6  13
BRANCH   7  15
ATOM     15  O   UNL     1      -2.026 -39.986 -29.810  1.00  0.00    -0.384 OA
ATOM     16  H   UNL     1      -2.617 -40.198 -29.039  1.00  0.00     0.211 HD
ENDBRANCH   7  15
ENDBRANCH   1   2
BRANCH   1  17
ATOM     17  C   UNL     1      -0.893 -42.109 -33.608  1.00  0.00     0.172 A 
ATOM     18  C   UNL     1      -0.677 -42.118 -34.990  1.00  0.00     0.205 A 
ATOM     19  C   UNL     1       0.062 -42.668 -32.746  1.00  0.00     0.097 A 
ATOM     20  C   UNL     1       0.523 -42.663 -35.510  1.00  0.00     0.188 A 
ATOM     21  C   UNL     1       1.237 -43.235 -33.238  1.00  0.00     0.134 A 
ATOM     22  C   UNL     1       1.513 -43.188 -34.632  1.00  0.00     0.111 A 
ATOM     23  O   UNL     1       0.729 -42.678 -36.824  1.00  0.00    -0.452 OA
ATOM     24  C   UNL     1       2.735 -43.608 -35.210  1.00  0.00     0.197 A 
ATOM     25  C   UNL     1       1.845 -43.118 -37.395  1.00  0.00     0.138 A 
ATOM     26  C   UNL     1       2.890 -43.587 -36.594  1.00  0.00     0.100 A 
ATOM     27  O   UNL     1       3.715 -43.972 -34.509  1.00  0.00    -0.289 OA
BRANCH  18  28
ATOM     28  O   UNL     1      -1.688 -41.551 -35.789  1.00  0.00    -0.490 OA
ATOM     29  C   UNL     1      -1.748 -40.202 -36.248  1.00  0.00     0.278 C 
ENDBRANCH  18  28
BRANCH  21  30
ATOM     30  O   UNL     1       2.071 -43.855 -32.302  1.00  0.00    -0.507 OA
ATOM     31  H   UNL     1       2.370 -44.819 -32.356  1.00  0.00     0.293 HD
ENDBRANCH  21  30
BRANCH  25  32
ATOM     32  C   UNL     1       1.954 -43.099 -38.870  1.00  0.00     0.017 A 
ATOM     33  C   UNL     1       1.826 -44.297 -39.593  1.00  0.00     0.012 A 
ATOM     34  C   UNL     1       2.164 -41.896 -39.573  1.00  0.00     0.012 A 
ATOM     35  C   UNL     1       1.922 -44.295 -40.988  1.00  0.00     0.001 A 
ATOM     36  C   UNL     1       2.254 -41.899 -40.967  1.00  0.00     0.001 A 
ATOM     37  C   UNL     1       2.134 -43.098 -41.675  1.00  0.00     0.000 A 
ENDBRANCH  25  32
ENDBRANCH   1  17
TORSDOF 9
ENDMDL
MODEL 3
REMARK VINA RESULT:    -6.288      1.645      2.174
REMARK INTER + INTRA:         -10.151
REMARK INTER:                  -8.756
REMARK INTRA:                  -1.395
REMARK UNBOUND:                -1.290
REMARK SMILES COc1c(O[C@H]2O[C@@H](C(=O)[O-])[C@@H](O)[C@H](O)[C@@H]2O)cc(O)c2c(=O)cc(-c3ccccc3)oc12
REMARK SMILES IDX 5 1 6 2 8 3 12 4 7 5 14 6 16 7 9 8 10 9 11 10 13 11 15 13
REMARK SMILES IDX 17 15 4 17 3 18 18 19 33 20 19 21 21 22 32 23 22 24 25 25
REMARK SMILES IDX 24 26 23 27 2 28 1 29 20 30 26 32 27 33 31 34 28 35 30 36
REMARK SMILES IDX 29 37
REMARK H PARENT 13 12 15 14 17 16 20 31
REMARK Flexibility Score: inf
ROOT
ATOM      1  O   UNL     1      -2.079 -41.455 -32.050  1.00  0.00    -0.458 OA
ENDROOT
BRANCH   1   2
ATOM      2  C   UNL     1      -2.336 -40.761 -30.826  1.00  0.00     0.339 C 
ATOM      3  C   UNL     1      -3.548 -38.949 -31.792  1.00  0.00     0.199 C 
ATOM      4  C   UNL     1      -4.889 -39.467 -31.212  1.00  0.00     0.180 C 
ATOM      5  O   UNL     1      -2.419 -39.355 -31.025  1.00  0.00    -0.328 OA
ATOM      6  C   UNL     1      -4.842 -40.984 -30.960  1.00  0.00     0.181 C 
ATOM      7  C   UNL     1      -3.594 -41.330 -30.143  1.00  0.00     0.214 C 
BRANCH   3   8
ATOM      8  C   UNL     1      -3.344 -39.201 -33.269  1.00  0.00     0.073 C 
ATOM      9  O   UNL     1      -2.329 -38.726 -33.843  1.00  0.00    -0.547 OA
ATOM     10  O   UNL     1      -4.240 -39.968 -34.005  1.00  0.00    -0.547 OA
ENDBRANCH   3   8
BRANCH   4  11
ATOM     11  O   UNL     1      -5.945 -39.143 -32.081  1.00  0.00    -0.387 OA
ATOM     12  H   UNL     1      -5.678 -39.443 -32.989  1.00  0.00     0.211 HD
ENDBRANCH   4  11
BRANCH   6  13
ATOM     13  O   UNL     1      -5.985 -41.396 -30.254  1.00  0.00    -0.387 OA
ATOM     14  H   UNL     1      -6.542 -40.587 -30.107  1.00  0.00     0.211 HD
ENDBRANCH   6  13
BRANCH   7  15
ATOM     15  O   UNL     1      -3.711 -40.804 -28.844  1.00  0.00    -0.384 OA
ATOM     16  H   UNL     1      -3.221 -41.421 -28.239  1.00  0.00     0.211 HD
ENDBRANCH   7  15
ENDBRANCH   1   2
BRANCH   1  17
ATOM     17  C   UNL     1      -0.820 -41.908 -32.480  1.00  0.00     0.172 A 
ATOM     18  C   UNL     1      -0.686 -42.304 -33.815  1.00  0.00     0.205 A 
ATOM     19  C   UNL     1       0.287 -41.958 -31.621  1.00  0.00     0.097 A 
ATOM     20  C   UNL     1       0.578 -42.723 -34.300  1.00  0.00     0.188 A 
ATOM     21  C   UNL     1       1.533 -42.393 -32.069  1.00  0.00     0.134 A 
ATOM     22  C   UNL     1       1.711 -42.729 -33.439  1.00  0.00     0.111 A 
ATOM     23  O   UNL     1       0.707 -43.105 -35.567  1.00  0.00    -0.452 OA
ATOM     24  C   UNL     1       2.963 -43.045 -34.019  1.00  0.00     0.197 A 
ATOM     25  C   UNL     1       1.862 -43.460 -36.121  1.00  0.00     0.138 A 
ATOM     26  C   UNL     1       3.031 -43.427 -35.356  1.00  0.00     0.100 A 
ATOM     27  O   UNL     1       4.039 -42.961 -33.371  1.00  0.00    -0.289 OA
BRANCH  18  28
ATOM     28  O   UNL     1      -1.846 -42.238 -34.611  1.00  0.00    -0.490 OA
ATOM     29  C   UNL     1      -2.902 -43.195 -34.651  1.00  0.00     0.278 C 
ENDBRANCH  18  28
BRANCH  21  30
ATOM     30  O   UNL     1       2.541 -42.503 -31.106  1.00  0.00    -0.507 OA
ATOM     31  H   UNL     1       2.672 -41.856 -30.341  1.00  0.00     0.293 HD
ENDBRANCH  21  30
BRANCH  25  32
ATOM     32  C   UNL     1       1.880 -43.882 -37.539  1.00  0.00     0.017 A 
ATOM     33  C   UNL     1       0.697 -44.336 -38.145  1.00  0.00     0.012 A 
ATOM     34  C   UNL     1       3.060 -43.818 -38.306  1.00  0.00     0.012 A 
ATOM     35  C   UNL     1       0.697 -44.733 -39.486  1.00  0.00     0.001 A 
ATOM     36  C   UNL     1       3.053 -44.211 -39.647  1.00  0.00     0.001 A 
ATOM     37  C   UNL     1       1.873 -44.670 -40.237  1.00  0.00     0.000 A 
ENDBRANCH  25  32
ENDBRANCH   1  17
TORSDOF 9
ENDMDL
MODEL 4
REMARK VINA RESULT:    -6.239      1.343      2.746
REMARK INTER + INTRA:         -10.082
REMARK INTER:                  -9.103
REMARK INTRA:                  -0.979
REMARK UNBOUND:                -1.290
REMARK SMILES COc1c(O[C@H]2O[C@@H](C(=O)[O-])[C@@H](O)[C@H](O)[C@@H]2O)cc(O)c2c(=O)cc(-c3ccccc3)oc12
REMARK SMILES IDX 5 1 6 2 8 3 12 4 7 5 14 6 16 7 9 8 10 9 11 10 13 11 15 13
REMARK SMILES IDX 17 15 4 17 3 18 18 19 33 20 19 21 21 22 32 23 22 24 25 25
REMARK SMILES IDX 24 26 23 27 2 28 1 29 20 30 26 32 27 33 31 34 28 35 30 36
REMARK SMILES IDX 29 37
REMARK H PARENT 13 12 15 14 17 16 20 31
REMARK Flexibility Score: inf
ROOT
ATOM      1  O   UNL     1      -2.556 -40.855 -32.669  1.00  0.00    -0.458 OA
ENDROOT
BRANCH   1   2
ATOM      2  C   UNL     1      -2.718 -39.629 -31.951  1.00  0.00     0.339 C 
ATOM      3  C   UNL     1      -5.099 -39.692 -31.844  1.00  0.00     0.199 C 
ATOM      4  C   UNL     1      -5.076 -40.011 -30.327  1.00  0.00     0.180 C 
ATOM      5  O   UNL     1      -3.944 -38.984 -32.279  1.00  0.00    -0.328 OA
ATOM      6  C   UNL     1      -3.759 -40.692 -29.917  1.00  0.00     0.181 C 
ATOM      7  C   UNL     1      -2.574 -39.873 -30.437  1.00  0.00     0.214 C 
BRANCH   3   8
ATOM      8  C   UNL     1      -5.412 -40.866 -32.745  1.00  0.00     0.073 C 
ATOM      9  O   UNL     1      -5.496 -40.686 -33.988  1.00  0.00    -0.547 OA
ATOM     10  O   UNL     1      -5.585 -42.147 -32.233  1.00  0.00    -0.547 OA
ENDBRANCH   3   8
BRANCH   4  11
ATOM     11  O   UNL     1      -6.175 -40.817 -29.989  1.00  0.00    -0.387 OA
ATOM     12  H   UNL     1      -6.507 -40.504 -29.107  1.00  0.00     0.211 HD
ENDBRANCH   4  11
BRANCH   6  13
ATOM     13  O   UNL     1      -3.675 -40.790 -28.519  1.00  0.00    -0.387 OA
ATOM     14  H   UNL     1      -4.376 -40.194 -28.145  1.00  0.00     0.211 HD
ENDBRANCH   6  13
BRANCH   7  15
ATOM     15  O   UNL     1      -2.509 -38.642 -29.759  1.00  0.00    -0.384 OA
ATOM     16  H   UNL     1      -2.668 -37.932 -30.436  1.00  0.00     0.211 HD
ENDBRANCH   7  15
ENDBRANCH   1   2
BRANCH   1  17
ATOM     17  C   UNL     1      -1.334 -41.513 -32.890  1.00  0.00     0.172 A 
ATOM     18  C   UNL     1      -1.019 -41.890 -34.200  1.00  0.00     0.205 A 
ATOM     19  C   UNL     1      -0.434 -41.783 -31.849  1.00  0.00     0.097 A 
ATOM     20  C   UNL     1       0.224 -42.514 -34.472  1.00  0.00     0.188 A 
ATOM     21  C   UNL     1       0.782 -42.421 -32.089  1.00  0.00     0.134 A 
ATOM     22  C   UNL     1       1.156 -42.746 -33.422  1.00  0.00     0.111 A 
ATOM     23  O   UNL     1       0.523 -42.879 -35.716  1.00  0.00    -0.452 OA
ATOM     24  C   UNL     1       2.423 -43.265 -33.783  1.00  0.00     0.197 A 
ATOM     25  C   UNL     1       1.684 -43.419 -36.071  1.00  0.00     0.138 A 
ATOM     26  C   UNL     1       2.676 -43.616 -35.107  1.00  0.00     0.100 A 
ATOM     27  O   UNL     1       3.355 -43.391 -32.947  1.00  0.00    -0.289 OA
BRANCH  18  28
ATOM     28  O   UNL     1      -1.979 -41.596 -35.188  1.00  0.00    -0.490 OA
ATOM     29  C   UNL     1      -1.966 -40.482 -36.077  1.00  0.00     0.278 C 
ENDBRANCH  18  28
BRANCH  21  30
ATOM     30  O   UNL     1       1.556 -42.735 -30.968  1.00  0.00    -0.507 OA
ATOM     31  H   UNL     1       1.318 -42.477 -30.021  1.00  0.00     0.293 HD
ENDBRANCH  21  30
BRANCH  25  32
ATOM     32  C   UNL     1       1.898 -43.798 -37.485  1.00  0.00     0.017 A 
ATOM     33  C   UNL     1       0.808 -44.219 -38.266  1.00  0.00     0.012 A 
ATOM     34  C   UNL     1       3.175 -43.726 -38.076  1.00  0.00     0.012 A 
ATOM     35  C   UNL     1       0.994 -44.575 -39.605  1.00  0.00     0.001 A 
ATOM     36  C   UNL     1       3.354 -44.079 -39.417  1.00  0.00     0.001 A 
ATOM     37  C   UNL     1       2.264 -44.505 -40.181  1.00  0.00     0.000 A 
ENDBRANCH  25  32
ENDBRANCH   1  17
TORSDOF 9
ENDMDL
MODEL 5
REMARK VINA RESULT:    -6.224      1.944      3.044
REMARK INTER + INTRA:         -10.060
REMARK INTER:                  -8.625
REMARK INTRA:                  -1.435
REMARK UNBOUND:                -1.290
REMARK SMILES COc1c(O[C@H]2O[C@@H](C(=O)[O-])[C@@H](O)[C@H](O)[C@@H]2O)cc(O)c2c(=O)cc(-c3ccccc3)oc12
REMARK SMILES IDX 5 1 6 2 8 3 12 4 7 5 14 6 16 7 9 8 10 9 11 10 13 11 15 13
REMARK SMILES IDX 17 15 4 17 3 18 18 19 33 20 19 21 21 22 32 23 22 24 25 25
REMARK SMILES IDX 24 26 23 27 2 28 1 29 20 30 26 32 27 33 31 34 28 35 30 36
REMARK SMILES IDX 29 37
REMARK H PARENT 13 12 15 14 17 16 20 31
REMARK Flexibility Score: inf
ROOT
ATOM      1  O   UNL     1      -1.603 -40.915 -33.158  1.00  0.00    -0.458 OA
ENDROOT
BRANCH   1   2
ATOM      2  C   UNL     1      -1.981 -40.009 -32.118  1.00  0.00     0.339 C 
ATOM      3  C   UNL     1      -4.337 -40.221 -32.422  1.00  0.00     0.199 C 
ATOM      4  C   UNL     1      -4.488 -41.026 -31.106  1.00  0.00     0.180 C 
ATOM      5  O   UNL     1      -3.209 -39.353 -32.414  1.00  0.00    -0.328 OA
ATOM      6  C   UNL     1      -3.178 -41.740 -30.733  1.00  0.00     0.181 C 
ATOM      7  C   UNL     1      -2.020 -40.738 -30.762  1.00  0.00     0.214 C 
BRANCH   3   8
ATOM      8  C   UNL     1      -4.407 -41.039 -33.692  1.00  0.00     0.073 C 
ATOM      9  O   UNL     1      -4.394 -40.454 -34.807  1.00  0.00    -0.547 OA
ATOM     10  O   UNL     1      -4.460 -42.428 -33.657  1.00  0.00    -0.547 OA
ENDBRANCH   3   8
BRANCH   4  11
ATOM     11  O   UNL     1      -5.538 -41.952 -31.229  1.00  0.00    -0.387 OA
ATOM     12  H   UNL     1      -6.292 -41.613 -30.677  1.00  0.00     0.211 HD
ENDBRANCH   4  11
BRANCH   6  13
ATOM     13  O   UNL     1      -3.276 -42.296 -29.446  1.00  0.00    -0.387 OA
ATOM     14  H   UNL     1      -4.102 -42.847 -29.431  1.00  0.00     0.211 HD
ENDBRANCH   6  13
BRANCH   7  15
ATOM     15  O   UNL     1      -2.171 -39.803 -29.722  1.00  0.00    -0.384 OA
ATOM     16  H   UNL     1      -3.144 -39.740 -29.531  1.00  0.00     0.211 HD
ENDBRANCH   7  15
ENDBRANCH   1   2
BRANCH   1  17
ATOM     17  C   UNL     1      -0.486 -40.768 -34.000  1.00  0.00     0.172 A 
ATOM     18  C   UNL     1      -0.416 -41.570 -35.143  1.00  0.00     0.205 A 
ATOM     19  C   UNL     1       0.532 -39.843 -33.730  1.00  0.00     0.097 A 
ATOM     20  C   UNL     1       0.669 -41.420 -36.042  1.00  0.00     0.188 A 
ATOM     21  C   UNL     1       1.624 -39.698 -34.585  1.00  0.00     0.134 A 
ATOM     22  C   UNL     1       1.678 -40.448 -35.791  1.00  0.00     0.111 A 
ATOM     23  O   UNL     1       0.741 -42.185 -37.127  1.00  0.00    -0.452 OA
ATOM     24  C   UNL     1       2.668 -40.271 -36.788  1.00  0.00     0.197 A 
ATOM     25  C   UNL     1       1.691 -42.076 -38.050  1.00  0.00     0.138 A 
ATOM     26  C   UNL     1       2.680 -41.099 -37.908  1.00  0.00     0.100 A 
ATOM     27  O   UNL     1       3.531 -39.357 -36.717  1.00  0.00    -0.289 OA
BRANCH  18  28
ATOM     28  O   UNL     1      -1.470 -42.483 -35.338  1.00  0.00    -0.490 OA
ATOM     29  C   UNL     1      -1.457 -43.873 -35.018  1.00  0.00     0.278 C 
ENDBRANCH  18  28
BRANCH  21  30
ATOM     30  O   UNL     1       2.633 -38.823 -34.169  1.00  0.00    -0.507 OA
ATOM     31  H   UNL     1       3.351 -38.452 -34.775  1.00  0.00     0.293 HD
ENDBRANCH  21  30
BRANCH  25  32
ATOM     32  C   UNL     1       1.676 -42.994 -39.210  1.00  0.00     0.017 A 
ATOM     33  C   UNL     1       1.114 -44.275 -39.077  1.00  0.00     0.012 A 
ATOM     34  C   UNL     1       2.197 -42.603 -40.459  1.00  0.00     0.012 A 
ATOM     35  C   UNL     1       1.088 -45.152 -40.165  1.00  0.00     0.001 A 
ATOM     36  C   UNL     1       2.164 -43.482 -41.545  1.00  0.00     0.001 A 
ATOM     37  C   UNL     1       1.610 -44.756 -41.398  1.00  0.00     0.000 A 
ENDBRANCH  25  32
ENDBRANCH   1  17
TORSDOF 9
ENDMDL
MODEL 6
REMARK VINA RESULT:    -6.091      2.044      3.489
REMARK INTER + INTRA:          -9.874
REMARK INTER:                  -8.977
REMARK INTRA:                  -0.897
REMARK UNBOUND:                -1.290
REMARK SMILES COc1c(O[C@H]2O[C@@H](C(=O)[O-])[C@@H](O)[C@H](O)[C@@H]2O)cc(O)c2c(=O)cc(-c3ccccc3)oc12
REMARK SMILES IDX 5 1 6 2 8 3 12 4 7 5 14 6 16 7 9 8 10 9 11 10 13 11 15 13
REMARK SMILES IDX 17 15 4 17 3 18 18 19 33 20 19 21 21 22 32 23 22 24 25 25
REMARK SMILES IDX 24 26 23 27 2 28 1 29 20 30 26 32 27 33 31 34 28 35 30 36
REMARK SMILES IDX 29 37
REMARK H PARENT 13 12 15 14 17 16 20 31
REMARK Flexibility Score: inf
ROOT
ATOM      1  O   UNL     1      -3.338 -39.631 -33.558  1.00  0.00    -0.458 OA
ENDROOT
BRANCH   1   2
ATOM      2  C   UNL     1      -2.655 -38.492 -33.026  1.00  0.00     0.339 C 
ATOM      3  C   UNL     1      -4.190 -38.061 -31.254  1.00  0.00     0.199 C 
ATOM      4  C   UNL     1      -3.180 -38.555 -30.187  1.00  0.00     0.180 C 
ATOM      5  O   UNL     1      -3.558 -37.568 -32.430  1.00  0.00    -0.328 OA
ATOM      6  C   UNL     1      -2.168 -39.544 -30.789  1.00  0.00     0.181 C 
ATOM      7  C   UNL     1      -1.548 -38.940 -32.053  1.00  0.00     0.214 C 
BRANCH   3   8
ATOM      8  C   UNL     1      -5.308 -39.025 -31.579  1.00  0.00     0.073 C 
ATOM      9  O   UNL     1      -6.238 -38.660 -32.346  1.00  0.00    -0.547 OA
ATOM     10  O   UNL     1      -5.321 -40.319 -31.071  1.00  0.00    -0.547 OA
ENDBRANCH   3   8
BRANCH   4  11
ATOM     11  O   UNL     1      -3.867 -39.144 -29.112  1.00  0.00    -0.387 OA
ATOM     12  H   UNL     1      -4.271 -39.985 -29.450  1.00  0.00     0.211 HD
ENDBRANCH   4  11
BRANCH   6  13
ATOM     13  O   UNL     1      -1.149 -39.823 -29.864  1.00  0.00    -0.387 OA
ATOM     14  H   UNL     1      -1.458 -40.592 -29.316  1.00  0.00     0.211 HD
ENDBRANCH   6  13
BRANCH   7  15
ATOM     15  O   UNL     1      -0.741 -37.840 -31.710  1.00  0.00    -0.384 OA
ATOM     16  H   UNL     1      -0.668 -37.835 -30.719  1.00  0.00     0.211 HD
ENDBRANCH   7  15
ENDBRANCH   1   2
BRANCH   1  17
ATOM     17  C   UNL     1      -2.748 -40.874 -33.844  1.00  0.00     0.172 A 
ATOM     18  C   UNL     1      -2.015 -40.997 -35.028  1.00  0.00     0.205 A 
ATOM     19  C   UNL     1      -2.866 -41.970 -32.976  1.00  0.00     0.097 A 
ATOM     20  C   UNL     1      -1.366 -42.220 -35.330  1.00  0.00     0.188 A 
ATOM     21  C   UNL     1      -2.259 -43.192 -33.266  1.00  0.00     0.134 A 
ATOM     22  C   UNL     1      -1.447 -43.317 -34.426  1.00  0.00     0.111 A 
ATOM     23  O   UNL     1      -0.673 -42.341 -36.458  1.00  0.00    -0.452 OA
ATOM     24  C   UNL     1      -0.680 -44.467 -34.733  1.00  0.00     0.197 A 
ATOM     25  C   UNL     1       0.010 -43.430 -36.795  1.00  0.00     0.138 A 
ATOM     26  C   UNL     1       0.034 -44.525 -35.927  1.00  0.00     0.100 A 
ATOM     27  O   UNL     1      -0.589 -45.440 -33.940  1.00  0.00    -0.289 OA
BRANCH  18  28
ATOM     28  O   UNL     1      -1.954 -39.857 -35.853  1.00  0.00    -0.490 OA
ATOM     29  C   UNL     1      -0.826 -39.007 -36.041  1.00  0.00     0.278 C 
ENDBRANCH  18  28
BRANCH  21  30
ATOM     30  O   UNL     1      -2.526 -44.247 -32.387  1.00  0.00    -0.507 OA
ATOM     31  H   UNL     1      -1.854 -44.953 -32.125  1.00  0.00     0.293 HD
ENDBRANCH  21  30
BRANCH  25  32
ATOM     32  C   UNL     1       0.734 -43.455 -38.086  1.00  0.00     0.017 A 
ATOM     33  C   UNL     1       1.418 -42.307 -38.522  1.00  0.00     0.012 A 
ATOM     34  C   UNL     1       0.769 -44.616 -38.883  1.00  0.00     0.012 A 
ATOM     35  C   UNL     1       2.110 -42.316 -39.737  1.00  0.00     0.001 A 
ATOM     36  C   UNL     1       1.467 -44.620 -40.094  1.00  0.00     0.001 A 
ATOM     37  C   UNL     1       2.136 -43.471 -40.522  1.00  0.00     0.000 A 
ENDBRANCH  25  32
ENDBRANCH   1  17
TORSDOF 9
ENDMDL
MODEL 7
REMARK VINA RESULT:    -5.898      2.526      8.643
REMARK INTER + INTRA:          -9.602
REMARK INTER:                  -8.314
REMARK INTRA:                  -1.288
REMARK UNBOUND:                -1.290
REMARK SMILES COc1c(O[C@H]2O[C@@H](C(=O)[O-])[C@@H](O)[C@H](O)[C@@H]2O)cc(O)c2c(=O)cc(-c3ccccc3)oc12
REMARK SMILES IDX 5 1 6 2 8 3 12 4 7 5 14 6 16 7 9 8 10 9 11 10 13 11 15 13
REMARK SMILES IDX 17 15 4 17 3 18 18 19 33 20 19 21 21 22 32 23 22 24 25 25
REMARK SMILES IDX 24 26 23 27 2 28 1 29 20 30 26 32 27 33 31 34 28 35 30 36
REMARK SMILES IDX 29 37
REMARK H PARENT 13 12 15 14 17 16 20 31
REMARK Flexibility Score: inf
ROOT
ATOM      1  O   UNL     1      -0.668 -41.644 -34.513  1.00  0.00    -0.458 OA
ENDROOT
BRANCH   1   2
ATOM      2  C   UNL     1       0.753 -41.486 -34.507  1.00  0.00     0.339 C 
ATOM      3  C   UNL     1       1.275 -43.719 -35.160  1.00  0.00     0.199 C 
ATOM      4  C   UNL     1       1.719 -43.260 -36.572  1.00  0.00     0.180 C 
ATOM      5  O   UNL     1       1.416 -42.701 -34.175  1.00  0.00    -0.328 OA
ATOM      6  C   UNL     1       1.043 -41.936 -36.969  1.00  0.00     0.181 C 
ATOM      7  C   UNL     1       1.232 -40.907 -35.851  1.00  0.00     0.214 C 
BRANCH   3   8
ATOM      8  C   UNL     1      -0.083 -44.380 -35.093  1.00  0.00     0.073 C 
ATOM      9  O   UNL     1      -0.446 -44.946 -34.028  1.00  0.00    -0.547 OA
ATOM     10  O   UNL     1      -0.955 -44.356 -36.176  1.00  0.00    -0.547 OA
ENDBRANCH   3   8
BRANCH   4  11
ATOM     11  O   UNL     1       1.435 -44.262 -37.514  1.00  0.00    -0.387 OA
ATOM     12  H   UNL     1       1.930 -44.032 -38.344  1.00  0.00     0.211 HD
ENDBRANCH   4  11
BRANCH   6  13
ATOM     13  O   UNL     1       1.605 -41.438 -38.155  1.00  0.00    -0.387 OA
ATOM     14  H   UNL     1       1.253 -41.996 -38.899  1.00  0.00     0.211 HD
ENDBRANCH   6  13
BRANCH   7  15
ATOM     15  O   UNL     1       2.589 -40.546 -35.759  1.00  0.00    -0.384 OA
ATOM     16  H   UNL     1       3.105 -41.243 -36.243  1.00  0.00     0.211 HD
ENDBRANCH   7  15
ENDBRANCH   1   2
BRANCH   1  17
ATOM     17  C   UNL     1      -1.516 -41.431 -33.412  1.00  0.00     0.172 A 
ATOM     18  C   UNL     1      -2.336 -40.298 -33.424  1.00  0.00     0.205 A 
ATOM     19  C   UNL     1      -1.566 -42.320 -32.329  1.00  0.00     0.097 A 
ATOM     20  C   UNL     1      -3.238 -40.072 -32.355  1.00  0.00     0.188 A 
ATOM     21  C   UNL     1      -2.426 -42.103 -31.253  1.00  0.00     0.134 A 
ATOM     22  C   UNL     1      -3.322 -40.999 -31.279  1.00  0.00     0.111 A 
ATOM     23  O   UNL     1      -4.015 -38.992 -32.362  1.00  0.00    -0.452 OA
ATOM     24  C   UNL     1      -4.325 -40.773 -30.306  1.00  0.00     0.197 A 
ATOM     25  C   UNL     1      -4.926 -38.729 -31.431  1.00  0.00     0.138 A 
ATOM     26  C   UNL     1      -5.114 -39.627 -30.377  1.00  0.00     0.100 A 
ATOM     27  O   UNL     1      -4.559 -41.597 -29.384  1.00  0.00    -0.289 OA
BRANCH  18  28
ATOM     28  O   UNL     1      -2.218 -39.447 -34.540  1.00  0.00    -0.490 OA
ATOM     29  C   UNL     1      -2.976 -39.520 -35.745  1.00  0.00     0.278 C 
ENDBRANCH  18  28
BRANCH  21  30
ATOM     30  O   UNL     1      -2.322 -42.992 -30.179  1.00  0.00    -0.507 OA
ATOM     31  H   UNL     1      -1.582 -43.671 -30.071  1.00  0.00     0.293 HD
ENDBRANCH  21  30
BRANCH  25  32
ATOM     32  C   UNL     1      -5.723 -37.487 -31.536  1.00  0.00     0.017 A 
ATOM     33  C   UNL     1      -7.119 -37.565 -31.678  1.00  0.00     0.012 A 
ATOM     34  C   UNL     1      -5.113 -36.218 -31.475  1.00  0.00     0.012 A 
ATOM     35  C   UNL     1      -7.887 -36.400 -31.774  1.00  0.00     0.001 A 
ATOM     36  C   UNL     1      -5.886 -35.057 -31.566  1.00  0.00     0.001 A 
ATOM     37  C   UNL     1      -7.272 -35.148 -31.717  1.00  0.00     0.000 A 
ENDBRANCH  25  32
ENDBRANCH   1  17
TORSDOF 9
ENDMDL
MODEL 8
REMARK VINA RESULT:    -5.845      2.963      4.994
REMARK INTER + INTRA:          -9.527
REMARK INTER:                  -8.293
REMARK INTRA:                  -1.234
REMARK UNBOUND:                -1.290
REMARK SMILES COc1c(O[C@H]2O[C@@H](C(=O)[O-])[C@@H](O)[C@H](O)[C@@H]2O)cc(O)c2c(=O)cc(-c3ccccc3)oc12
REMARK SMILES IDX 5 1 6 2 8 3 12 4 7 5 14 6 16 7 9 8 10 9 11 10 13 11 15 13
REMARK SMILES IDX 17 15 4 17 3 18 18 19 33 20 19 21 21 22 32 23 22 24 25 25
REMARK SMILES IDX 24 26 23 27 2 28 1 29 20 30 26 32 27 33 31 34 28 35 30 36
REMARK SMILES IDX 29 37
REMARK H PARENT 13 12 15 14 17 16 20 31
REMARK Flexibility Score: inf
ROOT
ATOM      1  O   UNL     1       2.004 -41.404 -31.922  1.00  0.00    -0.458 OA
ENDROOT
BRANCH   1   2
ATOM      2  C   UNL     1       2.813 -42.048 -30.934  1.00  0.00     0.339 C 
ATOM      3  C   UNL     1       3.291 -40.090 -29.659  1.00  0.00     0.199 C 
ATOM      4  C   UNL     1       2.369 -40.553 -28.503  1.00  0.00     0.180 C 
ATOM      5  O   UNL     1       3.812 -41.174 -30.421  1.00  0.00    -0.328 OA
ATOM      6  C   UNL     1       1.281 -41.518 -29.005  1.00  0.00     0.181 C 
ATOM      7  C   UNL     1       1.927 -42.641 -29.822  1.00  0.00     0.214 C 
BRANCH   3   8
ATOM      8  C   UNL     1       2.720 -39.005 -30.545  1.00  0.00     0.073 C 
ATOM      9  O   UNL     1       3.440 -38.498 -31.444  1.00  0.00    -0.547 OA
ATOM     10  O   UNL     1       1.407 -38.571 -30.405  1.00  0.00    -0.547 OA
ENDBRANCH   3   8
BRANCH   4  11
ATOM     11  O   UNL     1       1.789 -39.438 -27.875  1.00  0.00    -0.387 OA
ATOM     12  H   UNL     1       1.315 -39.770 -27.069  1.00  0.00     0.211 HD
ENDBRANCH   4  11
BRANCH   6  13
ATOM     13  O   UNL     1       0.587 -42.078 -27.920  1.00  0.00    -0.387 OA
ATOM     14  H   UNL     1       1.028 -42.942 -27.709  1.00  0.00     0.211 HD
ENDBRANCH   6  13
BRANCH   7  15
ATOM     15  O   UNL     1       2.702 -43.459 -28.980  1.00  0.00    -0.384 OA
ATOM     16  H   UNL     1       3.239 -44.052 -29.570  1.00  0.00     0.211 HD
ENDBRANCH   7  15
ENDBRANCH   1   2
BRANCH   1  17
ATOM     17  C   UNL     1       1.268 -42.059 -32.925  1.00  0.00     0.172 A 
ATOM     18  C   UNL     1       1.890 -42.277 -34.159  1.00  0.00     0.205 A 
ATOM     19  C   UNL     1      -0.046 -42.501 -32.716  1.00  0.00     0.097 A 
ATOM     20  C   UNL     1       1.200 -42.974 -35.181  1.00  0.00     0.188 A 
ATOM     21  C   UNL     1      -0.755 -43.165 -33.717  1.00  0.00     0.134 A 
ATOM     22  C   UNL     1      -0.117 -43.464 -34.952  1.00  0.00     0.111 A 
ATOM     23  O   UNL     1       1.787 -43.178 -36.357  1.00  0.00    -0.452 OA
ATOM     24  C   UNL     1      -0.701 -44.252 -35.972  1.00  0.00     0.197 A 
ATOM     25  C   UNL     1       1.237 -43.867 -37.351  1.00  0.00     0.138 A 
ATOM     26  C   UNL     1      -0.028 -44.437 -37.177  1.00  0.00     0.100 A 
ATOM     27  O   UNL     1      -1.809 -44.830 -35.818  1.00  0.00    -0.289 OA
BRANCH  18  28
ATOM     28  O   UNL     1       3.205 -41.791 -34.296  1.00  0.00    -0.490 OA
ATOM     29  C   UNL     1       3.591 -40.534 -34.848  1.00  0.00     0.278 C 
ENDBRANCH  18  28
BRANCH  21  30
ATOM     30  O   UNL     1      -2.091 -43.470 -33.440  1.00  0.00    -0.507 OA
ATOM     31  H   UNL     1      -2.817 -42.781 -33.308  1.00  0.00     0.293 HD
ENDBRANCH  21  30
BRANCH  25  32
ATOM     32  C   UNL     1       1.981 -44.016 -38.621  1.00  0.00     0.017 A 
ATOM     33  C   UNL     1       1.317 -44.489 -39.765  1.00  0.00     0.012 A 
ATOM     34  C   UNL     1       3.344 -43.672 -38.715  1.00  0.00     0.012 A 
ATOM     35  C   UNL     1       2.005 -44.630 -40.974  1.00  0.00     0.001 A 
ATOM     36  C   UNL     1       4.025 -43.810 -39.927  1.00  0.00     0.001 A 
ATOM     37  C   UNL     1       3.357 -44.290 -41.056  1.00  0.00     0.000 A 
ENDBRANCH  25  32
ENDBRANCH   1  17
TORSDOF 9
ENDMDL
MODEL 9
REMARK VINA RESULT:    -5.807      1.865      2.582
REMARK INTER + INTRA:          -9.473
REMARK INTER:                  -8.412
REMARK INTRA:                  -1.061
REMARK UNBOUND:                -1.290
REMARK SMILES COc1c(O[C@H]2O[C@@H](C(=O)[O-])[C@@H](O)[C@H](O)[C@@H]2O)cc(O)c2c(=O)cc(-c3ccccc3)oc12
REMARK SMILES IDX 5 1 6 2 8 3 12 4 7 5 14 6 16 7 9 8 10 9 11 10 13 11 15 13
REMARK SMILES IDX 17 15 4 17 3 18 18 19 33 20 19 21 21 22 32 23 22 24 25 25
REMARK SMILES IDX 24 26 23 27 2 28 1 29 20 30 26 32 27 33 31 34 28 35 30 36
REMARK SMILES IDX 29 37
REMARK H PARENT 13 12 15 14 17 16 20 31
REMARK Flexibility Score: inf
ROOT
ATOM      1  O   UNL     1      -1.381 -42.059 -33.223  1.00  0.00    -0.458 OA
ENDROOT
BRANCH   1   2
ATOM      2  C   UNL     1      -2.766 -41.816 -33.483  1.00  0.00     0.339 C 
ATOM      3  C   UNL     1      -3.350 -41.180 -31.260  1.00  0.00     0.199 C 
ATOM      4  C   UNL     1      -3.514 -39.694 -31.671  1.00  0.00     0.180 C 
ATOM      5  O   UNL     1      -3.571 -42.081 -32.339  1.00  0.00    -0.328 OA
ATOM      6  C   UNL     1      -2.677 -39.362 -32.917  1.00  0.00     0.181 C 
ATOM      7  C   UNL     1      -2.966 -40.386 -34.019  1.00  0.00     0.214 C 
BRANCH   3   8
ATOM      8  C   UNL     1      -2.079 -41.505 -30.508  1.00  0.00     0.073 C 
ATOM      9  O   UNL     1      -1.939 -42.646 -29.993  1.00  0.00    -0.547 OA
ATOM     10  O   UNL     1      -1.048 -40.580 -30.392  1.00  0.00    -0.547 OA
ENDBRANCH   3   8
BRANCH   4  11
ATOM     11  O   UNL     1      -3.158 -38.858 -30.599  1.00  0.00    -0.387 OA
ATOM     12  H   UNL     1      -2.924 -37.974 -30.984  1.00  0.00     0.211 HD
ENDBRANCH   4  11
BRANCH   6  13
ATOM     13  O   UNL     1      -2.991 -38.077 -33.387  1.00  0.00    -0.387 OA
ATOM     14  H   UNL     1      -3.606 -37.668 -32.723  1.00  0.00     0.211 HD
ENDBRANCH   6  13
BRANCH   7  15
ATOM     15  O   UNL     1      -4.286 -40.230 -34.481  1.00  0.00    -0.384 OA
ATOM     16  H   UNL     1      -4.249 -40.270 -35.473  1.00  0.00     0.211 HD
ENDBRANCH   7  15
ENDBRANCH   1   2
BRANCH   1  17
ATOM     17  C   UNL     1      -0.317 -41.681 -34.060  1.00  0.00     0.172 A 
ATOM     18  C   UNL     1      -0.212 -42.302 -35.309  1.00  0.00     0.205 A 
ATOM     19  C   UNL     1       0.616 -40.705 -33.683  1.00  0.00     0.097 A 
ATOM     20  C   UNL     1       0.819 -41.917 -36.201  1.00  0.00     0.188 A 
ATOM     21  C   UNL     1       1.655 -40.329 -34.533  1.00  0.00     0.134 A 
ATOM     22  C   UNL     1       1.737 -40.892 -35.836  1.00  0.00     0.111 A 
ATOM     23  O   UNL     1       0.925 -42.510 -37.387  1.00  0.00    -0.452 OA
ATOM     24  C   UNL     1       2.667 -40.476 -36.819  1.00  0.00     0.197 A 
ATOM     25  C   UNL     1       1.825 -42.174 -38.305  1.00  0.00     0.138 A 
ATOM     26  C   UNL     1       2.719 -41.131 -38.047  1.00  0.00     0.100 A 
ATOM     27  O   UNL     1       3.439 -39.498 -36.637  1.00  0.00    -0.289 OA
BRANCH  18  28
ATOM     28  O   UNL     1      -1.178 -43.282 -35.609  1.00  0.00    -0.490 OA
ATOM     29  C   UNL     1      -0.983 -44.694 -35.601  1.00  0.00     0.278 C 
ENDBRANCH  18  28
BRANCH  21  30
ATOM     30  O   UNL     1       2.588 -39.423 -34.019  1.00  0.00    -0.507 OA
ATOM     31  H   UNL     1       2.607 -38.438 -34.238  1.00  0.00     0.293 HD
ENDBRANCH  21  30
BRANCH  25  32
ATOM     32  C   UNL     1       1.856 -42.916 -39.585  1.00  0.00     0.017 A 
ATOM     33  C   UNL     1       1.547 -44.287 -39.603  1.00  0.00     0.012 A 
ATOM     34  C   UNL     1       2.172 -42.271 -40.798  1.00  0.00     0.012 A 
ATOM     35  C   UNL     1       1.567 -45.000 -40.806  1.00  0.00     0.001 A 
ATOM     36  C   UNL     1       2.186 -42.988 -41.997  1.00  0.00     0.001 A 
ATOM     37  C   UNL     1       1.885 -44.352 -42.001  1.00  0.00     0.000 A 
ENDBRANCH  25  32
ENDBRANCH   1  17
TORSDOF 9
ENDMDL
