MODEL 1
REMARK VINA RESULT:    -3.501      0.000      0.000
REMARK INTER + INTRA:          -4.313
REMARK INTER:                  -4.934
REMARK INTRA:                   0.621
REMARK UNBOUND:                 0.621
REMARK SMILES CC1=CCCC(C)=CCC(C)(C)C=CC1
REMARK SMILES IDX 2 1 3 2 1 3 4 4 5 5 6 6 7 7 8 8 15 10 14 11 13 12 10 13
REMARK SMILES IDX 11 14 12 15 9 16
REMARK H PARENT
REMARK Flexibility Score: 60.00
ROOT
ATOM      1  C   UNL     1      17.339  65.120  15.962  1.00  0.00    -0.074 C 
ATOM      2  C   UNL     1      17.805  65.192  17.236  1.00  0.00    -0.027 C 
ATOM      3  C   UNL     1      15.846  65.089  15.758  1.00  0.00     0.039 C 
ENDROOT
BRANCH   2   4
ATOM      4  C   UNL     1      19.261  65.239  17.638  1.00  0.00     0.032 C 
BRANCH   4   5
ATOM      5  C   UNL     1      19.861  63.827  17.733  1.00  0.00     0.034 C 
BRANCH   5   6
ATOM      6  C   UNL     1      21.365  63.754  17.519  1.00  0.00    -0.077 C 
ATOM      7  C   UNL     1      22.197  63.070  18.578  1.00  0.00     0.039 C 
ATOM      8  C   UNL     1      22.037  64.357  16.503  1.00  0.00    -0.027 CG0
ATOM      9  G   UNL     1      21.470  64.952  15.225  1.00  0.00     0.000 G0
ENDBRANCH   5   6
ENDBRANCH   4   5
ENDBRANCH   2   4
BRANCH   1  10
ATOM     10  C   UNL     1      18.241  65.087  14.739  1.00  0.00     0.057 C 
BRANCH  10  11
ATOM     11  C   UNL     1      18.673  63.672  14.449  1.00  0.00    -0.026 C 
ATOM     12  C   UNL     1      19.898  63.232  14.074  1.00  0.00    -0.024 C 
BRANCH  12  13
ATOM     13  C   UNL     1      21.222  63.999  14.021  1.00  0.00    -0.014 C 
ATOM     14  C   UNL     1      22.389  62.989  13.926  1.00  0.00     0.016 C 
ATOM     15  C   UNL     1      21.238  64.836  12.717  1.00  0.00     0.016 C 
BRANCH  13  16
ATOM     16  C   UNL     1      21.468  64.961  15.225  1.00  0.00     0.038 CG0
ATOM     17  G   UNL     1      22.038  64.357  16.497  1.00  0.00     0.000 G0
ENDBRANCH  13  16
ENDBRANCH  12  13
ENDBRANCH  10  11
ENDBRANCH   1  10
TORSDOF 0
ENDMDL
MODEL 2
REMARK VINA RESULT:    -3.459      1.577      4.287
REMARK INTER + INTRA:          -4.253
REMARK INTER:                  -4.692
REMARK INTRA:                   0.439
REMARK UNBOUND:                 0.621
REMARK SMILES CC1=CCCC(C)=CCC(C)(C)C=CC1
REMARK SMILES IDX 2 1 3 2 1 3 4 4 5 5 6 6 7 7 8 8 15 10 14 11 13 12 10 13
REMARK SMILES IDX 11 14 12 15 9 16
REMARK H PARENT
REMARK Flexibility Score: 60.00
ROOT
ATOM      1  C   UNL     1      23.810  62.334  14.531  1.00  0.00    -0.074 C 
ATOM      2  C   UNL     1      24.336  62.234  15.779  1.00  0.00    -0.027 C 
ATOM      3  C   UNL     1      24.283  61.356  13.485  1.00  0.00     0.039 C 
ENDROOT
BRANCH   2   4
ATOM      4  C   UNL     1      23.984  63.116  16.954  1.00  0.00     0.032 C 
BRANCH   4   5
ATOM      5  C   UNL     1      22.715  62.619  17.666  1.00  0.00     0.034 C 
BRANCH   5   6
ATOM      6  C   UNL     1      21.937  63.691  18.412  1.00  0.00    -0.077 C 
ATOM      7  C   UNL     1      21.865  63.593  19.918  1.00  0.00     0.039 C 
ATOM      8  C   UNL     1      21.203  64.672  17.824  1.00  0.00    -0.027 CG0
ATOM      9  G   UNL     1      21.225  65.118  16.372  1.00  0.00     0.000 G0
ENDBRANCH   5   6
ENDBRANCH   4   5
ENDBRANCH   2   4
BRANCH   1  10
ATOM     10  C   UNL     1      22.763  63.365  14.141  1.00  0.00     0.057 C 
BRANCH  10  11
ATOM     11  C   UNL     1      21.383  62.761  14.219  1.00  0.00    -0.026 C 
ATOM     12  C   UNL     1      20.284  63.266  14.826  1.00  0.00    -0.024 C 
BRANCH  12  13
ATOM     13  C   UNL     1      20.070  64.656  15.434  1.00  0.00    -0.014 C 
ATOM     14  C   UNL     1      19.874  65.681  14.294  1.00  0.00     0.016 C 
ATOM     15  C   UNL     1      18.754  64.623  16.249  1.00  0.00     0.016 C 
BRANCH  13  16
ATOM     16  C   UNL     1      21.219  65.140  16.373  1.00  0.00     0.038 CG0
ATOM     17  G   UNL     1      21.194  64.659  17.814  1.00  0.00     0.000 G0
ENDBRANCH  13  16
ENDBRANCH  12  13
ENDBRANCH  10  11
ENDBRANCH   1  10
TORSDOF 0
ENDMDL
MODEL 3
REMARK VINA RESULT:    -3.317      2.010      5.175
REMARK INTER + INTRA:          -4.053
REMARK INTER:                  -4.321
REMARK INTRA:                   0.268
REMARK UNBOUND:                 0.621
REMARK SMILES CC1=CCCC(C)=CCC(C)(C)C=CC1
REMARK SMILES IDX 2 1 3 2 1 3 4 4 5 5 6 6 7 7 8 8 15 10 14 11 13 12 10 13
REMARK SMILES IDX 11 14 12 15 9 16
REMARK H PARENT
REMARK Flexibility Score: 60.00
ROOT
ATOM      1  C   UNL     1      23.885  62.818  14.381  1.00  0.00    -0.074 C 
ATOM      2  C   UNL     1      23.178  63.642  13.565  1.00  0.00    -0.027 C 
ATOM      3  C   UNL     1      24.412  61.531  13.799  1.00  0.00     0.039 C 
ENDROOT
BRANCH   2   4
ATOM      4  C   UNL     1      22.578  64.971  13.963  1.00  0.00     0.032 C 
BRANCH   4   5
ATOM      5  C   UNL     1      21.044  64.942  13.868  1.00  0.00     0.034 C 
BRANCH   5   6
ATOM      6  C   UNL     1      20.365  63.928  14.774  1.00  0.00    -0.077 C 
ATOM      7  C   UNL     1      19.502  62.869  14.128  1.00  0.00     0.039 C 
ATOM      8  C   UNL     1      20.380  63.965  16.133  1.00  0.00    -0.027 CG0
ATOM      9  G   UNL     1      21.281  64.785  17.040  1.00  0.00     0.000 G0
ENDBRANCH   5   6
ENDBRANCH   4   5
ENDBRANCH   2   4
BRANCH   1  10
ATOM     10  C   UNL     1      24.184  63.134  15.838  1.00  0.00     0.057 C 
BRANCH  10  11
ATOM     11  C   UNL     1      23.366  62.246  16.741  1.00  0.00    -0.026 C 
ATOM     12  C   UNL     1      22.553  62.613  17.760  1.00  0.00    -0.024 C 
BRANCH  12  13
ATOM     13  C   UNL     1      22.084  64.015  18.162  1.00  0.00    -0.014 C 
ATOM     14  C   UNL     1      21.219  63.912  19.439  1.00  0.00     0.016 C 
ATOM     15  C   UNL     1      23.336  64.851  18.526  1.00  0.00     0.016 C 
BRANCH  13  16
ATOM     16  C   UNL     1      21.288  64.778  17.058  1.00  0.00     0.038 CG0
ATOM     17  G   UNL     1      20.384  63.957  16.154  1.00  0.00     0.000 G0
ENDBRANCH  13  16
ENDBRANCH  12  13
ENDBRANCH  10  11
ENDBRANCH   1  10
TORSDOF 0
ENDMDL
MODEL 4
REMARK VINA RESULT:    -3.314      1.267      3.726
REMARK INTER + INTRA:          -4.049
REMARK INTER:                  -4.827
REMARK INTRA:                   0.778
REMARK UNBOUND:                 0.621
REMARK SMILES CC1=CCCC(C)=CCC(C)(C)C=CC1
REMARK SMILES IDX 2 1 3 2 1 3 4 4 5 5 6 6 7 7 8 8 15 10 14 11 13 12 10 13
REMARK SMILES IDX 11 14 12 15 9 16
REMARK H PARENT
REMARK Flexibility Score: 60.00
ROOT
ATOM      1  C   UNL     1      18.780  64.368  15.245  1.00  0.00    -0.074 C 
ATOM      2  C   UNL     1      19.117  63.451  14.302  1.00  0.00    -0.027 C 
ATOM      3  C   UNL     1      17.405  64.982  15.171  1.00  0.00     0.039 C 
ENDROOT
BRANCH   2   4
ATOM      4  C   UNL     1      20.440  62.726  14.214  1.00  0.00     0.032 C 
BRANCH   4   5
ATOM      5  C   UNL     1      21.604  63.709  14.007  1.00  0.00     0.034 C 
BRANCH   5   6
ATOM      6  C   UNL     1      22.945  63.235  14.543  1.00  0.00    -0.077 C 
ATOM      7  C   UNL     1      23.749  62.279  13.692  1.00  0.00     0.039 C 
ATOM      8  C   UNL     1      23.431  63.515  15.781  1.00  0.00    -0.027 CG0
ATOM      9  G   UNL     1      22.944  64.563  16.767  1.00  0.00     0.000 G0
ENDBRANCH   5   6
ENDBRANCH   4   5
ENDBRANCH   2   4
BRANCH   1  10
ATOM     10  C   UNL     1      19.707  64.793  16.372  1.00  0.00     0.057 C 
BRANCH  10  11
ATOM     11  C   UNL     1      19.901  63.656  17.343  1.00  0.00    -0.026 C 
ATOM     12  C   UNL     1      21.026  63.313  18.014  1.00  0.00    -0.024 C 
BRANCH  12  13
ATOM     13  C   UNL     1      22.348  64.077  18.131  1.00  0.00    -0.014 C 
ATOM     14  C   UNL     1      22.153  65.285  19.076  1.00  0.00     0.016 C 
ATOM     15  C   UNL     1      23.383  63.138  18.800  1.00  0.00     0.016 C 
BRANCH  13  16
ATOM     16  C   UNL     1      22.938  64.571  16.774  1.00  0.00     0.038 CG0
ATOM     17  G   UNL     1      23.422  63.515  15.795  1.00  0.00     0.000 G0
ENDBRANCH  13  16
ENDBRANCH  12  13
ENDBRANCH  10  11
ENDBRANCH   1  10
TORSDOF 0
ENDMDL
MODEL 5
REMARK VINA RESULT:    -3.311      1.904      3.214
REMARK INTER + INTRA:          -4.046
REMARK INTER:                  -4.592
REMARK INTRA:                   0.547
REMARK UNBOUND:                 0.621
REMARK SMILES CC1=CCCC(C)=CCC(C)(C)C=CC1
REMARK SMILES IDX 2 1 3 2 1 3 4 4 5 5 6 6 7 7 8 8 15 10 14 11 13 12 10 13
REMARK SMILES IDX 11 14 12 15 9 16
REMARK H PARENT
REMARK Flexibility Score: 60.00
ROOT
ATOM      1  C   UNL     1      20.133  63.717  14.944  1.00  0.00    -0.074 C 
ATOM      2  C   UNL     1      19.430  64.075  16.050  1.00  0.00    -0.027 C 
ATOM      3  C   UNL     1      19.421  62.912  13.887  1.00  0.00     0.039 C 
ENDROOT
BRANCH   2   4
ATOM      4  C   UNL     1      19.967  64.883  17.209  1.00  0.00     0.032 C 
BRANCH   4   5
ATOM      5  C   UNL     1      20.533  63.972  18.311  1.00  0.00     0.034 C 
BRANCH   5   6
ATOM      6  C   UNL     1      21.983  64.240  18.681  1.00  0.00    -0.077 C 
ATOM      7  C   UNL     1      22.265  65.327  19.692  1.00  0.00     0.039 C 
ATOM      8  C   UNL     1      23.058  63.656  18.090  1.00  0.00    -0.027 CG0
ATOM      9  G   UNL     1      23.086  62.432  17.190  1.00  0.00     0.000 G0
ENDBRANCH   5   6
ENDBRANCH   4   5
ENDBRANCH   2   4
BRANCH   1  10
ATOM     10  C   UNL     1      21.587  64.097  14.714  1.00  0.00     0.057 C 
BRANCH  10  11
ATOM     11  C   UNL     1      22.338  62.938  14.109  1.00  0.00    -0.026 C 
ATOM     12  C   UNL     1      23.424  62.298  14.604  1.00  0.00    -0.024 C 
BRANCH  12  13
ATOM     13  C   UNL     1      24.077  62.432  15.982  1.00  0.00    -0.014 C 
ATOM     14  C   UNL     1      25.103  61.290  16.169  1.00  0.00     0.016 C 
ATOM     15  C   UNL     1      24.867  63.764  16.009  1.00  0.00     0.016 C 
BRANCH  13  16
ATOM     16  C   UNL     1      23.077  62.429  17.180  1.00  0.00     0.038 CG0
ATOM     17  G   UNL     1      23.068  63.649  18.086  1.00  0.00     0.000 G0
ENDBRANCH  13  16
ENDBRANCH  12  13
ENDBRANCH  10  11
ENDBRANCH   1  10
TORSDOF 0
ENDMDL
MODEL 6
REMARK VINA RESULT:    -3.302      1.682      4.237
REMARK INTER + INTRA:          -4.033
REMARK INTER:                  -4.398
REMARK INTRA:                   0.366
REMARK UNBOUND:                 0.621
REMARK SMILES CC1=CCCC(C)=CCC(C)(C)C=CC1
REMARK SMILES IDX 2 1 3 2 1 3 4 4 5 5 6 6 7 7 8 8 15 10 14 11 13 12 10 13
REMARK SMILES IDX 11 14 12 15 9 16
REMARK H PARENT
REMARK Flexibility Score: 60.00
ROOT
ATOM      1  C   UNL     1      22.348  63.259  18.577  1.00  0.00    -0.074 C 
ATOM      2  C   UNL     1      23.639  62.975  18.267  1.00  0.00    -0.027 C 
ATOM      3  C   UNL     1      22.086  64.135  19.776  1.00  0.00     0.039 C 
ENDROOT
BRANCH   2   4
ATOM      4  C   UNL     1      24.098  62.124  17.106  1.00  0.00     0.032 C 
BRANCH   4   5
ATOM      5  C   UNL     1      24.446  62.988  15.883  1.00  0.00     0.034 C 
BRANCH   5   6
ATOM      6  C   UNL     1      23.596  62.724  14.650  1.00  0.00    -0.077 C 
ATOM      7  C   UNL     1      23.992  61.577  13.751  1.00  0.00     0.039 C 
ATOM      8  C   UNL     1      22.571  63.511  14.229  1.00  0.00    -0.027 CG0
ATOM      9  G   UNL     1      21.848  64.604  14.999  1.00  0.00     0.000 G0
ENDBRANCH   5   6
ENDBRANCH   4   5
ENDBRANCH   2   4
BRANCH   1  10
ATOM     10  C   UNL     1      21.161  62.753  17.772  1.00  0.00     0.057 C 
BRANCH  10  11
ATOM     11  C   UNL     1      20.103  63.823  17.677  1.00  0.00    -0.026 C 
ATOM     12  C   UNL     1      19.795  64.601  16.613  1.00  0.00    -0.024 C 
BRANCH  12  13
ATOM     13  C   UNL     1      20.289  64.496  15.167  1.00  0.00    -0.014 C 
ATOM     14  C   UNL     1      19.808  63.155  14.565  1.00  0.00     0.016 C 
ATOM     15  C   UNL     1      19.619  65.628  14.350  1.00  0.00     0.016 C 
BRANCH  13  16
ATOM     16  C   UNL     1      21.835  64.614  14.996  1.00  0.00     0.038 CG0
ATOM     17  G   UNL     1      22.542  63.504  14.236  1.00  0.00     0.000 G0
ENDBRANCH  13  16
ENDBRANCH  12  13
ENDBRANCH  10  11
ENDBRANCH   1  10
TORSDOF 0
ENDMDL
MODEL 7
REMARK VINA RESULT:    -3.022      1.523      2.211
REMARK INTER + INTRA:          -3.637
REMARK INTER:                  -4.073
REMARK INTRA:                   0.436
REMARK UNBOUND:                 0.621
REMARK SMILES CC1=CCCC(C)=CCC(C)(C)C=CC1
REMARK SMILES IDX 2 1 3 2 1 3 4 4 5 5 6 6 7 7 8 8 15 10 14 11 13 12 10 13
REMARK SMILES IDX 11 14 12 15 9 16
REMARK H PARENT
REMARK Flexibility Score: 60.00
ROOT
ATOM      1  C   UNL     1      19.494  63.937  16.245  1.00  0.00    -0.074 C 
ATOM      2  C   UNL     1      20.053  63.901  17.482  1.00  0.00    -0.027 C 
ATOM      3  C   UNL     1      18.333  64.873  16.023  1.00  0.00     0.039 C 
ENDROOT
BRANCH   2   4
ATOM      4  C   UNL     1      21.221  63.035  17.894  1.00  0.00     0.032 C 
BRANCH   4   5
ATOM      5  C   UNL     1      22.449  63.888  18.253  1.00  0.00     0.034 C 
BRANCH   5   6
ATOM      6  C   UNL     1      23.691  63.604  17.423  1.00  0.00    -0.077 C 
ATOM      7  C   UNL     1      24.753  62.711  18.022  1.00  0.00     0.039 C 
ATOM      8  C   UNL     1      23.976  64.182  16.227  1.00  0.00    -0.027 CG0
ATOM      9  G   UNL     1      23.045  64.963  15.315  1.00  0.00     0.000 G0
ENDBRANCH   5   6
ENDBRANCH   4   5
ENDBRANCH   2   4
BRANCH   1  10
ATOM     10  C   UNL     1      19.986  63.098  15.077  1.00  0.00     0.057 C 
BRANCH  10  11
ATOM     11  C   UNL     1      20.174  63.963  13.857  1.00  0.00    -0.026 C 
ATOM     12  C   UNL     1      21.314  64.543  13.412  1.00  0.00    -0.024 C 
BRANCH  12  13
ATOM     13  C   UNL     1      22.752  64.339  13.897  1.00  0.00    -0.014 C 
ATOM     14  C   UNL     1      23.063  62.824  13.933  1.00  0.00     0.016 C 
ATOM     15  C   UNL     1      23.703  64.974  12.852  1.00  0.00     0.016 C 
BRANCH  13  16
ATOM     16  C   UNL     1      23.066  64.964  15.292  1.00  0.00     0.038 CG0
ATOM     17  G   UNL     1      23.970  64.177  16.224  1.00  0.00     0.000 G0
ENDBRANCH  13  16
ENDBRANCH  12  13
ENDBRANCH  10  11
ENDBRANCH   1  10
TORSDOF 0
ENDMDL
MODEL 8
REMARK VINA RESULT:    -2.832      2.089      4.492
REMARK INTER + INTRA:          -3.370
REMARK INTER:                  -4.102
REMARK INTRA:                   0.732
REMARK UNBOUND:                 0.621
REMARK SMILES CC1=CCCC(C)=CCC(C)(C)C=CC1
REMARK SMILES IDX 2 1 3 2 1 3 4 4 5 5 6 6 7 7 8 8 15 10 14 11 13 12 10 13
REMARK SMILES IDX 11 14 12 15 9 16
REMARK H PARENT
REMARK Flexibility Score: 60.00
ROOT
ATOM      1  C   UNL     1      20.561  63.497  14.817  1.00  0.00    -0.074 C 
ATOM      2  C   UNL     1      21.560  63.126  13.975  1.00  0.00    -0.027 C 
ATOM      3  C   UNL     1      19.176  62.968  14.546  1.00  0.00     0.039 C 
ENDROOT
BRANCH   2   4
ATOM      4  C   UNL     1      23.007  63.547  14.087  1.00  0.00     0.032 C 
BRANCH   4   5
ATOM      5  C   UNL     1      23.638  63.038  15.392  1.00  0.00     0.034 C 
BRANCH   5   6
ATOM      6  C   UNL     1      24.203  64.122  16.296  1.00  0.00    -0.077 C 
ATOM      7  C   UNL     1      25.105  65.162  15.674  1.00  0.00     0.039 C 
ATOM      8  C   UNL     1      24.052  64.166  17.647  1.00  0.00    -0.027 CG0
ATOM      9  G   UNL     1      23.080  63.379  18.509  1.00  0.00     0.000 G0
ENDBRANCH   5   6
ENDBRANCH   4   5
ENDBRANCH   2   4
BRANCH   1  10
ATOM     10  C   UNL     1      20.772  64.401  16.022  1.00  0.00     0.057 C 
BRANCH  10  11
ATOM     11  C   UNL     1      20.028  63.858  17.216  1.00  0.00    -0.026 C 
ATOM     12  C   UNL     1      20.495  63.664  18.472  1.00  0.00    -0.024 C 
BRANCH  12  13
ATOM     13  C   UNL     1      21.826  64.107  19.085  1.00  0.00    -0.014 C 
ATOM     14  C   UNL     1      21.991  65.632  18.888  1.00  0.00     0.016 C 
ATOM     15  C   UNL     1      21.759  63.849  20.611  1.00  0.00     0.016 C 
BRANCH  13  16
ATOM     16  C   UNL     1      23.082  63.373  18.518  1.00  0.00     0.038 CG0
ATOM     17  G   UNL     1      24.037  64.184  17.659  1.00  0.00     0.000 G0
ENDBRANCH  13  16
ENDBRANCH  12  13
ENDBRANCH  10  11
ENDBRANCH   1  10
TORSDOF 0
ENDMDL
MODEL 9
REMARK VINA RESULT:    -2.793      2.364      4.371
REMARK INTER + INTRA:          -3.315
REMARK INTER:                  -3.732
REMARK INTRA:                   0.417
REMARK UNBOUND:                 0.621
REMARK SMILES CC1=CCCC(C)=CCC(C)(C)C=CC1
REMARK SMILES IDX 2 1 3 2 1 3 4 4 5 5 6 6 7 7 8 8 15 10 14 11 13 12 10 13
REMARK SMILES IDX 11 14 12 15 9 16
REMARK H PARENT
REMARK Flexibility Score: 60.00
ROOT
ATOM      1  C   UNL     1      24.574  62.328  16.129  1.00  0.00    -0.074 C 
ATOM      2  C   UNL     1      24.566  63.150  17.210  1.00  0.00    -0.027 C 
ATOM      3  C   UNL     1      24.764  60.852  16.367  1.00  0.00     0.039 C 
ENDROOT
BRANCH   2   4
ATOM      4  C   UNL     1      24.384  64.650  17.173  1.00  0.00     0.032 C 
BRANCH   4   5
ATOM      5  C   UNL     1      23.117  65.079  17.930  1.00  0.00     0.034 C 
BRANCH   5   6
ATOM      6  C   UNL     1      21.888  64.227  17.655  1.00  0.00    -0.077 C 
ATOM      7  C   UNL     1      21.447  63.255  18.725  1.00  0.00     0.039 C 
ATOM      8  C   UNL     1      21.217  64.187  16.474  1.00  0.00    -0.027 CG0
ATOM      9  G   UNL     1      21.315  65.152  15.305  1.00  0.00     0.000 G0
ENDBRANCH   5   6
ENDBRANCH   4   5
ENDBRANCH   2   4
BRANCH   1  10
ATOM     10  C   UNL     1      24.386  62.817  14.702  1.00  0.00     0.057 C 
BRANCH  10  11
ATOM     11  C   UNL     1      23.070  62.327  14.153  1.00  0.00    -0.026 C 
ATOM     12  C   UNL     1      21.951  63.046  13.900  1.00  0.00    -0.024 C 
BRANCH  12  13
ATOM     13  C   UNL     1      21.758  64.566  13.915  1.00  0.00    -0.014 C 
ATOM     14  C   UNL     1      23.069  65.246  13.460  1.00  0.00     0.016 C 
ATOM     15  C   UNL     1      20.674  64.919  12.867  1.00  0.00     0.016 C 
BRANCH  13  16
ATOM     16  C   UNL     1      21.321  65.154  15.293  1.00  0.00     0.038 CG0
ATOM     17  G   UNL     1      21.207  64.189  16.461  1.00  0.00     0.000 G0
ENDBRANCH  13  16
ENDBRANCH  12  13
ENDBRANCH  10  11
ENDBRANCH   1  10
TORSDOF 0
ENDMDL
