MODEL 1
REMARK VINA RESULT:    -3.749      0.000      0.000
REMARK INTER + INTRA:          -4.436
REMARK INTER:                  -4.406
REMARK INTRA:                  -0.030
REMARK UNBOUND:                -0.030
REMARK SMILES O=C([O-])CCC(=O)[O-]
REMARK SMILES IDX 4 1 2 2 1 3 3 4 5 5 6 6 7 7 8 8
REMARK H PARENT
REMARK Flexibility Score: inf
ROOT
ATOM      1  C   UNL     1      16.098   8.119  48.222  1.00  0.00     0.059 C 
ENDROOT
BRANCH   1   2
ATOM      2  C   UNL     1      14.812   7.581  47.673  1.00  0.00     0.042 C 
ATOM      3  O   UNL     1      14.273   8.123  46.672  1.00  0.00    -0.550 OA
ATOM      4  O   UNL     1      14.188   6.505  48.292  1.00  0.00    -0.550 OA
ENDBRANCH   1   2
BRANCH   1   5
ATOM      5  C   UNL     1      16.289   7.732  49.693  1.00  0.00     0.059 C 
BRANCH   5   6
ATOM      6  C   UNL     1      17.558   8.299  50.251  1.00  0.00     0.042 C 
ATOM      7  O   UNL     1      18.652   7.703  50.070  1.00  0.00    -0.550 OA
ATOM      8  O   UNL     1      17.538   9.507  50.937  1.00  0.00    -0.550 OA
ENDBRANCH   5   6
ENDBRANCH   1   5
TORSDOF 3
ENDMDL
MODEL 2
REMARK VINA RESULT:    -3.742      1.209      4.185
REMARK INTER + INTRA:          -4.427
REMARK INTER:                  -4.344
REMARK INTRA:                  -0.083
REMARK UNBOUND:                -0.030
REMARK SMILES O=C([O-])CCC(=O)[O-]
REMARK SMILES IDX 4 1 2 2 1 3 3 4 5 5 6 6 7 7 8 8
REMARK H PARENT
REMARK Flexibility Score: inf
ROOT
ATOM      1  C   UNL     1      17.181   7.403  49.468  1.00  0.00     0.059 C 
ENDROOT
BRANCH   1   2
ATOM      2  C   UNL     1      17.653   8.584  50.260  1.00  0.00     0.042 C 
ATOM      3  O   UNL     1      17.944   8.455  51.478  1.00  0.00    -0.550 OA
ATOM      4  O   UNL     1      17.733   9.835  49.661  1.00  0.00    -0.550 OA
ENDBRANCH   1   2
BRANCH   1   5
ATOM      5  C   UNL     1      15.755   6.997  49.857  1.00  0.00     0.059 C 
BRANCH   5   6
ATOM      6  C   UNL     1      14.823   7.071  48.686  1.00  0.00     0.042 C 
ATOM      7  O   UNL     1      13.806   6.329  48.638  1.00  0.00    -0.550 OA
ATOM      8  O   UNL     1      15.054   7.987  47.668  1.00  0.00    -0.550 OA
ENDBRANCH   5   6
ENDBRANCH   1   5
TORSDOF 3
ENDMDL
MODEL 3
REMARK VINA RESULT:    -3.728      2.509      3.097
REMARK INTER + INTRA:          -4.411
REMARK INTER:                  -4.339
REMARK INTRA:                  -0.072
REMARK UNBOUND:                -0.030
REMARK SMILES O=C([O-])CCC(=O)[O-]
REMARK SMILES IDX 4 1 2 2 1 3 3 4 5 5 6 6 7 7 8 8
REMARK H PARENT
REMARK Flexibility Score: inf
ROOT
ATOM      1  C   UNL     1      15.537   8.528  47.631  1.00  0.00     0.059 C 
ENDROOT
BRANCH   1   2
ATOM      2  C   UNL     1      16.165   7.913  46.418  1.00  0.00     0.042 C 
ATOM      3  O   UNL     1      15.686   8.134  45.275  1.00  0.00    -0.550 OA
ATOM      4  O   UNL     1      17.256   7.063  46.555  1.00  0.00    -0.550 OA
ENDBRANCH   1   2
BRANCH   1   5
ATOM      5  C   UNL     1      15.866   7.734  48.900  1.00  0.00     0.059 C 
BRANCH   5   6
ATOM      6  C   UNL     1      15.085   6.457  48.969  1.00  0.00     0.042 C 
ATOM      7  O   UNL     1      15.659   5.378  49.271  1.00  0.00    -0.550 OA
ATOM      8  O   UNL     1      13.715   6.466  48.737  1.00  0.00    -0.550 OA
ENDBRANCH   5   6
ENDBRANCH   1   5
TORSDOF 3
ENDMDL
MODEL 4
REMARK VINA RESULT:    -3.706      1.194      1.714
REMARK INTER + INTRA:          -4.386
REMARK INTER:                  -4.316
REMARK INTRA:                  -0.070
REMARK UNBOUND:                -0.030
REMARK SMILES O=C([O-])CCC(=O)[O-]
REMARK SMILES IDX 4 1 2 2 1 3 3 4 5 5 6 6 7 7 8 8
REMARK H PARENT
REMARK Flexibility Score: inf
ROOT
ATOM      1  C   UNL     1      15.757   7.037  49.770  1.00  0.00     0.059 C 
ENDROOT
BRANCH   1   2
ATOM      2  C   UNL     1      14.811   6.974  48.609  1.00  0.00     0.042 C 
ATOM      3  O   UNL     1      13.765   6.277  48.681  1.00  0.00    -0.550 OA
ATOM      4  O   UNL     1      15.106   7.655  47.435  1.00  0.00    -0.550 OA
ENDBRANCH   1   2
BRANCH   1   5
ATOM      5  C   UNL     1      17.153   7.496  49.336  1.00  0.00     0.059 C 
BRANCH   5   6
ATOM      6  C   UNL     1      17.597   8.706  50.099  1.00  0.00     0.042 C 
ATOM      7  O   UNL     1      17.704   9.819  49.517  1.00  0.00    -0.550 OA
ATOM      8  O   UNL     1      17.854   8.615  51.461  1.00  0.00    -0.550 OA
ENDBRANCH   5   6
ENDBRANCH   1   5
TORSDOF 3
ENDMDL
MODEL 5
REMARK VINA RESULT:    -3.620      3.767      5.278
REMARK INTER + INTRA:          -4.284
REMARK INTER:                  -4.161
REMARK INTRA:                  -0.123
REMARK UNBOUND:                -0.030
REMARK SMILES O=C([O-])CCC(=O)[O-]
REMARK SMILES IDX 4 1 2 2 1 3 3 4 5 5 6 6 7 7 8 8
REMARK H PARENT
REMARK Flexibility Score: inf
ROOT
ATOM      1  C   UNL     1      20.023   8.110  51.543  1.00  0.00     0.059 C 
ENDROOT
BRANCH   1   2
ATOM      2  C   UNL     1      19.240   8.350  52.798  1.00  0.00     0.042 C 
ATOM      3  O   UNL     1      18.007   8.095  52.834  1.00  0.00    -0.550 OA
ATOM      4  O   UNL     1      19.865   8.893  53.913  1.00  0.00    -0.550 OA
ENDBRANCH   1   2
BRANCH   1   5
ATOM      5  C   UNL     1      19.131   8.183  50.299  1.00  0.00     0.059 C 
BRANCH   5   6
ATOM      6  C   UNL     1      18.970   9.593  49.819  1.00  0.00     0.042 C 
ATOM      7  O   UNL     1      17.830  10.129  49.799  1.00  0.00    -0.550 OA
ATOM      8  O   UNL     1      20.082  10.330  49.433  1.00  0.00    -0.550 OA
ENDBRANCH   5   6
ENDBRANCH   1   5
TORSDOF 3
ENDMDL
MODEL 6
REMARK VINA RESULT:    -3.611      2.151      4.853
REMARK INTER + INTRA:          -4.273
REMARK INTER:                  -4.173
REMARK INTRA:                  -0.100
REMARK UNBOUND:                -0.030
REMARK SMILES O=C([O-])CCC(=O)[O-]
REMARK SMILES IDX 4 1 2 2 1 3 3 4 5 5 6 6 7 7 8 8
REMARK H PARENT
REMARK Flexibility Score: inf
ROOT
ATOM      1  C   UNL     1      18.015   9.738  51.098  1.00  0.00     0.059 C 
ENDROOT
BRANCH   1   2
ATOM      2  C   UNL     1      18.990   9.080  52.026  1.00  0.00     0.042 C 
ATOM      3  O   UNL     1      18.988   9.361  53.253  1.00  0.00    -0.550 OA
ATOM      4  O   UNL     1      19.929   8.185  51.526  1.00  0.00    -0.550 OA
ENDBRANCH   1   2
BRANCH   1   5
ATOM      5  C   UNL     1      18.143   9.200  49.669  1.00  0.00     0.059 C 
BRANCH   5   6
ATOM      6  C   UNL     1      16.979   8.333  49.301  1.00  0.00     0.042 C 
ATOM      7  O   UNL     1      16.555   7.463  50.108  1.00  0.00    -0.550 OA
ATOM      8  O   UNL     1      16.335   8.512  48.082  1.00  0.00    -0.550 OA
ENDBRANCH   5   6
ENDBRANCH   1   5
TORSDOF 3
ENDMDL
MODEL 7
REMARK VINA RESULT:    -3.608      2.056      4.329
REMARK INTER + INTRA:          -4.270
REMARK INTER:                  -4.233
REMARK INTRA:                  -0.037
REMARK UNBOUND:                -0.030
REMARK SMILES O=C([O-])CCC(=O)[O-]
REMARK SMILES IDX 4 1 2 2 1 3 3 4 5 5 6 6 7 7 8 8
REMARK H PARENT
REMARK Flexibility Score: inf
ROOT
ATOM      1  C   UNL     1      17.442   9.193  49.400  1.00  0.00     0.059 C 
ENDROOT
BRANCH   1   2
ATOM      2  C   UNL     1      18.380  10.011  50.234  1.00  0.00     0.042 C 
ATOM      3  O   UNL     1      18.046  10.375  51.392  1.00  0.00    -0.550 OA
ATOM      4  O   UNL     1      19.608  10.405  49.715  1.00  0.00    -0.550 OA
ENDBRANCH   1   2
BRANCH   1   5
ATOM      5  C   UNL     1      17.052   7.889  50.105  1.00  0.00     0.059 C 
BRANCH   5   6
ATOM      6  C   UNL     1      16.579   6.855  49.129  1.00  0.00     0.042 C 
ATOM      7  O   UNL     1      16.876   6.953  47.909  1.00  0.00    -0.550 OA
ATOM      8  O   UNL     1      15.846   5.763  49.573  1.00  0.00    -0.550 OA
ENDBRANCH   5   6
ENDBRANCH   1   5
TORSDOF 3
ENDMDL
MODEL 8
REMARK VINA RESULT:    -3.608      3.763      4.561
REMARK INTER + INTRA:          -4.270
REMARK INTER:                  -4.155
REMARK INTRA:                  -0.114
REMARK UNBOUND:                -0.030
REMARK SMILES O=C([O-])CCC(=O)[O-]
REMARK SMILES IDX 4 1 2 2 1 3 3 4 5 5 6 6 7 7 8 8
REMARK H PARENT
REMARK Flexibility Score: inf
ROOT
ATOM      1  C   UNL     1      19.112   8.232  50.277  1.00  0.00     0.059 C 
ENDROOT
BRANCH   1   2
ATOM      2  C   UNL     1      18.971   9.643  49.791  1.00  0.00     0.042 C 
ATOM      3  O   UNL     1      17.830  10.167  49.691  1.00  0.00    -0.550 OA
ATOM      4  O   UNL     1      20.096  10.363  49.410  1.00  0.00    -0.550 OA
ENDBRANCH   1   2
BRANCH   1   5
ATOM      5  C   UNL     1      20.030   8.147  51.500  1.00  0.00     0.059 C 
BRANCH   5   6
ATOM      6  C   UNL     1      19.273   8.367  52.774  1.00  0.00     0.042 C 
ATOM      7  O   UNL     1      18.036   8.133  52.824  1.00  0.00    -0.550 OA
ATOM      8  O   UNL     1      19.939   8.791  53.917  1.00  0.00    -0.550 OA
ENDBRANCH   5   6
ENDBRANCH   1   5
TORSDOF 3
ENDMDL
MODEL 9
REMARK VINA RESULT:    -3.582      1.724      2.199
REMARK INTER + INTRA:          -4.240
REMARK INTER:                  -4.206
REMARK INTRA:                  -0.034
REMARK UNBOUND:                -0.030
REMARK SMILES O=C([O-])CCC(=O)[O-]
REMARK SMILES IDX 4 1 2 2 1 3 3 4 5 5 6 6 7 7 8 8
REMARK H PARENT
REMARK Flexibility Score: inf
ROOT
ATOM      1  C   UNL     1      16.972   7.953  50.126  1.00  0.00     0.059 C 
ENDROOT
BRANCH   1   2
ATOM      2  C   UNL     1      15.996   7.239  49.241  1.00  0.00     0.042 C 
ATOM      3  O   UNL     1      15.335   7.877  48.380  1.00  0.00    -0.550 OA
ATOM      4  O   UNL     1      15.790   5.873  49.395  1.00  0.00    -0.550 OA
ENDBRANCH   1   2
BRANCH   1   5
ATOM      5  C   UNL     1      17.365   9.316  49.546  1.00  0.00     0.059 C 
BRANCH   5   6
ATOM      6  C   UNL     1      18.416   9.986  50.378  1.00  0.00     0.042 C 
ATOM      7  O   UNL     1      18.261  10.101  51.622  1.00  0.00    -0.550 OA
ATOM      8  O   UNL     1      19.584  10.448  49.785  1.00  0.00    -0.550 OA
ENDBRANCH   5   6
ENDBRANCH   1   5
TORSDOF 3
ENDMDL
