MODEL 1
REMARK VINA RESULT:    -3.477      0.000      0.000
REMARK INTER + INTRA:          -4.045
REMARK INTER:                  -3.985
REMARK INTRA:                  -0.059
REMARK UNBOUND:                -0.059
REMARK SMILES CC(C)[C@@H]([NH3+])C(=O)[O-]
REMARK SMILES IDX 4 1 5 2 6 6 7 7 8 8 2 9 1 10 3 11
REMARK H PARENT 5 3 5 4 5 5
REMARK Flexibility Score: inf
ROOT
ATOM      1  C   UNL     1     -15.210  12.175  -4.593  1.00  0.00     0.230 C 
ENDROOT
BRANCH   1   2
ATOM      2  N   UNL     1     -14.488  11.034  -5.177  1.00  0.00    -0.350 N 
ATOM      3  H   UNL     1     -14.652  10.987  -6.207  1.00  0.00     0.345 HD
ATOM      4  H   UNL     1     -13.462  11.093  -4.990  1.00  0.00     0.345 HD
ATOM      5  H   UNL     1     -14.850  10.144  -4.760  1.00  0.00     0.345 HD
ENDBRANCH   1   2
BRANCH   1   6
ATOM      6  C   UNL     1     -14.242  13.224  -4.104  1.00  0.00     0.099 C 
ATOM      7  O   UNL     1     -13.973  14.217  -4.832  1.00  0.00    -0.544 OA
ATOM      8  O   UNL     1     -13.605  13.087  -2.877  1.00  0.00    -0.544 OA
ENDBRANCH   1   6
BRANCH   1   9
ATOM      9  C   UNL     1     -16.257  12.796  -5.566  1.00  0.00     0.047 C 
ATOM     10  C   UNL     1     -16.218  12.193  -6.980  1.00  0.00     0.014 C 
ATOM     11  C   UNL     1     -17.682  12.720  -4.997  1.00  0.00     0.014 C 
ENDBRANCH   1   9
TORSDOF 3
ENDMDL
MODEL 2
REMARK VINA RESULT:    -3.462     12.867     13.725
REMARK INTER + INTRA:          -4.027
REMARK INTER:                  -3.967
REMARK INTRA:                  -0.060
REMARK UNBOUND:                -0.059
REMARK SMILES CC(C)[C@@H]([NH3+])C(=O)[O-]
REMARK SMILES IDX 4 1 5 2 6 6 7 7 8 8 2 9 1 10 3 11
REMARK H PARENT 5 3 5 4 5 5
REMARK Flexibility Score: inf
ROOT
ATOM      1  C   UNL     1     -13.545   3.257   4.016  1.00  0.00     0.230 C 
ENDROOT
BRANCH   1   2
ATOM      2  N   UNL     1     -14.563   4.313   3.896  1.00  0.00    -0.350 N 
ATOM      3  H   UNL     1     -15.433   3.932   3.462  1.00  0.00     0.345 HD
ATOM      4  H   UNL     1     -14.792   4.731   4.826  1.00  0.00     0.345 HD
ATOM      5  H   UNL     1     -14.204   5.071   3.271  1.00  0.00     0.345 HD
ENDBRANCH   1   2
BRANCH   1   6
ATOM      6  C   UNL     1     -13.609   2.606   5.376  1.00  0.00     0.099 C 
ATOM      7  O   UNL     1     -14.337   1.593   5.552  1.00  0.00    -0.544 OA
ATOM      8  O   UNL     1     -12.911   3.138   6.453  1.00  0.00    -0.544 OA
ENDBRANCH   1   6
BRANCH   1   9
ATOM      9  C   UNL     1     -13.637   2.190   2.884  1.00  0.00     0.047 C 
ATOM     10  C   UNL     1     -14.425   2.665   1.652  1.00  0.00     0.014 C 
ATOM     11  C   UNL     1     -12.250   1.682   2.463  1.00  0.00     0.014 C 
ENDBRANCH   1   9
TORSDOF 3
ENDMDL
MODEL 3
REMARK VINA RESULT:    -3.446      2.050      2.691
REMARK INTER + INTRA:          -4.010
REMARK INTER:                  -3.993
REMARK INTRA:                  -0.016
REMARK UNBOUND:                -0.059
REMARK SMILES CC(C)[C@@H]([NH3+])C(=O)[O-]
REMARK SMILES IDX 4 1 5 2 6 6 7 7 8 8 2 9 1 10 3 11
REMARK H PARENT 5 3 5 4 5 5
REMARK Flexibility Score: inf
ROOT
ATOM      1  C   UNL     1     -14.290  13.412  -3.533  1.00  0.00     0.230 C 
ENDROOT
BRANCH   1   2
ATOM      2  N   UNL     1     -13.026  13.419  -2.780  1.00  0.00    -0.350 N 
ATOM      3  H   UNL     1     -13.079  12.760  -1.971  1.00  0.00     0.345 HD
ATOM      4  H   UNL     1     -12.217  13.158  -3.388  1.00  0.00     0.345 HD
ATOM      5  H   UNL     1     -12.857  14.377  -2.396  1.00  0.00     0.345 HD
ENDBRANCH   1   2
BRANCH   1   6
ATOM      6  C   UNL     1     -14.545  14.760  -4.161  1.00  0.00     0.099 C 
ATOM      7  O   UNL     1     -15.620  15.370  -3.920  1.00  0.00    -0.544 OA
ATOM      8  O   UNL     1     -13.627  15.319  -5.041  1.00  0.00    -0.544 OA
ENDBRANCH   1   6
BRANCH   1   9
ATOM      9  C   UNL     1     -14.357  12.280  -4.602  1.00  0.00     0.047 C 
ATOM     10  C   UNL     1     -14.277  10.864  -4.007  1.00  0.00     0.014 C 
ATOM     11  C   UNL     1     -15.599  12.410  -5.497  1.00  0.00     0.014 C 
ENDBRANCH   1   9
TORSDOF 3
ENDMDL
MODEL 4
REMARK VINA RESULT:    -3.406      2.510      3.255
REMARK INTER + INTRA:          -3.963
REMARK INTER:                  -3.912
REMARK INTRA:                  -0.052
REMARK UNBOUND:                -0.059
REMARK SMILES CC(C)[C@@H]([NH3+])C(=O)[O-]
REMARK SMILES IDX 4 1 5 2 6 6 7 7 8 8 2 9 1 10 3 11
REMARK H PARENT 5 3 5 4 5 5
REMARK Flexibility Score: inf
ROOT
ATOM      1  C   UNL     1     -13.880  13.444  -4.021  1.00  0.00     0.230 C 
ENDROOT
BRANCH   1   2
ATOM      2  N   UNL     1     -13.056  13.385  -2.803  1.00  0.00    -0.350 N 
ATOM      3  H   UNL     1     -13.291  14.178  -2.165  1.00  0.00     0.345 HD
ATOM      4  H   UNL     1     -13.186  12.480  -2.296  1.00  0.00     0.345 HD
ATOM      5  H   UNL     1     -12.047  13.478  -3.062  1.00  0.00     0.345 HD
ENDBRANCH   1   2
BRANCH   1   6
ATOM      6  C   UNL     1     -14.214  12.055  -4.506  1.00  0.00     0.099 C 
ATOM      7  O   UNL     1     -14.522  11.158  -3.677  1.00  0.00    -0.544 OA
ATOM      8  O   UNL     1     -14.141  11.738  -5.857  1.00  0.00    -0.544 OA
ENDBRANCH   1   6
BRANCH   1   9
ATOM      9  C   UNL     1     -15.173  14.296  -3.841  1.00  0.00     0.047 C 
ATOM     10  C   UNL     1     -15.029  15.424  -2.807  1.00  0.00     0.014 C 
ATOM     11  C   UNL     1     -15.675  14.862  -5.178  1.00  0.00     0.014 C 
ENDBRANCH   1   9
TORSDOF 3
ENDMDL
MODEL 5
REMARK VINA RESULT:    -3.339      2.527      3.619
REMARK INTER + INTRA:          -3.886
REMARK INTER:                  -3.823
REMARK INTRA:                  -0.063
REMARK UNBOUND:                -0.059
REMARK SMILES CC(C)[C@@H]([NH3+])C(=O)[O-]
REMARK SMILES IDX 4 1 5 2 6 6 7 7 8 8 2 9 1 10 3 11
REMARK H PARENT 5 3 5 4 5 5
REMARK Flexibility Score: inf
ROOT
ATOM      1  C   UNL     1     -15.827  12.628  -5.030  1.00  0.00     0.230 C 
ENDROOT
BRANCH   1   2
ATOM      2  N   UNL     1     -16.178  14.034  -4.775  1.00  0.00    -0.350 N 
ATOM      3  H   UNL     1     -17.043  14.295  -5.299  1.00  0.00     0.345 HD
ATOM      4  H   UNL     1     -16.321  14.214  -3.756  1.00  0.00     0.345 HD
ATOM      5  H   UNL     1     -15.406  14.652  -5.116  1.00  0.00     0.345 HD
ENDBRANCH   1   2
BRANCH   1   6
ATOM      6  C   UNL     1     -16.025  12.285  -6.486  1.00  0.00     0.099 C 
ATOM      7  O   UNL     1     -15.033  11.971  -7.197  1.00  0.00    -0.544 OA
ATOM      8  O   UNL     1     -17.285  12.355  -7.068  1.00  0.00    -0.544 OA
ENDBRANCH   1   6
BRANCH   1   9
ATOM      9  C   UNL     1     -14.384  12.267  -4.566  1.00  0.00     0.047 C 
ATOM     10  C   UNL     1     -13.719  13.360  -3.713  1.00  0.00     0.014 C 
ATOM     11  C   UNL     1     -14.341  10.920  -3.829  1.00  0.00     0.014 C 
ENDBRANCH   1   9
TORSDOF 3
ENDMDL
MODEL 6
REMARK VINA RESULT:    -3.213      7.763      8.610
REMARK INTER + INTRA:          -3.742
REMARK INTER:                  -3.697
REMARK INTRA:                  -0.045
REMARK UNBOUND:                -0.059
REMARK SMILES CC(C)[C@@H]([NH3+])C(=O)[O-]
REMARK SMILES IDX 4 1 5 2 6 6 7 7 8 8 2 9 1 10 3 11
REMARK H PARENT 5 3 5 4 5 5
REMARK Flexibility Score: inf
ROOT
ATOM      1  C   UNL     1     -13.694   5.653  -3.341  1.00  0.00     0.230 C 
ENDROOT
BRANCH   1   2
ATOM      2  N   UNL     1     -13.401   7.028  -3.776  1.00  0.00    -0.350 N 
ATOM      3  H   UNL     1     -14.275   7.504  -4.096  1.00  0.00     0.345 HD
ATOM      4  H   UNL     1     -12.962   7.587  -3.010  1.00  0.00     0.345 HD
ATOM      5  H   UNL     1     -12.742   7.003  -4.588  1.00  0.00     0.345 HD
ENDBRANCH   1   2
BRANCH   1   6
ATOM      6  C   UNL     1     -14.248   4.839  -4.484  1.00  0.00     0.099 C 
ATOM      7  O   UNL     1     -14.666   3.669  -4.276  1.00  0.00    -0.544 OA
ATOM      8  O   UNL     1     -14.259   5.346  -5.778  1.00  0.00    -0.544 OA
ENDBRANCH   1   6
BRANCH   1   9
ATOM      9  C   UNL     1     -12.465   4.943  -2.697  1.00  0.00     0.047 C 
ATOM     10  C   UNL     1     -11.218   5.838  -2.598  1.00  0.00     0.014 C 
ATOM     11  C   UNL     1     -12.802   4.350  -1.322  1.00  0.00     0.014 C 
ENDBRANCH   1   9
TORSDOF 3
ENDMDL
MODEL 7
REMARK VINA RESULT:    -3.196     10.634     11.524
REMARK INTER + INTRA:          -3.723
REMARK INTER:                  -3.669
REMARK INTRA:                  -0.054
REMARK UNBOUND:                -0.059
REMARK SMILES CC(C)[C@@H]([NH3+])C(=O)[O-]
REMARK SMILES IDX 4 1 5 2 6 6 7 7 8 8 2 9 1 10 3 11
REMARK H PARENT 5 3 5 4 5 5
REMARK Flexibility Score: inf
ROOT
ATOM      1  C   UNL     1     -14.504   3.373   1.569  1.00  0.00     0.230 C 
ENDROOT
BRANCH   1   2
ATOM      2  N   UNL     1     -14.587   4.013   2.891  1.00  0.00    -0.350 N 
ATOM      3  H   UNL     1     -14.886   3.321   3.613  1.00  0.00     0.345 HD
ATOM      4  H   UNL     1     -13.673   4.434   3.171  1.00  0.00     0.345 HD
ATOM      5  H   UNL     1     -15.307   4.772   2.865  1.00  0.00     0.345 HD
ENDBRANCH   1   2
BRANCH   1   6
ATOM      6  C   UNL     1     -14.857   4.355   0.478  1.00  0.00     0.099 C 
ATOM      7  O   UNL     1     -15.642   5.308   0.723  1.00  0.00    -0.544 OA
ATOM      8  O   UNL     1     -14.361   4.194  -0.810  1.00  0.00    -0.544 OA
ENDBRANCH   1   6
BRANCH   1   9
ATOM      9  C   UNL     1     -13.119   2.714   1.296  1.00  0.00     0.047 C 
ATOM     10  C   UNL     1     -12.003   3.217   2.227  1.00  0.00     0.014 C 
ATOM     11  C   UNL     1     -13.195   1.181   1.342  1.00  0.00     0.014 C 
ENDBRANCH   1   9
TORSDOF 3
ENDMDL
MODEL 8
REMARK VINA RESULT:    -3.090     10.750     11.640
REMARK INTER + INTRA:          -3.601
REMARK INTER:                  -3.537
REMARK INTRA:                  -0.065
REMARK UNBOUND:                -0.059
REMARK SMILES CC(C)[C@@H]([NH3+])C(=O)[O-]
REMARK SMILES IDX 4 1 5 2 6 6 7 7 8 8 2 9 1 10 3 11
REMARK H PARENT 5 3 5 4 5 5
REMARK Flexibility Score: inf
ROOT
ATOM      1  C   UNL     1     -24.684   9.911 -10.473  1.00  0.00     0.230 C 
ENDROOT
BRANCH   1   2
ATOM      2  N   UNL     1     -23.918   8.692 -10.167  1.00  0.00    -0.350 N 
ATOM      3  H   UNL     1     -23.258   8.472 -10.945  1.00  0.00     0.345 HD
ATOM      4  H   UNL     1     -23.385   8.789  -9.274  1.00  0.00     0.345 HD
ATOM      5  H   UNL     1     -24.576   7.883 -10.074  1.00  0.00     0.345 HD
ENDBRANCH   1   2
BRANCH   1   6
ATOM      6  C   UNL     1     -26.109   9.780  -9.993  1.00  0.00     0.099 C 
ATOM      7  O   UNL     1     -27.055   9.812 -10.823  1.00  0.00    -0.544 OA
ATOM      8  O   UNL     1     -26.395   9.672  -8.637  1.00  0.00    -0.544 OA
ENDBRANCH   1   6
BRANCH   1   9
ATOM      9  C   UNL     1     -24.023  11.204  -9.905  1.00  0.00     0.047 C 
ATOM     10  C   UNL     1     -22.566  11.399 -10.355  1.00  0.00     0.014 C 
ATOM     11  C   UNL     1     -24.850  12.458 -10.228  1.00  0.00     0.014 C 
ENDBRANCH   1   9
TORSDOF 3
ENDMDL
MODEL 9
REMARK VINA RESULT:    -3.074      8.486      9.318
REMARK INTER + INTRA:          -3.582
REMARK INTER:                  -3.519
REMARK INTRA:                  -0.063
REMARK UNBOUND:                -0.059
REMARK SMILES CC(C)[C@@H]([NH3+])C(=O)[O-]
REMARK SMILES IDX 4 1 5 2 6 6 7 7 8 8 2 9 1 10 3 11
REMARK H PARENT 5 3 5 4 5 5
REMARK Flexibility Score: inf
ROOT
ATOM      1  C   UNL     1     -13.651   3.895  -2.671  1.00  0.00     0.230 C 
ENDROOT
BRANCH   1   2
ATOM      2  N   UNL     1     -14.608   2.786  -2.808  1.00  0.00    -0.350 N 
ATOM      3  H   UNL     1     -15.311   2.813  -2.037  1.00  0.00     0.345 HD
ATOM      4  H   UNL     1     -15.100   2.817  -3.729  1.00  0.00     0.345 HD
ATOM      5  H   UNL     1     -14.096   1.876  -2.737  1.00  0.00     0.345 HD
ENDBRANCH   1   2
BRANCH   1   6
ATOM      6  C   UNL     1     -14.007   5.026  -3.605  1.00  0.00     0.099 C 
ATOM      7  O   UNL     1     -13.845   6.219  -3.236  1.00  0.00    -0.544 OA
ATOM      8  O   UNL     1     -14.557   4.768  -4.855  1.00  0.00    -0.544 OA
ENDBRANCH   1   6
BRANCH   1   9
ATOM      9  C   UNL     1     -13.518   4.407  -1.205  1.00  0.00     0.047 C 
ATOM     10  C   UNL     1     -14.498   3.738  -0.227  1.00  0.00     0.014 C 
ATOM     11  C   UNL     1     -12.079   4.281  -0.683  1.00  0.00     0.014 C 
ENDBRANCH   1   9
TORSDOF 3
ENDMDL
