MODEL 1
REMARK VINA RESULT:    -0.410      0.000      0.000
REMARK INTER + INTRA:          -0.778
REMARK INTER:                  -0.481
REMARK INTRA:                  -0.296
REMARK UNBOUND:                -0.296
REMARK SMILES O=c1cc(-c2ccc(O)c(O)c2)oc2cc(O)cc(O)c12
REMARK SMILES IDX 4 1 3 2 2 3 1 4 21 5 19 6 18 7 16 8 15 9 14 10 13 11 5 12
REMARK SMILES IDX 6 13 7 14 8 15 12 16 10 17 9 18 11 20 20 22 17 24
REMARK H PARENT 9 19 11 21 20 23 17 25
REMARK Flexibility Score: inf
ROOT
ATOM      1  C   UNL     1      10.772 -32.597  14.337  1.00  0.00     0.138 A 
ATOM      2  C   UNL     1       9.976 -31.845  15.212  1.00  0.00     0.100 A 
ATOM      3  C   UNL     1       8.687 -32.281  15.519  1.00  0.00     0.197 A 
ATOM      4  O   UNL     1       8.019 -31.614  16.351  1.00  0.00    -0.289 OA
ATOM      5  C   UNL     1       8.180 -33.458  14.919  1.00  0.00     0.107 A 
ATOM      6  C   UNL     1       6.868 -33.981  15.131  1.00  0.00     0.134 A 
ATOM      7  C   UNL     1       6.513 -35.208  14.557  1.00  0.00     0.093 A 
ATOM      8  C   UNL     1       7.401 -35.902  13.733  1.00  0.00     0.123 A 
ATOM      9  C   UNL     1       8.665 -35.376  13.479  1.00  0.00     0.094 A 
ATOM     10  C   UNL     1       9.063 -34.172  14.064  1.00  0.00     0.146 A 
ATOM     11  O   UNL     1      10.284 -33.715  13.810  1.00  0.00    -0.456 OA
ENDROOT
BRANCH   1  12
ATOM     12  C   UNL     1      12.149 -32.178  13.972  1.00  0.00     0.021 A 
ATOM     13  C   UNL     1      12.963 -33.052  13.231  1.00  0.00     0.016 A 
ATOM     14  C   UNL     1      14.265 -32.686  12.880  1.00  0.00     0.051 A 
ATOM     15  C   UNL     1      14.780 -31.445  13.274  1.00  0.00     0.157 A 
ATOM     16  C   UNL     1      12.678 -30.936  14.377  1.00  0.00     0.062 A 
ATOM     17  C   UNL     1      13.986 -30.569  14.027  1.00  0.00     0.158 A 
BRANCH  15  18
ATOM     18  O   UNL     1      16.077 -31.075  12.926  1.00  0.00    -0.504 OA
ATOM     19  H   UNL     1      16.381 -31.052  11.959  1.00  0.00     0.293 HD
ENDBRANCH  15  18
BRANCH  17  20
ATOM     20  O   UNL     1      14.505 -29.340  14.427  1.00  0.00    -0.504 OA
ATOM     21  H   UNL     1      15.269 -29.277  15.090  1.00  0.00     0.293 HD
ENDBRANCH  17  20
ENDBRANCH   1  12
BRANCH   6  22
ATOM     22  O   UNL     1       5.875 -33.330  15.870  1.00  0.00    -0.507 OA
ATOM     23  H   UNL     1       5.197 -33.787  16.459  1.00  0.00     0.293 HD
ENDBRANCH   6  22
BRANCH   8  24
ATOM     24  O   UNL     1       7.034 -37.115  13.154  1.00  0.00    -0.508 OA
ATOM     25  H   UNL     1       7.659 -37.913  13.153  1.00  0.00     0.293 HD
ENDBRANCH   8  24
TORSDOF 5
ENDMDL
MODEL 2
REMARK VINA RESULT:     1.103      1.931      3.102
REMARK INTER + INTRA:           1.000
REMARK INTER:                   1.290
REMARK INTRA:                  -0.290
REMARK UNBOUND:                -0.296
REMARK SMILES O=c1cc(-c2ccc(O)c(O)c2)oc2cc(O)cc(O)c12
REMARK SMILES IDX 4 1 3 2 2 3 1 4 21 5 19 6 18 7 16 8 15 9 14 10 13 11 5 12
REMARK SMILES IDX 6 13 7 14 8 15 12 16 10 17 9 18 11 20 20 22 17 24
REMARK H PARENT 9 19 11 21 20 23 17 25
REMARK Flexibility Score: inf
ROOT
ATOM      1  C   UNL     1      10.911 -31.865  14.373  1.00  0.00     0.138 A 
ATOM      2  C   UNL     1       9.942 -32.301  13.458  1.00  0.00     0.100 A 
ATOM      3  C   UNL     1       8.619 -32.453  13.874  1.00  0.00     0.197 A 
ATOM      4  O   UNL     1       7.763 -32.792  13.017  1.00  0.00    -0.289 OA
ATOM      5  C   UNL     1       8.272 -32.199  15.223  1.00  0.00     0.107 A 
ATOM      6  C   UNL     1       6.961 -32.353  15.770  1.00  0.00     0.134 A 
ATOM      7  C   UNL     1       6.719 -31.978  17.097  1.00  0.00     0.093 A 
ATOM      8  C   UNL     1       7.751 -31.510  17.914  1.00  0.00     0.123 A 
ATOM      9  C   UNL     1       9.043 -31.405  17.405  1.00  0.00     0.094 A 
ATOM     10  C   UNL     1       9.310 -31.737  16.075  1.00  0.00     0.146 A 
ATOM     11  O   UNL     1      10.554 -31.605  15.626  1.00  0.00    -0.456 OA
ENDROOT
BRANCH   1  12
ATOM     12  C   UNL     1      12.333 -31.690  13.985  1.00  0.00     0.021 A 
ATOM     13  C   UNL     1      12.989 -32.718  13.285  1.00  0.00     0.016 A 
ATOM     14  C   UNL     1      14.329 -32.583  12.915  1.00  0.00     0.051 A 
ATOM     15  C   UNL     1      15.040 -31.424  13.246  1.00  0.00     0.157 A 
ATOM     16  C   UNL     1      13.059 -30.532  14.327  1.00  0.00     0.062 A 
ATOM     17  C   UNL     1      14.405 -30.397  13.957  1.00  0.00     0.158 A 
BRANCH  15  18
ATOM     18  O   UNL     1      16.377 -31.284  12.878  1.00  0.00    -0.504 OA
ATOM     19  H   UNL     1      17.107 -31.840  13.310  1.00  0.00     0.293 HD
ENDBRANCH  15  18
BRANCH  17  20
ATOM     20  O   UNL     1      15.119 -29.250  14.295  1.00  0.00    -0.504 OA
ATOM     21  H   UNL     1      15.683 -28.756  13.613  1.00  0.00     0.293 HD
ENDBRANCH  17  20
ENDBRANCH   1  12
BRANCH   6  22
ATOM     22  O   UNL     1       5.876 -32.886  15.066  1.00  0.00    -0.507 OA
ATOM     23  H   UNL     1       4.906 -32.745  15.302  1.00  0.00     0.293 HD
ENDBRANCH   6  22
BRANCH   8  24
ATOM     24  O   UNL     1       7.503 -31.154  19.238  1.00  0.00    -0.508 OA
ATOM     25  H   UNL     1       8.128 -31.431  19.987  1.00  0.00     0.293 HD
ENDBRANCH   8  24
TORSDOF 5
ENDMDL
MODEL 3
REMARK VINA RESULT:     1.416      1.145      2.689
REMARK INTER + INTRA:           1.368
REMARK INTER:                   1.682
REMARK INTRA:                  -0.314
REMARK UNBOUND:                -0.296
REMARK SMILES O=c1cc(-c2ccc(O)c(O)c2)oc2cc(O)cc(O)c12
REMARK SMILES IDX 4 1 3 2 2 3 1 4 21 5 19 6 18 7 16 8 15 9 14 10 13 11 5 12
REMARK SMILES IDX 6 13 7 14 8 15 12 16 10 17 9 18 11 20 20 22 17 24
REMARK H PARENT 9 19 11 21 20 23 17 25
REMARK Flexibility Score: inf
ROOT
ATOM      1  C   UNL     1      10.869 -33.189  13.783  1.00  0.00     0.138 A 
ATOM      2  C   UNL     1      10.439 -34.416  13.259  1.00  0.00     0.100 A 
ATOM      3  C   UNL     1       9.140 -34.858  13.511  1.00  0.00     0.197 A 
ATOM      4  O   UNL     1       8.767 -35.936  12.981  1.00  0.00    -0.289 OA
ATOM      5  C   UNL     1       8.278 -34.082  14.322  1.00  0.00     0.107 A 
ATOM      6  C   UNL     1       6.943 -34.448  14.676  1.00  0.00     0.134 A 
ATOM      7  C   UNL     1       6.152 -33.552  15.405  1.00  0.00     0.093 A 
ATOM      8  C   UNL     1       6.666 -32.329  15.843  1.00  0.00     0.123 A 
ATOM      9  C   UNL     1       7.982 -31.984  15.547  1.00  0.00     0.094 A 
ATOM     10  C   UNL     1       8.786 -32.841  14.791  1.00  0.00     0.146 A 
ATOM     11  O   UNL     1      10.030 -32.465  14.516  1.00  0.00    -0.456 OA
ENDROOT
BRANCH   1  12
ATOM     12  C   UNL     1      12.240 -32.674  13.549  1.00  0.00     0.021 A 
ATOM     13  C   UNL     1      13.242 -33.553  13.101  1.00  0.00     0.016 A 
ATOM     14  C   UNL     1      14.543 -33.096  12.880  1.00  0.00     0.051 A 
ATOM     15  C   UNL     1      14.869 -31.754  13.113  1.00  0.00     0.157 A 
ATOM     16  C   UNL     1      12.580 -31.327  13.793  1.00  0.00     0.062 A 
ATOM     17  C   UNL     1      13.887 -30.869  13.573  1.00  0.00     0.158 A 
BRANCH  15  18
ATOM     18  O   UNL     1      16.166 -31.294  12.892  1.00  0.00    -0.504 OA
ATOM     19  H   UNL     1      16.343 -30.410  12.427  1.00  0.00     0.293 HD
ENDBRANCH  15  18
BRANCH  17  20
ATOM     20  O   UNL     1      14.217 -29.537  13.814  1.00  0.00    -0.504 OA
ATOM     21  H   UNL     1      13.728 -28.987  14.511  1.00  0.00     0.293 HD
ENDBRANCH  17  20
ENDBRANCH   1  12
BRANCH   6  22
ATOM     22  O   UNL     1       6.358 -35.679  14.359  1.00  0.00    -0.507 OA
ATOM     23  H   UNL     1       6.147 -36.408  15.022  1.00  0.00     0.293 HD
ENDBRANCH   6  22
BRANCH   8  24
ATOM     24  O   UNL     1       5.875 -31.450  16.581  1.00  0.00    -0.508 OA
ATOM     25  H   UNL     1       5.485 -31.715  17.478  1.00  0.00     0.293 HD
ENDBRANCH   8  24
TORSDOF 5
ENDMDL
MODEL 4
REMARK VINA RESULT:     1.761      1.469      3.157
REMARK INTER + INTRA:           1.773
REMARK INTER:                   2.057
REMARK INTRA:                  -0.284
REMARK UNBOUND:                -0.296
REMARK SMILES O=c1cc(-c2ccc(O)c(O)c2)oc2cc(O)cc(O)c12
REMARK SMILES IDX 4 1 3 2 2 3 1 4 21 5 19 6 18 7 16 8 15 9 14 10 13 11 5 12
REMARK SMILES IDX 6 13 7 14 8 15 12 16 10 17 9 18 11 20 20 22 17 24
REMARK H PARENT 9 19 11 21 20 23 17 25
REMARK Flexibility Score: inf
ROOT
ATOM      1  C   UNL     1      11.795 -32.796  13.905  1.00  0.00     0.138 A 
ATOM      2  C   UNL     1      12.222 -34.070  13.508  1.00  0.00     0.100 A 
ATOM      3  C   UNL     1      11.281 -35.076  13.284  1.00  0.00     0.197 A 
ATOM      4  O   UNL     1      11.692 -36.192  12.875  1.00  0.00    -0.289 OA
ATOM      5  C   UNL     1       9.906 -34.812  13.494  1.00  0.00     0.107 A 
ATOM      6  C   UNL     1       8.858 -35.769  13.330  1.00  0.00     0.134 A 
ATOM      7  C   UNL     1       7.526 -35.363  13.472  1.00  0.00     0.093 A 
ATOM      8  C   UNL     1       7.205 -34.051  13.828  1.00  0.00     0.123 A 
ATOM      9  C   UNL     1       8.221 -33.123  14.039  1.00  0.00     0.094 A 
ATOM     10  C   UNL     1       9.560 -33.487  13.871  1.00  0.00     0.146 A 
ATOM     11  O   UNL     1      10.497 -32.565  14.066  1.00  0.00    -0.456 OA
ENDROOT
BRANCH   1  12
ATOM     12  C   UNL     1      12.753 -31.692  14.161  1.00  0.00     0.021 A 
ATOM     13  C   UNL     1      12.481 -30.764  15.181  1.00  0.00     0.016 A 
ATOM     14  C   UNL     1      13.363 -29.711  15.438  1.00  0.00     0.051 A 
ATOM     15  C   UNL     1      14.525 -29.560  14.672  1.00  0.00     0.157 A 
ATOM     16  C   UNL     1      13.919 -31.526  13.386  1.00  0.00     0.062 A 
ATOM     17  C   UNL     1      14.803 -30.467  13.642  1.00  0.00     0.158 A 
BRANCH  15  18
ATOM     18  O   UNL     1      15.408 -28.512  14.926  1.00  0.00    -0.504 OA
ATOM     19  H   UNL     1      16.406 -28.613  14.784  1.00  0.00     0.293 HD
ENDBRANCH  15  18
BRANCH  17  20
ATOM     20  O   UNL     1      15.954 -30.308  12.875  1.00  0.00    -0.504 OA
ATOM     21  H   UNL     1      15.966 -29.718  12.051  1.00  0.00     0.293 HD
ENDBRANCH  17  20
ENDBRANCH   1  12
BRANCH   6  22
ATOM     22  O   UNL     1       9.070 -37.123  13.054  1.00  0.00    -0.507 OA
ATOM     23  H   UNL     1       9.470 -37.485  12.202  1.00  0.00     0.293 HD
ENDBRANCH   6  22
BRANCH   8  24
ATOM     24  O   UNL     1       5.876 -33.661  13.982  1.00  0.00    -0.508 OA
ATOM     25  H   UNL     1       5.518 -33.340  14.874  1.00  0.00     0.293 HD
ENDBRANCH   8  24
TORSDOF 5
ENDMDL
MODEL 5
REMARK VINA RESULT:     1.953      1.941      2.782
REMARK INTER + INTRA:           1.999
REMARK INTER:                   2.270
REMARK INTRA:                  -0.271
REMARK UNBOUND:                -0.296
REMARK SMILES O=c1cc(-c2ccc(O)c(O)c2)oc2cc(O)cc(O)c12
REMARK SMILES IDX 4 1 3 2 2 3 1 4 21 5 19 6 18 7 16 8 15 9 14 10 13 11 5 12
REMARK SMILES IDX 6 13 7 14 8 15 12 16 10 17 9 18 11 20 20 22 17 24
REMARK H PARENT 9 19 11 21 20 23 17 25
REMARK Flexibility Score: inf
ROOT
ATOM      1  C   UNL     1      10.147 -32.551  14.948  1.00  0.00     0.138 A 
ATOM      2  C   UNL     1       9.292 -32.579  13.839  1.00  0.00     0.100 A 
ATOM      3  C   UNL     1       8.154 -33.388  13.863  1.00  0.00     0.197 A 
ATOM      4  O   UNL     1       7.377 -33.348  12.875  1.00  0.00    -0.289 OA
ATOM      5  C   UNL     1       7.893 -34.199  14.993  1.00  0.00     0.107 A 
ATOM      6  C   UNL     1       6.782 -35.089  15.118  1.00  0.00     0.134 A 
ATOM      7  C   UNL     1       6.575 -35.769  16.324  1.00  0.00     0.093 A 
ATOM      8  C   UNL     1       7.468 -35.635  17.390  1.00  0.00     0.123 A 
ATOM      9  C   UNL     1       8.581 -34.809  17.261  1.00  0.00     0.094 A 
ATOM     10  C   UNL     1       8.798 -34.090  16.083  1.00  0.00     0.146 A 
ATOM     11  O   UNL     1       9.863 -33.299  16.009  1.00  0.00    -0.456 OA
ENDROOT
BRANCH   1  12
ATOM     12  C   UNL     1      11.372 -31.713  14.974  1.00  0.00     0.021 A 
ATOM     13  C   UNL     1      11.551 -30.784  16.014  1.00  0.00     0.016 A 
ATOM     14  C   UNL     1      12.690 -29.977  16.058  1.00  0.00     0.051 A 
ATOM     15  C   UNL     1      13.665 -30.076  15.058  1.00  0.00     0.157 A 
ATOM     16  C   UNL     1      12.351 -31.798  13.963  1.00  0.00     0.062 A 
ATOM     17  C   UNL     1      13.494 -30.986  14.007  1.00  0.00     0.158 A 
BRANCH  15  18
ATOM     18  O   UNL     1      14.804 -29.274  15.099  1.00  0.00    -0.504 OA
ATOM     19  H   UNL     1      15.432 -29.284  15.895  1.00  0.00     0.293 HD
ENDBRANCH  15  18
BRANCH  17  20
ATOM     20  O   UNL     1      14.460 -31.074  13.007  1.00  0.00    -0.504 OA
ATOM     21  H   UNL     1      14.215 -31.303  12.051  1.00  0.00     0.293 HD
ENDBRANCH  17  20
ENDBRANCH   1  12
BRANCH   6  22
ATOM     22  O   UNL     1       5.875 -35.358  14.088  1.00  0.00    -0.507 OA
ATOM     23  H   UNL     1       5.021 -34.850  13.920  1.00  0.00     0.293 HD
ENDBRANCH   6  22
BRANCH   8  24
ATOM     24  O   UNL     1       7.261 -36.327  18.581  1.00  0.00    -0.508 OA
ATOM     25  H   UNL     1       6.727 -37.189  18.608  1.00  0.00     0.293 HD
ENDBRANCH   8  24
TORSDOF 5
ENDMDL
