MODEL 1
REMARK VINA RESULT:    -3.851      0.000      0.000
REMARK INTER + INTRA:          -4.254
REMARK INTER:                  -4.076
REMARK INTRA:                  -0.178
REMARK UNBOUND:                -0.178
REMARK SMILES CC(C)[C@@H]1CC[C@H](C)CC1=O
REMARK SMILES IDX 8 1 7 2 6 3 5 4 4 5 10 6 11 7 9 8 2 9 1 10 3 11
REMARK H PARENT
REMARK Flexibility Score: inf
ROOT
ATOM      1  C   UNL     1       0.393   3.927 -12.337  1.00  0.00     0.008 C 
ATOM      2  C   UNL     1       1.061   5.244 -12.760  1.00  0.00    -0.007 C 
ATOM      3  C   UNL     1       0.363   6.476 -12.143  1.00  0.00     0.004 C 
ATOM      4  C   UNL     1       0.581   6.576 -10.624  1.00  0.00     0.012 C 
ATOM      5  C   UNL     1       2.086   6.600 -10.261  1.00  0.00     0.058 C 
ATOM      6  C   UNL     1       2.803   5.459 -10.961  1.00  0.00     0.136 C 
ATOM      7  O   UNL     1       3.644   4.785 -10.383  1.00  0.00    -0.299 OA
ATOM      8  C   UNL     1       2.565   5.242 -12.431  1.00  0.00     0.079 C 
ENDROOT
BRANCH   5   9
ATOM      9  C   UNL     1       2.350   6.641  -8.722  1.00  0.00    -0.007 C 
ATOM     10  C   UNL     1       1.129   6.240  -7.875  1.00  0.00     0.008 C 
ATOM     11  C   UNL     1       2.878   8.010  -8.270  1.00  0.00     0.008 C 
ENDBRANCH   5   9
TORSDOF 1
ENDMDL
MODEL 2
REMARK VINA RESULT:    -3.751      9.898     10.884
REMARK INTER + INTRA:          -4.148
REMARK INTER:                  -4.002
REMARK INTRA:                  -0.146
REMARK UNBOUND:                -0.178
REMARK SMILES CC(C)[C@@H]1CC[C@H](C)CC1=O
REMARK SMILES IDX 8 1 7 2 6 3 5 4 4 5 10 6 11 7 9 8 2 9 1 10 3 11
REMARK H PARENT
REMARK Flexibility Score: inf
ROOT
ATOM      1  C   UNL     1       7.474   0.660 -19.003  1.00  0.00     0.008 C 
ATOM      2  C   UNL     1       8.401   1.472 -18.086  1.00  0.00    -0.007 C 
ATOM      3  C   UNL     1       7.714   1.860 -16.758  1.00  0.00     0.004 C 
ATOM      4  C   UNL     1       7.478   0.646 -15.843  1.00  0.00     0.012 C 
ATOM      5  C   UNL     1       8.796  -0.108 -15.541  1.00  0.00     0.058 C 
ATOM      6  C   UNL     1       9.538  -0.388 -16.836  1.00  0.00     0.136 C 
ATOM      7  O   UNL     1      10.074  -1.467 -17.042  1.00  0.00    -0.299 OA
ATOM      8  C   UNL     1       9.725   0.732 -17.824  1.00  0.00     0.079 C 
ENDROOT
BRANCH   5   9
ATOM      9  C   UNL     1       8.590  -1.383 -14.662  1.00  0.00    -0.007 C 
ATOM     10  C   UNL     1       7.183  -1.490 -14.048  1.00  0.00     0.008 C 
ATOM     11  C   UNL     1       9.656  -1.494 -13.561  1.00  0.00     0.008 C 
ENDBRANCH   5   9
TORSDOF 1
ENDMDL
MODEL 3
REMARK VINA RESULT:    -3.533      8.372      9.686
REMARK INTER + INTRA:          -3.917
REMARK INTER:                  -3.735
REMARK INTRA:                  -0.183
REMARK UNBOUND:                -0.178
REMARK SMILES CC(C)[C@@H]1CC[C@H](C)CC1=O
REMARK SMILES IDX 8 1 7 2 6 3 5 4 4 5 10 6 11 7 9 8 2 9 1 10 3 11
REMARK H PARENT
REMARK Flexibility Score: inf
ROOT
ATOM      1  C   UNL     1       0.789   8.676 -22.495  1.00  0.00     0.008 C 
ATOM      2  C   UNL     1       2.220   8.803 -21.948  1.00  0.00    -0.007 C 
ATOM      3  C   UNL     1       2.471  10.178 -21.289  1.00  0.00     0.004 C 
ATOM      4  C   UNL     1       1.697  10.347 -19.971  1.00  0.00     0.012 C 
ATOM      5  C   UNL     1       2.029   9.222 -18.962  1.00  0.00     0.058 C 
ATOM      6  C   UNL     1       1.900   7.868 -19.638  1.00  0.00     0.136 C 
ATOM      7  O   UNL     1       1.370   6.923 -19.073  1.00  0.00    -0.299 OA
ATOM      8  C   UNL     1       2.554   7.657 -20.976  1.00  0.00     0.079 C 
ENDROOT
BRANCH   5   9
ATOM      9  C   UNL     1       1.217   9.326 -17.631  1.00  0.00    -0.007 C 
ATOM     10  C   UNL     1      -0.125  10.062 -17.782  1.00  0.00     0.008 C 
ATOM     11  C   UNL     1       2.046   9.964 -16.506  1.00  0.00     0.008 C 
ENDBRANCH   5   9
TORSDOF 1
ENDMDL
MODEL 4
REMARK VINA RESULT:    -3.494      1.712      2.046
REMARK INTER + INTRA:          -3.877
REMARK INTER:                  -3.695
REMARK INTRA:                  -0.181
REMARK UNBOUND:                -0.178
REMARK SMILES CC(C)[C@@H]1CC[C@H](C)CC1=O
REMARK SMILES IDX 8 1 7 2 6 3 5 4 4 5 10 6 11 7 9 8 2 9 1 10 3 11
REMARK H PARENT
REMARK Flexibility Score: inf
ROOT
ATOM      1  C   UNL     1       1.832   4.250 -12.810  1.00  0.00     0.008 C 
ATOM      2  C   UNL     1       0.517   4.998 -12.539  1.00  0.00    -0.007 C 
ATOM      3  C   UNL     1       0.017   4.792 -11.092  1.00  0.00     0.004 C 
ATOM      4  C   UNL     1       0.909   5.497 -10.057  1.00  0.00     0.012 C 
ATOM      5  C   UNL     1       1.037   7.012 -10.348  1.00  0.00     0.058 C 
ATOM      6  C   UNL     1       1.413   7.227 -11.803  1.00  0.00     0.136 C 
ATOM      7  O   UNL     1       2.251   8.056 -12.129  1.00  0.00    -0.299 OA
ATOM      8  C   UNL     1       0.643   6.496 -12.870  1.00  0.00     0.079 C 
ENDROOT
BRANCH   5   9
ATOM      9  C   UNL     1       1.984   7.754  -9.351  1.00  0.00    -0.007 C 
ATOM     10  C   UNL     1       3.006   6.830  -8.665  1.00  0.00     0.008 C 
ATOM     11  C   UNL     1       1.195   8.544  -8.296  1.00  0.00     0.008 C 
ENDBRANCH   5   9
TORSDOF 1
ENDMDL
MODEL 5
REMARK VINA RESULT:    -3.445      1.687      4.010
REMARK INTER + INTRA:          -3.824
REMARK INTER:                  -3.641
REMARK INTRA:                  -0.183
REMARK UNBOUND:                -0.178
REMARK SMILES CC(C)[C@@H]1CC[C@H](C)CC1=O
REMARK SMILES IDX 8 1 7 2 6 3 5 4 4 5 10 6 11 7 9 8 2 9 1 10 3 11
REMARK H PARENT
REMARK Flexibility Score: inf
ROOT
ATOM      1  C   UNL     1       1.889   8.066  -8.379  1.00  0.00     0.008 C 
ATOM      2  C   UNL     1       0.716   8.017  -9.370  1.00  0.00    -0.007 C 
ATOM      3  C   UNL     1       1.184   8.161 -10.835  1.00  0.00     0.004 C 
ATOM      4  C   UNL     1       1.962   6.929 -11.326  1.00  0.00     0.012 C 
ATOM      5  C   UNL     1       1.135   5.629 -11.174  1.00  0.00     0.058 C 
ATOM      6  C   UNL     1       0.570   5.540  -9.768  1.00  0.00     0.136 C 
ATOM      7  O   UNL     1       0.574   4.487  -9.146  1.00  0.00    -0.299 OA
ATOM      8  C   UNL     1      -0.125   6.740  -9.184  1.00  0.00     0.079 C 
ENDROOT
BRANCH   5   9
ATOM      9  C   UNL     1       1.914   4.346 -11.608  1.00  0.00    -0.007 C 
ATOM     10  C   UNL     1       3.418   4.400 -11.289  1.00  0.00     0.008 C 
ATOM     11  C   UNL     1       1.701   4.025 -13.095  1.00  0.00     0.008 C 
ENDBRANCH   5   9
TORSDOF 1
ENDMDL
MODEL 6
REMARK VINA RESULT:    -3.013      7.750      9.759
REMARK INTER + INTRA:          -3.367
REMARK INTER:                  -3.188
REMARK INTRA:                  -0.179
REMARK UNBOUND:                -0.178
REMARK SMILES CC(C)[C@@H]1CC[C@H](C)CC1=O
REMARK SMILES IDX 8 1 7 2 6 3 5 4 4 5 10 6 11 7 9 8 2 9 1 10 3 11
REMARK H PARENT
REMARK Flexibility Score: inf
ROOT
ATOM      1  C   UNL     1       2.015   9.778 -16.122  1.00  0.00     0.008 C 
ATOM      2  C   UNL     1       0.557   9.691 -16.599  1.00  0.00    -0.007 C 
ATOM      3  C   UNL     1       0.216  10.788 -17.632  1.00  0.00     0.004 C 
ATOM      4  C   UNL     1       0.922  10.564 -18.981  1.00  0.00     0.012 C 
ATOM      5  C   UNL     1       0.593   9.174 -19.576  1.00  0.00     0.058 C 
ATOM      6  C   UNL     1       0.812   8.099 -18.527  1.00  0.00     0.136 C 
ATOM      7  O   UNL     1       1.356   7.040 -18.804  1.00  0.00    -0.299 OA
ATOM      8  C   UNL     1       0.229   8.292 -17.153  1.00  0.00     0.079 C 
ENDROOT
BRANCH   5   9
ATOM      9  C   UNL     1       1.339   8.885 -20.919  1.00  0.00    -0.007 C 
ATOM     10  C   UNL     1       2.550   9.803 -21.163  1.00  0.00     0.008 C 
ATOM     11  C   UNL     1       0.386   8.937 -22.123  1.00  0.00     0.008 C 
ENDBRANCH   5   9
TORSDOF 1
ENDMDL
MODEL 7
REMARK VINA RESULT:    -2.963      2.087      4.340
REMARK INTER + INTRA:          -3.315
REMARK INTER:                  -3.154
REMARK INTRA:                  -0.161
REMARK UNBOUND:                -0.178
REMARK SMILES CC(C)[C@@H]1CC[C@H](C)CC1=O
REMARK SMILES IDX 8 1 7 2 6 3 5 4 4 5 10 6 11 7 9 8 2 9 1 10 3 11
REMARK H PARENT
REMARK Flexibility Score: inf
ROOT
ATOM      1  C   UNL     1       0.945   5.890  -8.063  1.00  0.00     0.008 C 
ATOM      2  C   UNL     1       2.085   6.816  -8.514  1.00  0.00    -0.007 C 
ATOM      3  C   UNL     1       2.967   6.166  -9.604  1.00  0.00     0.004 C 
ATOM      4  C   UNL     1       2.230   6.024 -10.947  1.00  0.00     0.012 C 
ATOM      5  C   UNL     1       1.699   7.385 -11.456  1.00  0.00     0.058 C 
ATOM      6  C   UNL     1       0.930   8.086 -10.349  1.00  0.00     0.136 C 
ATOM      7  O   UNL     1      -0.125   8.661 -10.572  1.00  0.00    -0.299 OA
ATOM      8  C   UNL     1       1.549   8.181  -8.981  1.00  0.00     0.079 C 
ENDROOT
BRANCH   5   9
ATOM      9  C   UNL     1       0.892   7.274 -12.790  1.00  0.00    -0.007 C 
ATOM     10  C   UNL     1       0.872   5.854 -13.383  1.00  0.00     0.008 C 
ATOM     11  C   UNL     1       1.388   8.278 -13.841  1.00  0.00     0.008 C 
ENDBRANCH   5   9
TORSDOF 1
ENDMDL
MODEL 8
REMARK VINA RESULT:    -2.823      1.336      4.061
REMARK INTER + INTRA:          -3.166
REMARK INTER:                  -3.037
REMARK INTRA:                  -0.129
REMARK UNBOUND:                -0.178
REMARK SMILES CC(C)[C@@H]1CC[C@H](C)CC1=O
REMARK SMILES IDX 8 1 7 2 6 3 5 4 4 5 10 6 11 7 9 8 2 9 1 10 3 11
REMARK H PARENT
REMARK Flexibility Score: inf
ROOT
ATOM      1  C   UNL     1       1.273   8.191  -9.314  1.00  0.00     0.008 C 
ATOM      2  C   UNL     1       1.686   6.782  -8.860  1.00  0.00    -0.007 C 
ATOM      3  C   UNL     1       0.492   5.802  -8.843  1.00  0.00     0.004 C 
ATOM      4  C   UNL     1      -0.007   5.460 -10.257  1.00  0.00     0.012 C 
ATOM      5  C   UNL     1       1.124   4.880 -11.140  1.00  0.00     0.058 C 
ATOM      6  C   UNL     1       2.347   5.778 -11.067  1.00  0.00     0.136 C 
ATOM      7  O   UNL     1       2.997   6.050 -12.066  1.00  0.00    -0.299 OA
ATOM      8  C   UNL     1       2.839   6.230  -9.718  1.00  0.00     0.079 C 
ENDROOT
BRANCH   5   9
ATOM      9  C   UNL     1       0.671   4.574 -12.604  1.00  0.00    -0.007 C 
ATOM     10  C   UNL     1      -0.124   5.720 -13.256  1.00  0.00     0.008 C 
ATOM     11  C   UNL     1      -0.124   3.263 -12.692  1.00  0.00     0.008 C 
ENDBRANCH   5   9
TORSDOF 1
ENDMDL
MODEL 9
REMARK VINA RESULT:    -2.766     20.512     21.867
REMARK INTER + INTRA:          -3.106
REMARK INTER:                  -2.935
REMARK INTRA:                  -0.171
REMARK UNBOUND:                -0.178
REMARK SMILES CC(C)[C@@H]1CC[C@H](C)CC1=O
REMARK SMILES IDX 8 1 7 2 6 3 5 4 4 5 10 6 11 7 9 8 2 9 1 10 3 11
REMARK H PARENT
REMARK Flexibility Score: inf
ROOT
ATOM      1  C   UNL     1      18.644   0.248 -21.051  1.00  0.00     0.008 C 
ATOM      2  C   UNL     1      19.967  -0.507 -20.850  1.00  0.00    -0.007 C 
ATOM      3  C   UNL     1      20.123  -1.034 -19.406  1.00  0.00     0.004 C 
ATOM      4  C   UNL     1      19.146  -2.179 -19.089  1.00  0.00     0.012 C 
ATOM      5  C   UNL     1      19.295  -3.353 -20.086  1.00  0.00     0.058 C 
ATOM      6  C   UNL     1      19.263  -2.827 -21.511  1.00  0.00     0.136 C 
ATOM      7  O   UNL     1      18.637  -3.404 -22.388  1.00  0.00    -0.299 OA
ATOM      8  C   UNL     1      20.125  -1.648 -21.872  1.00  0.00     0.079 C 
ENDROOT
BRANCH   5   9
ATOM      9  C   UNL     1      18.278  -4.512 -19.835  1.00  0.00    -0.007 C 
ATOM     10  C   UNL     1      17.229  -4.189 -18.756  1.00  0.00     0.008 C 
ATOM     11  C   UNL     1      18.988  -5.832 -19.501  1.00  0.00     0.008 C 
ENDBRANCH   5   9
TORSDOF 1
ENDMDL
