MODEL 1
REMARK VINA RESULT:    -6.176      0.000      0.000
REMARK INTER + INTRA:          -7.525
REMARK INTER:                  -7.259
REMARK INTRA:                  -0.266
REMARK UNBOUND:                -0.266
REMARK SMILES O=c1cc(-c2ccc(O)c(O)c2)oc2cc(O)cc(O)c12
REMARK SMILES IDX 4 1 3 2 2 3 1 4 21 5 19 6 18 7 16 8 15 9 14 10 13 11 5 12
REMARK SMILES IDX 6 13 7 14 8 15 12 16 10 17 9 18 11 20 20 22 17 24
REMARK H PARENT 9 19 11 21 20 23 17 25
REMARK Flexibility Score: inf
ROOT
ATOM      1  C   UNL     1      28.820  58.140   6.991  1.00  0.00     0.138 A 
ATOM      2  C   UNL     1      30.147  57.730   7.186  1.00  0.00     0.100 A 
ATOM      3  C   UNL     1      31.050  57.786   6.124  1.00  0.00     0.197 A 
ATOM      4  O   UNL     1      32.248  57.472   6.345  1.00  0.00    -0.289 OA
ATOM      5  C   UNL     1      30.612  58.225   4.852  1.00  0.00     0.107 A 
ATOM      6  C   UNL     1      31.434  58.285   3.686  1.00  0.00     0.134 A 
ATOM      7  C   UNL     1      30.922  58.846   2.509  1.00  0.00     0.093 A 
ATOM      8  C   UNL     1      29.601  59.295   2.439  1.00  0.00     0.123 A 
ATOM      9  C   UNL     1      28.775  59.190   3.556  1.00  0.00     0.094 A 
ATOM     10  C   UNL     1      29.266  58.667   4.754  1.00  0.00     0.146 A 
ATOM     11  O   UNL     1      28.449  58.599   5.800  1.00  0.00    -0.456 OA
ENDROOT
BRANCH   1  12
ATOM     12  C   UNL     1      27.817  58.100   8.086  1.00  0.00     0.021 A 
ATOM     13  C   UNL     1      26.803  57.124   8.122  1.00  0.00     0.016 A 
ATOM     14  C   UNL     1      25.865  57.117   9.159  1.00  0.00     0.051 A 
ATOM     15  C   UNL     1      25.921  58.083  10.171  1.00  0.00     0.157 A 
ATOM     16  C   UNL     1      27.858  59.075   9.098  1.00  0.00     0.062 A 
ATOM     17  C   UNL     1      26.921  59.068  10.137  1.00  0.00     0.158 A 
BRANCH  15  18
ATOM     18  O   UNL     1      24.985  58.072  11.205  1.00  0.00    -0.504 OA
ATOM     19  H   UNL     1      24.178  57.459  11.182  1.00  0.00     0.293 HD
ENDBRANCH  15  18
BRANCH  17  20
ATOM     20  O   UNL     1      27.002  60.048  11.127  1.00  0.00    -0.504 OA
ATOM     21  H   UNL     1      26.700  59.877  12.079  1.00  0.00     0.293 HD
ENDBRANCH  17  20
ENDBRANCH   1  12
BRANCH   6  22
ATOM     22  O   UNL     1      32.739  57.788   3.624  1.00  0.00    -0.507 OA
ATOM     23  H   UNL     1      33.566  58.352   3.493  1.00  0.00     0.293 HD
ENDBRANCH   6  22
BRANCH   8  24
ATOM     24  O   UNL     1      29.097  59.838   1.259  1.00  0.00    -0.508 OA
ATOM     25  H   UNL     1      28.146  59.662   0.959  1.00  0.00     0.293 HD
ENDBRANCH   8  24
TORSDOF 5
ENDMDL
MODEL 2
REMARK VINA RESULT:    -6.154      3.813      6.877
REMARK INTER + INTRA:          -7.500
REMARK INTER:                  -7.234
REMARK INTRA:                  -0.265
REMARK UNBOUND:                -0.266
REMARK SMILES O=c1cc(-c2ccc(O)c(O)c2)oc2cc(O)cc(O)c12
REMARK SMILES IDX 4 1 3 2 2 3 1 4 21 5 19 6 18 7 16 8 15 9 14 10 13 11 5 12
REMARK SMILES IDX 6 13 7 14 8 15 12 16 10 17 9 18 11 20 20 22 17 24
REMARK H PARENT 9 19 11 21 20 23 17 25
REMARK Flexibility Score: inf
ROOT
ATOM      1  C   UNL     1      29.563  59.277   1.500  1.00  0.00     0.138 A 
ATOM      2  C   UNL     1      28.607  60.300   1.576  1.00  0.00     0.100 A 
ATOM      3  C   UNL     1      27.970  60.737   0.415  1.00  0.00     0.197 A 
ATOM      4  O   UNL     1      27.073  61.613   0.523  1.00  0.00    -0.289 OA
ATOM      5  C   UNL     1      28.315  60.167  -0.834  1.00  0.00     0.107 A 
ATOM      6  C   UNL     1      27.760  60.562  -2.089  1.00  0.00     0.134 A 
ATOM      7  C   UNL     1      28.093  59.846  -3.245  1.00  0.00     0.093 A 
ATOM      8  C   UNL     1      29.006  58.789  -3.202  1.00  0.00     0.123 A 
ATOM      9  C   UNL     1      29.594  58.432  -1.991  1.00  0.00     0.094 A 
ATOM     10  C   UNL     1      29.257  59.104  -0.814  1.00  0.00     0.146 A 
ATOM     11  O   UNL     1      29.829  58.722   0.323  1.00  0.00    -0.456 OA
ENDROOT
BRANCH   1  12
ATOM     12  C   UNL     1      30.273  58.775   2.704  1.00  0.00     0.021 A 
ATOM     13  C   UNL     1      31.677  58.815   2.805  1.00  0.00     0.016 A 
ATOM     14  C   UNL     1      32.319  58.326   3.946  1.00  0.00     0.051 A 
ATOM     15  C   UNL     1      31.574  57.784   5.000  1.00  0.00     0.157 A 
ATOM     16  C   UNL     1      29.533  58.217   3.762  1.00  0.00     0.062 A 
ATOM     17  C   UNL     1      30.174  57.728   4.905  1.00  0.00     0.158 A 
BRANCH  15  18
ATOM     18  O   UNL     1      32.218  57.298   6.137  1.00  0.00    -0.504 OA
ATOM     19  H   UNL     1      32.168  57.787   7.024  1.00  0.00     0.293 HD
ENDBRANCH  15  18
BRANCH  17  20
ATOM     20  O   UNL     1      29.403  57.190   5.935  1.00  0.00    -0.504 OA
ATOM     21  H   UNL     1      28.590  56.614   5.754  1.00  0.00     0.293 HD
ENDBRANCH  17  20
ENDBRANCH   1  12
BRANCH   6  22
ATOM     22  O   UNL     1      26.906  61.655  -2.256  1.00  0.00    -0.507 OA
ATOM     23  H   UNL     1      27.084  62.585  -1.908  1.00  0.00     0.293 HD
ENDBRANCH   6  22
BRANCH   8  24
ATOM     24  O   UNL     1      29.342  58.093  -4.362  1.00  0.00    -0.508 OA
ATOM     25  H   UNL     1      29.616  58.576  -5.209  1.00  0.00     0.293 HD
ENDBRANCH   8  24
TORSDOF 5
ENDMDL
MODEL 3
REMARK VINA RESULT:    -6.022      3.718      8.372
REMARK INTER + INTRA:          -7.345
REMARK INTER:                  -7.054
REMARK INTRA:                  -0.291
REMARK UNBOUND:                -0.266
REMARK SMILES O=c1cc(-c2ccc(O)c(O)c2)oc2cc(O)cc(O)c12
REMARK SMILES IDX 4 1 3 2 2 3 1 4 21 5 19 6 18 7 16 8 15 9 14 10 13 11 5 12
REMARK SMILES IDX 6 13 7 14 8 15 12 16 10 17 9 18 11 20 20 22 17 24
REMARK H PARENT 9 19 11 21 20 23 17 25
REMARK Flexibility Score: inf
ROOT
ATOM      1  C   UNL     1      29.341  59.779   1.270  1.00  0.00     0.138 A 
ATOM      2  C   UNL     1      28.845  60.927   1.905  1.00  0.00     0.100 A 
ATOM      3  C   UNL     1      29.062  61.109   3.271  1.00  0.00     0.197 A 
ATOM      4  O   UNL     1      28.660  62.178   3.799  1.00  0.00    -0.289 OA
ATOM      5  C   UNL     1      29.753  60.121   4.010  1.00  0.00     0.107 A 
ATOM      6  C   UNL     1      29.998  60.180   5.416  1.00  0.00     0.134 A 
ATOM      7  C   UNL     1      30.794  59.199   6.019  1.00  0.00     0.093 A 
ATOM      8  C   UNL     1      31.305  58.128   5.280  1.00  0.00     0.123 A 
ATOM      9  C   UNL     1      31.026  58.033   3.919  1.00  0.00     0.094 A 
ATOM     10  C   UNL     1      30.263  59.014   3.281  1.00  0.00     0.146 A 
ATOM     11  O   UNL     1      30.034  58.893   1.977  1.00  0.00    -0.456 OA
ENDROOT
BRANCH   1  12
ATOM     12  C   UNL     1      29.137  59.534  -0.180  1.00  0.00     0.021 A 
ATOM     13  C   UNL     1      29.966  58.656  -0.905  1.00  0.00     0.016 A 
ATOM     14  C   UNL     1      29.758  58.453  -2.272  1.00  0.00     0.051 A 
ATOM     15  C   UNL     1      28.726  59.124  -2.939  1.00  0.00     0.157 A 
ATOM     16  C   UNL     1      28.112  60.215  -0.860  1.00  0.00     0.062 A 
ATOM     17  C   UNL     1      27.901  60.011  -2.229  1.00  0.00     0.158 A 
BRANCH  15  18
ATOM     18  O   UNL     1      28.520  58.917  -4.302  1.00  0.00    -0.504 OA
ATOM     19  H   UNL     1      27.590  58.918  -4.704  1.00  0.00     0.293 HD
ENDBRANCH  15  18
BRANCH  17  20
ATOM     20  O   UNL     1      26.867  60.699  -2.864  1.00  0.00    -0.504 OA
ATOM     21  H   UNL     1      26.987  61.130  -3.772  1.00  0.00     0.293 HD
ENDBRANCH  17  20
ENDBRANCH   1  12
BRANCH   6  22
ATOM     22  O   UNL     1      29.466  61.158   6.261  1.00  0.00    -0.507 OA
ATOM     23  H   UNL     1      29.149  60.995   7.204  1.00  0.00     0.293 HD
ENDBRANCH   6  22
BRANCH   8  24
ATOM     24  O   UNL     1      32.083  57.149   5.893  1.00  0.00    -0.508 OA
ATOM     25  H   UNL     1      32.173  56.220   5.500  1.00  0.00     0.293 HD
ENDBRANCH   8  24
TORSDOF 5
ENDMDL
MODEL 4
REMARK VINA RESULT:    -5.978      2.614      7.858
REMARK INTER + INTRA:          -7.293
REMARK INTER:                  -7.019
REMARK INTRA:                  -0.273
REMARK UNBOUND:                -0.266
REMARK SMILES O=c1cc(-c2ccc(O)c(O)c2)oc2cc(O)cc(O)c12
REMARK SMILES IDX 4 1 3 2 2 3 1 4 21 5 19 6 18 7 16 8 15 9 14 10 13 11 5 12
REMARK SMILES IDX 6 13 7 14 8 15 12 16 10 17 9 18 11 20 20 22 17 24
REMARK H PARENT 9 19 11 21 20 23 17 25
REMARK Flexibility Score: inf
ROOT
ATOM      1  C   UNL     1      29.738  58.924   1.793  1.00  0.00     0.138 A 
ATOM      2  C   UNL     1      31.099  58.875   2.126  1.00  0.00     0.100 A 
ATOM      3  C   UNL     1      31.479  58.618   3.443  1.00  0.00     0.197 A 
ATOM      4  O   UNL     1      32.707  58.518   3.698  1.00  0.00    -0.289 OA
ATOM      5  C   UNL     1      30.489  58.440   4.439  1.00  0.00     0.107 A 
ATOM      6  C   UNL     1      30.759  58.213   5.822  1.00  0.00     0.134 A 
ATOM      7  C   UNL     1      29.700  57.936   6.695  1.00  0.00     0.093 A 
ATOM      8  C   UNL     1      28.377  57.936   6.247  1.00  0.00     0.123 A 
ATOM      9  C   UNL     1      28.100  58.210   4.909  1.00  0.00     0.094 A 
ATOM     10  C   UNL     1      29.136  58.457   4.007  1.00  0.00     0.146 A 
ATOM     11  O   UNL     1      28.830  58.699   2.737  1.00  0.00    -0.456 OA
ENDROOT
BRANCH   1  12
ATOM     12  C   UNL     1      29.277  59.195   0.408  1.00  0.00     0.021 A 
ATOM     13  C   UNL     1      28.254  60.123   0.138  1.00  0.00     0.016 A 
ATOM     14  C   UNL     1      27.833  60.351  -1.176  1.00  0.00     0.051 A 
ATOM     15  C   UNL     1      28.420  59.653  -2.238  1.00  0.00     0.157 A 
ATOM     16  C   UNL     1      29.852  58.488  -0.664  1.00  0.00     0.062 A 
ATOM     17  C   UNL     1      29.433  58.715  -1.979  1.00  0.00     0.158 A 
BRANCH  15  18
ATOM     18  O   UNL     1      27.999  59.884  -3.547  1.00  0.00    -0.504 OA
ATOM     19  H   UNL     1      27.299  60.584  -3.763  1.00  0.00     0.293 HD
ENDBRANCH  15  18
BRANCH  17  20
ATOM     20  O   UNL     1      30.035  58.000  -3.014  1.00  0.00    -0.504 OA
ATOM     21  H   UNL     1      31.037  58.014  -3.165  1.00  0.00     0.293 HD
ENDBRANCH  17  20
ENDBRANCH   1  12
BRANCH   6  22
ATOM     22  O   UNL     1      32.036  58.274   6.389  1.00  0.00    -0.507 OA
ATOM     23  H   UNL     1      32.893  58.385   5.869  1.00  0.00     0.293 HD
ENDBRANCH   6  22
BRANCH   8  24
ATOM     24  O   UNL     1      27.329  57.674   7.127  1.00  0.00    -0.508 OA
ATOM     25  H   UNL     1      27.492  57.519   8.115  1.00  0.00     0.293 HD
ENDBRANCH   8  24
TORSDOF 5
ENDMDL
MODEL 5
REMARK VINA RESULT:    -5.940      4.322      7.260
REMARK INTER + INTRA:          -7.248
REMARK INTER:                  -6.977
REMARK INTRA:                  -0.271
REMARK UNBOUND:                -0.266
REMARK SMILES O=c1cc(-c2ccc(O)c(O)c2)oc2cc(O)cc(O)c12
REMARK SMILES IDX 4 1 3 2 2 3 1 4 21 5 19 6 18 7 16 8 15 9 14 10 13 11 5 12
REMARK SMILES IDX 6 13 7 14 8 15 12 16 10 17 9 18 11 20 20 22 17 24
REMARK H PARENT 9 19 11 21 20 23 17 25
REMARK Flexibility Score: inf
ROOT
ATOM      1  C   UNL     1      31.179  59.504   3.378  1.00  0.00     0.138 A 
ATOM      2  C   UNL     1      31.698  60.746   3.770  1.00  0.00     0.100 A 
ATOM      3  C   UNL     1      32.297  60.880   5.023  1.00  0.00     0.197 A 
ATOM      4  O   UNL     1      32.808  61.990   5.321  1.00  0.00    -0.289 OA
ATOM      5  C   UNL     1      32.348  59.771   5.900  1.00  0.00     0.107 A 
ATOM      6  C   UNL     1      32.897  59.801   7.217  1.00  0.00     0.134 A 
ATOM      7  C   UNL     1      32.997  58.612   7.950  1.00  0.00     0.093 A 
ATOM      8  C   UNL     1      32.514  57.405   7.437  1.00  0.00     0.123 A 
ATOM      9  C   UNL     1      31.927  57.377   6.174  1.00  0.00     0.094 A 
ATOM     10  C   UNL     1      31.843  58.539   5.405  1.00  0.00     0.146 A 
ATOM     11  O   UNL     1      31.289  58.465   4.199  1.00  0.00    -0.456 OA
ENDROOT
BRANCH   1  12
ATOM     12  C   UNL     1      30.531  59.306   2.057  1.00  0.00     0.021 A 
ATOM     13  C   UNL     1      31.285  59.200   0.872  1.00  0.00     0.016 A 
ATOM     14  C   UNL     1      30.647  59.025  -0.359  1.00  0.00     0.051 A 
ATOM     15  C   UNL     1      29.251  58.957  -0.430  1.00  0.00     0.157 A 
ATOM     16  C   UNL     1      29.128  59.251   1.975  1.00  0.00     0.062 A 
ATOM     17  C   UNL     1      28.488  59.074   0.743  1.00  0.00     0.158 A 
BRANCH  15  18
ATOM     18  O   UNL     1      28.618  58.780  -1.660  1.00  0.00    -0.504 OA
ATOM     19  H   UNL     1      28.906  59.297  -2.483  1.00  0.00     0.293 HD
ENDBRANCH  15  18
BRANCH  17  20
ATOM     20  O   UNL     1      27.095  59.016   0.707  1.00  0.00    -0.504 OA
ATOM     21  H   UNL     1      26.561  59.406  -0.060  1.00  0.00     0.293 HD
ENDBRANCH  17  20
ENDBRANCH   1  12
BRANCH   6  22
ATOM     22  O   UNL     1      33.331  60.966   7.856  1.00  0.00    -0.507 OA
ATOM     23  H   UNL     1      33.538  61.041   8.841  1.00  0.00     0.293 HD
ENDBRANCH   6  22
BRANCH   8  24
ATOM     24  O   UNL     1      32.605  56.230   8.180  1.00  0.00    -0.508 OA
ATOM     25  H   UNL     1      33.257  55.496   7.933  1.00  0.00     0.293 HD
ENDBRANCH   8  24
TORSDOF 5
ENDMDL
MODEL 6
REMARK VINA RESULT:    -5.866     12.334     13.346
REMARK INTER + INTRA:          -7.160
REMARK INTER:                  -6.854
REMARK INTRA:                  -0.306
REMARK UNBOUND:                -0.266
REMARK SMILES O=c1cc(-c2ccc(O)c(O)c2)oc2cc(O)cc(O)c12
REMARK SMILES IDX 4 1 3 2 2 3 1 4 21 5 19 6 18 7 16 8 15 9 14 10 13 11 5 12
REMARK SMILES IDX 6 13 7 14 8 15 12 16 10 17 9 18 11 20 20 22 17 24
REMARK H PARENT 9 19 11 21 20 23 17 25
REMARK Flexibility Score: inf
ROOT
ATOM      1  C   UNL     1      34.393  69.313   9.329  1.00  0.00     0.138 A 
ATOM      2  C   UNL     1      33.527  68.596  10.168  1.00  0.00     0.100 A 
ATOM      3  C   UNL     1      32.466  67.879   9.615  1.00  0.00     0.197 A 
ATOM      4  O   UNL     1      31.744  67.196  10.386  1.00  0.00    -0.289 OA
ATOM      5  C   UNL     1      32.254  67.905   8.216  1.00  0.00     0.107 A 
ATOM      6  C   UNL     1      31.181  67.245   7.544  1.00  0.00     0.134 A 
ATOM      7  C   UNL     1      31.139  67.246   6.145  1.00  0.00     0.093 A 
ATOM      8  C   UNL     1      32.097  67.933   5.394  1.00  0.00     0.123 A 
ATOM      9  C   UNL     1      33.116  68.625   6.043  1.00  0.00     0.094 A 
ATOM     10  C   UNL     1      33.205  68.615   7.437  1.00  0.00     0.146 A 
ATOM     11  O   UNL     1      34.203  69.276   8.015  1.00  0.00    -0.456 OA
ENDROOT
BRANCH   1  12
ATOM     12  C   UNL     1      35.536  70.094   9.865  1.00  0.00     0.021 A 
ATOM     13  C   UNL     1      36.178  69.735  11.065  1.00  0.00     0.016 A 
ATOM     14  C   UNL     1      37.246  70.495  11.552  1.00  0.00     0.051 A 
ATOM     15  C   UNL     1      37.686  71.627  10.854  1.00  0.00     0.157 A 
ATOM     16  C   UNL     1      35.975  71.239   9.177  1.00  0.00     0.062 A 
ATOM     17  C   UNL     1      37.044  72.001   9.662  1.00  0.00     0.158 A 
BRANCH  15  18
ATOM     18  O   UNL     1      38.752  72.381  11.341  1.00  0.00    -0.504 OA
ATOM     19  H   UNL     1      38.823  73.376  11.162  1.00  0.00     0.293 HD
ENDBRANCH  15  18
BRANCH  17  20
ATOM     20  O   UNL     1      37.454  73.125   8.945  1.00  0.00    -0.504 OA
ATOM     21  H   UNL     1      38.080  73.057   8.151  1.00  0.00     0.293 HD
ENDBRANCH  17  20
ENDBRANCH   1  12
BRANCH   6  22
ATOM     22  O   UNL     1      30.127  66.601   8.200  1.00  0.00    -0.507 OA
ATOM     23  H   UNL     1      29.895  65.625   8.099  1.00  0.00     0.293 HD
ENDBRANCH   6  22
BRANCH   8  24
ATOM     24  O   UNL     1      32.037  67.940   4.002  1.00  0.00    -0.508 OA
ATOM     25  H   UNL     1      31.431  67.307   3.494  1.00  0.00     0.293 HD
ENDBRANCH   8  24
TORSDOF 5
ENDMDL
MODEL 7
REMARK VINA RESULT:    -5.825      2.699      7.264
REMARK INTER + INTRA:          -7.112
REMARK INTER:                  -6.797
REMARK INTRA:                  -0.315
REMARK UNBOUND:                -0.266
REMARK SMILES O=c1cc(-c2ccc(O)c(O)c2)oc2cc(O)cc(O)c12
REMARK SMILES IDX 4 1 3 2 2 3 1 4 21 5 19 6 18 7 16 8 15 9 14 10 13 11 5 12
REMARK SMILES IDX 6 13 7 14 8 15 12 16 10 17 9 18 11 20 20 22 17 24
REMARK H PARENT 9 19 11 21 20 23 17 25
REMARK Flexibility Score: inf
ROOT
ATOM      1  C   UNL     1      29.889  58.544   4.067  1.00  0.00     0.138 A 
ATOM      2  C   UNL     1      28.690  58.292   4.748  1.00  0.00     0.100 A 
ATOM      3  C   UNL     1      28.725  57.893   6.084  1.00  0.00     0.197 A 
ATOM      4  O   UNL     1      27.631  57.735   6.686  1.00  0.00    -0.289 OA
ATOM      5  C   UNL     1      29.970  57.715   6.732  1.00  0.00     0.107 A 
ATOM      6  C   UNL     1      30.130  57.272   8.080  1.00  0.00     0.134 A 
ATOM      7  C   UNL     1      31.408  57.244   8.650  1.00  0.00     0.093 A 
ATOM      8  C   UNL     1      32.539  57.586   7.904  1.00  0.00     0.123 A 
ATOM      9  C   UNL     1      32.398  57.968   6.572  1.00  0.00     0.094 A 
ATOM     10  C   UNL     1      31.134  58.038   5.984  1.00  0.00     0.146 A 
ATOM     11  O   UNL     1      31.043  58.422   4.715  1.00  0.00    -0.456 OA
ENDROOT
BRANCH   1  12
ATOM     12  C   UNL     1      29.910  58.970   2.644  1.00  0.00     0.021 A 
ATOM     13  C   UNL     1      28.778  58.839   1.818  1.00  0.00     0.016 A 
ATOM     14  C   UNL     1      28.829  59.238   0.479  1.00  0.00     0.051 A 
ATOM     15  C   UNL     1      30.008  59.768  -0.058  1.00  0.00     0.157 A 
ATOM     16  C   UNL     1      31.095  59.490   2.094  1.00  0.00     0.062 A 
ATOM     17  C   UNL     1      31.148  59.891   0.755  1.00  0.00     0.158 A 
BRANCH  15  18
ATOM     18  O   UNL     1      30.055  60.167  -1.393  1.00  0.00    -0.504 OA
ATOM     19  H   UNL     1      29.343  59.883  -2.056  1.00  0.00     0.293 HD
ENDBRANCH  15  18
BRANCH  17  20
ATOM     20  O   UNL     1      32.339  60.411   0.250  1.00  0.00    -0.504 OA
ATOM     21  H   UNL     1      32.362  61.005  -0.570  1.00  0.00     0.293 HD
ENDBRANCH  17  20
ENDBRANCH   1  12
BRANCH   6  22
ATOM     22  O   UNL     1      29.077  56.827   8.885  1.00  0.00    -0.507 OA
ATOM     23  H   UNL     1      28.789  55.865   8.979  1.00  0.00     0.293 HD
ENDBRANCH   6  22
BRANCH   8  24
ATOM     24  O   UNL     1      33.808  57.540   8.477  1.00  0.00    -0.508 OA
ATOM     25  H   UNL     1      34.605  57.985   8.037  1.00  0.00     0.293 HD
ENDBRANCH   8  24
TORSDOF 5
ENDMDL
MODEL 8
REMARK VINA RESULT:    -5.664      5.198      6.419
REMARK INTER + INTRA:          -6.924
REMARK INTER:                  -6.605
REMARK INTRA:                  -0.318
REMARK UNBOUND:                -0.266
REMARK SMILES O=c1cc(-c2ccc(O)c(O)c2)oc2cc(O)cc(O)c12
REMARK SMILES IDX 4 1 3 2 2 3 1 4 21 5 19 6 18 7 16 8 15 9 14 10 13 11 5 12
REMARK SMILES IDX 6 13 7 14 8 15 12 16 10 17 9 18 11 20 20 22 17 24
REMARK H PARENT 9 19 11 21 20 23 17 25
REMARK Flexibility Score: inf
ROOT
ATOM      1  C   UNL     1      31.690  62.497   6.185  1.00  0.00     0.138 A 
ATOM      2  C   UNL     1      32.073  61.569   7.164  1.00  0.00     0.100 A 
ATOM      3  C   UNL     1      32.252  60.230   6.813  1.00  0.00     0.197 A 
ATOM      4  O   UNL     1      32.656  59.433   7.699  1.00  0.00    -0.289 OA
ATOM      5  C   UNL     1      32.014  59.814   5.482  1.00  0.00     0.107 A 
ATOM      6  C   UNL     1      32.124  58.469   5.019  1.00  0.00     0.134 A 
ATOM      7  C   UNL     1      31.978  58.195   3.653  1.00  0.00     0.093 A 
ATOM      8  C   UNL     1      31.667  59.209   2.743  1.00  0.00     0.123 A 
ATOM      9  C   UNL     1      31.504  60.516   3.194  1.00  0.00     0.094 A 
ATOM     10  C   UNL     1      31.677  60.827   4.545  1.00  0.00     0.146 A 
ATOM     11  O   UNL     1      31.527  62.090   4.931  1.00  0.00    -0.456 OA
ENDROOT
BRANCH   1  12
ATOM     12  C   UNL     1      31.485  63.933   6.503  1.00  0.00     0.021 A 
ATOM     13  C   UNL     1      31.634  64.428   7.813  1.00  0.00     0.016 A 
ATOM     14  C   UNL     1      31.424  65.783   8.085  1.00  0.00     0.051 A 
ATOM     15  C   UNL     1      31.059  66.664   7.060  1.00  0.00     0.157 A 
ATOM     16  C   UNL     1      31.105  64.821   5.482  1.00  0.00     0.062 A 
ATOM     17  C   UNL     1      30.896  66.178   5.752  1.00  0.00     0.158 A 
BRANCH  15  18
ATOM     18  O   UNL     1      30.852  68.015   7.335  1.00  0.00    -0.504 OA
ATOM     19  H   UNL     1      30.410  68.319   8.195  1.00  0.00     0.293 HD
ENDBRANCH  15  18
BRANCH  17  20
ATOM     20  O   UNL     1      30.528  67.027   4.709  1.00  0.00    -0.504 OA
ATOM     21  H   UNL     1      31.210  67.427   4.075  1.00  0.00     0.293 HD
ENDBRANCH  17  20
ENDBRANCH   1  12
BRANCH   6  22
ATOM     22  O   UNL     1      32.349  57.371   5.855  1.00  0.00    -0.507 OA
ATOM     23  H   UNL     1      33.257  56.997   6.085  1.00  0.00     0.293 HD
ENDBRANCH   6  22
BRANCH   8  24
ATOM     24  O   UNL     1      31.509  58.923   1.389  1.00  0.00    -0.508 OA
ATOM     25  H   UNL     1      31.871  58.070   0.981  1.00  0.00     0.293 HD
ENDBRANCH   8  24
TORSDOF 5
ENDMDL
MODEL 9
REMARK VINA RESULT:    -5.659      1.731      7.324
REMARK INTER + INTRA:          -6.917
REMARK INTER:                  -6.605
REMARK INTRA:                  -0.312
REMARK UNBOUND:                -0.266
REMARK SMILES O=c1cc(-c2ccc(O)c(O)c2)oc2cc(O)cc(O)c12
REMARK SMILES IDX 4 1 3 2 2 3 1 4 21 5 19 6 18 7 16 8 15 9 14 10 13 11 5 12
REMARK SMILES IDX 6 13 7 14 8 15 12 16 10 17 9 18 11 20 20 22 17 24
REMARK H PARENT 9 19 11 21 20 23 17 25
REMARK Flexibility Score: inf
ROOT
ATOM      1  C   UNL     1      28.573  58.469   7.959  1.00  0.00     0.138 A 
ATOM      2  C   UNL     1      28.432  59.417   8.982  1.00  0.00     0.100 A 
ATOM      3  C   UNL     1      27.557  59.167  10.039  1.00  0.00     0.197 A 
ATOM      4  O   UNL     1      27.498  60.008  10.973  1.00  0.00    -0.289 OA
ATOM      5  C   UNL     1      26.795  57.975  10.054  1.00  0.00     0.107 A 
ATOM      6  C   UNL     1      25.842  57.632  11.060  1.00  0.00     0.134 A 
ATOM      7  C   UNL     1      25.233  56.371  11.032  1.00  0.00     0.093 A 
ATOM      8  C   UNL     1      25.498  55.464  10.002  1.00  0.00     0.123 A 
ATOM      9  C   UNL     1      26.386  55.811   8.987  1.00  0.00     0.094 A 
ATOM     10  C   UNL     1      27.036  57.048   9.005  1.00  0.00     0.146 A 
ATOM     11  O   UNL     1      27.887  57.333   8.026  1.00  0.00    -0.456 OA
ENDROOT
BRANCH   1  12
ATOM     12  C   UNL     1      29.489  58.684   6.810  1.00  0.00     0.021 A 
ATOM     13  C   UNL     1      29.888  59.975   6.415  1.00  0.00     0.016 A 
ATOM     14  C   UNL     1      30.743  60.149   5.322  1.00  0.00     0.051 A 
ATOM     15  C   UNL     1      31.209  59.041   4.605  1.00  0.00     0.157 A 
ATOM     16  C   UNL     1      29.951  57.578   6.075  1.00  0.00     0.062 A 
ATOM     17  C   UNL     1      30.808  57.749   4.982  1.00  0.00     0.158 A 
BRANCH  15  18
ATOM     18  O   UNL     1      32.063  59.219   3.517  1.00  0.00    -0.504 OA
ATOM     19  H   UNL     1      33.060  59.352   3.642  1.00  0.00     0.293 HD
ENDBRANCH  15  18
BRANCH  17  20
ATOM     20  O   UNL     1      31.250  56.625   4.286  1.00  0.00    -0.504 OA
ATOM     21  H   UNL     1      30.648  56.116   3.649  1.00  0.00     0.293 HD
ENDBRANCH  17  20
ENDBRANCH   1  12
BRANCH   6  22
ATOM     22  O   UNL     1      25.442  58.495  12.084  1.00  0.00    -0.507 OA
ATOM     23  H   UNL     1      25.627  59.486  12.107  1.00  0.00     0.293 HD
ENDBRANCH   6  22
BRANCH   8  24
ATOM     24  O   UNL     1      24.875  54.218   9.976  1.00  0.00    -0.508 OA
ATOM     25  H   UNL     1      24.632  53.729  10.828  1.00  0.00     0.293 HD
ENDBRANCH   8  24
TORSDOF 5
ENDMDL
