MODEL 1
REMARK VINA RESULT:    -6.151      0.000      0.000
REMARK INTER + INTRA:          -6.151
REMARK INTER:                  -6.151
REMARK INTRA:                   0.000
REMARK UNBOUND:                 0.000
REMARK SMILES CC(C)=C1CC[C@H](C)CC1=O
REMARK SMILES IDX 8 1 7 2 6 3 5 4 4 5 2 6 1 7 3 8 10 9 11 10 9 11
REMARK H PARENT
REMARK Flexibility Score: inf
ROOT
ATOM      1  C   UNL     1      -7.693  33.184  19.993  1.00  0.00     0.008 C 
ATOM      2  C   UNL     1      -7.460  33.234  21.507  1.00  0.00    -0.006 C 
ATOM      3  C   UNL     1      -7.893  34.594  22.077  1.00  0.00     0.008 C 
ATOM      4  C   UNL     1      -7.573  34.699  23.573  1.00  0.00     0.039 C 
ATOM      5  C   UNL     1      -8.126  33.527  24.373  1.00  0.00    -0.006 C 
ATOM      6  C   UNL     1      -8.534  33.680  25.667  1.00  0.00    -0.070 C 
ATOM      7  C   UNL     1      -9.138  32.538  26.452  1.00  0.00     0.039 C 
ATOM      8  C   UNL     1      -8.436  35.017  26.367  1.00  0.00     0.039 C 
ATOM      9  C   UNL     1      -8.085  32.195  23.698  1.00  0.00     0.159 C 
ATOM     10  O   UNL     1      -7.925  31.132  24.357  1.00  0.00    -0.295 OA
ATOM     11  C   UNL     1      -8.228  32.103  22.207  1.00  0.00     0.084 C 
ENDROOT
TORSDOF 0
ENDMDL
MODEL 2
REMARK VINA RESULT:    -6.139      1.724      4.334
REMARK INTER + INTRA:          -6.139
REMARK INTER:                  -6.139
REMARK INTRA:                   0.000
REMARK UNBOUND:                 0.000
REMARK SMILES CC(C)=C1CC[C@H](C)CC1=O
REMARK SMILES IDX 8 1 7 2 6 3 5 4 4 5 2 6 1 7 3 8 10 9 11 10 9 11
REMARK H PARENT
REMARK Flexibility Score: inf
ROOT
ATOM      1  C   UNL     1      -9.539  29.536  25.443  1.00  0.00     0.008 C 
ATOM      2  C   UNL     1      -8.638  30.498  24.661  1.00  0.00    -0.006 C 
ATOM      3  C   UNL     1      -8.702  30.196  23.155  1.00  0.00     0.008 C 
ATOM      4  C   UNL     1      -7.729  31.083  22.368  1.00  0.00     0.039 C 
ATOM      5  C   UNL     1      -7.908  32.563  22.676  1.00  0.00    -0.006 C 
ATOM      6  C   UNL     1      -7.671  33.519  21.729  1.00  0.00    -0.070 C 
ATOM      7  C   UNL     1      -7.901  34.987  22.005  1.00  0.00     0.039 C 
ATOM      8  C   UNL     1      -7.205  33.147  20.339  1.00  0.00     0.039 C 
ATOM      9  C   UNL     1      -8.239  32.903  24.092  1.00  0.00     0.159 C 
ATOM     10  O   UNL     1      -7.844  33.979  24.616  1.00  0.00    -0.295 OA
ATOM     11  C   UNL     1      -9.052  31.954  24.922  1.00  0.00     0.084 C 
ENDROOT
TORSDOF 0
ENDMDL
MODEL 3
REMARK VINA RESULT:    -6.073      1.902      3.201
REMARK INTER + INTRA:          -6.073
REMARK INTER:                  -6.073
REMARK INTRA:                   0.000
REMARK UNBOUND:                 0.000
REMARK SMILES CC(C)=C1CC[C@H](C)CC1=O
REMARK SMILES IDX 8 1 7 2 6 3 5 4 4 5 2 6 1 7 3 8 10 9 11 10 9 11
REMARK H PARENT
REMARK Flexibility Score: inf
ROOT
ATOM      1  C   UNL     1      -7.891  28.545  22.375  1.00  0.00     0.008 C 
ATOM      2  C   UNL     1      -8.374  29.933  22.811  1.00  0.00    -0.006 C 
ATOM      3  C   UNL     1      -8.294  30.079  24.339  1.00  0.00     0.008 C 
ATOM      4  C   UNL     1      -8.868  31.424  24.801  1.00  0.00     0.039 C 
ATOM      5  C   UNL     1      -8.249  32.606  24.068  1.00  0.00    -0.006 C 
ATOM      6  C   UNL     1      -8.094  33.818  24.679  1.00  0.00    -0.070 C 
ATOM      7  C   UNL     1      -7.429  34.982  23.981  1.00  0.00     0.039 C 
ATOM      8  C   UNL     1      -8.545  34.041  26.105  1.00  0.00     0.039 C 
ATOM      9  C   UNL     1      -7.937  32.391  22.623  1.00  0.00     0.159 C 
ATOM     10  O   UNL     1      -8.007  33.336  21.791  1.00  0.00    -0.295 OA
ATOM     11  C   UNL     1      -7.538  31.030  22.135  1.00  0.00     0.084 C 
ENDROOT
TORSDOF 0
ENDMDL
MODEL 4
REMARK VINA RESULT:    -6.069      1.906      3.012
REMARK INTER + INTRA:          -6.069
REMARK INTER:                  -6.069
REMARK INTRA:                   0.000
REMARK UNBOUND:                 0.000
REMARK SMILES CC(C)=C1CC[C@H](C)CC1=O
REMARK SMILES IDX 8 1 7 2 6 3 5 4 4 5 2 6 1 7 3 8 10 9 11 10 9 11
REMARK H PARENT
REMARK Flexibility Score: inf
ROOT
ATOM      1  C   UNL     1      -8.624  28.247  22.373  1.00  0.00     0.008 C 
ATOM      2  C   UNL     1      -8.090  29.504  23.067  1.00  0.00    -0.006 C 
ATOM      3  C   UNL     1      -8.221  30.728  22.146  1.00  0.00     0.008 C 
ATOM      4  C   UNL     1      -7.598  31.976  22.785  1.00  0.00     0.039 C 
ATOM      5  C   UNL     1      -8.130  32.240  24.187  1.00  0.00    -0.006 C 
ATOM      6  C   UNL     1      -8.248  33.511  24.673  1.00  0.00    -0.070 C 
ATOM      7  C   UNL     1      -8.827  33.790  26.041  1.00  0.00     0.039 C 
ATOM      8  C   UNL     1      -7.840  34.709  23.845  1.00  0.00     0.039 C 
ATOM      9  C   UNL     1      -8.397  31.034  25.026  1.00  0.00     0.159 C 
ATOM     10  O   UNL     1      -8.249  31.060  26.277  1.00  0.00    -0.295 OA
ATOM     11  C   UNL     1      -8.845  29.755  24.381  1.00  0.00     0.084 C 
ENDROOT
TORSDOF 0
ENDMDL
MODEL 5
REMARK VINA RESULT:    -6.044      1.507      2.406
REMARK INTER + INTRA:          -6.044
REMARK INTER:                  -6.044
REMARK INTRA:                   0.000
REMARK UNBOUND:                 0.000
REMARK SMILES CC(C)=C1CC[C@H](C)CC1=O
REMARK SMILES IDX 8 1 7 2 6 3 5 4 4 5 2 6 1 7 3 8 10 9 11 10 9 11
REMARK H PARENT
REMARK Flexibility Score: inf
ROOT
ATOM      1  C   UNL     1      -7.428  33.473  20.203  1.00  0.00     0.008 C 
ATOM      2  C   UNL     1      -8.161  33.493  21.549  1.00  0.00    -0.006 C 
ATOM      3  C   UNL     1      -8.009  32.143  22.269  1.00  0.00     0.008 C 
ATOM      4  C   UNL     1      -8.820  32.111  23.570  1.00  0.00     0.039 C 
ATOM      5  C   UNL     1      -8.515  33.295  24.478  1.00  0.00    -0.006 C 
ATOM      6  C   UNL     1      -8.576  33.181  25.837  1.00  0.00    -0.070 C 
ATOM      7  C   UNL     1      -8.220  34.332  26.750  1.00  0.00     0.039 C 
ATOM      8  C   UNL     1      -8.966  31.878  26.499  1.00  0.00     0.039 C 
ATOM      9  C   UNL     1      -8.264  34.598  23.794  1.00  0.00     0.159 C 
ATOM     10  O   UNL     1      -8.588  35.692  24.330  1.00  0.00    -0.295 OA
ATOM     11  C   UNL     1      -7.622  34.624  22.437  1.00  0.00     0.084 C 
ENDROOT
TORSDOF 0
ENDMDL
MODEL 6
REMARK VINA RESULT:    -5.977      2.683      4.393
REMARK INTER + INTRA:          -5.977
REMARK INTER:                  -5.977
REMARK INTRA:                   0.000
REMARK UNBOUND:                 0.000
REMARK SMILES CC(C)=C1CC[C@H](C)CC1=O
REMARK SMILES IDX 8 1 7 2 6 3 5 4 4 5 2 6 1 7 3 8 10 9 11 10 9 11
REMARK H PARENT
REMARK Flexibility Score: inf
ROOT
ATOM      1  C   UNL     1      -8.265  34.316  24.018  1.00  0.00     0.008 C 
ATOM      2  C   UNL     1      -8.143  32.801  24.216  1.00  0.00    -0.006 C 
ATOM      3  C   UNL     1      -9.504  32.194  24.594  1.00  0.00     0.008 C 
ATOM      4  C   UNL     1      -9.381  30.695  24.895  1.00  0.00     0.039 C 
ATOM      5  C   UNL     1      -8.689  29.929  23.776  1.00  0.00    -0.006 C 
ATOM      6  C   UNL     1      -9.011  28.631  23.500  1.00  0.00    -0.070 C 
ATOM      7  C   UNL     1      -8.373  27.878  22.355  1.00  0.00     0.039 C 
ATOM      8  C   UNL     1     -10.058  27.894  24.306  1.00  0.00     0.039 C 
ATOM      9  C   UNL     1      -7.570  30.640  23.089  1.00  0.00     0.159 C 
ATOM     10  O   UNL     1      -6.580  30.011  22.628  1.00  0.00    -0.295 OA
ATOM     11  C   UNL     1      -7.607  32.133  22.942  1.00  0.00     0.084 C 
ENDROOT
TORSDOF 0
ENDMDL
MODEL 7
REMARK VINA RESULT:    -5.877      1.503      4.050
REMARK INTER + INTRA:          -5.877
REMARK INTER:                  -5.877
REMARK INTRA:                   0.000
REMARK UNBOUND:                 0.000
REMARK SMILES CC(C)=C1CC[C@H](C)CC1=O
REMARK SMILES IDX 8 1 7 2 6 3 5 4 4 5 2 6 1 7 3 8 10 9 11 10 9 11
REMARK H PARENT
REMARK Flexibility Score: inf
ROOT
ATOM      1  C   UNL     1      -8.780  30.331  26.395  1.00  0.00     0.008 C 
ATOM      2  C   UNL     1      -8.999  31.245  25.185  1.00  0.00    -0.006 C 
ATOM      3  C   UNL     1      -8.277  32.587  25.383  1.00  0.00     0.008 C 
ATOM      4  C   UNL     1      -8.568  33.553  24.227  1.00  0.00     0.039 C 
ATOM      5  C   UNL     1      -8.289  32.934  22.864  1.00  0.00    -0.006 C 
ATOM      6  C   UNL     1      -7.860  33.695  21.814  1.00  0.00    -0.070 C 
ATOM      7  C   UNL     1      -7.525  33.084  20.473  1.00  0.00     0.039 C 
ATOM      8  C   UNL     1      -7.661  35.187  21.956  1.00  0.00     0.039 C 
ATOM      9  C   UNL     1      -8.623  31.486  22.721  1.00  0.00     0.159 C 
ATOM     10  O   UNL     1      -9.016  31.010  21.621  1.00  0.00    -0.295 OA
ATOM     11  C   UNL     1      -8.501  30.566  23.900  1.00  0.00     0.084 C 
ENDROOT
TORSDOF 0
ENDMDL
MODEL 8
REMARK VINA RESULT:    -5.792      1.877      3.525
REMARK INTER + INTRA:          -5.792
REMARK INTER:                  -5.792
REMARK INTRA:                   0.000
REMARK UNBOUND:                 0.000
REMARK SMILES CC(C)=C1CC[C@H](C)CC1=O
REMARK SMILES IDX 8 1 7 2 6 3 5 4 4 5 2 6 1 7 3 8 10 9 11 10 9 11
REMARK H PARENT
REMARK Flexibility Score: inf
ROOT
ATOM      1  C   UNL     1      -7.505  35.220  22.000  1.00  0.00     0.008 C 
ATOM      2  C   UNL     1      -8.265  33.905  22.208  1.00  0.00    -0.006 C 
ATOM      3  C   UNL     1      -7.597  32.764  21.425  1.00  0.00     0.008 C 
ATOM      4  C   UNL     1      -8.402  31.463  21.539  1.00  0.00     0.039 C 
ATOM      5  C   UNL     1      -8.700  31.086  22.984  1.00  0.00    -0.006 C 
ATOM      6  C   UNL     1      -8.799  29.780  23.370  1.00  0.00    -0.070 C 
ATOM      7  C   UNL     1      -9.037  29.391  24.811  1.00  0.00     0.039 C 
ATOM      8  C   UNL     1      -8.635  28.653  22.375  1.00  0.00     0.039 C 
ATOM      9  C   UNL     1      -8.988  32.220  23.912  1.00  0.00     0.159 C 
ATOM     10  O   UNL     1      -9.787  32.088  24.879  1.00  0.00    -0.295 OA
ATOM     11  C   UNL     1      -8.328  33.551  23.701  1.00  0.00     0.084 C 
ENDROOT
TORSDOF 0
ENDMDL
MODEL 9
REMARK VINA RESULT:    -5.639      1.786      2.989
REMARK INTER + INTRA:          -5.639
REMARK INTER:                  -5.639
REMARK INTRA:                   0.000
REMARK UNBOUND:                 0.000
REMARK SMILES CC(C)=C1CC[C@H](C)CC1=O
REMARK SMILES IDX 8 1 7 2 6 3 5 4 4 5 2 6 1 7 3 8 10 9 11 10 9 11
REMARK H PARENT
REMARK Flexibility Score: inf
ROOT
ATOM      1  C   UNL     1      -7.550  35.048  21.836  1.00  0.00     0.008 C 
ATOM      2  C   UNL     1      -8.298  34.084  22.762  1.00  0.00    -0.006 C 
ATOM      3  C   UNL     1      -8.267  32.655  22.197  1.00  0.00     0.008 C 
ATOM      4  C   UNL     1      -9.098  31.696  23.059  1.00  0.00     0.039 C 
ATOM      5  C   UNL     1      -8.712  31.751  24.531  1.00  0.00    -0.006 C 
ATOM      6  C   UNL     1      -8.803  30.647  25.330  1.00  0.00    -0.070 C 
ATOM      7  C   UNL     1      -8.369  30.674  26.777  1.00  0.00     0.039 C 
ATOM      8  C   UNL     1      -9.307  29.327  24.789  1.00  0.00     0.039 C 
ATOM      9  C   UNL     1      -8.347  33.097  25.063  1.00  0.00     0.159 C 
ATOM     10  O   UNL     1      -8.589  33.416  26.259  1.00  0.00    -0.295 OA
ATOM     11  C   UNL     1      -7.684  34.104  24.170  1.00  0.00     0.084 C 
ENDROOT
TORSDOF 0
ENDMDL
