MODEL 1
REMARK VINA RESULT:    -2.977      0.000      0.000
REMARK INTER + INTRA:          -3.173
REMARK INTER:                  -3.151
REMARK INTRA:                  -0.023
REMARK UNBOUND:                -0.023
REMARK SMILES O=C([O-])c1cccnc1
REMARK SMILES IDX 4 1 5 2 9 3 6 4 8 5 7 6 2 7 1 8 3 9
REMARK H PARENT
REMARK Flexibility Score: inf
ROOT
ATOM      1  C   UNL     1      46.864  20.498   7.353  1.00  0.00     0.016 A 
ATOM      2  C   UNL     1      47.614  21.392   6.571  1.00  0.00     0.013 A 
ATOM      3  C   UNL     1      47.457  19.280   7.729  1.00  0.00     0.120 A 
ATOM      4  C   UNL     1      48.915  21.064   6.184  1.00  0.00     0.021 A 
ATOM      5  N   UNL     1      48.726  18.985   7.339  1.00  0.00    -0.264 NA
ATOM      6  C   UNL     1      49.460  19.843   6.582  1.00  0.00     0.111 A 
ENDROOT
BRANCH   1   7
ATOM      7  C   UNL     1      45.485  20.834   7.768  1.00  0.00     0.073 C 
ATOM      8  O   UNL     1      44.685  19.929   8.125  1.00  0.00    -0.545 OA
ATOM      9  O   UNL     1      45.053  22.156   7.770  1.00  0.00    -0.545 OA
ENDBRANCH   1   7
TORSDOF 1
ENDMDL
MODEL 2
REMARK VINA RESULT:    -2.948      9.763     10.942
REMARK INTER + INTRA:          -3.143
REMARK INTER:                  -3.127
REMARK INTRA:                  -0.016
REMARK UNBOUND:                -0.023
REMARK SMILES O=C([O-])c1cccnc1
REMARK SMILES IDX 4 1 5 2 9 3 6 4 8 5 7 6 2 7 1 8 3 9
REMARK H PARENT
REMARK Flexibility Score: inf
ROOT
ATOM      1  C   UNL     1      36.655  17.424   5.661  1.00  0.00     0.016 A 
ATOM      2  C   UNL     1      37.376  17.058   6.810  1.00  0.00     0.013 A 
ATOM      3  C   UNL     1      37.332  17.446   4.428  1.00  0.00     0.120 A 
ATOM      4  C   UNL     1      38.729  16.728   6.714  1.00  0.00     0.021 A 
ATOM      5  N   UNL     1      38.650  17.120   4.362  1.00  0.00    -0.264 NA
ATOM      6  C   UNL     1      39.356  16.766   5.468  1.00  0.00     0.111 A 
ENDROOT
BRANCH   1   7
ATOM      7  C   UNL     1      35.222  17.776   5.750  1.00  0.00     0.073 C 
ATOM      8  O   UNL     1      34.865  18.972   5.915  1.00  0.00    -0.545 OA
ATOM      9  O   UNL     1      34.248  16.788   5.654  1.00  0.00    -0.545 OA
ENDBRANCH   1   7
TORSDOF 1
ENDMDL
MODEL 3
REMARK VINA RESULT:    -2.944      3.023      3.975
REMARK INTER + INTRA:          -3.139
REMARK INTER:                  -3.123
REMARK INTRA:                  -0.016
REMARK UNBOUND:                -0.023
REMARK SMILES O=C([O-])c1cccnc1
REMARK SMILES IDX 4 1 5 2 9 3 6 4 8 5 7 6 2 7 1 8 3 9
REMARK H PARENT
REMARK Flexibility Score: inf
ROOT
ATOM      1  C   UNL     1      48.086  20.467   7.101  1.00  0.00     0.016 A 
ATOM      2  C   UNL     1      47.478  19.320   7.640  1.00  0.00     0.013 A 
ATOM      3  C   UNL     1      47.319  21.640   6.993  1.00  0.00     0.120 A 
ATOM      4  C   UNL     1      46.144  19.361   8.052  1.00  0.00     0.021 A 
ATOM      5  N   UNL     1      46.022  21.653   7.402  1.00  0.00    -0.264 NA
ATOM      6  C   UNL     1      45.425  20.549   7.924  1.00  0.00     0.111 A 
ENDROOT
BRANCH   1   7
ATOM      7  C   UNL     1      49.497  20.435   6.662  1.00  0.00     0.073 C 
ATOM      8  O   UNL     1      49.801  20.017   5.513  1.00  0.00    -0.545 OA
ATOM      9  O   UNL     1      50.509  20.867   7.512  1.00  0.00    -0.545 OA
ENDBRANCH   1   7
TORSDOF 1
ENDMDL
MODEL 4
REMARK VINA RESULT:    -2.899      0.950      1.926
REMARK INTER + INTRA:          -3.091
REMARK INTER:                  -3.070
REMARK INTRA:                  -0.021
REMARK UNBOUND:                -0.023
REMARK SMILES O=C([O-])c1cccnc1
REMARK SMILES IDX 4 1 5 2 9 3 6 4 8 5 7 6 2 7 1 8 3 9
REMARK H PARENT
REMARK Flexibility Score: inf
ROOT
ATOM      1  C   UNL     1      46.951  20.534   7.361  1.00  0.00     0.016 A 
ATOM      2  C   UNL     1      47.557  19.308   7.687  1.00  0.00     0.013 A 
ATOM      3  C   UNL     1      47.688  21.461   6.602  1.00  0.00     0.120 A 
ATOM      4  C   UNL     1      48.858  19.034   7.262  1.00  0.00     0.021 A 
ATOM      5  N   UNL     1      48.954  21.169   6.201  1.00  0.00    -0.264 NA
ATOM      6  C   UNL     1      49.549  19.987   6.512  1.00  0.00     0.111 A 
ENDROOT
BRANCH   1   7
ATOM      7  C   UNL     1      45.573  20.835   7.804  1.00  0.00     0.073 C 
ATOM      8  O   UNL     1      45.246  22.008   8.125  1.00  0.00    -0.545 OA
ATOM      9  O   UNL     1      44.620  19.825   7.875  1.00  0.00    -0.545 OA
ENDBRANCH   1   7
TORSDOF 1
ENDMDL
MODEL 5
REMARK VINA RESULT:    -2.856     10.027     11.471
REMARK INTER + INTRA:          -3.046
REMARK INTER:                  -3.030
REMARK INTRA:                  -0.016
REMARK UNBOUND:                -0.023
REMARK SMILES O=C([O-])c1cccnc1
REMARK SMILES IDX 4 1 5 2 9 3 6 4 8 5 7 6 2 7 1 8 3 9
REMARK H PARENT
REMARK Flexibility Score: inf
ROOT
ATOM      1  C   UNL     1      37.248  16.999   5.404  1.00  0.00     0.016 A 
ATOM      2  C   UNL     1      36.470  18.126   5.091  1.00  0.00     0.013 A 
ATOM      3  C   UNL     1      36.606  15.875   5.954  1.00  0.00     0.120 A 
ATOM      4  C   UNL     1      35.093  18.115   5.327  1.00  0.00     0.021 A 
ATOM      5  N   UNL     1      35.264  15.891   6.173  1.00  0.00    -0.264 NA
ATOM      6  C   UNL     1      34.502  16.976   5.875  1.00  0.00     0.111 A 
ENDROOT
BRANCH   1   7
ATOM      7  C   UNL     1      38.707  17.000   5.159  1.00  0.00     0.073 C 
ATOM      8  O   UNL     1      39.162  16.773   4.006  1.00  0.00    -0.545 OA
ATOM      9  O   UNL     1      39.596  17.249   6.199  1.00  0.00    -0.545 OA
ENDBRANCH   1   7
TORSDOF 1
ENDMDL
MODEL 6
REMARK VINA RESULT:    -2.850      5.830      6.773
REMARK INTER + INTRA:          -3.039
REMARK INTER:                  -3.023
REMARK INTRA:                  -0.017
REMARK UNBOUND:                -0.023
REMARK SMILES O=C([O-])c1cccnc1
REMARK SMILES IDX 4 1 5 2 9 3 6 4 8 5 7 6 2 7 1 8 3 9
REMARK H PARENT
REMARK Flexibility Score: inf
ROOT
ATOM      1  C   UNL     1      42.068  18.175   5.382  1.00  0.00     0.016 A 
ATOM      2  C   UNL     1      42.388  18.097   4.016  1.00  0.00     0.013 A 
ATOM      3  C   UNL     1      40.960  17.448   5.851  1.00  0.00     0.120 A 
ATOM      4  C   UNL     1      41.613  17.314   3.159  1.00  0.00     0.021 A 
ATOM      5  N   UNL     1      40.222  16.692   4.995  1.00  0.00    -0.264 NA
ATOM      6  C   UNL     1      40.522  16.611   3.671  1.00  0.00     0.111 A 
ENDROOT
BRANCH   1   7
ATOM      7  C   UNL     1      42.881  19.002   6.300  1.00  0.00     0.073 C 
ATOM      8  O   UNL     1      44.022  18.616   6.669  1.00  0.00    -0.545 OA
ATOM      9  O   UNL     1      42.395  20.217   6.771  1.00  0.00    -0.545 OA
ENDBRANCH   1   7
TORSDOF 1
ENDMDL
MODEL 7
REMARK VINA RESULT:    -2.790      4.124      4.780
REMARK INTER + INTRA:          -2.976
REMARK INTER:                  -2.959
REMARK INTRA:                  -0.017
REMARK UNBOUND:                -0.023
REMARK SMILES O=C([O-])c1cccnc1
REMARK SMILES IDX 4 1 5 2 9 3 6 4 8 5 7 6 2 7 1 8 3 9
REMARK H PARENT
REMARK Flexibility Score: inf
ROOT
ATOM      1  C   UNL     1      42.890  20.249   6.973  1.00  0.00     0.016 A 
ATOM      2  C   UNL     1      42.403  21.558   6.824  1.00  0.00     0.013 A 
ATOM      3  C   UNL     1      44.114  20.064   7.641  1.00  0.00     0.120 A 
ATOM      4  C   UNL     1      43.128  22.639   7.331  1.00  0.00     0.021 A 
ATOM      5  N   UNL     1      44.800  21.134   8.125  1.00  0.00    -0.264 NA
ATOM      6  C   UNL     1      44.338  22.404   7.985  1.00  0.00     0.111 A 
ENDROOT
BRANCH   1   7
ATOM      7  C   UNL     1      42.131  19.097   6.440  1.00  0.00     0.073 C 
ATOM      8  O   UNL     1      41.076  18.709   7.007  1.00  0.00    -0.545 OA
ATOM      9  O   UNL     1      42.575  18.426   5.306  1.00  0.00    -0.545 OA
ENDBRANCH   1   7
TORSDOF 1
ENDMDL
MODEL 8
REMARK VINA RESULT:    -2.746      5.909      7.033
REMARK INTER + INTRA:          -2.929
REMARK INTER:                  -2.913
REMARK INTRA:                  -0.016
REMARK UNBOUND:                -0.023
REMARK SMILES O=C([O-])c1cccnc1
REMARK SMILES IDX 4 1 5 2 9 3 6 4 8 5 7 6 2 7 1 8 3 9
REMARK H PARENT
REMARK Flexibility Score: inf
ROOT
ATOM      1  C   UNL     1      41.997  18.081   5.234  1.00  0.00     0.016 A 
ATOM      2  C   UNL     1      40.896  17.353   5.715  1.00  0.00     0.013 A 
ATOM      3  C   UNL     1      42.283  18.029   3.858  1.00  0.00     0.120 A 
ATOM      4  C   UNL     1      40.116  16.599   4.836  1.00  0.00     0.021 A 
ATOM      5  N   UNL     1      41.507  17.287   3.023  1.00  0.00    -0.264 NA
ATOM      6  C   UNL     1      40.440  16.578   3.479  1.00  0.00     0.111 A 
ENDROOT
BRANCH   1   7
ATOM      7  C   UNL     1      42.831  18.883   6.155  1.00  0.00     0.073 C 
ATOM      8  O   UNL     1      43.930  18.437   6.576  1.00  0.00    -0.545 OA
ATOM      9  O   UNL     1      42.410  20.142   6.569  1.00  0.00    -0.545 OA
ENDBRANCH   1   7
TORSDOF 1
ENDMDL
MODEL 9
REMARK VINA RESULT:    -2.626      8.065      8.991
REMARK INTER + INTRA:          -2.803
REMARK INTER:                  -2.786
REMARK INTRA:                  -0.016
REMARK UNBOUND:                -0.023
REMARK SMILES O=C([O-])c1cccnc1
REMARK SMILES IDX 4 1 5 2 9 3 6 4 8 5 7 6 2 7 1 8 3 9
REMARK H PARENT
REMARK Flexibility Score: inf
ROOT
ATOM      1  C   UNL     1      38.990  17.058   4.769  1.00  0.00     0.016 A 
ATOM      2  C   UNL     1      39.939  16.939   3.740  1.00  0.00     0.013 A 
ATOM      3  C   UNL     1      39.451  17.196   6.090  1.00  0.00     0.120 A 
ATOM      4  C   UNL     1      41.303  16.958   4.038  1.00  0.00     0.021 A 
ATOM      5  N   UNL     1      40.786  17.212   6.353  1.00  0.00    -0.264 NA
ATOM      6  C   UNL     1      41.712  17.097   5.365  1.00  0.00     0.111 A 
ENDROOT
BRANCH   1   7
ATOM      7  C   UNL     1      37.543  17.039   4.465  1.00  0.00     0.073 C 
ATOM      8  O   UNL     1      36.892  15.962   4.517  1.00  0.00    -0.545 OA
ATOM      9  O   UNL     1      36.881  18.211   4.116  1.00  0.00    -0.545 OA
ENDBRANCH   1   7
TORSDOF 1
ENDMDL
