MODEL 1
REMARK VINA RESULT:    -1.960      0.000      0.000
REMARK INTER + INTRA:          -4.525
REMARK INTER:                  -3.565
REMARK INTRA:                  -0.961
REMARK UNBOUND:                -0.961
REMARK SMILES CCCCCCCCCCCCCCCC(=O)[O-]
REMARK SMILES IDX 9 1 10 2 11 3 12 4 13 5 14 6 15 7 16 8 17 9 18 10 8 11 7 12
REMARK SMILES IDX 6 13 5 14 4 15 3 16 2 17 1 18
REMARK H PARENT
REMARK Flexibility Score: inf
ROOT
ATOM      1  C   UNL     1       0.094   0.995  -0.678  1.00  0.00     0.000 C 
ENDROOT
BRANCH   1   2
ATOM      2  C   UNL     1       0.981   0.777  -1.914  1.00  0.00     0.000 C 
BRANCH   2   3
ATOM      3  C   UNL     1       2.398   0.311  -1.547  1.00  0.00     0.000 C 
BRANCH   3   4
ATOM      4  C   UNL     1       3.071   1.302  -0.588  1.00  0.00     0.000 C 
BRANCH   4   5
ATOM      5  C   UNL     1       3.025   2.730  -1.152  1.00  0.00     0.000 C 
BRANCH   5   6
ATOM      6  C   UNL     1       2.592   3.771  -0.104  1.00  0.00     0.006 C 
BRANCH   6   7
ATOM      7  C   UNL     1       2.356   5.180  -0.672  1.00  0.00     0.053 C 
BRANCH   7   8
ATOM      8  C   UNL     1       3.471   6.118  -0.330  1.00  0.00     0.041 C 
ATOM      9  O   UNL     1       4.545   5.676   0.157  1.00  0.00    -0.550 OA
ATOM     10  O   UNL     1       3.338   7.479  -0.580  1.00  0.00    -0.550 OA
ENDBRANCH   7   8
ENDBRANCH   6   7
ENDBRANCH   5   6
ENDBRANCH   4   5
ENDBRANCH   3   4
ENDBRANCH   2   3
ENDBRANCH   1   2
BRANCH   1  11
ATOM     11  C   UNL     1      -0.317  -0.326  -0.005  1.00  0.00     0.000 C 
BRANCH  11  12
ATOM     12  C   UNL     1      -0.687  -1.418  -1.020  1.00  0.00    -0.000 C 
BRANCH  12  13
ATOM     13  C   UNL     1      -1.997  -1.111  -1.765  1.00  0.00    -0.000 C 
BRANCH  13  14
ATOM     14  C   UNL     1      -3.129  -2.092  -1.412  1.00  0.00    -0.000 C 
BRANCH  14  15
ATOM     15  C   UNL     1      -2.808  -3.074  -0.270  1.00  0.00    -0.000 C 
BRANCH  15  16
ATOM     16  C   UNL     1      -3.276  -4.520  -0.539  1.00  0.00    -0.000 C 
BRANCH  16  17
ATOM     17  C   UNL     1      -2.104  -5.462  -0.856  1.00  0.00    -0.003 C 
ATOM     18  C   UNL     1      -0.776  -4.858  -0.412  1.00  0.00     0.004 C 
ENDBRANCH  16  17
ENDBRANCH  15  16
ENDBRANCH  14  15
ENDBRANCH  13  14
ENDBRANCH  12  13
ENDBRANCH  11  12
ENDBRANCH   1  11
TORSDOF 14
ENDMDL
MODEL 2
REMARK VINA RESULT:    -1.746      5.145      9.623
REMARK INTER + INTRA:          -4.136
REMARK INTER:                  -3.485
REMARK INTRA:                  -0.651
REMARK UNBOUND:                -0.961
REMARK SMILES CCCCCCCCCCCCCCCC(=O)[O-]
REMARK SMILES IDX 9 1 10 2 11 3 12 4 13 5 14 6 15 7 16 8 17 9 18 10 8 11 7 12
REMARK SMILES IDX 6 13 5 14 4 15 3 16 2 17 1 18
REMARK H PARENT
REMARK Flexibility Score: inf
ROOT
ATOM      1  C   UNL     1      -0.083  -0.400  -0.117  1.00  0.00     0.000 C 
ENDROOT
BRANCH   1   2
ATOM      2  C   UNL     1      -0.754  -1.348  -1.124  1.00  0.00     0.000 C 
BRANCH   2   3
ATOM      3  C   UNL     1      -2.068  -0.781  -1.683  1.00  0.00     0.000 C 
BRANCH   3   4
ATOM      4  C   UNL     1      -3.279  -1.484  -1.058  1.00  0.00     0.000 C 
BRANCH   4   5
ATOM      5  C   UNL     1      -3.333  -2.961  -1.475  1.00  0.00     0.000 C 
BRANCH   5   6
ATOM      6  C   UNL     1      -2.964  -3.919  -0.328  1.00  0.00     0.006 C 
BRANCH   6   7
ATOM      7  C   UNL     1      -2.583  -5.337  -0.785  1.00  0.00     0.053 C 
BRANCH   7   8
ATOM      8  C   UNL     1      -3.681  -6.323  -0.532  1.00  0.00     0.041 C 
ATOM      9  O   UNL     1      -4.771  -5.942  -0.029  1.00  0.00    -0.550 OA
ATOM     10  O   UNL     1      -3.514  -7.657  -0.882  1.00  0.00    -0.550 OA
ENDBRANCH   7   8
ENDBRANCH   6   7
ENDBRANCH   5   6
ENDBRANCH   4   5
ENDBRANCH   3   4
ENDBRANCH   2   3
ENDBRANCH   1   2
BRANCH   1  11
ATOM     11  C   UNL     1       0.378   0.918  -0.764  1.00  0.00     0.000 C 
BRANCH  11  12
ATOM     12  C   UNL     1       1.566   0.726  -1.719  1.00  0.00    -0.000 C 
BRANCH  12  13
ATOM     13  C   UNL     1       2.899   1.179  -1.099  1.00  0.00    -0.000 C 
BRANCH  13  14
ATOM     14  C   UNL     1       3.144   2.691  -1.249  1.00  0.00    -0.000 C 
BRANCH  14  15
ATOM     15  C   UNL     1       2.623   3.555  -0.086  1.00  0.00    -0.000 C 
BRANCH  15  16
ATOM     16  C   UNL     1       1.842   4.807  -0.539  1.00  0.00    -0.000 C 
BRANCH  16  17
ATOM     17  C   UNL     1       2.755   6.031  -0.715  1.00  0.00    -0.003 C 
ATOM     18  C   UNL     1       4.087   5.832   0.002  1.00  0.00     0.004 C 
ENDBRANCH  16  17
ENDBRANCH  15  16
ENDBRANCH  14  15
ENDBRANCH  13  14
ENDBRANCH  12  13
ENDBRANCH  11  12
ENDBRANCH   1  11
TORSDOF 14
ENDMDL
MODEL 3
REMARK VINA RESULT:    -1.737      4.434      8.711
REMARK INTER + INTRA:          -4.120
REMARK INTER:                  -3.149
REMARK INTRA:                  -0.971
REMARK UNBOUND:                -0.961
REMARK SMILES CCCCCCCCCCCCCCCC(=O)[O-]
REMARK SMILES IDX 9 1 10 2 11 3 12 4 13 5 14 6 15 7 16 8 17 9 18 10 8 11 7 12
REMARK SMILES IDX 6 13 5 14 4 15 3 16 2 17 1 18
REMARK H PARENT
REMARK Flexibility Score: inf
ROOT
ATOM      1  C   UNL     1      -0.002  -0.092   0.040  1.00  0.00     0.000 C 
ENDROOT
BRANCH   1   2
ATOM      2  C   UNL     1      -0.110  -1.389  -0.778  1.00  0.00     0.000 C 
BRANCH   2   3
ATOM      3  C   UNL     1      -1.182  -1.307  -1.875  1.00  0.00     0.000 C 
BRANCH   3   4
ATOM      4  C   UNL     1      -2.415  -0.539  -1.382  1.00  0.00     0.000 C 
BRANCH   4   5
ATOM      5  C   UNL     1      -3.439  -1.492  -0.749  1.00  0.00     0.000 C 
BRANCH   5   6
ATOM      6  C   UNL     1      -3.356  -2.921  -1.315  1.00  0.00     0.006 C 
BRANCH   6   7
ATOM      7  C   UNL     1      -3.290  -4.023  -0.244  1.00  0.00     0.053 C 
BRANCH   7   8
ATOM      8  C   UNL     1      -2.371  -5.136  -0.640  1.00  0.00     0.041 C 
ATOM      9  O   UNL     1      -2.839  -6.206  -1.112  1.00  0.00    -0.550 OA
ATOM     10  O   UNL     1      -0.995  -4.981  -0.521  1.00  0.00    -0.550 OA
ENDBRANCH   7   8
ENDBRANCH   6   7
ENDBRANCH   5   6
ENDBRANCH   4   5
ENDBRANCH   3   4
ENDBRANCH   2   3
ENDBRANCH   1   2
BRANCH   1  11
ATOM     11  C   UNL     1       0.467   1.104  -0.808  1.00  0.00     0.000 C 
BRANCH  11  12
ATOM     12  C   UNL     1       1.563   0.722  -1.816  1.00  0.00    -0.000 C 
BRANCH  12  13
ATOM     13  C   UNL     1       2.743   1.709  -1.803  1.00  0.00    -0.000 C 
BRANCH  13  14
ATOM     14  C   UNL     1       3.363   1.880  -0.405  1.00  0.00    -0.000 C 
BRANCH  14  15
ATOM     15  C   UNL     1       2.886   3.121   0.372  1.00  0.00    -0.000 C 
BRANCH  15  16
ATOM     16  C   UNL     1       3.195   4.458  -0.334  1.00  0.00    -0.000 C 
BRANCH  16  17
ATOM     17  C   UNL     1       1.920   5.212  -0.740  1.00  0.00    -0.003 C 
ATOM     18  C   UNL     1       0.675   4.525  -0.186  1.00  0.00     0.004 C 
ENDBRANCH  16  17
ENDBRANCH  15  16
ENDBRANCH  14  15
ENDBRANCH  13  14
ENDBRANCH  12  13
ENDBRANCH  11  12
ENDBRANCH   1  11
TORSDOF 14
ENDMDL
MODEL 4
REMARK VINA RESULT:    -1.708      1.206      1.921
REMARK INTER + INTRA:          -4.067
REMARK INTER:                  -3.344
REMARK INTRA:                  -0.723
REMARK UNBOUND:                -0.961
REMARK SMILES CCCCCCCCCCCCCCCC(=O)[O-]
REMARK SMILES IDX 9 1 10 2 11 3 12 4 13 5 14 6 15 7 16 8 17 9 18 10 8 11 7 12
REMARK SMILES IDX 6 13 5 14 4 15 3 16 2 17 1 18
REMARK H PARENT
REMARK Flexibility Score: inf
ROOT
ATOM      1  C   UNL     1      -0.157  -0.486   0.095  1.00  0.00     0.000 C 
ENDROOT
BRANCH   1   2
ATOM      2  C   UNL     1       0.036   0.995  -0.268  1.00  0.00     0.000 C 
BRANCH   2   3
ATOM      3  C   UNL     1       0.881   1.186  -1.536  1.00  0.00     0.000 C 
BRANCH   3   4
ATOM      4  C   UNL     1       2.180   0.375  -1.458  1.00  0.00     0.000 C 
BRANCH   4   5
ATOM      5  C   UNL     1       3.301   1.195  -0.802  1.00  0.00     0.000 C 
BRANCH   5   6
ATOM      6  C   UNL     1       3.246   2.687  -1.175  1.00  0.00     0.006 C 
BRANCH   6   7
ATOM      7  C   UNL     1       2.933   3.622   0.005  1.00  0.00     0.053 C 
BRANCH   7   8
ATOM      8  C   UNL     1       2.094   4.790  -0.412  1.00  0.00     0.041 C 
ATOM      9  O   UNL     1       2.639   5.835  -0.856  1.00  0.00    -0.550 OA
ATOM     10  O   UNL     1       0.708   4.713  -0.342  1.00  0.00    -0.550 OA
ENDBRANCH   7   8
ENDBRANCH   6   7
ENDBRANCH   5   6
ENDBRANCH   4   5
ENDBRANCH   3   4
ENDBRANCH   2   3
ENDBRANCH   1   2
BRANCH   1  11
ATOM     11  C   UNL     1      -0.535  -1.348  -1.122  1.00  0.00     0.000 C 
BRANCH  11  12
ATOM     12  C   UNL     1      -1.797  -0.843  -1.838  1.00  0.00    -0.000 C 
BRANCH  12  13
ATOM     13  C   UNL     1      -3.091  -1.304  -1.147  1.00  0.00    -0.000 C 
BRANCH  13  14
ATOM     14  C   UNL     1      -3.372  -2.804  -1.347  1.00  0.00    -0.000 C 
BRANCH  14  15
ATOM     15  C   UNL     1      -2.980  -3.705  -0.161  1.00  0.00    -0.000 C 
BRANCH  15  16
ATOM     16  C   UNL     1      -2.032  -4.862  -0.542  1.00  0.00    -0.000 C 
BRANCH  16  17
ATOM     17  C   UNL     1      -2.789  -6.075  -1.104  1.00  0.00    -0.003 C 
ATOM     18  C   UNL     1      -4.113  -6.283  -0.374  1.00  0.00     0.004 C 
ENDBRANCH  16  17
ENDBRANCH  15  16
ENDBRANCH  14  15
ENDBRANCH  13  14
ENDBRANCH  12  13
ENDBRANCH  11  12
ENDBRANCH   1  11
TORSDOF 14
ENDMDL
MODEL 5
REMARK VINA RESULT:    -1.669      1.081      1.593
REMARK INTER + INTRA:          -3.996
REMARK INTER:                  -3.190
REMARK INTRA:                  -0.806
REMARK UNBOUND:                -0.961
REMARK SMILES CCCCCCCCCCCCCCCC(=O)[O-]
REMARK SMILES IDX 9 1 10 2 11 3 12 4 13 5 14 6 15 7 16 8 17 9 18 10 8 11 7 12
REMARK SMILES IDX 6 13 5 14 4 15 3 16 2 17 1 18
REMARK H PARENT
REMARK Flexibility Score: inf
ROOT
ATOM      1  C   UNL     1      -0.005  -0.270   0.031  1.00  0.00     0.000 C 
ENDROOT
BRANCH   1   2
ATOM      2  C   UNL     1      -0.069   1.091  -0.680  1.00  0.00     0.000 C 
BRANCH   2   3
ATOM      3  C   UNL     1       1.028   1.252  -1.744  1.00  0.00     0.000 C 
BRANCH   3   4
ATOM      4  C   UNL     1       2.264   0.416  -1.388  1.00  0.00     0.000 C 
BRANCH   4   5
ATOM      5  C   UNL     1       3.336   1.281  -0.708  1.00  0.00     0.000 C 
BRANCH   5   6
ATOM      6  C   UNL     1       3.277   2.756  -1.143  1.00  0.00     0.006 C 
BRANCH   6   7
ATOM      7  C   UNL     1       3.025   3.745   0.006  1.00  0.00     0.053 C 
BRANCH   7   8
ATOM      8  C   UNL     1       2.201   4.917  -0.431  1.00  0.00     0.041 C 
ATOM      9  O   UNL     1       2.760   5.949  -0.888  1.00  0.00    -0.550 OA
ATOM     10  O   UNL     1       0.814   4.857  -0.365  1.00  0.00    -0.550 OA
ENDBRANCH   7   8
ENDBRANCH   6   7
ENDBRANCH   5   6
ENDBRANCH   4   5
ENDBRANCH   3   4
ENDBRANCH   2   3
ENDBRANCH   1   2
BRANCH   1  11
ATOM     11  C   UNL     1      -0.436  -1.433  -0.879  1.00  0.00     0.000 C 
BRANCH  11  12
ATOM     12  C   UNL     1      -1.541  -1.034  -1.870  1.00  0.00    -0.000 C 
BRANCH  12  13
ATOM     13  C   UNL     1      -2.881  -0.745  -1.172  1.00  0.00    -0.000 C 
BRANCH  13  14
ATOM     14  C   UNL     1      -3.471  -1.985  -0.479  1.00  0.00    -0.000 C 
BRANCH  14  15
ATOM     15  C   UNL     1      -3.357  -3.297  -1.279  1.00  0.00    -0.000 C 
BRANCH  15  16
ATOM     16  C   UNL     1      -3.369  -4.566  -0.401  1.00  0.00    -0.000 C 
BRANCH  16  17
ATOM     17  C   UNL     1      -2.190  -5.501  -0.713  1.00  0.00    -0.003 C 
ATOM     18  C   UNL     1      -0.855  -4.796  -0.493  1.00  0.00     0.004 C 
ENDBRANCH  16  17
ENDBRANCH  15  16
ENDBRANCH  14  15
ENDBRANCH  13  14
ENDBRANCH  12  13
ENDBRANCH  11  12
ENDBRANCH   1  11
TORSDOF 14
ENDMDL
MODEL 6
REMARK VINA RESULT:    -1.416      1.127      1.924
REMARK INTER + INTRA:          -3.536
REMARK INTER:                  -2.404
REMARK INTRA:                  -1.133
REMARK UNBOUND:                -0.961
REMARK SMILES CCCCCCCCCCCCCCCC(=O)[O-]
REMARK SMILES IDX 9 1 10 2 11 3 12 4 13 5 14 6 15 7 16 8 17 9 18 10 8 11 7 12
REMARK SMILES IDX 6 13 5 14 4 15 3 16 2 17 1 18
REMARK H PARENT
REMARK Flexibility Score: inf
ROOT
ATOM      1  C   UNL     1      -1.111   0.507  -1.806  1.00  0.00     0.000 C 
ENDROOT
BRANCH   1   2
ATOM      2  C   UNL     1      -0.342   0.349  -0.484  1.00  0.00     0.000 C 
BRANCH   2   3
ATOM      3  C   UNL     1       1.131  -0.031  -0.701  1.00  0.00     0.000 C 
BRANCH   3   4
ATOM      4  C   UNL     1       1.722   0.724  -1.898  1.00  0.00     0.000 C 
BRANCH   4   5
ATOM      5  C   UNL     1       2.805   1.714  -1.443  1.00  0.00     0.000 C 
BRANCH   5   6
ATOM      6  C   UNL     1       2.240   2.870  -0.598  1.00  0.00     0.006 C 
BRANCH   6   7
ATOM      7  C   UNL     1       3.310   3.797   0.002  1.00  0.00     0.053 C 
BRANCH   7   8
ATOM      8  C   UNL     1       3.100   5.225  -0.393  1.00  0.00     0.041 C 
ATOM      9  O   UNL     1       1.975   5.609  -0.809  1.00  0.00    -0.550 OA
ATOM     10  O   UNL     1       4.137   6.142  -0.268  1.00  0.00    -0.550 OA
ENDBRANCH   7   8
ENDBRANCH   6   7
ENDBRANCH   5   6
ENDBRANCH   4   5
ENDBRANCH   3   4
ENDBRANCH   2   3
ENDBRANCH   1   2
BRANCH   1  11
ATOM     11  C   UNL     1      -1.889  -0.763  -2.192  1.00  0.00     0.000 C 
BRANCH  11  12
ATOM     12  C   UNL     1      -2.772  -1.288  -1.050  1.00  0.00    -0.000 C 
BRANCH  12  13
ATOM     13  C   UNL     1      -3.414  -2.647  -1.377  1.00  0.00    -0.000 C 
BRANCH  13  14
ATOM     14  C   UNL     1      -3.340  -3.640  -0.204  1.00  0.00    -0.000 C 
BRANCH  14  15
ATOM     15  C   UNL     1      -2.917  -5.071  -0.586  1.00  0.00    -0.000 C 
BRANCH  15  16
ATOM     16  C   UNL     1      -1.391  -5.255  -0.725  1.00  0.00    -0.000 C 
BRANCH  16  17
ATOM     17  C   UNL     1      -0.602  -4.173   0.028  1.00  0.00    -0.003 C 
ATOM     18  C   UNL     1       0.217  -3.319  -0.935  1.00  0.00     0.004 C 
ENDBRANCH  16  17
ENDBRANCH  15  16
ENDBRANCH  14  15
ENDBRANCH  13  14
ENDBRANCH  12  13
ENDBRANCH  11  12
ENDBRANCH   1  11
TORSDOF 14
ENDMDL
MODEL 7
REMARK VINA RESULT:    -0.630      1.265      2.893
REMARK INTER + INTRA:          -2.107
REMARK INTER:                  -1.767
REMARK INTRA:                  -0.340
REMARK UNBOUND:                -0.961
REMARK SMILES CCCCCCCCCCCCCCCC(=O)[O-]
REMARK SMILES IDX 9 1 10 2 11 3 12 4 13 5 14 6 15 7 16 8 17 9 18 10 8 11 7 12
REMARK SMILES IDX 6 13 5 14 4 15 3 16 2 17 1 18
REMARK H PARENT
REMARK Flexibility Score: inf
ROOT
ATOM      1  C   UNL     1       0.168  -1.868  -0.656  1.00  0.00     0.000 C 
ENDROOT
BRANCH   1   2
ATOM      2  C   UNL     1       0.087  -0.563   0.152  1.00  0.00     0.000 C 
BRANCH   2   3
ATOM      3  C   UNL     1       0.186   0.687  -0.735  1.00  0.00     0.000 C 
BRANCH   3   4
ATOM      4  C   UNL     1       1.375   0.583  -1.699  1.00  0.00     0.000 C 
BRANCH   4   5
ATOM      5  C   UNL     1       2.671   1.060  -1.026  1.00  0.00     0.000 C 
BRANCH   5   6
ATOM      6  C   UNL     1       3.029   2.514  -1.383  1.00  0.00     0.006 C 
BRANCH   6   7
ATOM      7  C   UNL     1       2.965   3.491  -0.197  1.00  0.00     0.053 C 
BRANCH   7   8
ATOM      8  C   UNL     1       2.126   4.692  -0.503  1.00  0.00     0.041 C 
ATOM      9  O   UNL     1       0.871   4.628  -0.410  1.00  0.00    -0.550 OA
ATOM     10  O   UNL     1       2.729   5.892  -0.858  1.00  0.00    -0.550 OA
ENDBRANCH   7   8
ENDBRANCH   6   7
ENDBRANCH   5   6
ENDBRANCH   4   5
ENDBRANCH   3   4
ENDBRANCH   2   3
ENDBRANCH   1   2
BRANCH   1  11
ATOM     11  C   UNL     1      -0.395  -3.076   0.114  1.00  0.00     0.000 C 
BRANCH  11  12
ATOM     12  C   UNL     1      -0.363  -4.372  -0.711  1.00  0.00    -0.000 C 
BRANCH  12  13
ATOM     13  C   UNL     1      -1.719  -5.098  -0.720  1.00  0.00    -0.000 C 
BRANCH  13  14
ATOM     14  C   UNL     1      -2.876  -4.205  -0.238  1.00  0.00    -0.000 C 
BRANCH  14  15
ATOM     15  C   UNL     1      -3.321  -3.119  -1.235  1.00  0.00    -0.000 C 
BRANCH  15  16
ATOM     16  C   UNL     1      -3.651  -1.763  -0.575  1.00  0.00    -0.000 C 
BRANCH  16  17
ATOM     17  C   UNL     1      -2.902  -0.595  -1.235  1.00  0.00    -0.003 C 
ATOM     18  C   UNL     1      -2.175  -1.051  -2.497  1.00  0.00     0.004 C 
ENDBRANCH  16  17
ENDBRANCH  15  16
ENDBRANCH  14  15
ENDBRANCH  13  14
ENDBRANCH  12  13
ENDBRANCH  11  12
ENDBRANCH   1  11
TORSDOF 14
ENDMDL
MODEL 8
REMARK VINA RESULT:    -0.613      1.823      2.576
REMARK INTER + INTRA:          -2.076
REMARK INTER:                  -1.116
REMARK INTRA:                  -0.960
REMARK UNBOUND:                -0.961
REMARK SMILES CCCCCCCCCCCCCCCC(=O)[O-]
REMARK SMILES IDX 9 1 10 2 11 3 12 4 13 5 14 6 15 7 16 8 17 9 18 10 8 11 7 12
REMARK SMILES IDX 6 13 5 14 4 15 3 16 2 17 1 18
REMARK H PARENT
REMARK Flexibility Score: inf
ROOT
ATOM      1  C   UNL     1       0.756   0.128  -1.215  1.00  0.00     0.000 C 
ENDROOT
BRANCH   1   2
ATOM      2  C   UNL     1      -0.198   1.332  -1.256  1.00  0.00     0.000 C 
BRANCH   2   3
ATOM      3  C   UNL     1       0.074   2.340  -0.129  1.00  0.00     0.000 C 
BRANCH   3   4
ATOM      4  C   UNL     1      -0.156   3.778  -0.611  1.00  0.00     0.000 C 
BRANCH   4   5
ATOM      5  C   UNL     1       0.863   4.739   0.021  1.00  0.00     0.000 C 
BRANCH   5   6
ATOM      6  C   UNL     1       2.208   4.760  -0.727  1.00  0.00     0.006 C 
BRANCH   6   7
ATOM      7  C   UNL     1       3.270   3.812  -0.147  1.00  0.00     0.053 C 
BRANCH   7   8
ATOM      8  C   UNL     1       3.307   2.501  -0.867  1.00  0.00     0.041 C 
ATOM      9  O   UNL     1       3.004   2.440  -2.088  1.00  0.00    -0.550 OA
ATOM     10  O   UNL     1       3.709   1.350  -0.200  1.00  0.00    -0.550 OA
ENDBRANCH   7   8
ENDBRANCH   6   7
ENDBRANCH   5   6
ENDBRANCH   4   5
ENDBRANCH   3   4
ENDBRANCH   2   3
ENDBRANCH   1   2
BRANCH   1  11
ATOM     11  C   UNL     1       0.013  -1.210  -1.057  1.00  0.00     0.000 C 
BRANCH  11  12
ATOM     12  C   UNL     1      -1.479  -1.025  -0.739  1.00  0.00    -0.000 C 
BRANCH  12  13
ATOM     13  C   UNL     1      -2.391  -1.605  -1.834  1.00  0.00    -0.000 C 
BRANCH  13  14
ATOM     14  C   UNL     1      -3.566  -2.417  -1.262  1.00  0.00    -0.000 C 
BRANCH  14  15
ATOM     15  C   UNL     1      -3.196  -3.390  -0.127  1.00  0.00    -0.000 C 
BRANCH  15  16
ATOM     16  C   UNL     1      -3.280  -4.878  -0.528  1.00  0.00    -0.000 C 
BRANCH  16  17
ATOM     17  C   UNL     1      -1.916  -5.445  -0.952  1.00  0.00    -0.003 C 
ATOM     18  C   UNL     1      -0.772  -4.667  -0.308  1.00  0.00     0.004 C 
ENDBRANCH  16  17
ENDBRANCH  15  16
ENDBRANCH  14  15
ENDBRANCH  13  14
ENDBRANCH  12  13
ENDBRANCH  11  12
ENDBRANCH   1  11
TORSDOF 14
ENDMDL
MODEL 9
REMARK VINA RESULT:    -0.589      4.795      8.840
REMARK INTER + INTRA:          -2.032
REMARK INTER:                  -1.408
REMARK INTRA:                  -0.624
REMARK UNBOUND:                -0.961
REMARK SMILES CCCCCCCCCCCCCCCC(=O)[O-]
REMARK SMILES IDX 9 1 10 2 11 3 12 4 13 5 14 6 15 7 16 8 17 9 18 10 8 11 7 12
REMARK SMILES IDX 6 13 5 14 4 15 3 16 2 17 1 18
REMARK H PARENT
REMARK Flexibility Score: inf
ROOT
ATOM      1  C   UNL     1      -1.443  -0.370  -2.164  1.00  0.00     0.000 C 
ENDROOT
BRANCH   1   2
ATOM      2  C   UNL     1      -2.474  -1.165  -1.347  1.00  0.00     0.000 C 
BRANCH   2   3
ATOM      3  C   UNL     1      -1.818  -2.136  -0.354  1.00  0.00     0.000 C 
BRANCH   3   4
ATOM      4  C   UNL     1      -0.343  -2.367  -0.705  1.00  0.00     0.000 C 
BRANCH   4   5
ATOM      5  C   UNL     1      -0.050  -3.863  -0.892  1.00  0.00     0.000 C 
BRANCH   5   6
ATOM      6  C   UNL     1      -1.041  -4.765  -0.134  1.00  0.00     0.006 C 
BRANCH   6   7
ATOM      7  C   UNL     1      -2.103  -5.429  -1.026  1.00  0.00     0.053 C 
BRANCH   7   8
ATOM      8  C   UNL     1      -3.464  -5.387  -0.405  1.00  0.00     0.041 C 
ATOM      9  O   UNL     1      -3.878  -4.331   0.144  1.00  0.00    -0.550 OA
ATOM     10  O   UNL     1      -4.291  -6.502  -0.463  1.00  0.00    -0.550 OA
ENDBRANCH   7   8
ENDBRANCH   6   7
ENDBRANCH   5   6
ENDBRANCH   4   5
ENDBRANCH   3   4
ENDBRANCH   2   3
ENDBRANCH   1   2
BRANCH   1  11
ATOM     11  C   UNL     1      -1.097   0.984  -1.521  1.00  0.00     0.000 C 
BRANCH  11  12
ATOM     12  C   UNL     1       0.190   0.931  -0.683  1.00  0.00    -0.000 C 
BRANCH  12  13
ATOM     13  C   UNL     1       1.405   0.460  -1.500  1.00  0.00    -0.000 C 
BRANCH  13  14
ATOM     14  C   UNL     1       2.584   1.448  -1.439  1.00  0.00    -0.000 C 
BRANCH  14  15
ATOM     15  C   UNL     1       2.505   2.488  -0.306  1.00  0.00    -0.000 C 
BRANCH  15  16
ATOM     16  C   UNL     1       3.085   3.868  -0.684  1.00  0.00    -0.000 C 
BRANCH  16  17
ATOM     17  C   UNL     1       2.087   5.008  -0.432  1.00  0.00    -0.003 C 
ATOM     18  C   UNL     1       0.661   4.477  -0.317  1.00  0.00     0.004 C 
ENDBRANCH  16  17
ENDBRANCH  15  16
ENDBRANCH  14  15
ENDBRANCH  13  14
ENDBRANCH  12  13
ENDBRANCH  11  12
ENDBRANCH   1  11
TORSDOF 14
ENDMDL
