MODEL 1
REMARK VINA RESULT:    -4.157      0.000      0.000
REMARK INTER + INTRA:         -10.972
REMARK INTER:                  -9.017
REMARK INTRA:                  -1.955
REMARK UNBOUND:                -1.955
REMARK SMILES CCCCCCCCCCCCCCCCCCCCCC(=O)[O-]
REMARK SMILES IDX 12 1 11 2 10 3 9 4 8 5 7 6 6 7 5 8 4 9 3 10 2 11 1 12 13 13
REMARK SMILES IDX 14 14 15 15 16 16 17 17 18 18 19 19 20 20 21 21 22 22 23 23
REMARK SMILES IDX 24 24
REMARK H PARENT
REMARK Flexibility Score: inf
ROOT
ATOM      1  C   UNL     1      -4.295  -2.123   9.296  1.00  0.00     0.000 C 
ENDROOT
BRANCH   1   2
ATOM      2  C   UNL     1      -4.421  -0.793   8.525  1.00  0.00     0.000 C 
BRANCH   2   3
ATOM      3  C   UNL     1      -3.480   0.324   9.004  1.00  0.00     0.000 C 
BRANCH   3   4
ATOM      4  C   UNL     1      -2.188   0.408   8.171  1.00  0.00    -0.000 C 
BRANCH   4   5
ATOM      5  C   UNL     1      -1.060   1.149   8.907  1.00  0.00    -0.000 C 
BRANCH   5   6
ATOM      6  C   UNL     1       0.236   1.225   8.077  1.00  0.00    -0.000 C 
BRANCH   6   7
ATOM      7  C   UNL     1       1.451   0.627   8.821  1.00  0.00    -0.000 C 
BRANCH   7   8
ATOM      8  C   UNL     1       1.140  -0.687   9.565  1.00  0.00    -0.000 C 
BRANCH   8   9
ATOM      9  C   UNL     1       1.525  -1.972   8.806  1.00  0.00    -0.000 C 
BRANCH   9  10
ATOM     10  C   UNL     1       0.336  -2.787   8.251  1.00  0.00    -0.000 C 
BRANCH  10  11
ATOM     11  C   UNL     1      -0.855  -2.940   9.215  1.00  0.00    -0.003 C 
ATOM     12  C   UNL     1      -1.411  -4.363   9.254  1.00  0.00     0.004 C 
ENDBRANCH  10  11
ENDBRANCH   9  10
ENDBRANCH   8   9
ENDBRANCH   7   8
ENDBRANCH   6   7
ENDBRANCH   5   6
ENDBRANCH   4   5
ENDBRANCH   3   4
ENDBRANCH   2   3
ENDBRANCH   1   2
BRANCH   1  13
ATOM     13  C   UNL     1      -5.613  -2.599   9.942  1.00  0.00     0.000 C 
BRANCH  13  14
ATOM     14  C   UNL     1      -6.204  -3.833   9.234  1.00  0.00     0.000 C 
BRANCH  14  15
ATOM     15  C   UNL     1      -5.219  -4.475   8.242  1.00  0.00     0.000 C 
BRANCH  15  16
ATOM     16  C   UNL     1      -5.715  -5.829   7.707  1.00  0.00     0.000 C 
BRANCH  16  17
ATOM     17  C   UNL     1      -5.467  -5.942   6.195  1.00  0.00     0.000 C 
BRANCH  17  18
ATOM     18  C   UNL     1      -6.302  -4.943   5.376  1.00  0.00     0.000 C 
BRANCH  18  19
ATOM     19  C   UNL     1      -7.811  -5.256   5.311  1.00  0.00     0.000 C 
BRANCH  19  20
ATOM     20  C   UNL     1      -8.359  -5.382   3.872  1.00  0.00     0.006 C 
BRANCH  20  21
ATOM     21  C   UNL     1      -8.822  -6.808   3.547  1.00  0.00     0.053 C 
BRANCH  21  22
ATOM     22  C   UNL     1      -7.810  -7.505   2.690  1.00  0.00     0.041 C 
ATOM     23  O   UNL     1      -6.880  -8.174   3.220  1.00  0.00    -0.550 OA
ATOM     24  O   UNL     1      -7.925  -7.467   1.305  1.00  0.00    -0.550 OA
ENDBRANCH  21  22
ENDBRANCH  20  21
ENDBRANCH  19  20
ENDBRANCH  18  19
ENDBRANCH  17  18
ENDBRANCH  16  17
ENDBRANCH  15  16
ENDBRANCH  14  15
ENDBRANCH  13  14
ENDBRANCH   1  13
TORSDOF 20
ENDMDL
MODEL 2
REMARK VINA RESULT:    -4.098      6.936     12.161
REMARK INTER + INTRA:         -10.845
REMARK INTER:                  -8.273
REMARK INTRA:                  -2.572
REMARK UNBOUND:                -1.955
REMARK SMILES CCCCCCCCCCCCCCCCCCCCCC(=O)[O-]
REMARK SMILES IDX 12 1 11 2 10 3 9 4 8 5 7 6 6 7 5 8 4 9 3 10 2 11 1 12 13 13
REMARK SMILES IDX 14 14 15 15 16 16 17 17 18 18 19 19 20 20 21 21 22 22 23 23
REMARK SMILES IDX 24 24
REMARK H PARENT
REMARK Flexibility Score: inf
ROOT
ATOM      1  C   UNL     1       5.366   1.160   8.772  1.00  0.00     0.000 C 
ENDROOT
BRANCH   1   2
ATOM      2  C   UNL     1       4.489   0.642   9.930  1.00  0.00     0.000 C 
BRANCH   2   3
ATOM      3  C   UNL     1       3.742  -0.669   9.640  1.00  0.00     0.000 C 
BRANCH   3   4
ATOM      4  C   UNL     1       2.240  -0.452   9.389  1.00  0.00    -0.000 C 
BRANCH   4   5
ATOM      5  C   UNL     1       1.535  -1.724   8.889  1.00  0.00    -0.000 C 
BRANCH   5   6
ATOM      6  C   UNL     1       0.159  -1.430   8.262  1.00  0.00    -0.000 C 
BRANCH   6   7
ATOM      7  C   UNL     1       0.065  -0.001   7.682  1.00  0.00    -0.000 C 
BRANCH   7   8
ATOM      8  C   UNL     1      -1.294   0.683   7.930  1.00  0.00    -0.000 C 
BRANCH   8   9
ATOM      9  C   UNL     1      -1.768   0.681   9.396  1.00  0.00    -0.000 C 
BRANCH   9  10
ATOM     10  C   UNL     1      -3.288   0.492   9.593  1.00  0.00    -0.000 C 
BRANCH  10  11
ATOM     11  C   UNL     1      -4.003  -0.268   8.462  1.00  0.00    -0.003 C 
ATOM     12  C   UNL     1      -4.544  -1.627   8.905  1.00  0.00     0.004 C 
ENDBRANCH  10  11
ENDBRANCH   9  10
ENDBRANCH   8   9
ENDBRANCH   7   8
ENDBRANCH   6   7
ENDBRANCH   5   6
ENDBRANCH   4   5
ENDBRANCH   3   4
ENDBRANCH   2   3
ENDBRANCH   1   2
BRANCH   1  13
ATOM     13  C   UNL     1       4.671   2.213   7.883  1.00  0.00     0.000 C 
BRANCH  13  14
ATOM     14  C   UNL     1       3.572   2.986   8.636  1.00  0.00     0.000 C 
BRANCH  14  15
ATOM     15  C   UNL     1       2.232   2.994   7.883  1.00  0.00     0.000 C 
BRANCH  15  16
ATOM     16  C   UNL     1       2.126   4.151   6.875  1.00  0.00     0.000 C 
BRANCH  16  17
ATOM     17  C   UNL     1       1.914   5.489   7.600  1.00  0.00     0.000 C 
BRANCH  17  18
ATOM     18  C   UNL     1       3.072   6.477   7.380  1.00  0.00     0.000 C 
BRANCH  18  19
ATOM     19  C   UNL     1       3.903   6.234   6.104  1.00  0.00     0.000 C 
BRANCH  19  20
ATOM     20  C   UNL     1       5.323   5.690   6.379  1.00  0.00     0.006 C 
BRANCH  20  21
ATOM     21  C   UNL     1       5.771   5.937   7.825  1.00  0.00     0.053 C 
BRANCH  21  22
ATOM     22  C   UNL     1       6.954   5.079   8.160  1.00  0.00     0.041 C 
ATOM     23  O   UNL     1       7.427   5.078   9.330  1.00  0.00    -0.550 OA
ATOM     24  O   UNL     1       7.497   4.234   7.199  1.00  0.00    -0.550 OA
ENDBRANCH  21  22
ENDBRANCH  20  21
ENDBRANCH  19  20
ENDBRANCH  18  19
ENDBRANCH  17  18
ENDBRANCH  16  17
ENDBRANCH  15  16
ENDBRANCH  14  15
ENDBRANCH  13  14
ENDBRANCH   1  13
TORSDOF 20
ENDMDL
MODEL 3
REMARK VINA RESULT:    -4.073      6.315     10.092
REMARK INTER + INTRA:         -10.791
REMARK INTER:                  -7.602
REMARK INTRA:                  -3.188
REMARK UNBOUND:                -1.955
REMARK SMILES CCCCCCCCCCCCCCCCCCCCCC(=O)[O-]
REMARK SMILES IDX 12 1 11 2 10 3 9 4 8 5 7 6 6 7 5 8 4 9 3 10 2 11 1 12 13 13
REMARK SMILES IDX 14 14 15 15 16 16 17 17 18 18 19 19 20 20 21 21 22 22 23 23
REMARK SMILES IDX 24 24
REMARK H PARENT
REMARK Flexibility Score: inf
ROOT
ATOM      1  C   UNL     1      -2.014   3.537  10.027  1.00  0.00     0.000 C 
ENDROOT
BRANCH   1   2
ATOM      2  C   UNL     1      -2.783   2.269   9.603  1.00  0.00     0.000 C 
BRANCH   2   3
ATOM      3  C   UNL     1      -1.919   1.004   9.469  1.00  0.00     0.000 C 
BRANCH   3   4
ATOM      4  C   UNL     1      -1.673   0.608   8.002  1.00  0.00    -0.000 C 
BRANCH   4   5
ATOM      5  C   UNL     1      -0.184   0.386   7.693  1.00  0.00    -0.000 C 
BRANCH   5   6
ATOM      6  C   UNL     1       0.662   0.195   8.967  1.00  0.00    -0.000 C 
BRANCH   6   7
ATOM      7  C   UNL     1       1.826  -0.799   8.760  1.00  0.00    -0.000 C 
BRANCH   7   8
ATOM      8  C   UNL     1       1.490  -2.246   9.171  1.00  0.00    -0.000 C 
BRANCH   8   9
ATOM      9  C   UNL     1       0.455  -2.955   8.276  1.00  0.00    -0.000 C 
BRANCH   9  10
ATOM     10  C   UNL     1      -0.720  -3.616   9.029  1.00  0.00    -0.000 C 
BRANCH  10  11
ATOM     11  C   UNL     1      -1.631  -2.643   9.798  1.00  0.00    -0.003 C 
ATOM     12  C   UNL     1      -3.116  -2.976   9.655  1.00  0.00     0.004 C 
ENDBRANCH  10  11
ENDBRANCH   9  10
ENDBRANCH   8   9
ENDBRANCH   7   8
ENDBRANCH   6   7
ENDBRANCH   5   6
ENDBRANCH   4   5
ENDBRANCH   3   4
ENDBRANCH   2   3
ENDBRANCH   1   2
BRANCH   1  13
ATOM     13  C   UNL     1      -0.589   3.259  10.549  1.00  0.00     0.000 C 
BRANCH  13  14
ATOM     14  C   UNL     1       0.499   3.855   9.636  1.00  0.00     0.000 C 
BRANCH  14  15
ATOM     15  C   UNL     1      -0.081   4.503   8.368  1.00  0.00     0.000 C 
BRANCH  15  16
ATOM     16  C   UNL     1       0.811   4.293   7.133  1.00  0.00     0.000 C 
BRANCH  16  17
ATOM     17  C   UNL     1       2.001   3.380   7.468  1.00  0.00     0.000 C 
BRANCH  17  18
ATOM     18  C   UNL     1       3.307   3.828   6.791  1.00  0.00     0.000 C 
BRANCH  18  19
ATOM     19  C   UNL     1       4.598   3.389   7.512  1.00  0.00     0.000 C 
BRANCH  19  20
ATOM     20  C   UNL     1       4.485   2.014   8.209  1.00  0.00     0.006 C 
BRANCH  20  21
ATOM     21  C   UNL     1       5.763   1.639   8.970  1.00  0.00     0.053 C 
BRANCH  21  22
ATOM     22  C   UNL     1       5.698   0.215   9.433  1.00  0.00     0.041 C 
ATOM     23  O   UNL     1       4.811  -0.147  10.253  1.00  0.00    -0.550 OA
ATOM     24  O   UNL     1       6.579  -0.727   8.914  1.00  0.00    -0.550 OA
ENDBRANCH  21  22
ENDBRANCH  20  21
ENDBRANCH  19  20
ENDBRANCH  18  19
ENDBRANCH  17  18
ENDBRANCH  16  17
ENDBRANCH  15  16
ENDBRANCH  14  15
ENDBRANCH  13  14
ENDBRANCH   1  13
TORSDOF 20
ENDMDL
MODEL 4
REMARK VINA RESULT:    -4.056      1.770      3.086
REMARK INTER + INTRA:         -10.754
REMARK INTER:                  -8.854
REMARK INTRA:                  -1.900
REMARK UNBOUND:                -1.955
REMARK SMILES CCCCCCCCCCCCCCCCCCCCCC(=O)[O-]
REMARK SMILES IDX 12 1 11 2 10 3 9 4 8 5 7 6 6 7 5 8 4 9 3 10 2 11 1 12 13 13
REMARK SMILES IDX 14 14 15 15 16 16 17 17 18 18 19 19 20 20 21 21 22 22 23 23
REMARK SMILES IDX 24 24
REMARK H PARENT
REMARK Flexibility Score: inf
ROOT
ATOM      1  C   UNL     1      -2.427  -0.506   9.089  1.00  0.00     0.000 C 
ENDROOT
BRANCH   1   2
ATOM      2  C   UNL     1      -1.622   0.712   8.593  1.00  0.00     0.000 C 
BRANCH   2   3
ATOM      3  C   UNL     1      -0.449   0.374   7.658  1.00  0.00     0.000 C 
BRANCH   3   4
ATOM      4  C   UNL     1       0.095  -1.048   7.880  1.00  0.00    -0.000 C 
BRANCH   4   5
ATOM      5  C   UNL     1       1.314  -1.074   8.816  1.00  0.00    -0.000 C 
BRANCH   5   6
ATOM      6  C   UNL     1       1.628  -2.490   9.338  1.00  0.00    -0.000 C 
BRANCH   6   7
ATOM      7  C   UNL     1       0.452  -3.105  10.126  1.00  0.00    -0.000 C 
BRANCH   7   8
ATOM      8  C   UNL     1       0.153  -4.571   9.753  1.00  0.00    -0.000 C 
BRANCH   8   9
ATOM      9  C   UNL     1      -0.539  -4.769   8.391  1.00  0.00    -0.000 C 
BRANCH   9  10
ATOM     10  C   UNL     1       0.380  -5.277   7.258  1.00  0.00    -0.000 C 
BRANCH  10  11
ATOM     11  C   UNL     1      -0.057  -6.602   6.608  1.00  0.00    -0.003 C 
ATOM     12  C   UNL     1      -0.946  -6.401   5.381  1.00  0.00     0.004 C 
ENDBRANCH  10  11
ENDBRANCH   9  10
ENDBRANCH   8   9
ENDBRANCH   7   8
ENDBRANCH   6   7
ENDBRANCH   5   6
ENDBRANCH   4   5
ENDBRANCH   3   4
ENDBRANCH   2   3
ENDBRANCH   1   2
BRANCH   1  13
ATOM     13  C   UNL     1      -3.914  -0.483   8.676  1.00  0.00     0.000 C 
BRANCH  13  14
ATOM     14  C   UNL     1      -4.661  -1.764   9.094  1.00  0.00     0.000 C 
BRANCH  14  15
ATOM     15  C   UNL     1      -3.710  -2.887   9.536  1.00  0.00     0.000 C 
BRANCH  15  16
ATOM     16  C   UNL     1      -4.219  -4.285   9.144  1.00  0.00     0.000 C 
BRANCH  16  17
ATOM     17  C   UNL     1      -5.584  -4.191   8.443  1.00  0.00     0.000 C 
BRANCH  17  18
ATOM     18  C   UNL     1      -5.926  -5.452   7.632  1.00  0.00     0.000 C 
BRANCH  18  19
ATOM     19  C   UNL     1      -6.128  -5.219   6.121  1.00  0.00     0.000 C 
BRANCH  19  20
ATOM     20  C   UNL     1      -7.572  -5.480   5.638  1.00  0.00     0.006 C 
BRANCH  20  21
ATOM     21  C   UNL     1      -7.810  -4.973   4.210  1.00  0.00     0.053 C 
BRANCH  21  22
ATOM     22  C   UNL     1      -8.669  -5.937   3.448  1.00  0.00     0.041 C 
ATOM     23  O   UNL     1      -9.873  -6.114   3.779  1.00  0.00    -0.550 OA
ATOM     24  O   UNL     1      -8.159  -6.595   2.335  1.00  0.00    -0.550 OA
ENDBRANCH  21  22
ENDBRANCH  20  21
ENDBRANCH  19  20
ENDBRANCH  18  19
ENDBRANCH  17  18
ENDBRANCH  16  17
ENDBRANCH  15  16
ENDBRANCH  14  15
ENDBRANCH  13  14
ENDBRANCH   1  13
TORSDOF 20
ENDMDL
MODEL 5
REMARK VINA RESULT:    -4.056      8.411     11.946
REMARK INTER + INTRA:         -10.754
REMARK INTER:                  -7.063
REMARK INTRA:                  -3.691
REMARK UNBOUND:                -1.955
REMARK SMILES CCCCCCCCCCCCCCCCCCCCCC(=O)[O-]
REMARK SMILES IDX 12 1 11 2 10 3 9 4 8 5 7 6 6 7 5 8 4 9 3 10 2 11 1 12 13 13
REMARK SMILES IDX 14 14 15 15 16 16 17 17 18 18 19 19 20 20 21 21 22 22 23 23
REMARK SMILES IDX 24 24
REMARK H PARENT
REMARK Flexibility Score: inf
ROOT
ATOM      1  C   UNL     1       3.151   5.510   8.492  1.00  0.00     0.000 C 
ENDROOT
BRANCH   1   2
ATOM      2  C   UNL     1       3.156   4.822   7.113  1.00  0.00     0.000 C 
BRANCH   2   3
ATOM      3  C   UNL     1       2.107   3.710   6.941  1.00  0.00     0.000 C 
BRANCH   3   4
ATOM      4  C   UNL     1       0.669   4.215   7.153  1.00  0.00    -0.000 C 
BRANCH   4   5
ATOM      5  C   UNL     1       0.004   3.596   8.393  1.00  0.00    -0.000 C 
BRANCH   5   6
ATOM      6  C   UNL     1       0.431   2.133   8.625  1.00  0.00    -0.000 C 
BRANCH   6   7
ATOM      7  C   UNL     1      -0.450   1.130   7.850  1.00  0.00    -0.000 C 
BRANCH   7   8
ATOM      8  C   UNL     1       0.054  -0.326   7.920  1.00  0.00    -0.000 C 
BRANCH   8   9
ATOM      9  C   UNL     1       1.171  -0.579   8.951  1.00  0.00    -0.000 C 
BRANCH   9  10
ATOM     10  C   UNL     1       1.325  -2.048   9.403  1.00  0.00    -0.000 C 
BRANCH  10  11
ATOM     11  C   UNL     1       2.758  -2.606   9.328  1.00  0.00    -0.003 C 
ATOM     12  C   UNL     1       3.683  -2.019  10.394  1.00  0.00     0.004 C 
ENDBRANCH  10  11
ENDBRANCH   9  10
ENDBRANCH   8   9
ENDBRANCH   7   8
ENDBRANCH   6   7
ENDBRANCH   5   6
ENDBRANCH   4   5
ENDBRANCH   3   4
ENDBRANCH   2   3
ENDBRANCH   1   2
BRANCH   1  13
ATOM     13  C   UNL     1       4.498   5.423   9.240  1.00  0.00     0.000 C 
BRANCH  13  14
ATOM     14  C   UNL     1       4.409   4.566  10.516  1.00  0.00     0.000 C 
BRANCH  14  15
ATOM     15  C   UNL     1       3.005   3.984  10.742  1.00  0.00     0.000 C 
BRANCH  15  16
ATOM     16  C   UNL     1       3.028   2.471  11.021  1.00  0.00     0.000 C 
BRANCH  16  17
ATOM     17  C   UNL     1       4.282   1.823  10.413  1.00  0.00     0.000 C 
BRANCH  17  18
ATOM     18  C   UNL     1       4.094   1.423   8.941  1.00  0.00     0.000 C 
BRANCH  18  19
ATOM     19  C   UNL     1       5.221   1.880   7.992  1.00  0.00     0.000 C 
BRANCH  19  20
ATOM     20  C   UNL     1       6.640   1.684   8.571  1.00  0.00     0.006 C 
BRANCH  20  21
ATOM     21  C   UNL     1       7.364   3.015   8.805  1.00  0.00     0.053 C 
BRANCH  21  22
ATOM     22  C   UNL     1       7.787   3.618   7.499  1.00  0.00     0.041 C 
ATOM     23  O   UNL     1       8.610   3.014   6.757  1.00  0.00    -0.550 OA
ATOM     24  O   UNL     1       7.229   4.817   7.071  1.00  0.00    -0.550 OA
ENDBRANCH  21  22
ENDBRANCH  20  21
ENDBRANCH  19  20
ENDBRANCH  18  19
ENDBRANCH  17  18
ENDBRANCH  16  17
ENDBRANCH  15  16
ENDBRANCH  14  15
ENDBRANCH  13  14
ENDBRANCH   1  13
TORSDOF 20
ENDMDL
MODEL 6
REMARK VINA RESULT:    -4.049      1.906      4.492
REMARK INTER + INTRA:         -10.738
REMARK INTER:                  -8.270
REMARK INTRA:                  -2.467
REMARK UNBOUND:                -1.955
REMARK SMILES CCCCCCCCCCCCCCCCCCCCCC(=O)[O-]
REMARK SMILES IDX 12 1 11 2 10 3 9 4 8 5 7 6 6 7 5 8 4 9 3 10 2 11 1 12 13 13
REMARK SMILES IDX 14 14 15 15 16 16 17 17 18 18 19 19 20 20 21 21 22 22 23 23
REMARK SMILES IDX 24 24
REMARK H PARENT
REMARK Flexibility Score: inf
ROOT
ATOM      1  C   UNL     1      -1.213   0.556   8.075  1.00  0.00     0.000 C 
ENDROOT
BRANCH   1   2
ATOM      2  C   UNL     1       0.015  -0.274   7.652  1.00  0.00     0.000 C 
BRANCH   2   3
ATOM      3  C   UNL     1       0.944  -0.689   8.805  1.00  0.00     0.000 C 
BRANCH   3   4
ATOM      4  C   UNL     1       1.242  -2.199   8.811  1.00  0.00    -0.000 C 
BRANCH   4   5
ATOM      5  C   UNL     1       0.124  -3.024   8.153  1.00  0.00    -0.000 C 
BRANCH   5   6
ATOM      6  C   UNL     1      -0.850  -3.627   9.184  1.00  0.00    -0.000 C 
BRANCH   6   7
ATOM      7  C   UNL     1      -0.860  -5.171   9.155  1.00  0.00    -0.000 C 
BRANCH   7   8
ATOM      8  C   UNL     1      -2.234  -5.778   8.808  1.00  0.00    -0.000 C 
BRANCH   8   9
ATOM      9  C   UNL     1      -2.196  -6.942   7.800  1.00  0.00    -0.000 C 
BRANCH   9  10
ATOM     10  C   UNL     1      -1.993  -6.527   6.326  1.00  0.00    -0.000 C 
BRANCH  10  11
ATOM     11  C   UNL     1      -0.667  -6.987   5.696  1.00  0.00    -0.003 C 
ATOM     12  C   UNL     1       0.422  -5.915   5.747  1.00  0.00     0.004 C 
ENDBRANCH  10  11
ENDBRANCH   9  10
ENDBRANCH   8   9
ENDBRANCH   7   8
ENDBRANCH   6   7
ENDBRANCH   5   6
ENDBRANCH   4   5
ENDBRANCH   3   4
ENDBRANCH   2   3
ENDBRANCH   1   2
BRANCH   1  13
ATOM     13  C   UNL     1      -2.200  -0.206   8.985  1.00  0.00     0.000 C 
BRANCH  13  14
ATOM     14  C   UNL     1      -3.654   0.269   8.805  1.00  0.00     0.000 C 
BRANCH  14  15
ATOM     15  C   UNL     1      -4.653  -0.897   8.728  1.00  0.00     0.000 C 
BRANCH  15  16
ATOM     16  C   UNL     1      -4.164  -2.148   9.477  1.00  0.00     0.000 C 
BRANCH  16  17
ATOM     17  C   UNL     1      -5.297  -3.174   9.624  1.00  0.00     0.000 C 
BRANCH  17  18
ATOM     18  C   UNL     1      -5.452  -4.075   8.386  1.00  0.00     0.000 C 
BRANCH  18  19
ATOM     19  C   UNL     1      -6.776  -4.862   8.315  1.00  0.00     0.000 C 
BRANCH  19  20
ATOM     20  C   UNL     1      -7.130  -5.359   6.895  1.00  0.00     0.006 C 
BRANCH  20  21
ATOM     21  C   UNL     1      -5.968  -5.183   5.910  1.00  0.00     0.053 C 
BRANCH  21  22
ATOM     22  C   UNL     1      -6.083  -6.165   4.783  1.00  0.00     0.041 C 
ATOM     23  O   UNL     1      -7.144  -6.232   4.104  1.00  0.00    -0.550 OA
ATOM     24  O   UNL     1      -4.998  -6.964   4.442  1.00  0.00    -0.550 OA
ENDBRANCH  21  22
ENDBRANCH  20  21
ENDBRANCH  19  20
ENDBRANCH  18  19
ENDBRANCH  17  18
ENDBRANCH  16  17
ENDBRANCH  15  16
ENDBRANCH  14  15
ENDBRANCH  13  14
ENDBRANCH   1  13
TORSDOF 20
ENDMDL
MODEL 7
REMARK VINA RESULT:    -4.028      6.900     11.306
REMARK INTER + INTRA:         -10.693
REMARK INTER:                  -7.907
REMARK INTRA:                  -2.786
REMARK UNBOUND:                -1.955
REMARK SMILES CCCCCCCCCCCCCCCCCCCCCC(=O)[O-]
REMARK SMILES IDX 12 1 11 2 10 3 9 4 8 5 7 6 6 7 5 8 4 9 3 10 2 11 1 12 13 13
REMARK SMILES IDX 14 14 15 15 16 16 17 17 18 18 19 19 20 20 21 21 22 22 23 23
REMARK SMILES IDX 24 24
REMARK H PARENT
REMARK Flexibility Score: inf
ROOT
ATOM      1  C   UNL     1       1.161   2.034  10.581  1.00  0.00     0.000 C 
ENDROOT
BRANCH   1   2
ATOM      2  C   UNL     1       2.579   1.615  10.145  1.00  0.00     0.000 C 
BRANCH   2   3
ATOM      3  C   UNL     1       2.629   0.456   9.136  1.00  0.00     0.000 C 
BRANCH   3   4
ATOM      4  C   UNL     1       1.874  -0.791   9.628  1.00  0.00    -0.000 C 
BRANCH   4   5
ATOM      5  C   UNL     1       1.018  -1.436   8.525  1.00  0.00    -0.000 C 
BRANCH   5   6
ATOM      6  C   UNL     1      -0.061  -0.481   7.980  1.00  0.00    -0.000 C 
BRANCH   6   7
ATOM      7  C   UNL     1      -1.241  -0.300   8.960  1.00  0.00    -0.000 C 
BRANCH   7   8
ATOM      8  C   UNL     1      -2.348   0.636   8.436  1.00  0.00    -0.000 C 
BRANCH   8   9
ATOM      9  C   UNL     1      -3.762   0.336   8.971  1.00  0.00    -0.000 C 
BRANCH   9  10
ATOM     10  C   UNL     1      -4.388  -0.982   8.466  1.00  0.00    -0.000 C 
BRANCH  10  11
ATOM     11  C   UNL     1      -4.468  -2.108   9.514  1.00  0.00    -0.003 C 
ATOM     12  C   UNL     1      -5.633  -1.933  10.489  1.00  0.00     0.004 C 
ENDBRANCH  10  11
ENDBRANCH   9  10
ENDBRANCH   8   9
ENDBRANCH   7   8
ENDBRANCH   6   7
ENDBRANCH   5   6
ENDBRANCH   4   5
ENDBRANCH   3   4
ENDBRANCH   2   3
ENDBRANCH   1   2
BRANCH   1  13
ATOM     13  C   UNL     1       0.772   3.465  10.153  1.00  0.00     0.000 C 
BRANCH  13  14
ATOM     14  C   UNL     1      -0.269   3.478   9.018  1.00  0.00     0.000 C 
BRANCH  14  15
ATOM     15  C   UNL     1       0.357   3.236   7.636  1.00  0.00     0.000 C 
BRANCH  15  16
ATOM     16  C   UNL     1       1.379   4.319   7.249  1.00  0.00     0.000 C 
BRANCH  16  17
ATOM     17  C   UNL     1       2.770   3.704   7.030  1.00  0.00     0.000 C 
BRANCH  17  18
ATOM     18  C   UNL     1       3.824   4.743   6.614  1.00  0.00     0.000 C 
BRANCH  18  19
ATOM     19  C   UNL     1       5.210   4.563   7.266  1.00  0.00     0.000 C 
BRANCH  19  20
ATOM     20  C   UNL     1       5.285   3.373   8.250  1.00  0.00     0.006 C 
BRANCH  20  21
ATOM     21  C   UNL     1       6.081   2.194   7.678  1.00  0.00     0.053 C 
BRANCH  21  22
ATOM     22  C   UNL     1       7.550   2.402   7.890  1.00  0.00     0.041 C 
ATOM     23  O   UNL     1       8.110   1.973   8.936  1.00  0.00    -0.550 OA
ATOM     24  O   UNL     1       8.315   3.017   6.905  1.00  0.00    -0.550 OA
ENDBRANCH  21  22
ENDBRANCH  20  21
ENDBRANCH  19  20
ENDBRANCH  18  19
ENDBRANCH  17  18
ENDBRANCH  16  17
ENDBRANCH  15  16
ENDBRANCH  14  15
ENDBRANCH  13  14
ENDBRANCH   1  13
TORSDOF 20
ENDMDL
MODEL 8
REMARK VINA RESULT:    -4.001      6.691     11.028
REMARK INTER + INTRA:         -10.634
REMARK INTER:                  -7.496
REMARK INTRA:                  -3.139
REMARK UNBOUND:                -1.955
REMARK SMILES CCCCCCCCCCCCCCCCCCCCCC(=O)[O-]
REMARK SMILES IDX 12 1 11 2 10 3 9 4 8 5 7 6 6 7 5 8 4 9 3 10 2 11 1 12 13 13
REMARK SMILES IDX 14 14 15 15 16 16 17 17 18 18 19 19 20 20 21 21 22 22 23 23
REMARK SMILES IDX 24 24
REMARK H PARENT
REMARK Flexibility Score: inf
ROOT
ATOM      1  C   UNL     1       1.776  -1.772   8.782  1.00  0.00     0.000 C 
ENDROOT
BRANCH   1   2
ATOM      2  C   UNL     1       0.300  -2.196   8.925  1.00  0.00     0.000 C 
BRANCH   2   3
ATOM      3  C   UNL     1      -0.719  -1.058   8.746  1.00  0.00     0.000 C 
BRANCH   3   4
ATOM      4  C   UNL     1      -0.246   0.008   7.742  1.00  0.00    -0.000 C 
BRANCH   4   5
ATOM      5  C   UNL     1      -0.469   1.440   8.255  1.00  0.00    -0.000 C 
BRANCH   5   6
ATOM      6  C   UNL     1      -0.174   1.582   9.761  1.00  0.00    -0.000 C 
BRANCH   6   7
ATOM      7  C   UNL     1      -1.399   2.077  10.560  1.00  0.00    -0.000 C 
BRANCH   7   8
ATOM      8  C   UNL     1      -2.651   2.318   9.693  1.00  0.00    -0.000 C 
BRANCH   8   9
ATOM      9  C   UNL     1      -3.924   1.594  10.171  1.00  0.00    -0.000 C 
BRANCH   9  10
ATOM     10  C   UNL     1      -4.818   1.028   9.046  1.00  0.00    -0.000 C 
BRANCH  10  11
ATOM     11  C   UNL     1      -4.204  -0.136   8.249  1.00  0.00    -0.003 C 
ATOM     12  C   UNL     1      -4.418  -1.494   8.916  1.00  0.00     0.004 C 
ENDBRANCH  10  11
ENDBRANCH   9  10
ENDBRANCH   8   9
ENDBRANCH   7   8
ENDBRANCH   6   7
ENDBRANCH   5   6
ENDBRANCH   4   5
ENDBRANCH   3   4
ENDBRANCH   2   3
ENDBRANCH   1   2
BRANCH   1  13
ATOM     13  C   UNL     1       2.405  -1.248  10.090  1.00  0.00     0.000 C 
BRANCH  13  14
ATOM     14  C   UNL     1       3.928  -1.046   9.971  1.00  0.00     0.000 C 
BRANCH  14  15
ATOM     15  C   UNL     1       4.411   0.241  10.659  1.00  0.00     0.000 C 
BRANCH  15  16
ATOM     16  C   UNL     1       3.278   1.259  10.875  1.00  0.00     0.000 C 
BRANCH  16  17
ATOM     17  C   UNL     1       3.538   2.543  10.073  1.00  0.00     0.000 C 
BRANCH  17  18
ATOM     18  C   UNL     1       3.134   2.415   8.594  1.00  0.00     0.000 C 
BRANCH  18  19
ATOM     19  C   UNL     1       4.289   2.589   7.587  1.00  0.00     0.000 C 
BRANCH  19  20
ATOM     20  C   UNL     1       5.675   2.752   8.250  1.00  0.00     0.006 C 
BRANCH  20  21
ATOM     21  C   UNL     1       6.628   1.603   7.900  1.00  0.00     0.053 C 
BRANCH  21  22
ATOM     22  C   UNL     1       7.532   1.301   9.057  1.00  0.00     0.041 C 
ATOM     23  O   UNL     1       7.956   2.233   9.794  1.00  0.00    -0.550 OA
ATOM     24  O   UNL     1       7.859  -0.016   9.361  1.00  0.00    -0.550 OA
ENDBRANCH  21  22
ENDBRANCH  20  21
ENDBRANCH  19  20
ENDBRANCH  18  19
ENDBRANCH  17  18
ENDBRANCH  16  17
ENDBRANCH  15  16
ENDBRANCH  14  15
ENDBRANCH  13  14
ENDBRANCH   1  13
TORSDOF 20
ENDMDL
MODEL 9
REMARK VINA RESULT:    -3.997      6.188     10.068
REMARK INTER + INTRA:         -10.625
REMARK INTER:                  -7.388
REMARK INTRA:                  -3.237
REMARK UNBOUND:                -1.955
REMARK SMILES CCCCCCCCCCCCCCCCCCCCCC(=O)[O-]
REMARK SMILES IDX 12 1 11 2 10 3 9 4 8 5 7 6 6 7 5 8 4 9 3 10 2 11 1 12 13 13
REMARK SMILES IDX 14 14 15 15 16 16 17 17 18 18 19 19 20 20 21 21 22 22 23 23
REMARK SMILES IDX 24 24
REMARK H PARENT
REMARK Flexibility Score: inf
ROOT
ATOM      1  C   UNL     1       1.897  -1.266   9.833  1.00  0.00     0.000 C 
ENDROOT
BRANCH   1   2
ATOM      2  C   UNL     1       1.216  -2.192   8.805  1.00  0.00     0.000 C 
BRANCH   2   3
ATOM      3  C   UNL     1       0.084  -1.538   7.996  1.00  0.00     0.000 C 
BRANCH   3   4
ATOM      4  C   UNL     1       0.207  -0.005   7.937  1.00  0.00    -0.000 C 
BRANCH   4   5
ATOM      5  C   UNL     1      -1.161   0.695   7.894  1.00  0.00    -0.000 C 
BRANCH   5   6
ATOM      6  C   UNL     1      -1.337   1.719   9.032  1.00  0.00    -0.000 C 
BRANCH   6   7
ATOM      7  C   UNL     1      -0.723   1.236  10.364  1.00  0.00    -0.000 C 
BRANCH   7   8
ATOM      8  C   UNL     1      -1.746   0.596  11.324  1.00  0.00    -0.000 C 
BRANCH   8   9
ATOM      9  C   UNL     1      -2.087  -0.877  11.028  1.00  0.00    -0.000 C 
BRANCH   9  10
ATOM     10  C   UNL     1      -3.593  -1.185  10.886  1.00  0.00    -0.000 C 
BRANCH  10  11
ATOM     11  C   UNL     1      -4.353  -0.286   9.894  1.00  0.00    -0.003 C 
ATOM     12  C   UNL     1      -4.353  -0.836   8.469  1.00  0.00     0.004 C 
ENDBRANCH  10  11
ENDBRANCH   9  10
ENDBRANCH   8   9
ENDBRANCH   7   8
ENDBRANCH   6   7
ENDBRANCH   5   6
ENDBRANCH   4   5
ENDBRANCH   3   4
ENDBRANCH   2   3
ENDBRANCH   1   2
BRANCH   1  13
ATOM     13  C   UNL     1       3.435  -1.385   9.860  1.00  0.00     0.000 C 
BRANCH  13  14
ATOM     14  C   UNL     1       4.132  -0.012   9.822  1.00  0.00     0.000 C 
BRANCH  14  15
ATOM     15  C   UNL     1       3.296   1.057   9.100  1.00  0.00     0.000 C 
BRANCH  15  16
ATOM     16  C   UNL     1       2.862   2.200  10.034  1.00  0.00     0.000 C 
BRANCH  16  17
ATOM     17  C   UNL     1       2.131   3.299   9.247  1.00  0.00     0.000 C 
BRANCH  17  18
ATOM     18  C   UNL     1       2.056   3.005   7.739  1.00  0.00     0.000 C 
BRANCH  18  19
ATOM     19  C   UNL     1       2.559   4.142   6.827  1.00  0.00     0.000 C 
BRANCH  19  20
ATOM     20  C   UNL     1       1.729   5.441   6.936  1.00  0.00     0.006 C 
BRANCH  20  21
ATOM     21  C   UNL     1       0.271   5.239   6.503  1.00  0.00     0.053 C 
BRANCH  21  22
ATOM     22  C   UNL     1      -0.249   6.470   5.825  1.00  0.00     0.041 C 
ATOM     23  O   UNL     1       0.085   7.614   6.240  1.00  0.00    -0.550 OA
ATOM     24  O   UNL     1      -1.055   6.357   4.698  1.00  0.00    -0.550 OA
ENDBRANCH  21  22
ENDBRANCH  20  21
ENDBRANCH  19  20
ENDBRANCH  18  19
ENDBRANCH  17  18
ENDBRANCH  16  17
ENDBRANCH  15  16
ENDBRANCH  14  15
ENDBRANCH  13  14
ENDBRANCH   1  13
TORSDOF 20
ENDMDL
