MODEL 1
REMARK VINA RESULT:    -3.761      0.000      0.000
REMARK INTER + INTRA:          -9.128
REMARK INTER:                  -6.839
REMARK INTRA:                  -2.289
REMARK UNBOUND:                -2.289
REMARK SMILES CCCCCC=CCC=CCCCCCCCC(=O)[O-]
REMARK SMILES IDX 11 1 12 2 13 3 14 4 15 5 16 6 17 7 18 8 19 9 20 10 10 11
REMARK SMILES IDX 9 12 8 13 7 14 6 15 5 16 4 17 3 18 2 19 1 20
REMARK H PARENT
REMARK Flexibility Score: inf
ROOT
ATOM      1  C   UNL     1       6.330  -5.735   0.364  1.00  0.00     0.027 C 
ENDROOT
BRANCH   1   2
ATOM      2  C   UNL     1       7.327  -5.166  -0.664  1.00  0.00     0.004 C 
BRANCH   2   3
ATOM      3  C   UNL     1       6.663  -4.383  -1.811  1.00  0.00     0.000 C 
BRANCH   3   4
ATOM      4  C   UNL     1       7.342  -4.613  -3.170  1.00  0.00     0.000 C 
BRANCH   4   5
ATOM      5  C   UNL     1       7.919  -6.030  -3.263  1.00  0.00     0.000 C 
BRANCH   5   6
ATOM      6  C   UNL     1       6.910  -6.995  -3.905  1.00  0.00     0.006 C 
BRANCH   6   7
ATOM      7  C   UNL     1       7.216  -8.461  -3.574  1.00  0.00     0.053 C 
BRANCH   7   8
ATOM      8  C   UNL     1       6.601  -9.396  -4.569  1.00  0.00     0.041 C 
ATOM      9  O   UNL     1       6.529  -9.072  -5.784  1.00  0.00    -0.550 OA
ATOM     10  O   UNL     1       6.138 -10.641  -4.160  1.00  0.00    -0.550 OA
ENDBRANCH   7   8
ENDBRANCH   6   7
ENDBRANCH   5   6
ENDBRANCH   4   5
ENDBRANCH   3   4
ENDBRANCH   2   3
ENDBRANCH   1   2
BRANCH   1  11
ATOM     11  C   UNL     1       5.880  -7.132   0.031  1.00  0.00    -0.031 C 
ATOM     12  C   UNL     1       4.859  -7.364  -0.808  1.00  0.00    -0.027 C 
BRANCH  12  13
ATOM     13  C   UNL     1       4.416  -8.763  -1.135  1.00  0.00     0.054 C 
BRANCH  13  14
ATOM     14  C   UNL     1       3.531  -9.318  -0.054  1.00  0.00    -0.027 C 
ATOM     15  C   UNL     1       2.536  -8.593   0.479  1.00  0.00    -0.031 C 
BRANCH  15  16
ATOM     16  C   UNL     1       1.645  -9.150   1.554  1.00  0.00     0.027 C 
BRANCH  16  17
ATOM     17  C   UNL     1       1.392  -8.108   2.654  1.00  0.00     0.004 C 
BRANCH  17  18
ATOM     18  C   UNL     1       2.460  -6.999   2.683  1.00  0.00     0.000 C 
BRANCH  18  19
ATOM     19  C   UNL     1       3.480  -7.116   3.829  1.00  0.00    -0.003 C 
ATOM     20  C   UNL     1       4.767  -7.831   3.414  1.00  0.00     0.004 C 
ENDBRANCH  18  19
ENDBRANCH  17  18
ENDBRANCH  16  17
ENDBRANCH  15  16
ENDBRANCH  13  14
ENDBRANCH  12  13
ENDBRANCH   1  11
TORSDOF 14
ENDMDL
MODEL 2
REMARK VINA RESULT:    -3.715      2.220      3.393
REMARK INTER + INTRA:          -9.044
REMARK INTER:                  -6.706
REMARK INTRA:                  -2.338
REMARK UNBOUND:                -2.289
REMARK SMILES CCCCCC=CCC=CCCCCCCCC(=O)[O-]
REMARK SMILES IDX 11 1 12 2 13 3 14 4 15 5 16 6 17 7 18 8 19 9 20 10 10 11
REMARK SMILES IDX 9 12 8 13 7 14 6 15 5 16 4 17 3 18 2 19 1 20
REMARK H PARENT
REMARK Flexibility Score: inf
ROOT
ATOM      1  C   UNL     1       6.239  -4.343  -1.233  1.00  0.00     0.027 C 
ENDROOT
BRANCH   1   2
ATOM      2  C   UNL     1       7.033  -4.378  -2.553  1.00  0.00     0.004 C 
BRANCH   2   3
ATOM      3  C   UNL     1       8.063  -5.519  -2.632  1.00  0.00     0.000 C 
BRANCH   3   4
ATOM      4  C   UNL     1       7.560  -6.732  -3.429  1.00  0.00     0.000 C 
BRANCH   4   5
ATOM      5  C   UNL     1       6.986  -7.804  -2.495  1.00  0.00     0.000 C 
BRANCH   5   6
ATOM      6  C   UNL     1       5.450  -7.759  -2.484  1.00  0.00     0.006 C 
BRANCH   6   7
ATOM      7  C   UNL     1       4.845  -8.837  -1.576  1.00  0.00     0.053 C 
BRANCH   7   8
ATOM      8  C   UNL     1       3.722  -8.297  -0.743  1.00  0.00     0.041 C 
ATOM      9  O   UNL     1       3.504  -7.057  -0.701  1.00  0.00    -0.550 OA
ATOM     10  O   UNL     1       2.896  -9.166  -0.041  1.00  0.00    -0.550 OA
ENDBRANCH   7   8
ENDBRANCH   6   7
ENDBRANCH   5   6
ENDBRANCH   4   5
ENDBRANCH   3   4
ENDBRANCH   2   3
ENDBRANCH   1   2
BRANCH   1  11
ATOM     11  C   UNL     1       6.978  -4.980  -0.088  1.00  0.00    -0.031 C 
ATOM     12  C   UNL     1       6.401  -5.900   0.700  1.00  0.00    -0.027 C 
BRANCH  12  13
ATOM     13  C   UNL     1       7.147  -6.532   1.843  1.00  0.00     0.054 C 
BRANCH  13  14
ATOM     14  C   UNL     1       6.250  -7.431   2.644  1.00  0.00    -0.027 C 
ATOM     15  C   UNL     1       5.781  -8.583   2.141  1.00  0.00    -0.031 C 
BRANCH  15  16
ATOM     16  C   UNL     1       4.890  -9.488   2.946  1.00  0.00     0.027 C 
BRANCH  16  17
ATOM     17  C   UNL     1       3.987  -8.676   3.887  1.00  0.00     0.004 C 
BRANCH  17  18
ATOM     18  C   UNL     1       2.494  -8.793   3.532  1.00  0.00     0.000 C 
BRANCH  18  19
ATOM     19  C   UNL     1       1.902  -7.565   2.819  1.00  0.00    -0.003 C 
ATOM     20  C   UNL     1       2.708  -6.288   3.057  1.00  0.00     0.004 C 
ENDBRANCH  18  19
ENDBRANCH  17  18
ENDBRANCH  16  17
ENDBRANCH  15  16
ENDBRANCH  13  14
ENDBRANCH  12  13
ENDBRANCH   1  11
TORSDOF 14
ENDMDL
MODEL 3
REMARK VINA RESULT:    -3.705      2.391      6.576
REMARK INTER + INTRA:          -9.026
REMARK INTER:                  -7.072
REMARK INTRA:                  -1.955
REMARK UNBOUND:                -2.289
REMARK SMILES CCCCCC=CCC=CCCCCCCCC(=O)[O-]
REMARK SMILES IDX 11 1 12 2 13 3 14 4 15 5 16 6 17 7 18 8 19 9 20 10 10 11
REMARK SMILES IDX 9 12 8 13 7 14 6 15 5 16 4 17 3 18 2 19 1 20
REMARK H PARENT
REMARK Flexibility Score: inf
ROOT
ATOM      1  C   UNL     1       1.724  -8.133   1.409  1.00  0.00     0.027 C 
ENDROOT
BRANCH   1   2
ATOM      2  C   UNL     1       2.424  -7.922   2.765  1.00  0.00     0.004 C 
BRANCH   2   3
ATOM      3  C   UNL     1       3.456  -6.780   2.766  1.00  0.00     0.000 C 
BRANCH   3   4
ATOM      4  C   UNL     1       4.891  -7.264   3.025  1.00  0.00     0.000 C 
BRANCH   4   5
ATOM      5  C   UNL     1       5.912  -6.361   2.323  1.00  0.00     0.000 C 
BRANCH   5   6
ATOM      6  C   UNL     1       6.134  -6.807   0.869  1.00  0.00     0.006 C 
BRANCH   6   7
ATOM      7  C   UNL     1       5.439  -5.879  -0.135  1.00  0.00     0.053 C 
BRANCH   7   8
ATOM      8  C   UNL     1       6.425  -5.058  -0.908  1.00  0.00     0.041 C 
ATOM      9  O   UNL     1       7.661  -5.261  -0.775  1.00  0.00    -0.550 OA
ATOM     10  O   UNL     1       5.978  -4.091  -1.800  1.00  0.00    -0.550 OA
ENDBRANCH   7   8
ENDBRANCH   6   7
ENDBRANCH   5   6
ENDBRANCH   4   5
ENDBRANCH   3   4
ENDBRANCH   2   3
ENDBRANCH   1   2
BRANCH   1  11
ATOM     11  C   UNL     1       2.678  -8.526   0.313  1.00  0.00    -0.031 C 
ATOM     12  C   UNL     1       3.407  -9.650   0.381  1.00  0.00    -0.027 C 
BRANCH  12  13
ATOM     13  C   UNL     1       4.358 -10.035  -0.718  1.00  0.00     0.054 C 
BRANCH  13  14
ATOM     14  C   UNL     1       4.602  -8.884  -1.652  1.00  0.00    -0.027 C 
ATOM     15  C   UNL     1       5.592  -8.913  -2.557  1.00  0.00    -0.031 C 
BRANCH  15  16
ATOM     16  C   UNL     1       5.832  -7.764  -3.497  1.00  0.00     0.027 C 
BRANCH  16  17
ATOM     17  C   UNL     1       6.459  -8.251  -4.812  1.00  0.00     0.004 C 
BRANCH  17  18
ATOM     18  C   UNL     1       6.627  -9.780  -4.863  1.00  0.00     0.000 C 
BRANCH  18  19
ATOM     19  C   UNL     1       7.352 -10.309  -6.113  1.00  0.00    -0.003 C 
ATOM     20  C   UNL     1       6.451 -10.376  -7.346  1.00  0.00     0.004 C 
ENDBRANCH  18  19
ENDBRANCH  17  18
ENDBRANCH  16  17
ENDBRANCH  15  16
ENDBRANCH  13  14
ENDBRANCH  12  13
ENDBRANCH   1  11
TORSDOF 14
ENDMDL
MODEL 4
REMARK VINA RESULT:    -3.691     17.675     19.740
REMARK INTER + INTRA:          -9.001
REMARK INTER:                  -6.829
REMARK INTRA:                  -2.172
REMARK UNBOUND:                -2.289
REMARK SMILES CCCCCC=CCC=CCCCCCCCC(=O)[O-]
REMARK SMILES IDX 11 1 12 2 13 3 14 4 15 5 16 6 17 7 18 8 19 9 20 10 10 11
REMARK SMILES IDX 9 12 8 13 7 14 6 15 5 16 4 17 3 18 2 19 1 20
REMARK H PARENT
REMARK Flexibility Score: inf
ROOT
ATOM      1  C   UNL     1      -7.649   4.387  -0.104  1.00  0.00     0.027 C 
ENDROOT
BRANCH   1   2
ATOM      2  C   UNL     1      -8.870   5.031  -0.789  1.00  0.00     0.004 C 
BRANCH   2   3
ATOM      3  C   UNL     1      -9.949   5.524   0.193  1.00  0.00     0.000 C 
BRANCH   3   4
ATOM      4  C   UNL     1     -11.183   4.610   0.242  1.00  0.00     0.000 C 
BRANCH   4   5
ATOM      5  C   UNL     1     -11.220   3.671  -0.970  1.00  0.00     0.000 C 
BRANCH   5   6
ATOM      6  C   UNL     1     -11.053   2.206  -0.537  1.00  0.00     0.006 C 
BRANCH   6   7
ATOM      7  C   UNL     1     -11.534   1.224  -1.613  1.00  0.00     0.053 C 
BRANCH   7   8
ATOM      8  C   UNL     1     -10.749   1.360  -2.882  1.00  0.00     0.041 C 
ATOM      9  O   UNL     1      -9.571   0.920  -2.949  1.00  0.00    -0.550 OA
ATOM     10  O   UNL     1     -11.331   1.942  -4.001  1.00  0.00    -0.550 OA
ENDBRANCH   7   8
ENDBRANCH   6   7
ENDBRANCH   5   6
ENDBRANCH   4   5
ENDBRANCH   3   4
ENDBRANCH   2   3
ENDBRANCH   1   2
BRANCH   1  11
ATOM     11  C   UNL     1      -7.875   4.112   1.358  1.00  0.00    -0.031 C 
ATOM     12  C   UNL     1      -8.309   2.920   1.794  1.00  0.00    -0.027 C 
BRANCH  12  13
ATOM     13  C   UNL     1      -8.532   2.653   3.256  1.00  0.00     0.054 C 
BRANCH  13  14
ATOM     14  C   UNL     1      -9.282   3.782   3.905  1.00  0.00    -0.027 C 
ATOM     15  C   UNL     1     -10.621   3.853   3.859  1.00  0.00    -0.031 C 
BRANCH  15  16
ATOM     16  C   UNL     1     -11.372   4.979   4.515  1.00  0.00     0.027 C 
BRANCH  16  17
ATOM     17  C   UNL     1     -11.578   6.146   3.538  1.00  0.00     0.004 C 
BRANCH  17  18
ATOM     18  C   UNL     1     -10.675   7.353   3.851  1.00  0.00     0.000 C 
BRANCH  18  19
ATOM     19  C   UNL     1     -10.694   8.465   2.788  1.00  0.00    -0.003 C 
ATOM     20  C   UNL     1     -11.868   8.346   1.816  1.00  0.00     0.004 C 
ENDBRANCH  18  19
ENDBRANCH  17  18
ENDBRANCH  16  17
ENDBRANCH  15  16
ENDBRANCH  13  14
ENDBRANCH  12  13
ENDBRANCH   1  11
TORSDOF 14
ENDMDL
MODEL 5
REMARK VINA RESULT:    -3.459      2.726      4.086
REMARK INTER + INTRA:          -8.579
REMARK INTER:                  -6.399
REMARK INTRA:                  -2.179
REMARK UNBOUND:                -2.289
REMARK SMILES CCCCCC=CCC=CCCCCCCCC(=O)[O-]
REMARK SMILES IDX 11 1 12 2 13 3 14 4 15 5 16 6 17 7 18 8 19 9 20 10 10 11
REMARK SMILES IDX 9 12 8 13 7 14 6 15 5 16 4 17 3 18 2 19 1 20
REMARK H PARENT
REMARK Flexibility Score: inf
ROOT
ATOM      1  C   UNL     1       6.993  -6.608  -3.664  1.00  0.00     0.027 C 
ENDROOT
BRANCH   1   2
ATOM      2  C   UNL     1       7.671  -5.544  -2.780  1.00  0.00     0.004 C 
BRANCH   2   3
ATOM      3  C   UNL     1       6.685  -4.592  -2.080  1.00  0.00     0.000 C 
BRANCH   3   4
ATOM      4  C   UNL     1       6.590  -4.830  -0.565  1.00  0.00     0.000 C 
BRANCH   4   5
ATOM      5  C   UNL     1       7.843  -5.541  -0.040  1.00  0.00     0.000 C 
BRANCH   5   6
ATOM      6  C   UNL     1       7.473  -6.839   0.693  1.00  0.00     0.006 C 
BRANCH   6   7
ATOM      7  C   UNL     1       6.541  -6.587   1.885  1.00  0.00     0.053 C 
BRANCH   7   8
ATOM      8  C   UNL     1       6.474  -7.771   2.800  1.00  0.00     0.041 C 
ATOM      9  O   UNL     1       5.929  -7.668   3.931  1.00  0.00    -0.550 OA
ATOM     10  O   UNL     1       6.984  -8.997   2.391  1.00  0.00    -0.550 OA
ENDBRANCH   7   8
ENDBRANCH   6   7
ENDBRANCH   5   6
ENDBRANCH   4   5
ENDBRANCH   3   4
ENDBRANCH   2   3
ENDBRANCH   1   2
BRANCH   1  11
ATOM     11  C   UNL     1       6.495  -7.791  -2.880  1.00  0.00    -0.031 C 
ATOM     12  C   UNL     1       5.247  -7.841  -2.391  1.00  0.00    -0.027 C 
BRANCH  12  13
ATOM     13  C   UNL     1       4.758  -9.027  -1.608  1.00  0.00     0.054 C 
BRANCH  13  14
ATOM     14  C   UNL     1       4.352  -8.629  -0.217  1.00  0.00    -0.027 C 
ATOM     15  C   UNL     1       3.399  -7.709  -0.001  1.00  0.00    -0.031 C 
BRANCH  15  16
ATOM     16  C   UNL     1       2.987  -7.316   1.391  1.00  0.00     0.027 C 
BRANCH  16  17
ATOM     17  C   UNL     1       1.940  -8.291   1.951  1.00  0.00     0.004 C 
BRANCH  17  18
ATOM     18  C   UNL     1       1.360  -7.835   3.302  1.00  0.00     0.000 C 
BRANCH  18  19
ATOM     19  C   UNL     1       2.387  -7.228   4.273  1.00  0.00    -0.003 C 
ATOM     20  C   UNL     1       2.064  -5.786   4.664  1.00  0.00     0.004 C 
ENDBRANCH  18  19
ENDBRANCH  17  18
ENDBRANCH  16  17
ENDBRANCH  15  16
ENDBRANCH  13  14
ENDBRANCH  12  13
ENDBRANCH   1  11
TORSDOF 14
ENDMDL
MODEL 6
REMARK VINA RESULT:    -3.422      2.965      6.938
REMARK INTER + INTRA:          -8.512
REMARK INTER:                  -6.310
REMARK INTRA:                  -2.202
REMARK UNBOUND:                -2.289
REMARK SMILES CCCCCC=CCC=CCCCCCCCC(=O)[O-]
REMARK SMILES IDX 11 1 12 2 13 3 14 4 15 5 16 6 17 7 18 8 19 9 20 10 10 11
REMARK SMILES IDX 9 12 8 13 7 14 6 15 5 16 4 17 3 18 2 19 1 20
REMARK H PARENT
REMARK Flexibility Score: inf
ROOT
ATOM      1  C   UNL     1       1.600  -8.330   1.534  1.00  0.00     0.027 C 
ENDROOT
BRANCH   1   2
ATOM      2  C   UNL     1       2.362  -7.477   2.567  1.00  0.00     0.004 C 
BRANCH   2   3
ATOM      3  C   UNL     1       2.738  -8.239   3.851  1.00  0.00     0.000 C 
BRANCH   3   4
ATOM      4  C   UNL     1       4.065  -9.003   3.732  1.00  0.00     0.000 C 
BRANCH   4   5
ATOM      5  C   UNL     1       5.259  -8.070   3.966  1.00  0.00     0.000 C 
BRANCH   5   6
ATOM      6  C   UNL     1       6.007  -7.793   2.653  1.00  0.00     0.006 C 
BRANCH   6   7
ATOM      7  C   UNL     1       5.911  -6.323   2.228  1.00  0.00     0.053 C 
BRANCH   7   8
ATOM      8  C   UNL     1       7.232  -5.625   2.334  1.00  0.00     0.041 C 
ATOM      9  O   UNL     1       8.010  -5.882   3.291  1.00  0.00    -0.550 OA
ATOM     10  O   UNL     1       7.618  -4.715   1.358  1.00  0.00    -0.550 OA
ENDBRANCH   7   8
ENDBRANCH   6   7
ENDBRANCH   5   6
ENDBRANCH   4   5
ENDBRANCH   3   4
ENDBRANCH   2   3
ENDBRANCH   1   2
BRANCH   1  11
ATOM     11  C   UNL     1       2.334  -8.463   0.228  1.00  0.00    -0.031 C 
ATOM     12  C   UNL     1       3.534  -9.058   0.149  1.00  0.00    -0.027 C 
BRANCH  12  13
ATOM     13  C   UNL     1       4.261  -9.186  -1.161  1.00  0.00     0.054 C 
BRANCH  13  14
ATOM     14  C   UNL     1       4.778  -7.855  -1.626  1.00  0.00    -0.027 C 
ATOM     15  C   UNL     1       5.943  -7.360  -1.182  1.00  0.00    -0.031 C 
BRANCH  15  16
ATOM     16  C   UNL     1       6.465  -6.031  -1.653  1.00  0.00     0.027 C 
BRANCH  16  17
ATOM     17  C   UNL     1       6.924  -6.109  -3.117  1.00  0.00     0.004 C 
BRANCH  17  18
ATOM     18  C   UNL     1       8.025  -7.161  -3.343  1.00  0.00     0.000 C 
BRANCH  18  19
ATOM     19  C   UNL     1       7.639  -8.305  -4.298  1.00  0.00    -0.003 C 
ATOM     20  C   UNL     1       6.322  -8.053  -5.032  1.00  0.00     0.004 C 
ENDBRANCH  18  19
ENDBRANCH  17  18
ENDBRANCH  16  17
ENDBRANCH  15  16
ENDBRANCH  13  14
ENDBRANCH  12  13
ENDBRANCH   1  11
TORSDOF 14
ENDMDL
MODEL 7
REMARK VINA RESULT:    -3.417     18.050     20.292
REMARK INTER + INTRA:          -8.502
REMARK INTER:                  -6.556
REMARK INTRA:                  -1.947
REMARK UNBOUND:                -2.289
REMARK SMILES CCCCCC=CCC=CCCCCCCCC(=O)[O-]
REMARK SMILES IDX 11 1 12 2 13 3 14 4 15 5 16 6 17 7 18 8 19 9 20 10 10 11
REMARK SMILES IDX 9 12 8 13 7 14 6 15 5 16 4 17 3 18 2 19 1 20
REMARK H PARENT
REMARK Flexibility Score: inf
ROOT
ATOM      1  C   UNL     1      -8.062   4.974  -0.108  1.00  0.00     0.027 C 
ENDROOT
BRANCH   1   2
ATOM      2  C   UNL     1      -7.127   4.168   0.815  1.00  0.00     0.004 C 
BRANCH   2   3
ATOM      3  C   UNL     1      -7.824   3.011   1.553  1.00  0.00     0.000 C 
BRANCH   3   4
ATOM      4  C   UNL     1      -8.286   3.390   2.968  1.00  0.00     0.000 C 
BRANCH   4   5
ATOM      5  C   UNL     1      -9.715   2.902   3.230  1.00  0.00     0.000 C 
BRANCH   5   6
ATOM      6  C   UNL     1     -10.560   4.002   3.891  1.00  0.00     0.006 C 
BRANCH   6   7
ATOM      7  C   UNL     1      -9.827   5.348   3.938  1.00  0.00     0.053 C 
BRANCH   7   8
ATOM      8  C   UNL     1     -10.765   6.500   3.740  1.00  0.00     0.041 C 
ATOM      9  O   UNL     1     -10.377   7.678   3.958  1.00  0.00    -0.550 OA
ATOM     10  O   UNL     1     -12.057   6.274   3.281  1.00  0.00    -0.550 OA
ENDBRANCH   7   8
ENDBRANCH   6   7
ENDBRANCH   5   6
ENDBRANCH   4   5
ENDBRANCH   3   4
ENDBRANCH   2   3
ENDBRANCH   1   2
BRANCH   1  11
ATOM     11  C   UNL     1      -9.454   4.407  -0.171  1.00  0.00    -0.031 C 
ATOM     12  C   UNL     1     -10.510   5.072   0.320  1.00  0.00    -0.027 C 
BRANCH  12  13
ATOM     13  C   UNL     1     -11.899   4.498   0.253  1.00  0.00     0.054 C 
BRANCH  13  14
ATOM     14  C   UNL     1     -11.984   3.405  -0.775  1.00  0.00    -0.027 C 
ATOM     15  C   UNL     1     -11.377   2.223  -0.594  1.00  0.00    -0.031 C 
BRANCH  15  16
ATOM     16  C   UNL     1     -11.469   1.126  -1.618  1.00  0.00     0.027 C 
BRANCH  16  17
ATOM     17  C   UNL     1     -10.565   1.422  -2.824  1.00  0.00     0.004 C 
BRANCH  17  18
ATOM     18  C   UNL     1     -11.343   1.968  -4.034  1.00  0.00     0.000 C 
BRANCH  18  19
ATOM     19  C   UNL     1     -11.053   3.440  -4.377  1.00  0.00    -0.003 C 
ATOM     20  C   UNL     1      -9.800   3.980  -3.688  1.00  0.00     0.004 C 
ENDBRANCH  18  19
ENDBRANCH  17  18
ENDBRANCH  16  17
ENDBRANCH  15  16
ENDBRANCH  13  14
ENDBRANCH  12  13
ENDBRANCH   1  11
TORSDOF 14
ENDMDL
MODEL 8
REMARK VINA RESULT:    -3.236      3.524      7.271
REMARK INTER + INTRA:          -8.174
REMARK INTER:                  -6.435
REMARK INTRA:                  -1.739
REMARK UNBOUND:                -2.289
REMARK SMILES CCCCCC=CCC=CCCCCCCCC(=O)[O-]
REMARK SMILES IDX 11 1 12 2 13 3 14 4 15 5 16 6 17 7 18 8 19 9 20 10 10 11
REMARK SMILES IDX 9 12 8 13 7 14 6 15 5 16 4 17 3 18 2 19 1 20
REMARK H PARENT
REMARK Flexibility Score: inf
ROOT
ATOM      1  C   UNL     1       3.703  -6.975   0.262  1.00  0.00     0.027 C 
ENDROOT
BRANCH   1   2
ATOM      2  C   UNL     1       5.071  -6.752   0.936  1.00  0.00     0.004 C 
BRANCH   2   3
ATOM      3  C   UNL     1       4.990  -6.545   2.459  1.00  0.00     0.000 C 
BRANCH   3   4
ATOM      4  C   UNL     1       4.267  -7.689   3.186  1.00  0.00     0.000 C 
BRANCH   4   5
ATOM      5  C   UNL     1       3.390  -7.151   4.322  1.00  0.00     0.000 C 
BRANCH   5   6
ATOM      6  C   UNL     1       1.954  -6.898   3.837  1.00  0.00     0.006 C 
BRANCH   6   7
ATOM      7  C   UNL     1       1.430  -8.039   2.955  1.00  0.00     0.053 C 
BRANCH   7   8
ATOM      8  C   UNL     1       0.390  -8.855   3.660  1.00  0.00     0.041 C 
ATOM      9  O   UNL     1       0.439  -9.001   4.909  1.00  0.00    -0.550 OA
ATOM     10  O   UNL     1      -0.652  -9.426   2.940  1.00  0.00    -0.550 OA
ENDBRANCH   7   8
ENDBRANCH   6   7
ENDBRANCH   5   6
ENDBRANCH   4   5
ENDBRANCH   3   4
ENDBRANCH   2   3
ENDBRANCH   1   2
BRANCH   1  11
ATOM     11  C   UNL     1       3.634  -8.265  -0.510  1.00  0.00    -0.031 C 
ATOM     12  C   UNL     1       4.621  -9.172  -0.460  1.00  0.00    -0.027 C 
BRANCH  12  13
ATOM     13  C   UNL     1       4.543 -10.459  -1.234  1.00  0.00     0.054 C 
BRANCH  13  14
ATOM     14  C   UNL     1       5.538 -10.474  -2.360  1.00  0.00    -0.027 C 
ATOM     15  C   UNL     1       6.106  -9.346  -2.811  1.00  0.00    -0.031 C 
BRANCH  15  16
ATOM     16  C   UNL     1       7.108  -9.362  -3.932  1.00  0.00     0.027 C 
BRANCH  16  17
ATOM     17  C   UNL     1       7.506  -7.934  -4.334  1.00  0.00     0.004 C 
BRANCH  17  18
ATOM     18  C   UNL     1       6.636  -6.859  -3.659  1.00  0.00     0.000 C 
BRANCH  18  19
ATOM     19  C   UNL     1       7.418  -5.669  -3.075  1.00  0.00    -0.003 C 
ATOM     20  C   UNL     1       6.673  -4.960  -1.945  1.00  0.00     0.004 C 
ENDBRANCH  18  19
ENDBRANCH  17  18
ENDBRANCH  16  17
ENDBRANCH  15  16
ENDBRANCH  13  14
ENDBRANCH  12  13
ENDBRANCH   1  11
TORSDOF 14
ENDMDL
MODEL 9
REMARK VINA RESULT:    -3.208     13.826     17.212
REMARK INTER + INTRA:          -8.122
REMARK INTER:                  -5.830
REMARK INTRA:                  -2.292
REMARK UNBOUND:                -2.289
REMARK SMILES CCCCCC=CCC=CCCCCCCCC(=O)[O-]
REMARK SMILES IDX 11 1 12 2 13 3 14 4 15 5 16 6 17 7 18 8 19 9 20 10 10 11
REMARK SMILES IDX 9 12 8 13 7 14 6 15 5 16 4 17 3 18 2 19 1 20
REMARK H PARENT
REMARK Flexibility Score: inf
ROOT
ATOM      1  C   UNL     1       5.130   3.862 -10.239  1.00  0.00     0.027 C 
ENDROOT
BRANCH   1   2
ATOM      2  C   UNL     1       6.670   3.855 -10.203  1.00  0.00     0.004 C 
BRANCH   2   3
ATOM      3  C   UNL     1       7.270   4.518  -8.950  1.00  0.00     0.000 C 
BRANCH   3   4
ATOM      4  C   UNL     1       7.053   3.695  -7.671  1.00  0.00     0.000 C 
BRANCH   4   5
ATOM      5  C   UNL     1       6.868   4.609  -6.454  1.00  0.00     0.000 C 
BRANCH   5   6
ATOM      6  C   UNL     1       6.219   5.941  -6.859  1.00  0.00     0.006 C 
BRANCH   6   7
ATOM      7  C   UNL     1       5.312   6.504  -5.757  1.00  0.00     0.053 C 
BRANCH   7   8
ATOM      8  C   UNL     1       4.174   5.580  -5.448  1.00  0.00     0.041 C 
ATOM      9  O   UNL     1       3.839   5.365  -4.253  1.00  0.00    -0.550 OA
ATOM     10  O   UNL     1       3.462   4.982  -6.480  1.00  0.00    -0.550 OA
ENDBRANCH   7   8
ENDBRANCH   6   7
ENDBRANCH   5   6
ENDBRANCH   4   5
ENDBRANCH   3   4
ENDBRANCH   2   3
ENDBRANCH   1   2
BRANCH   1  11
ATOM     11  C   UNL     1       4.549   5.248 -10.188  1.00  0.00    -0.031 C 
ATOM     12  C   UNL     1       3.260   5.464  -9.886  1.00  0.00    -0.027 C 
BRANCH  12  13
ATOM     13  C   UNL     1       2.687   6.853  -9.837  1.00  0.00     0.054 C 
BRANCH  13  14
ATOM     14  C   UNL     1       2.623   7.461 -11.209  1.00  0.00    -0.027 C 
ATOM     15  C   UNL     1       2.054   6.814 -12.237  1.00  0.00    -0.031 C 
BRANCH  15  16
ATOM     16  C   UNL     1       1.982   7.426 -13.609  1.00  0.00     0.027 C 
BRANCH  16  17
ATOM     17  C   UNL     1       3.244   7.102 -14.423  1.00  0.00     0.004 C 
BRANCH  17  18
ATOM     18  C   UNL     1       3.834   5.721 -14.085  1.00  0.00     0.000 C 
BRANCH  18  19
ATOM     19  C   UNL     1       5.344   5.719 -13.790  1.00  0.00    -0.003 C 
ATOM     20  C   UNL     1       5.827   7.009 -13.127  1.00  0.00     0.004 C 
ENDBRANCH  18  19
ENDBRANCH  17  18
ENDBRANCH  16  17
ENDBRANCH  15  16
ENDBRANCH  13  14
ENDBRANCH  12  13
ENDBRANCH   1  11
TORSDOF 14
ENDMDL
