MODEL 1
REMARK VINA RESULT:    -4.379      0.000      0.000
REMARK INTER + INTRA:          -8.502
REMARK INTER:                  -7.708
REMARK INTRA:                  -0.794
REMARK UNBOUND:                -0.794
REMARK SMILES CCCCCCC=CCCCCCCCC(=O)[O-]
REMARK SMILES IDX 10 1 11 2 12 3 13 4 14 5 15 6 16 7 17 8 18 9 9 10 8 11 7 12
REMARK SMILES IDX 6 13 5 14 4 15 3 16 2 17 1 18
REMARK H PARENT
REMARK Flexibility Score: inf
ROOT
ATOM      1  C   UNL     1      33.500 170.436 157.197  1.00  0.00     0.004 C 
ENDROOT
BRANCH   1   2
ATOM      2  C   UNL     1      34.259 170.271 155.868  1.00  0.00     0.000 C 
BRANCH   2   3
ATOM      3  C   UNL     1      33.361 170.506 154.643  1.00  0.00     0.000 C 
BRANCH   3   4
ATOM      4  C   UNL     1      31.914 170.862 155.028  1.00  0.00     0.000 C 
BRANCH   4   5
ATOM      5  C   UNL     1      31.315 171.952 154.126  1.00  0.00     0.006 C 
BRANCH   5   6
ATOM      6  C   UNL     1      29.911 172.380 154.573  1.00  0.00     0.053 C 
BRANCH   6   7
ATOM      7  C   UNL     1      29.653 173.804 154.190  1.00  0.00     0.041 C 
ATOM      8  O   UNL     1      30.608 174.621 154.111  1.00  0.00    -0.550 OA
ATOM      9  O   UNL     1      28.365 174.217 153.876  1.00  0.00    -0.550 OA
ENDBRANCH   6   7
ENDBRANCH   5   6
ENDBRANCH   4   5
ENDBRANCH   3   4
ENDBRANCH   2   3
ENDBRANCH   1   2
BRANCH   1  10
ATOM     10  C   UNL     1      33.395 169.115 157.968  1.00  0.00     0.027 C 
BRANCH  10  11
ATOM     11  C   UNL     1      32.191 169.097 158.871  1.00  0.00    -0.031 C 
ATOM     12  C   UNL     1      31.874 170.146 159.644  1.00  0.00    -0.031 C 
BRANCH  12  13
ATOM     13  C   UNL     1      30.689 170.115 160.572  1.00  0.00     0.027 C 
BRANCH  13  14
ATOM     14  C   UNL     1      29.896 171.435 160.582  1.00  0.00     0.004 C 
BRANCH  14  15
ATOM     15  C   UNL     1      30.012 172.227 161.898  1.00  0.00     0.000 C 
BRANCH  15  16
ATOM     16  C   UNL     1      29.207 173.538 161.883  1.00  0.00    -0.000 C 
BRANCH  16  17
ATOM     17  C   UNL     1      27.769 173.340 161.376  1.00  0.00    -0.003 C 
ATOM     18  C   UNL     1      26.969 174.643 161.339  1.00  0.00     0.004 C 
ENDBRANCH  16  17
ENDBRANCH  15  16
ENDBRANCH  14  15
ENDBRANCH  13  14
ENDBRANCH  12  13
ENDBRANCH  10  11
ENDBRANCH   1  10
TORSDOF 13
ENDMDL
MODEL 2
REMARK VINA RESULT:    -4.363      4.145      8.065
REMARK INTER + INTRA:          -8.473
REMARK INTER:                  -7.322
REMARK INTRA:                  -1.151
REMARK UNBOUND:                -0.794
REMARK SMILES CCCCCCC=CCCCCCCCC(=O)[O-]
REMARK SMILES IDX 10 1 11 2 12 3 13 4 14 5 15 6 16 7 17 8 18 9 9 10 8 11 7 12
REMARK SMILES IDX 6 13 5 14 4 15 3 16 2 17 1 18
REMARK H PARENT
REMARK Flexibility Score: inf
ROOT
ATOM      1  C   UNL     1      29.661 170.493 160.086  1.00  0.00     0.004 C 
ENDROOT
BRANCH   1   2
ATOM      2  C   UNL     1      29.033 171.589 160.966  1.00  0.00     0.000 C 
BRANCH   2   3
ATOM      3  C   UNL     1      29.995 172.759 161.228  1.00  0.00     0.000 C 
BRANCH   3   4
ATOM      4  C   UNL     1      29.472 173.728 162.302  1.00  0.00     0.000 C 
BRANCH   4   5
ATOM      5  C   UNL     1      29.408 173.085 163.696  1.00  0.00     0.006 C 
BRANCH   5   6
ATOM      6  C   UNL     1      30.789 172.661 164.213  1.00  0.00     0.053 C 
BRANCH   6   7
ATOM      7  C   UNL     1      30.836 171.180 164.424  1.00  0.00     0.041 C 
ATOM      8  O   UNL     1      29.789 170.491 164.307  1.00  0.00    -0.550 OA
ATOM      9  O   UNL     1      32.044 170.556 164.704  1.00  0.00    -0.550 OA
ENDBRANCH   6   7
ENDBRANCH   5   6
ENDBRANCH   4   5
ENDBRANCH   3   4
ENDBRANCH   2   3
ENDBRANCH   1   2
BRANCH   1  10
ATOM     10  C   UNL     1      31.188 170.452 160.220  1.00  0.00     0.027 C 
BRANCH  10  11
ATOM     11  C   UNL     1      31.835 169.869 158.993  1.00  0.00    -0.031 C 
ATOM     12  C   UNL     1      32.903 169.061 159.075  1.00  0.00    -0.031 C 
BRANCH  12  13
ATOM     13  C   UNL     1      33.570 168.505 157.845  1.00  0.00     0.027 C 
BRANCH  13  14
ATOM     14  C   UNL     1      34.875 169.239 157.484  1.00  0.00     0.004 C 
BRANCH  14  15
ATOM     15  C   UNL     1      34.891 169.828 156.060  1.00  0.00     0.000 C 
BRANCH  15  16
ATOM     16  C   UNL     1      33.681 170.732 155.771  1.00  0.00    -0.000 C 
BRANCH  16  17
ATOM     17  C   UNL     1      33.173 170.592 154.327  1.00  0.00    -0.003 C 
ATOM     18  C   UNL     1      32.310 169.347 154.120  1.00  0.00     0.004 C 
ENDBRANCH  16  17
ENDBRANCH  15  16
ENDBRANCH  14  15
ENDBRANCH  13  14
ENDBRANCH  12  13
ENDBRANCH  10  11
ENDBRANCH   1  10
TORSDOF 13
ENDMDL
MODEL 3
REMARK VINA RESULT:    -4.312      3.699      7.527
REMARK INTER + INTRA:          -8.383
REMARK INTER:                  -7.495
REMARK INTRA:                  -0.889
REMARK UNBOUND:                -0.794
REMARK SMILES CCCCCCC=CCCCCCCCC(=O)[O-]
REMARK SMILES IDX 10 1 11 2 12 3 13 4 14 5 15 6 16 7 17 8 18 9 9 10 8 11 7 12
REMARK SMILES IDX 6 13 5 14 4 15 3 16 2 17 1 18
REMARK H PARENT
REMARK Flexibility Score: inf
ROOT
ATOM      1  C   UNL     1      31.166 169.632 161.472  1.00  0.00     0.004 C 
ENDROOT
BRANCH   1   2
ATOM      2  C   UNL     1      30.643 170.489 160.305  1.00  0.00     0.000 C 
BRANCH   2   3
ATOM      3  C   UNL     1      29.567 171.494 160.748  1.00  0.00     0.000 C 
BRANCH   3   4
ATOM      4  C   UNL     1      30.166 172.782 161.339  1.00  0.00     0.000 C 
BRANCH   4   5
ATOM      5  C   UNL     1      29.095 173.833 161.670  1.00  0.00     0.006 C 
BRANCH   5   6
ATOM      6  C   UNL     1      29.033 174.159 163.168  1.00  0.00     0.053 C 
BRANCH   6   7
ATOM      7  C   UNL     1      27.744 173.674 163.754  1.00  0.00     0.041 C 
ATOM      8  O   UNL     1      27.266 174.230 164.779  1.00  0.00    -0.550 OA
ATOM      9  O   UNL     1      27.048 172.639 163.145  1.00  0.00    -0.550 OA
ENDBRANCH   6   7
ENDBRANCH   5   6
ENDBRANCH   4   5
ENDBRANCH   3   4
ENDBRANCH   2   3
ENDBRANCH   1   2
BRANCH   1  10
ATOM     10  C   UNL     1      32.421 168.840 161.087  1.00  0.00     0.027 C 
BRANCH  10  11
ATOM     11  C   UNL     1      32.748 168.997 159.626  1.00  0.00    -0.031 C 
ATOM     12  C   UNL     1      33.562 168.141 158.990  1.00  0.00    -0.031 C 
BRANCH  12  13
ATOM     13  C   UNL     1      33.914 168.316 157.537  1.00  0.00     0.027 C 
BRANCH  13  14
ATOM     14  C   UNL     1      35.029 169.353 157.309  1.00  0.00     0.004 C 
BRANCH  14  15
ATOM     15  C   UNL     1      34.931 170.093 155.961  1.00  0.00     0.000 C 
BRANCH  15  16
ATOM     16  C   UNL     1      33.548 170.722 155.720  1.00  0.00    -0.000 C 
BRANCH  16  17
ATOM     17  C   UNL     1      33.117 170.648 154.246  1.00  0.00    -0.003 C 
ATOM     18  C   UNL     1      32.316 169.386 153.926  1.00  0.00     0.004 C 
ENDBRANCH  16  17
ENDBRANCH  15  16
ENDBRANCH  14  15
ENDBRANCH  13  14
ENDBRANCH  12  13
ENDBRANCH  10  11
ENDBRANCH   1  10
TORSDOF 13
ENDMDL
MODEL 4
REMARK VINA RESULT:    -4.306      3.549      6.898
REMARK INTER + INTRA:          -8.372
REMARK INTER:                  -7.230
REMARK INTRA:                  -1.142
REMARK UNBOUND:                -0.794
REMARK SMILES CCCCCCC=CCCCCCCCC(=O)[O-]
REMARK SMILES IDX 10 1 11 2 12 3 13 4 14 5 15 6 16 7 17 8 18 9 9 10 8 11 7 12
REMARK SMILES IDX 6 13 5 14 4 15 3 16 2 17 1 18
REMARK H PARENT
REMARK Flexibility Score: inf
ROOT
ATOM      1  C   UNL     1      32.623 169.031 160.281  1.00  0.00     0.004 C 
ENDROOT
BRANCH   1   2
ATOM      2  C   UNL     1      31.598 170.052 159.754  1.00  0.00     0.000 C 
BRANCH   2   3
ATOM      3  C   UNL     1      30.517 170.391 160.792  1.00  0.00     0.000 C 
BRANCH   3   4
ATOM      4  C   UNL     1      29.305 171.109 160.173  1.00  0.00     0.000 C 
BRANCH   4   5
ATOM      5  C   UNL     1      28.781 172.251 161.057  1.00  0.00     0.006 C 
BRANCH   5   6
ATOM      6  C   UNL     1      29.912 173.100 161.654  1.00  0.00     0.053 C 
BRANCH   6   7
ATOM      7  C   UNL     1      29.761 173.201 163.139  1.00  0.00     0.041 C 
ATOM      8  O   UNL     1      30.395 172.418 163.895  1.00  0.00    -0.550 OA
ATOM      9  O   UNL     1      28.956 174.189 163.691  1.00  0.00    -0.550 OA
ENDBRANCH   6   7
ENDBRANCH   5   6
ENDBRANCH   4   5
ENDBRANCH   3   4
ENDBRANCH   2   3
ENDBRANCH   1   2
BRANCH   1  10
ATOM     10  C   UNL     1      33.303 168.258 159.144  1.00  0.00     0.027 C 
BRANCH  10  11
ATOM     11  C   UNL     1      33.535 169.133 157.942  1.00  0.00    -0.031 C 
ATOM     12  C   UNL     1      34.713 169.151 157.301  1.00  0.00    -0.031 C 
BRANCH  12  13
ATOM     13  C   UNL     1      34.956 170.050 156.118  1.00  0.00     0.027 C 
BRANCH  13  14
ATOM     14  C   UNL     1      33.666 170.688 155.571  1.00  0.00     0.004 C 
BRANCH  14  15
ATOM     15  C   UNL     1      33.187 170.088 154.236  1.00  0.00     0.000 C 
BRANCH  15  16
ATOM     16  C   UNL     1      31.655 169.961 154.149  1.00  0.00    -0.000 C 
BRANCH  16  17
ATOM     17  C   UNL     1      30.963 170.268 155.487  1.00  0.00    -0.003 C 
ATOM     18  C   UNL     1      29.705 171.121 155.321  1.00  0.00     0.004 C 
ENDBRANCH  16  17
ENDBRANCH  15  16
ENDBRANCH  14  15
ENDBRANCH  13  14
ENDBRANCH  12  13
ENDBRANCH  10  11
ENDBRANCH   1  10
TORSDOF 13
ENDMDL
MODEL 5
REMARK VINA RESULT:    -4.263      2.242      2.960
REMARK INTER + INTRA:          -8.298
REMARK INTER:                  -7.290
REMARK INTRA:                  -1.007
REMARK UNBOUND:                -0.794
REMARK SMILES CCCCCCC=CCCCCCCCC(=O)[O-]
REMARK SMILES IDX 10 1 11 2 12 3 13 4 14 5 15 6 16 7 17 8 18 9 9 10 8 11 7 12
REMARK SMILES IDX 6 13 5 14 4 15 3 16 2 17 1 18
REMARK H PARENT
REMARK Flexibility Score: inf
ROOT
ATOM      1  C   UNL     1      32.856 168.780 158.467  1.00  0.00     0.004 C 
ENDROOT
BRANCH   1   2
ATOM      2  C   UNL     1      33.945 167.968 157.742  1.00  0.00     0.000 C 
BRANCH   2   3
ATOM      3  C   UNL     1      35.084 168.852 157.211  1.00  0.00     0.000 C 
BRANCH   3   4
ATOM      4  C   UNL     1      34.594 170.234 156.745  1.00  0.00     0.000 C 
BRANCH   4   5
ATOM      5  C   UNL     1      34.123 170.231 155.282  1.00  0.00     0.006 C 
BRANCH   5   6
ATOM      6  C   UNL     1      32.731 170.853 155.111  1.00  0.00     0.053 C 
BRANCH   6   7
ATOM      7  C   UNL     1      31.679 169.788 155.123  1.00  0.00     0.041 C 
ATOM      8  O   UNL     1      31.958 168.618 154.750  1.00  0.00    -0.550 OA
ATOM      9  O   UNL     1      30.402 170.076 155.588  1.00  0.00    -0.550 OA
ENDBRANCH   6   7
ENDBRANCH   5   6
ENDBRANCH   4   5
ENDBRANCH   3   4
ENDBRANCH   2   3
ENDBRANCH   1   2
BRANCH   1  10
ATOM     10  C   UNL     1      33.051 168.776 159.988  1.00  0.00     0.027 C 
BRANCH  10  11
ATOM     11  C   UNL     1      31.768 169.087 160.711  1.00  0.00    -0.031 C 
ATOM     12  C   UNL     1      31.161 170.277 160.590  1.00  0.00    -0.031 C 
BRANCH  12  13
ATOM     13  C   UNL     1      29.895 170.599 161.338  1.00  0.00     0.027 C 
BRANCH  13  14
ATOM     14  C   UNL     1      29.291 171.959 160.943  1.00  0.00     0.004 C 
BRANCH  14  15
ATOM     15  C   UNL     1      30.012 173.171 161.565  1.00  0.00     0.000 C 
BRANCH  15  16
ATOM     16  C   UNL     1      29.041 174.226 162.123  1.00  0.00    -0.000 C 
BRANCH  16  17
ATOM     17  C   UNL     1      27.654 174.156 161.464  1.00  0.00    -0.003 C 
ATOM     18  C   UNL     1      26.580 174.893 162.265  1.00  0.00     0.004 C 
ENDBRANCH  16  17
ENDBRANCH  15  16
ENDBRANCH  14  15
ENDBRANCH  13  14
ENDBRANCH  12  13
ENDBRANCH  10  11
ENDBRANCH   1  10
TORSDOF 13
ENDMDL
MODEL 6
REMARK VINA RESULT:    -4.260      3.197      6.100
REMARK INTER + INTRA:          -8.292
REMARK INTER:                  -6.497
REMARK INTRA:                  -1.796
REMARK UNBOUND:                -0.794
REMARK SMILES CCCCCCC=CCCCCCCCC(=O)[O-]
REMARK SMILES IDX 10 1 11 2 12 3 13 4 14 5 15 6 16 7 17 8 18 9 9 10 8 11 7 12
REMARK SMILES IDX 6 13 5 14 4 15 3 16 2 17 1 18
REMARK H PARENT
REMARK Flexibility Score: inf
ROOT
ATOM      1  C   UNL     1      34.204 170.494 155.991  1.00  0.00     0.004 C 
ENDROOT
BRANCH   1   2
ATOM      2  C   UNL     1      34.736 169.425 156.963  1.00  0.00     0.000 C 
BRANCH   2   3
ATOM      3  C   UNL     1      33.633 168.476 157.457  1.00  0.00     0.000 C 
BRANCH   3   4
ATOM      4  C   UNL     1      33.300 168.678 158.946  1.00  0.00     0.000 C 
BRANCH   4   5
ATOM      5  C   UNL     1      32.241 169.768 159.171  1.00  0.00     0.006 C 
BRANCH   5   6
ATOM      6  C   UNL     1      31.074 169.284 160.042  1.00  0.00     0.053 C 
BRANCH   6   7
ATOM      7  C   UNL     1      30.650 170.360 160.992  1.00  0.00     0.041 C 
ATOM      8  O   UNL     1      30.146 171.428 160.554  1.00  0.00    -0.550 OA
ATOM      9  O   UNL     1      30.769 170.166 162.361  1.00  0.00    -0.550 OA
ENDBRANCH   6   7
ENDBRANCH   5   6
ENDBRANCH   4   5
ENDBRANCH   3   4
ENDBRANCH   2   3
ENDBRANCH   1   2
BRANCH   1  10
ATOM     10  C   UNL     1      33.420 169.875 154.828  1.00  0.00     0.027 C 
BRANCH  10  11
ATOM     11  C   UNL     1      32.617 170.912 154.090  1.00  0.00    -0.031 C 
ATOM     12  C   UNL     1      31.826 171.783 154.735  1.00  0.00    -0.031 C 
BRANCH  12  13
ATOM     13  C   UNL     1      30.998 172.798 153.994  1.00  0.00     0.027 C 
BRANCH  13  14
ATOM     14  C   UNL     1      29.499 172.720 154.339  1.00  0.00     0.004 C 
BRANCH  14  15
ATOM     15  C   UNL     1      28.951 171.283 154.436  1.00  0.00     0.000 C 
BRANCH  15  16
ATOM     16  C   UNL     1      28.289 170.982 155.792  1.00  0.00    -0.000 C 
BRANCH  16  17
ATOM     17  C   UNL     1      29.266 170.353 156.798  1.00  0.00    -0.003 C 
ATOM     18  C   UNL     1      29.863 169.037 156.299  1.00  0.00     0.004 C 
ENDBRANCH  16  17
ENDBRANCH  15  16
ENDBRANCH  14  15
ENDBRANCH  13  14
ENDBRANCH  12  13
ENDBRANCH  10  11
ENDBRANCH   1  10
TORSDOF 13
ENDMDL
MODEL 7
REMARK VINA RESULT:    -4.249      3.758      7.340
REMARK INTER + INTRA:          -8.272
REMARK INTER:                  -6.758
REMARK INTRA:                  -1.515
REMARK UNBOUND:                -0.794
REMARK SMILES CCCCCCC=CCCCCCCCC(=O)[O-]
REMARK SMILES IDX 10 1 11 2 12 3 13 4 14 5 15 6 16 7 17 8 18 9 9 10 8 11 7 12
REMARK SMILES IDX 6 13 5 14 4 15 3 16 2 17 1 18
REMARK H PARENT
REMARK Flexibility Score: inf
ROOT
ATOM      1  C   UNL     1      32.055 169.748 159.451  1.00  0.00     0.004 C 
ENDROOT
BRANCH   1   2
ATOM      2  C   UNL     1      31.137 170.133 160.626  1.00  0.00     0.000 C 
BRANCH   2   3
ATOM      3  C   UNL     1      29.808 170.746 160.158  1.00  0.00     0.000 C 
BRANCH   3   4
ATOM      4  C   UNL     1      29.156 171.637 161.230  1.00  0.00     0.000 C 
BRANCH   4   5
ATOM      5  C   UNL     1      29.941 172.935 161.475  1.00  0.00     0.006 C 
BRANCH   5   6
ATOM      6  C   UNL     1      29.030 174.112 161.850  1.00  0.00     0.053 C 
BRANCH   6   7
ATOM      7  C   UNL     1      28.662 174.046 163.299  1.00  0.00     0.041 C 
ATOM      8  O   UNL     1      27.456 174.134 163.651  1.00  0.00    -0.550 OA
ATOM      9  O   UNL     1      29.646 173.843 164.259  1.00  0.00    -0.550 OA
ENDBRANCH   6   7
ENDBRANCH   5   6
ENDBRANCH   4   5
ENDBRANCH   3   4
ENDBRANCH   2   3
ENDBRANCH   1   2
BRANCH   1  10
ATOM     10  C   UNL     1      31.833 168.300 158.998  1.00  0.00     0.027 C 
BRANCH  10  11
ATOM     11  C   UNL     1      31.587 168.216 157.516  1.00  0.00    -0.031 C 
ATOM     12  C   UNL     1      31.248 169.295 156.795  1.00  0.00    -0.031 C 
BRANCH  12  13
ATOM     13  C   UNL     1      30.969 169.205 155.319  1.00  0.00     0.027 C 
BRANCH  13  14
ATOM     14  C   UNL     1      32.117 169.757 154.454  1.00  0.00     0.004 C 
BRANCH  14  15
ATOM     15  C   UNL     1      33.004 170.791 155.174  1.00  0.00     0.000 C 
BRANCH  15  16
ATOM     16  C   UNL     1      34.457 170.317 155.350  1.00  0.00    -0.000 C 
BRANCH  16  17
ATOM     17  C   UNL     1      34.814 170.049 156.821  1.00  0.00    -0.003 C 
ATOM     18  C   UNL     1      35.250 168.605 157.071  1.00  0.00     0.004 C 
ENDBRANCH  16  17
ENDBRANCH  15  16
ENDBRANCH  14  15
ENDBRANCH  13  14
ENDBRANCH  12  13
ENDBRANCH  10  11
ENDBRANCH   1  10
TORSDOF 13
ENDMDL
MODEL 8
REMARK VINA RESULT:    -4.209      3.998      7.575
REMARK INTER + INTRA:          -8.201
REMARK INTER:                  -7.159
REMARK INTRA:                  -1.043
REMARK UNBOUND:                -0.794
REMARK SMILES CCCCCCC=CCCCCCCCC(=O)[O-]
REMARK SMILES IDX 10 1 11 2 12 3 13 4 14 5 15 6 16 7 17 8 18 9 9 10 8 11 7 12
REMARK SMILES IDX 6 13 5 14 4 15 3 16 2 17 1 18
REMARK H PARENT
REMARK Flexibility Score: inf
ROOT
ATOM      1  C   UNL     1      31.368 170.146 160.100  1.00  0.00     0.004 C 
ENDROOT
BRANCH   1   2
ATOM      2  C   UNL     1      30.308 170.576 161.130  1.00  0.00     0.000 C 
BRANCH   2   3
ATOM      3  C   UNL     1      29.617 171.895 160.750  1.00  0.00     0.000 C 
BRANCH   3   4
ATOM      4  C   UNL     1      30.175 173.101 161.526  1.00  0.00     0.000 C 
BRANCH   4   5
ATOM      5  C   UNL     1      29.072 173.928 162.203  1.00  0.00     0.006 C 
BRANCH   5   6
ATOM      6  C   UNL     1      28.634 173.336 163.549  1.00  0.00     0.053 C 
BRANCH   6   7
ATOM      7  C   UNL     1      29.823 173.102 164.428  1.00  0.00     0.041 C 
ATOM      8  O   UNL     1      30.337 174.059 165.065  1.00  0.00    -0.550 OA
ATOM      9  O   UNL     1      30.335 171.820 164.578  1.00  0.00    -0.550 OA
ENDBRANCH   6   7
ENDBRANCH   5   6
ENDBRANCH   4   5
ENDBRANCH   3   4
ENDBRANCH   2   3
ENDBRANCH   1   2
BRANCH   1  10
ATOM     10  C   UNL     1      32.311 169.074 160.657  1.00  0.00     0.027 C 
BRANCH  10  11
ATOM     11  C   UNL     1      33.302 168.616 159.621  1.00  0.00    -0.031 C 
ATOM     12  C   UNL     1      33.362 169.180 158.405  1.00  0.00    -0.031 C 
BRANCH  12  13
ATOM     13  C   UNL     1      34.330 168.700 157.357  1.00  0.00     0.027 C 
BRANCH  13  14
ATOM     14  C   UNL     1      34.841 169.832 156.445  1.00  0.00     0.004 C 
BRANCH  14  15
ATOM     15  C   UNL     1      33.721 170.669 155.797  1.00  0.00     0.000 C 
BRANCH  15  16
ATOM     16  C   UNL     1      33.251 170.100 154.447  1.00  0.00    -0.000 C 
BRANCH  16  17
ATOM     17  C   UNL     1      31.741 169.812 154.425  1.00  0.00    -0.003 C 
ATOM     18  C   UNL     1      31.037 170.237 155.713  1.00  0.00     0.004 C 
ENDBRANCH  16  17
ENDBRANCH  15  16
ENDBRANCH  14  15
ENDBRANCH  13  14
ENDBRANCH  12  13
ENDBRANCH  10  11
ENDBRANCH   1  10
TORSDOF 13
ENDMDL
