MODEL 1
REMARK VINA RESULT:    -4.750      0.000      0.000
REMARK INTER + INTRA:         -10.304
REMARK INTER:                  -8.360
REMARK INTRA:                  -1.944
REMARK UNBOUND:                -1.944
REMARK SMILES CCCCCCC=CCCCCCCCC(=O)[O-]
REMARK SMILES IDX 10 1 11 2 12 3 13 4 14 5 15 6 16 7 17 8 18 9 9 10 8 11 7 12
REMARK SMILES IDX 6 13 5 14 4 15 3 16 2 17 1 18
REMARK H PARENT
REMARK Flexibility Score: inf
ROOT
ATOM      1  C   UNL     1       6.661   7.286  18.256  1.00  0.00     0.004 C 
ENDROOT
BRANCH   1   2
ATOM      2  C   UNL     1       6.238   5.989  18.958  1.00  0.00     0.000 C 
BRANCH   2   3
ATOM      3  C   UNL     1       7.454   5.251  19.530  1.00  0.00     0.000 C 
BRANCH   3   4
ATOM      4  C   UNL     1       7.291   3.731  19.390  1.00  0.00     0.000 C 
BRANCH   4   5
ATOM      5  C   UNL     1       5.831   3.265  19.532  1.00  0.00     0.006 C 
BRANCH   5   6
ATOM      6  C   UNL     1       5.530   2.549  20.860  1.00  0.00     0.053 C 
BRANCH   6   7
ATOM      7  C   UNL     1       4.604   3.332  21.740  1.00  0.00     0.041 C 
ATOM      8  O   UNL     1       4.201   4.470  21.380  1.00  0.00    -0.550 OA
ATOM      9  O   UNL     1       4.218   2.827  22.975  1.00  0.00    -0.550 OA
ENDBRANCH   6   7
ENDBRANCH   5   6
ENDBRANCH   4   5
ENDBRANCH   3   4
ENDBRANCH   2   3
ENDBRANCH   1   2
BRANCH   1  10
ATOM     10  C   UNL     1       6.304   7.247  16.766  1.00  0.00     0.027 C 
BRANCH  10  11
ATOM     11  C   UNL     1       5.760   5.895  16.382  1.00  0.00    -0.031 C 
ATOM     12  C   UNL     1       6.441   4.966  15.687  1.00  0.00    -0.031 C 
BRANCH  12  13
ATOM     13  C   UNL     1       7.821   5.170  15.113  1.00  0.00     0.027 C 
BRANCH  13  14
ATOM     14  C   UNL     1       8.897   4.776  16.132  1.00  0.00     0.004 C 
BRANCH  14  15
ATOM     15  C   UNL     1       9.910   5.912  16.327  1.00  0.00     0.000 C 
BRANCH  15  16
ATOM     16  C   UNL     1       9.967   6.816  15.088  1.00  0.00    -0.000 C 
BRANCH  16  17
ATOM     17  C   UNL     1      10.979   6.323  14.042  1.00  0.00    -0.003 C 
ATOM     18  C   UNL     1      10.636   6.779  12.626  1.00  0.00     0.004 C 
ENDBRANCH  16  17
ENDBRANCH  15  16
ENDBRANCH  14  15
ENDBRANCH  13  14
ENDBRANCH  12  13
ENDBRANCH  10  11
ENDBRANCH   1  10
TORSDOF 13
ENDMDL
MODEL 2
REMARK VINA RESULT:    -4.591      1.142      2.159
REMARK INTER + INTRA:         -10.025
REMARK INTER:                  -8.363
REMARK INTRA:                  -1.662
REMARK UNBOUND:                -1.944
REMARK SMILES CCCCCCC=CCCCCCCCC(=O)[O-]
REMARK SMILES IDX 10 1 11 2 12 3 13 4 14 5 15 6 16 7 17 8 18 9 9 10 8 11 7 12
REMARK SMILES IDX 6 13 5 14 4 15 3 16 2 17 1 18
REMARK H PARENT
REMARK Flexibility Score: inf
ROOT
ATOM      1  C   UNL     1       7.524   5.638  19.510  1.00  0.00     0.004 C 
ENDROOT
BRANCH   1   2
ATOM      2  C   UNL     1       7.427   4.116  19.353  1.00  0.00     0.000 C 
BRANCH   2   3
ATOM      3  C   UNL     1       5.964   3.655  19.344  1.00  0.00     0.000 C 
BRANCH   3   4
ATOM      4  C   UNL     1       5.804   2.319  20.082  1.00  0.00     0.000 C 
BRANCH   4   5
ATOM      5  C   UNL     1       5.434   2.490  21.567  1.00  0.00     0.006 C 
BRANCH   5   6
ATOM      6  C   UNL     1       4.479   3.665  21.841  1.00  0.00     0.053 C 
BRANCH   6   7
ATOM      7  C   UNL     1       4.980   4.575  22.920  1.00  0.00     0.041 C 
ATOM      8  O   UNL     1       4.809   4.275  24.131  1.00  0.00    -0.550 OA
ATOM      9  O   UNL     1       5.602   5.773  22.592  1.00  0.00    -0.550 OA
ENDBRANCH   6   7
ENDBRANCH   5   6
ENDBRANCH   4   5
ENDBRANCH   3   4
ENDBRANCH   2   3
ENDBRANCH   1   2
BRANCH   1  10
ATOM     10  C   UNL     1       6.202   6.316  19.134  1.00  0.00     0.027 C 
BRANCH  10  11
ATOM     11  C   UNL     1       6.405   7.293  18.005  1.00  0.00    -0.031 C 
ATOM     12  C   UNL     1       6.303   6.985  16.698  1.00  0.00    -0.031 C 
BRANCH  12  13
ATOM     13  C   UNL     1       6.056   5.596  16.165  1.00  0.00     0.027 C 
BRANCH  13  14
ATOM     14  C   UNL     1       7.295   5.068  15.432  1.00  0.00     0.004 C 
BRANCH  14  15
ATOM     15  C   UNL     1       8.558   5.815  15.880  1.00  0.00     0.000 C 
BRANCH  15  16
ATOM     16  C   UNL     1       9.560   5.945  14.723  1.00  0.00    -0.000 C 
BRANCH  16  17
ATOM     17  C   UNL     1       9.059   5.282  13.431  1.00  0.00    -0.003 C 
ATOM     18  C   UNL     1       9.856   5.710  12.200  1.00  0.00     0.004 C 
ENDBRANCH  16  17
ENDBRANCH  15  16
ENDBRANCH  14  15
ENDBRANCH  13  14
ENDBRANCH  12  13
ENDBRANCH  10  11
ENDBRANCH   1  10
TORSDOF 13
ENDMDL
MODEL 3
REMARK VINA RESULT:    -4.443      1.691      2.826
REMARK INTER + INTRA:          -9.764
REMARK INTER:                  -7.635
REMARK INTRA:                  -2.129
REMARK UNBOUND:                -1.944
REMARK SMILES CCCCCCC=CCCCCCCCC(=O)[O-]
REMARK SMILES IDX 10 1 11 2 12 3 13 4 14 5 15 6 16 7 17 8 18 9 9 10 8 11 7 12
REMARK SMILES IDX 6 13 5 14 4 15 3 16 2 17 1 18
REMARK H PARENT
REMARK Flexibility Score: inf
ROOT
ATOM      1  C   UNL     1       7.901   6.142  20.958  1.00  0.00     0.004 C 
ENDROOT
BRANCH   1   2
ATOM      2  C   UNL     1       7.054   7.419  20.895  1.00  0.00     0.000 C 
BRANCH   2   3
ATOM      3  C   UNL     1       5.582   7.118  21.202  1.00  0.00     0.000 C 
BRANCH   3   4
ATOM      4  C   UNL     1       5.442   5.823  22.014  1.00  0.00     0.000 C 
BRANCH   4   5
ATOM      5  C   UNL     1       4.462   4.818  21.384  1.00  0.00     0.006 C 
BRANCH   5   6
ATOM      6  C   UNL     1       4.538   3.406  21.992  1.00  0.00     0.053 C 
BRANCH   6   7
ATOM      7  C   UNL     1       5.746   2.647  21.535  1.00  0.00     0.041 C 
ATOM      8  O   UNL     1       5.702   1.966  20.476  1.00  0.00    -0.550 OA
ATOM      9  O   UNL     1       6.908   2.658  22.296  1.00  0.00    -0.550 OA
ENDBRANCH   6   7
ENDBRANCH   5   6
ENDBRANCH   4   5
ENDBRANCH   3   4
ENDBRANCH   2   3
ENDBRANCH   1   2
BRANCH   1  10
ATOM     10  C   UNL     1       8.345   5.706  19.557  1.00  0.00     0.027 C 
BRANCH  10  11
ATOM     11  C   UNL     1       7.424   4.648  19.009  1.00  0.00    -0.031 C 
ATOM     12  C   UNL     1       6.431   4.879  18.130  1.00  0.00    -0.031 C 
BRANCH  12  13
ATOM     13  C   UNL     1       6.034   6.245  17.628  1.00  0.00     0.027 C 
BRANCH  13  14
ATOM     14  C   UNL     1       6.736   6.561  16.302  1.00  0.00     0.004 C 
BRANCH  14  15
ATOM     15  C   UNL     1       7.047   5.275  15.526  1.00  0.00     0.000 C 
BRANCH  15  16
ATOM     16  C   UNL     1       8.515   5.246  15.075  1.00  0.00    -0.000 C 
BRANCH  16  17
ATOM     17  C   UNL     1       9.315   6.452  15.590  1.00  0.00    -0.003 C 
ATOM     18  C   UNL     1      10.386   6.915  14.605  1.00  0.00     0.004 C 
ENDBRANCH  16  17
ENDBRANCH  15  16
ENDBRANCH  14  15
ENDBRANCH  13  14
ENDBRANCH  12  13
ENDBRANCH  10  11
ENDBRANCH   1  10
TORSDOF 13
ENDMDL
MODEL 4
REMARK VINA RESULT:    -4.436      1.464      2.835
REMARK INTER + INTRA:          -9.751
REMARK INTER:                  -7.992
REMARK INTRA:                  -1.759
REMARK UNBOUND:                -1.944
REMARK SMILES CCCCCCC=CCCCCCCCC(=O)[O-]
REMARK SMILES IDX 10 1 11 2 12 3 13 4 14 5 15 6 16 7 17 8 18 9 9 10 8 11 7 12
REMARK SMILES IDX 6 13 5 14 4 15 3 16 2 17 1 18
REMARK H PARENT
REMARK Flexibility Score: inf
ROOT
ATOM      1  C   UNL     1       6.233   5.288  16.380  1.00  0.00     0.004 C 
ENDROOT
BRANCH   1   2
ATOM      2  C   UNL     1       5.993   6.790  16.581  1.00  0.00     0.000 C 
BRANCH   2   3
ATOM      3  C   UNL     1       6.443   7.237  17.978  1.00  0.00     0.000 C 
BRANCH   3   4
ATOM      4  C   UNL     1       6.884   6.035  18.825  1.00  0.00     0.000 C 
BRANCH   4   5
ATOM      5  C   UNL     1       5.902   5.706  19.963  1.00  0.00     0.006 C 
BRANCH   5   6
ATOM      6  C   UNL     1       6.367   4.558  20.877  1.00  0.00     0.053 C 
BRANCH   6   7
ATOM      7  C   UNL     1       5.534   3.323  20.719  1.00  0.00     0.041 C 
ATOM      8  O   UNL     1       5.689   2.580  19.714  1.00  0.00    -0.550 OA
ATOM      9  O   UNL     1       4.558   3.012  21.657  1.00  0.00    -0.550 OA
ENDBRANCH   6   7
ENDBRANCH   5   6
ENDBRANCH   4   5
ENDBRANCH   3   4
ENDBRANCH   2   3
ENDBRANCH   1   2
BRANCH   1  10
ATOM     10  C   UNL     1       7.330   5.041  15.339  1.00  0.00     0.027 C 
BRANCH  10  11
ATOM     11  C   UNL     1       8.630   4.676  16.008  1.00  0.00    -0.031 C 
ATOM     12  C   UNL     1       9.714   5.472  16.058  1.00  0.00    -0.031 C 
BRANCH  12  13
ATOM     13  C   UNL     1       9.822   6.813  15.377  1.00  0.00     0.027 C 
BRANCH  13  14
ATOM     14  C   UNL     1      10.874   6.774  14.263  1.00  0.00     0.004 C 
BRANCH  14  15
ATOM     15  C   UNL     1      10.218   6.912  12.883  1.00  0.00     0.000 C 
BRANCH  15  16
ATOM     16  C   UNL     1      10.362   5.615  12.074  1.00  0.00    -0.000 C 
BRANCH  16  17
ATOM     17  C   UNL     1       9.063   4.795  12.037  1.00  0.00    -0.003 C 
ATOM     18  C   UNL     1       9.237   3.386  12.601  1.00  0.00     0.004 C 
ENDBRANCH  16  17
ENDBRANCH  15  16
ENDBRANCH  14  15
ENDBRANCH  13  14
ENDBRANCH  12  13
ENDBRANCH  10  11
ENDBRANCH   1  10
TORSDOF 13
ENDMDL
MODEL 5
REMARK VINA RESULT:    -4.433      3.143      6.554
REMARK INTER + INTRA:          -9.746
REMARK INTER:                  -7.499
REMARK INTRA:                  -2.247
REMARK UNBOUND:                -1.944
REMARK SMILES CCCCCCC=CCCCCCCCC(=O)[O-]
REMARK SMILES IDX 10 1 11 2 12 3 13 4 14 5 15 6 16 7 17 8 18 9 9 10 8 11 7 12
REMARK SMILES IDX 6 13 5 14 4 15 3 16 2 17 1 18
REMARK H PARENT
REMARK Flexibility Score: inf
ROOT
ATOM      1  C   UNL     1       7.239   3.071  19.944  1.00  0.00     0.004 C 
ENDROOT
BRANCH   1   2
ATOM      2  C   UNL     1       7.454   4.441  19.291  1.00  0.00     0.000 C 
BRANCH   2   3
ATOM      3  C   UNL     1       6.266   4.819  18.398  1.00  0.00     0.000 C 
BRANCH   3   4
ATOM      4  C   UNL     1       6.305   6.309  18.031  1.00  0.00     0.000 C 
BRANCH   4   5
ATOM      5  C   UNL     1       6.377   6.555  16.513  1.00  0.00     0.006 C 
BRANCH   5   6
ATOM      6  C   UNL     1       6.786   5.315  15.699  1.00  0.00     0.053 C 
BRANCH   6   7
ATOM      7  C   UNL     1       8.216   5.365  15.254  1.00  0.00     0.041 C 
ATOM      8  O   UNL     1       8.517   5.100  14.061  1.00  0.00    -0.550 OA
ATOM      9  O   UNL     1       9.222   5.665  16.165  1.00  0.00    -0.550 OA
ENDBRANCH   6   7
ENDBRANCH   5   6
ENDBRANCH   4   5
ENDBRANCH   3   4
ENDBRANCH   2   3
ENDBRANCH   1   2
BRANCH   1  10
ATOM     10  C   UNL     1       5.754   2.693  19.955  1.00  0.00     0.027 C 
BRANCH  10  11
ATOM     11  C   UNL     1       5.258   2.516  21.367  1.00  0.00    -0.031 C 
ATOM     12  C   UNL     1       4.609   3.460  22.074  1.00  0.00    -0.031 C 
BRANCH  12  13
ATOM     13  C   UNL     1       4.358   4.866  21.592  1.00  0.00     0.027 C 
BRANCH  13  14
ATOM     14  C   UNL     1       5.423   5.825  22.135  1.00  0.00     0.004 C 
BRANCH  14  15
ATOM     15  C   UNL     1       5.387   7.165  21.390  1.00  0.00     0.000 C 
BRANCH  15  16
ATOM     16  C   UNL     1       6.788   7.789  21.310  1.00  0.00    -0.000 C 
BRANCH  16  17
ATOM     17  C   UNL     1       7.838   6.983  22.090  1.00  0.00    -0.003 C 
ATOM     18  C   UNL     1       9.184   6.915  21.371  1.00  0.00     0.004 C 
ENDBRANCH  16  17
ENDBRANCH  15  16
ENDBRANCH  14  15
ENDBRANCH  13  14
ENDBRANCH  12  13
ENDBRANCH  10  11
ENDBRANCH   1  10
TORSDOF 13
ENDMDL
MODEL 6
REMARK VINA RESULT:    -4.432      3.456      7.137
REMARK INTER + INTRA:          -9.745
REMARK INTER:                  -7.971
REMARK INTRA:                  -1.774
REMARK UNBOUND:                -1.944
REMARK SMILES CCCCCCC=CCCCCCCCC(=O)[O-]
REMARK SMILES IDX 10 1 11 2 12 3 13 4 14 5 15 6 16 7 17 8 18 9 9 10 8 11 7 12
REMARK SMILES IDX 6 13 5 14 4 15 3 16 2 17 1 18
REMARK H PARENT
REMARK Flexibility Score: inf
ROOT
ATOM      1  C   UNL     1       6.461   6.270  18.064  1.00  0.00     0.004 C 
ENDROOT
BRANCH   1   2
ATOM      2  C   UNL     1       6.213   6.504  16.569  1.00  0.00     0.000 C 
BRANCH   2   3
ATOM      3  C   UNL     1       5.800   5.203  15.869  1.00  0.00     0.000 C 
BRANCH   3   4
ATOM      4  C   UNL     1       6.797   4.835  14.761  1.00  0.00     0.000 C 
BRANCH   4   5
ATOM      5  C   UNL     1       8.257   4.806  15.247  1.00  0.00     0.006 C 
BRANCH   5   6
ATOM      6  C   UNL     1       9.288   5.117  14.147  1.00  0.00     0.053 C 
BRANCH   6   7
ATOM      7  C   UNL     1       9.932   6.458  14.323  1.00  0.00     0.041 C 
ATOM      8  O   UNL     1      10.639   6.945  13.402  1.00  0.00    -0.550 OA
ATOM      9  O   UNL     1       9.786   7.152  15.517  1.00  0.00    -0.550 OA
ENDBRANCH   6   7
ENDBRANCH   5   6
ENDBRANCH   4   5
ENDBRANCH   3   4
ENDBRANCH   2   3
ENDBRANCH   1   2
BRANCH   1  10
ATOM     10  C   UNL     1       6.190   4.810  18.445  1.00  0.00     0.027 C 
BRANCH  10  11
ATOM     11  C   UNL     1       7.326   4.252  19.263  1.00  0.00    -0.031 C 
ATOM     12  C   UNL     1       7.259   3.124  19.995  1.00  0.00    -0.031 C 
BRANCH  12  13
ATOM     13  C   UNL     1       6.011   2.297  20.177  1.00  0.00     0.027 C 
BRANCH  13  14
ATOM     14  C   UNL     1       5.399   2.535  21.562  1.00  0.00     0.004 C 
BRANCH  14  15
ATOM     15  C   UNL     1       4.364   3.666  21.518  1.00  0.00     0.000 C 
BRANCH  15  16
ATOM     16  C   UNL     1       4.881   4.913  22.250  1.00  0.00    -0.000 C 
BRANCH  16  17
ATOM     17  C   UNL     1       4.753   6.189  21.403  1.00  0.00    -0.003 C 
ATOM     18  C   UNL     1       5.911   7.161  21.622  1.00  0.00     0.004 C 
ENDBRANCH  16  17
ENDBRANCH  15  16
ENDBRANCH  14  15
ENDBRANCH  13  14
ENDBRANCH  12  13
ENDBRANCH  10  11
ENDBRANCH   1  10
TORSDOF 13
ENDMDL
MODEL 7
REMARK VINA RESULT:    -4.410      1.641      3.800
REMARK INTER + INTRA:          -9.705
REMARK INTER:                  -7.896
REMARK INTRA:                  -1.809
REMARK UNBOUND:                -1.944
REMARK SMILES CCCCCCC=CCCCCCCCC(=O)[O-]
REMARK SMILES IDX 10 1 11 2 12 3 13 4 14 5 15 6 16 7 17 8 18 9 9 10 8 11 7 12
REMARK SMILES IDX 6 13 5 14 4 15 3 16 2 17 1 18
REMARK H PARENT
REMARK Flexibility Score: inf
ROOT
ATOM      1  C   UNL     1       8.706   4.725  16.151  1.00  0.00     0.004 C 
ENDROOT
BRANCH   1   2
ATOM      2  C   UNL     1       7.615   5.571  15.484  1.00  0.00     0.000 C 
BRANCH   2   3
ATOM      3  C   UNL     1       6.328   5.569  16.319  1.00  0.00     0.000 C 
BRANCH   3   4
ATOM      4  C   UNL     1       6.404   6.606  17.449  1.00  0.00     0.000 C 
BRANCH   4   5
ATOM      5  C   UNL     1       6.421   5.970  18.851  1.00  0.00     0.006 C 
BRANCH   5   6
ATOM      6  C   UNL     1       6.446   4.431  18.839  1.00  0.00     0.053 C 
BRANCH   6   7
ATOM      7  C   UNL     1       5.645   3.833  19.954  1.00  0.00     0.041 C 
ATOM      8  O   UNL     1       5.518   2.583  20.043  1.00  0.00    -0.550 OA
ATOM      9  O   UNL     1       5.005   4.654  20.874  1.00  0.00    -0.550 OA
ENDBRANCH   6   7
ENDBRANCH   5   6
ENDBRANCH   4   5
ENDBRANCH   3   4
ENDBRANCH   2   3
ENDBRANCH   1   2
BRANCH   1  10
ATOM     10  C   UNL     1      10.043   5.473  16.179  1.00  0.00     0.027 C 
BRANCH  10  11
ATOM     11  C   UNL     1       9.941   6.779  15.435  1.00  0.00    -0.031 C 
ATOM     12  C   UNL     1      10.546   7.039  14.261  1.00  0.00    -0.031 C 
BRANCH  12  13
ATOM     13  C   UNL     1      11.488   6.094  13.558  1.00  0.00     0.027 C 
BRANCH  13  14
ATOM     14  C   UNL     1      10.946   5.717  12.174  1.00  0.00     0.004 C 
BRANCH  14  15
ATOM     15  C   UNL     1       9.427   5.917  12.106  1.00  0.00     0.000 C 
BRANCH  15  16
ATOM     16  C   UNL     1       8.709   4.589  11.828  1.00  0.00    -0.000 C 
BRANCH  16  17
ATOM     17  C   UNL     1       9.337   3.408  12.584  1.00  0.00    -0.003 C 
ATOM     18  C   UNL     1       8.304   2.568  13.332  1.00  0.00     0.004 C 
ENDBRANCH  16  17
ENDBRANCH  15  16
ENDBRANCH  14  15
ENDBRANCH  13  14
ENDBRANCH  12  13
ENDBRANCH  10  11
ENDBRANCH   1  10
TORSDOF 13
ENDMDL
MODEL 8
REMARK VINA RESULT:    -4.338      3.663      5.962
REMARK INTER + INTRA:          -9.578
REMARK INTER:                  -7.760
REMARK INTRA:                  -1.818
REMARK UNBOUND:                -1.944
REMARK SMILES CCCCCCC=CCCCCCCCC(=O)[O-]
REMARK SMILES IDX 10 1 11 2 12 3 13 4 14 5 15 6 16 7 17 8 18 9 9 10 8 11 7 12
REMARK SMILES IDX 6 13 5 14 4 15 3 16 2 17 1 18
REMARK H PARENT
REMARK Flexibility Score: inf
ROOT
ATOM      1  C   UNL     1       5.384   5.175  22.875  1.00  0.00     0.004 C 
ENDROOT
BRANCH   1   2
ATOM      2  C   UNL     1       6.409   6.093  22.197  1.00  0.00     0.000 C 
BRANCH   2   3
ATOM      3  C   UNL     1       5.726   7.320  21.580  1.00  0.00     0.000 C 
BRANCH   3   4
ATOM      4  C   UNL     1       6.762   8.287  20.990  1.00  0.00     0.000 C 
BRANCH   4   5
ATOM      5  C   UNL     1       7.602   9.000  22.064  1.00  0.00     0.006 C 
BRANCH   5   6
ATOM      6  C   UNL     1       7.711  10.523  21.864  1.00  0.00     0.053 C 
BRANCH   6   7
ATOM      7  C   UNL     1       6.896  11.294  22.856  1.00  0.00     0.041 C 
ATOM      8  O   UNL     1       5.659  11.450  22.674  1.00  0.00    -0.550 OA
ATOM      9  O   UNL     1       7.504  11.874  23.962  1.00  0.00    -0.550 OA
ENDBRANCH   6   7
ENDBRANCH   5   6
ENDBRANCH   4   5
ENDBRANCH   3   4
ENDBRANCH   2   3
ENDBRANCH   1   2
BRANCH   1  10
ATOM     10  C   UNL     1       4.478   4.503  21.838  1.00  0.00     0.027 C 
BRANCH  10  11
ATOM     11  C   UNL     1       4.938   3.096  21.558  1.00  0.00    -0.031 C 
ATOM     12  C   UNL     1       5.617   2.718  20.458  1.00  0.00    -0.031 C 
BRANCH  12  13
ATOM     13  C   UNL     1       5.941   3.628  19.300  1.00  0.00     0.027 C 
BRANCH  13  14
ATOM     14  C   UNL     1       7.422   4.025  19.320  1.00  0.00     0.004 C 
BRANCH  14  15
ATOM     15  C   UNL     1       7.630   5.403  18.679  1.00  0.00     0.000 C 
BRANCH  15  16
ATOM     16  C   UNL     1       6.302   5.974  18.161  1.00  0.00    -0.000 C 
BRANCH  16  17
ATOM     17  C   UNL     1       6.330   6.257  16.651  1.00  0.00    -0.003 C 
ATOM     18  C   UNL     1       5.483   5.270  15.849  1.00  0.00     0.004 C 
ENDBRANCH  16  17
ENDBRANCH  15  16
ENDBRANCH  14  15
ENDBRANCH  13  14
ENDBRANCH  12  13
ENDBRANCH  10  11
ENDBRANCH   1  10
TORSDOF 13
ENDMDL
MODEL 9
REMARK VINA RESULT:    -4.329      1.708      3.663
REMARK INTER + INTRA:          -9.563
REMARK INTER:                  -7.694
REMARK INTRA:                  -1.869
REMARK UNBOUND:                -1.944
REMARK SMILES CCCCCCC=CCCCCCCCC(=O)[O-]
REMARK SMILES IDX 10 1 11 2 12 3 13 4 14 5 15 6 16 7 17 8 18 9 9 10 8 11 7 12
REMARK SMILES IDX 6 13 5 14 4 15 3 16 2 17 1 18
REMARK H PARENT
REMARK Flexibility Score: inf
ROOT
ATOM      1  C   UNL     1       7.863   5.015  15.523  1.00  0.00     0.004 C 
ENDROOT
BRANCH   1   2
ATOM      2  C   UNL     1       6.338   4.927  15.385  1.00  0.00     0.000 C 
BRANCH   2   3
ATOM      3  C   UNL     1       5.645   5.973  16.267  1.00  0.00     0.000 C 
BRANCH   3   4
ATOM      4  C   UNL     1       6.673   6.801  17.052  1.00  0.00     0.000 C 
BRANCH   4   5
ATOM      5  C   UNL     1       6.533   6.647  18.577  1.00  0.00     0.006 C 
BRANCH   5   6
ATOM      6  C   UNL     1       7.514   5.635  19.195  1.00  0.00     0.053 C 
BRANCH   6   7
ATOM      7  C   UNL     1       6.821   4.431  19.756  1.00  0.00     0.041 C 
ATOM      8  O   UNL     1       7.172   3.961  20.870  1.00  0.00    -0.550 OA
ATOM      9  O   UNL     1       5.816   3.802  19.033  1.00  0.00    -0.550 OA
ENDBRANCH   6   7
ENDBRANCH   5   6
ENDBRANCH   4   5
ENDBRANCH   3   4
ENDBRANCH   2   3
ENDBRANCH   1   2
BRANCH   1  10
ATOM     10  C   UNL     1       8.553   3.919  14.704  1.00  0.00     0.027 C 
BRANCH  10  11
ATOM     11  C   UNL     1       7.889   3.757  13.361  1.00  0.00    -0.031 C 
ATOM     12  C   UNL     1       8.492   3.979  12.178  1.00  0.00    -0.031 C 
BRANCH  12  13
ATOM     13  C   UNL     1       9.896   4.507  12.021  1.00  0.00     0.027 C 
BRANCH  13  14
ATOM     14  C   UNL     1       9.917   6.036  12.141  1.00  0.00     0.004 C 
BRANCH  14  15
ATOM     15  C   UNL     1      11.039   6.497  13.079  1.00  0.00     0.000 C 
BRANCH  15  16
ATOM     16  C   UNL     1      10.464   7.134  14.353  1.00  0.00    -0.000 C 
BRANCH  16  17
ATOM     17  C   UNL     1      11.215   6.700  15.621  1.00  0.00    -0.003 C 
ATOM     18  C   UNL     1      12.001   5.404  15.429  1.00  0.00     0.004 C 
ENDBRANCH  16  17
ENDBRANCH  15  16
ENDBRANCH  14  15
ENDBRANCH  13  14
ENDBRANCH  12  13
ENDBRANCH  10  11
ENDBRANCH   1  10
TORSDOF 13
ENDMDL
