MODEL 1
REMARK VINA RESULT:    -3.933      0.000      0.000
REMARK INTER + INTRA:          -7.351
REMARK INTER:                  -6.232
REMARK INTRA:                  -1.119
REMARK UNBOUND:                -1.119
REMARK SMILES CCCCCCCCCCCC(=O)[O-]
REMARK SMILES IDX 7 1 8 2 9 3 10 4 11 5 12 6 13 7 14 8 6 9 5 10 4 11 3 12 2 13
REMARK SMILES IDX 1 14
REMARK H PARENT
REMARK Flexibility Score: inf
ROOT
ATOM      1  C   UNL     1     155.507 171.864 163.655  1.00  0.00     0.000 C 
ENDROOT
BRANCH   1   2
ATOM      2  C   UNL     1     155.863 173.220 164.282  1.00  0.00     0.000 C 
BRANCH   2   3
ATOM      3  C   UNL     1     157.336 173.604 164.069  1.00  0.00     0.000 C 
BRANCH   3   4
ATOM      4  C   UNL     1     157.875 173.148 162.702  1.00  0.00     0.006 C 
BRANCH   4   5
ATOM      5  C   UNL     1     158.041 174.320 161.724  1.00  0.00     0.053 C 
BRANCH   5   6
ATOM      6  C   UNL     1     156.870 174.441 160.796  1.00  0.00     0.041 C 
ATOM      7  O   UNL     1     155.786 174.933 161.207  1.00  0.00    -0.550 OA
ATOM      8  O   UNL     1     156.986 174.041 159.472  1.00  0.00    -0.550 OA
ENDBRANCH   5   6
ENDBRANCH   4   5
ENDBRANCH   3   4
ENDBRANCH   2   3
ENDBRANCH   1   2
BRANCH   1   9
ATOM      9  C   UNL     1     154.314 171.223 164.380  1.00  0.00     0.000 C 
BRANCH   9  10
ATOM     10  C   UNL     1     154.227 171.627 165.863  1.00  0.00    -0.000 C 
BRANCH  10  11
ATOM     11  C   UNL     1     154.613 170.520 166.865  1.00  0.00    -0.000 C 
BRANCH  11  12
ATOM     12  C   UNL     1     155.708 170.907 167.875  1.00  0.00    -0.000 C 
BRANCH  12  13
ATOM     13  C   UNL     1     155.952 172.422 167.937  1.00  0.00    -0.003 C 
ATOM     14  C   UNL     1     157.415 172.755 167.660  1.00  0.00     0.004 C 
ENDBRANCH  12  13
ENDBRANCH  11  12
ENDBRANCH  10  11
ENDBRANCH   9  10
ENDBRANCH   1   9
TORSDOF 10
ENDMDL
MODEL 2
REMARK VINA RESULT:    -3.837      1.747      3.284
REMARK INTER + INTRA:          -7.200
REMARK INTER:                  -5.934
REMARK INTRA:                  -1.266
REMARK UNBOUND:                -1.119
REMARK SMILES CCCCCCCCCCCC(=O)[O-]
REMARK SMILES IDX 7 1 8 2 9 3 10 4 11 5 12 6 13 7 14 8 6 9 5 10 4 11 3 12 2 13
REMARK SMILES IDX 1 14
REMARK H PARENT
REMARK Flexibility Score: inf
ROOT
ATOM      1  C   UNL     1     157.314 173.148 166.911  1.00  0.00     0.000 C 
ENDROOT
BRANCH   1   2
ATOM      2  C   UNL     1     157.127 174.050 165.682  1.00  0.00     0.000 C 
BRANCH   2   3
ATOM      3  C   UNL     1     155.686 174.562 165.534  1.00  0.00     0.000 C 
BRANCH   3   4
ATOM      4  C   UNL     1     155.476 175.376 164.246  1.00  0.00     0.006 C 
BRANCH   4   5
ATOM      5  C   UNL     1     154.448 174.725 163.310  1.00  0.00     0.053 C 
BRANCH   5   6
ATOM      6  C   UNL     1     155.103 174.067 162.134  1.00  0.00     0.041 C 
ATOM      7  O   UNL     1     154.561 174.117 160.997  1.00  0.00    -0.550 OA
ATOM      8  O   UNL     1     156.326 173.426 162.285  1.00  0.00    -0.550 OA
ENDBRANCH   5   6
ENDBRANCH   4   5
ENDBRANCH   3   4
ENDBRANCH   2   3
ENDBRANCH   1   2
BRANCH   1   9
ATOM      9  C   UNL     1     155.957 172.753 167.512  1.00  0.00     0.000 C 
BRANCH   9  10
ATOM     10  C   UNL     1     155.817 171.236 167.730  1.00  0.00    -0.000 C 
BRANCH  10  11
ATOM     11  C   UNL     1     154.673 170.565 166.942  1.00  0.00    -0.000 C 
BRANCH  11  12
ATOM     12  C   UNL     1     154.044 171.434 165.838  1.00  0.00    -0.000 C 
BRANCH  12  13
ATOM     13  C   UNL     1     154.610 171.129 164.444  1.00  0.00    -0.003 C 
ATOM     14  C   UNL     1     153.497 170.769 163.466  1.00  0.00     0.004 C 
ENDBRANCH  12  13
ENDBRANCH  11  12
ENDBRANCH  10  11
ENDBRANCH   9  10
ENDBRANCH   1   9
TORSDOF 10
ENDMDL
MODEL 3
REMARK VINA RESULT:    -3.820      1.723      4.176
REMARK INTER + INTRA:          -7.172
REMARK INTER:                  -5.884
REMARK INTRA:                  -1.287
REMARK UNBOUND:                -1.119
REMARK SMILES CCCCCCCCCCCC(=O)[O-]
REMARK SMILES IDX 7 1 8 2 9 3 10 4 11 5 12 6 13 7 14 8 6 9 5 10 4 11 3 12 2 13
REMARK SMILES IDX 1 14
REMARK H PARENT
REMARK Flexibility Score: inf
ROOT
ATOM      1  C   UNL     1     155.548 171.152 167.447  1.00  0.00     0.000 C 
ENDROOT
BRANCH   1   2
ATOM      2  C   UNL     1     154.204 171.075 166.708  1.00  0.00     0.000 C 
BRANCH   2   3
ATOM      3  C   UNL     1     154.359 171.169 165.182  1.00  0.00     0.000 C 
BRANCH   3   4
ATOM      4  C   UNL     1     153.463 172.254 164.562  1.00  0.00     0.006 C 
BRANCH   4   5
ATOM      5  C   UNL     1     153.569 172.289 163.031  1.00  0.00     0.053 C 
BRANCH   5   6
ATOM      6  C   UNL     1     153.649 173.692 162.510  1.00  0.00     0.041 C 
ATOM      7  O   UNL     1     153.657 174.665 163.309  1.00  0.00    -0.550 OA
ATOM      8  O   UNL     1     153.747 173.924 161.144  1.00  0.00    -0.550 OA
ENDBRANCH   5   6
ENDBRANCH   4   5
ENDBRANCH   3   4
ENDBRANCH   2   3
ENDBRANCH   1   2
BRANCH   1   9
ATOM      9  C   UNL     1     155.938 172.612 167.723  1.00  0.00     0.000 C 
BRANCH   9  10
ATOM     10  C   UNL     1     156.904 173.184 166.669  1.00  0.00    -0.000 C 
BRANCH  10  11
ATOM     11  C   UNL     1     156.311 174.288 165.770  1.00  0.00    -0.000 C 
BRANCH  11  12
ATOM     12  C   UNL     1     156.978 174.435 164.391  1.00  0.00    -0.000 C 
BRANCH  12  13
ATOM     13  C   UNL     1     157.167 173.091 163.674  1.00  0.00    -0.003 C 
ATOM     14  C   UNL     1     158.493 173.051 162.922  1.00  0.00     0.004 C 
ENDBRANCH  12  13
ENDBRANCH  11  12
ENDBRANCH  10  11
ENDBRANCH   9  10
ENDBRANCH   1   9
TORSDOF 10
ENDMDL
MODEL 4
REMARK VINA RESULT:    -3.816      2.870      5.141
REMARK INTER + INTRA:          -7.166
REMARK INTER:                  -5.621
REMARK INTRA:                  -1.545
REMARK UNBOUND:                -1.119
REMARK SMILES CCCCCCCCCCCC(=O)[O-]
REMARK SMILES IDX 7 1 8 2 9 3 10 4 11 5 12 6 13 7 14 8 6 9 5 10 4 11 3 12 2 13
REMARK SMILES IDX 1 14
REMARK H PARENT
REMARK Flexibility Score: inf
ROOT
ATOM      1  C   UNL     1     155.018 172.246 163.625  1.00  0.00     0.000 C 
ENDROOT
BRANCH   1   2
ATOM      2  C   UNL     1     155.461 172.550 165.064  1.00  0.00     0.000 C 
BRANCH   2   3
ATOM      3  C   UNL     1     155.386 174.047 165.405  1.00  0.00     0.000 C 
BRANCH   3   4
ATOM      4  C   UNL     1     156.773 174.708 165.478  1.00  0.00     0.006 C 
BRANCH   4   5
ATOM      5  C   UNL     1     157.806 173.814 166.178  1.00  0.00     0.053 C 
BRANCH   5   6
ATOM      6  C   UNL     1     159.182 174.406 166.125  1.00  0.00     0.041 C 
ATOM      7  O   UNL     1     160.087 173.973 166.887  1.00  0.00    -0.550 OA
ATOM      8  O   UNL     1     159.473 175.413 165.214  1.00  0.00    -0.550 OA
ENDBRANCH   5   6
ENDBRANCH   4   5
ENDBRANCH   3   4
ENDBRANCH   2   3
ENDBRANCH   1   2
BRANCH   1   9
ATOM      9  C   UNL     1     154.041 173.316 163.116  1.00  0.00     0.000 C 
BRANCH   9  10
ATOM     10  C   UNL     1     154.439 173.884 161.741  1.00  0.00    -0.000 C 
BRANCH  10  11
ATOM     11  C   UNL     1     155.643 174.849 161.756  1.00  0.00    -0.000 C 
BRANCH  11  12
ATOM     12  C   UNL     1     156.911 174.320 161.064  1.00  0.00    -0.000 C 
BRANCH  12  13
ATOM     13  C   UNL     1     158.158 174.408 161.956  1.00  0.00    -0.003 C 
ATOM     14  C   UNL     1     158.448 173.068 162.627  1.00  0.00     0.004 C 
ENDBRANCH  12  13
ENDBRANCH  11  12
ENDBRANCH  10  11
ENDBRANCH   9  10
ENDBRANCH   1   9
TORSDOF 10
ENDMDL
MODEL 5
REMARK VINA RESULT:    -3.815      1.460      3.091
REMARK INTER + INTRA:          -7.165
REMARK INTER:                  -6.000
REMARK INTRA:                  -1.165
REMARK UNBOUND:                -1.119
REMARK SMILES CCCCCCCCCCCC(=O)[O-]
REMARK SMILES IDX 7 1 8 2 9 3 10 4 11 5 12 6 13 7 14 8 6 9 5 10 4 11 3 12 2 13
REMARK SMILES IDX 1 14
REMARK H PARENT
REMARK Flexibility Score: inf
ROOT
ATOM      1  C   UNL     1     158.374 174.093 165.468  1.00  0.00     0.000 C 
ENDROOT
BRANCH   1   2
ATOM      2  C   UNL     1     158.929 173.741 164.080  1.00  0.00     0.000 C 
BRANCH   2   3
ATOM      3  C   UNL     1     157.881 173.078 163.171  1.00  0.00     0.000 C 
BRANCH   3   4
ATOM      4  C   UNL     1     157.798 173.738 161.784  1.00  0.00     0.006 C 
BRANCH   4   5
ATOM      5  C   UNL     1     156.430 174.385 161.530  1.00  0.00     0.053 C 
BRANCH   5   6
ATOM      6  C   UNL     1     156.134 174.507 160.066  1.00  0.00     0.041 C 
ATOM      7  O   UNL     1     157.065 174.413 159.222  1.00  0.00    -0.550 OA
ATOM      8  O   UNL     1     154.828 174.694 159.631  1.00  0.00    -0.550 OA
ENDBRANCH   5   6
ENDBRANCH   4   5
ENDBRANCH   3   4
ENDBRANCH   2   3
ENDBRANCH   1   2
BRANCH   1   9
ATOM      9  C   UNL     1     156.873 174.412 165.392  1.00  0.00     0.000 C 
BRANCH   9  10
ATOM     10  C   UNL     1     156.039 173.609 166.407  1.00  0.00    -0.000 C 
BRANCH  10  11
ATOM     11  C   UNL     1     154.705 173.055 165.865  1.00  0.00    -0.000 C 
BRANCH  11  12
ATOM     12  C   UNL     1     154.722 171.563 165.490  1.00  0.00    -0.000 C 
BRANCH  12  13
ATOM     13  C   UNL     1     154.736 171.330 163.973  1.00  0.00    -0.003 C 
ATOM     14  C   UNL     1     153.876 172.362 163.250  1.00  0.00     0.004 C 
ENDBRANCH  12  13
ENDBRANCH  11  12
ENDBRANCH  10  11
ENDBRANCH   9  10
ENDBRANCH   1   9
TORSDOF 10
ENDMDL
MODEL 6
REMARK VINA RESULT:    -3.782      1.299      3.041
REMARK INTER + INTRA:          -7.113
REMARK INTER:                  -5.782
REMARK INTRA:                  -1.330
REMARK UNBOUND:                -1.119
REMARK SMILES CCCCCCCCCCCC(=O)[O-]
REMARK SMILES IDX 7 1 8 2 9 3 10 4 11 5 12 6 13 7 14 8 6 9 5 10 4 11 3 12 2 13
REMARK SMILES IDX 1 14
REMARK H PARENT
REMARK Flexibility Score: inf
ROOT
ATOM      1  C   UNL     1     156.624 173.022 166.695  1.00  0.00     0.000 C 
ENDROOT
BRANCH   1   2
ATOM      2  C   UNL     1     156.546 174.252 165.779  1.00  0.00     0.000 C 
BRANCH   2   3
ATOM      3  C   UNL     1     157.584 174.216 164.646  1.00  0.00     0.000 C 
BRANCH   3   4
ATOM      4  C   UNL     1     157.282 173.128 163.602  1.00  0.00     0.006 C 
BRANCH   4   5
ATOM      5  C   UNL     1     157.945 173.423 162.249  1.00  0.00     0.053 C 
BRANCH   5   6
ATOM      6  C   UNL     1     157.008 174.120 161.309  1.00  0.00     0.041 C 
ATOM      7  O   UNL     1     157.431 174.570 160.211  1.00  0.00    -0.550 OA
ATOM      8  O   UNL     1     155.663 174.246 161.631  1.00  0.00    -0.550 OA
ENDBRANCH   5   6
ENDBRANCH   4   5
ENDBRANCH   3   4
ENDBRANCH   2   3
ENDBRANCH   1   2
BRANCH   1   9
ATOM      9  C   UNL     1     155.247 172.696 167.292  1.00  0.00     0.000 C 
BRANCH   9  10
ATOM     10  C   UNL     1     154.115 173.545 166.685  1.00  0.00    -0.000 C 
BRANCH  10  11
ATOM     11  C   UNL     1     153.187 172.795 165.708  1.00  0.00    -0.000 C 
BRANCH  11  12
ATOM     12  C   UNL     1     153.385 173.143 164.222  1.00  0.00    -0.000 C 
BRANCH  12  13
ATOM     13  C   UNL     1     153.623 171.905 163.346  1.00  0.00    -0.003 C 
ATOM     14  C   UNL     1     154.431 170.850 164.094  1.00  0.00     0.004 C 
ENDBRANCH  12  13
ENDBRANCH  11  12
ENDBRANCH  10  11
ENDBRANCH   9  10
ENDBRANCH   1   9
TORSDOF 10
ENDMDL
MODEL 7
REMARK VINA RESULT:    -3.756      3.025      6.317
REMARK INTER + INTRA:          -7.070
REMARK INTER:                  -5.884
REMARK INTRA:                  -1.187
REMARK UNBOUND:                -1.119
REMARK SMILES CCCCCCCCCCCC(=O)[O-]
REMARK SMILES IDX 7 1 8 2 9 3 10 4 11 5 12 6 13 7 14 8 6 9 5 10 4 11 3 12 2 13
REMARK SMILES IDX 1 14
REMARK H PARENT
REMARK Flexibility Score: inf
ROOT
ATOM      1  C   UNL     1     157.715 173.258 162.488  1.00  0.00     0.000 C 
ENDROOT
BRANCH   1   2
ATOM      2  C   UNL     1     156.857 173.117 163.754  1.00  0.00     0.000 C 
BRANCH   2   3
ATOM      3  C   UNL     1     155.663 172.170 163.560  1.00  0.00     0.000 C 
BRANCH   3   4
ATOM      4  C   UNL     1     154.571 172.369 164.626  1.00  0.00     0.006 C 
BRANCH   4   5
ATOM      5  C   UNL     1     154.570 171.245 165.671  1.00  0.00     0.053 C 
BRANCH   5   6
ATOM      6  C   UNL     1     155.323 171.634 166.908  1.00  0.00     0.041 C 
ATOM      7  O   UNL     1     155.685 170.752 167.732  1.00  0.00    -0.550 OA
ATOM      8  O   UNL     1     155.652 172.964 167.135  1.00  0.00    -0.550 OA
ENDBRANCH   5   6
ENDBRANCH   4   5
ENDBRANCH   3   4
ENDBRANCH   2   3
ENDBRANCH   1   2
BRANCH   1   9
ATOM      9  C   UNL     1     158.069 174.729 162.226  1.00  0.00     0.000 C 
BRANCH   9  10
ATOM     10  C   UNL     1     157.437 175.277 160.934  1.00  0.00    -0.000 C 
BRANCH  10  11
ATOM     11  C   UNL     1     156.456 174.318 160.229  1.00  0.00    -0.000 C 
BRANCH  11  12
ATOM     12  C   UNL     1     155.007 174.827 160.127  1.00  0.00    -0.000 C 
BRANCH  12  13
ATOM     13  C   UNL     1     154.657 175.851 161.216  1.00  0.00    -0.003 C 
ATOM     14  C   UNL     1     153.849 175.206 162.338  1.00  0.00     0.004 C 
ENDBRANCH  12  13
ENDBRANCH  11  12
ENDBRANCH  10  11
ENDBRANCH   9  10
ENDBRANCH   1   9
TORSDOF 10
ENDMDL
MODEL 8
REMARK VINA RESULT:    -3.752      1.580      3.198
REMARK INTER + INTRA:          -7.065
REMARK INTER:                  -5.897
REMARK INTRA:                  -1.168
REMARK UNBOUND:                -1.119
REMARK SMILES CCCCCCCCCCCC(=O)[O-]
REMARK SMILES IDX 7 1 8 2 9 3 10 4 11 5 12 6 13 7 14 8 6 9 5 10 4 11 3 12 2 13
REMARK SMILES IDX 1 14
REMARK H PARENT
REMARK Flexibility Score: inf
ROOT
ATOM      1  C   UNL     1     158.047 173.613 164.211  1.00  0.00     0.000 C 
ENDROOT
BRANCH   1   2
ATOM      2  C   UNL     1     157.847 173.160 162.757  1.00  0.00     0.000 C 
BRANCH   2   3
ATOM      3  C   UNL     1     158.074 174.293 161.745  1.00  0.00     0.000 C 
BRANCH   3   4
ATOM      4  C   UNL     1     157.016 174.310 160.628  1.00  0.00     0.006 C 
BRANCH   4   5
ATOM      5  C   UNL     1     155.862 175.274 160.936  1.00  0.00     0.053 C 
BRANCH   5   6
ATOM      6  C   UNL     1     154.526 174.615 160.770  1.00  0.00     0.041 C 
ATOM      7  O   UNL     1     153.924 174.674 159.665  1.00  0.00    -0.550 OA
ATOM      8  O   UNL     1     153.961 173.910 161.824  1.00  0.00    -0.550 OA
ENDBRANCH   5   6
ENDBRANCH   4   5
ENDBRANCH   3   4
ENDBRANCH   2   3
ENDBRANCH   1   2
BRANCH   1   9
ATOM      9  C   UNL     1     157.136 174.805 164.543  1.00  0.00     0.000 C 
BRANCH   9  10
ATOM     10  C   UNL     1     156.021 174.446 165.542  1.00  0.00    -0.000 C 
BRANCH  10  11
ATOM     11  C   UNL     1     156.276 173.173 166.376  1.00  0.00    -0.000 C 
BRANCH  11  12
ATOM     12  C   UNL     1     155.235 172.054 166.193  1.00  0.00    -0.000 C 
BRANCH  12  13
ATOM     13  C   UNL     1     154.419 172.205 164.901  1.00  0.00    -0.003 C 
ATOM     14  C   UNL     1     154.800 171.135 163.883  1.00  0.00     0.004 C 
ENDBRANCH  12  13
ENDBRANCH  11  12
ENDBRANCH  10  11
ENDBRANCH   9  10
ENDBRANCH   1   9
TORSDOF 10
ENDMDL
MODEL 9
REMARK VINA RESULT:    -3.734      2.876      6.275
REMARK INTER + INTRA:          -7.036
REMARK INTER:                  -5.970
REMARK INTRA:                  -1.066
REMARK UNBOUND:                -1.119
REMARK SMILES CCCCCCCCCCCC(=O)[O-]
REMARK SMILES IDX 7 1 8 2 9 3 10 4 11 5 12 6 13 7 14 8 6 9 5 10 4 11 3 12 2 13
REMARK SMILES IDX 1 14
REMARK H PARENT
REMARK Flexibility Score: inf
ROOT
ATOM      1  C   UNL     1     155.473 173.076 163.768  1.00  0.00     0.000 C 
ENDROOT
BRANCH   1   2
ATOM      2  C   UNL     1     155.116 171.588 163.640  1.00  0.00     0.000 C 
BRANCH   2   3
ATOM      3  C   UNL     1     153.761 171.246 164.278  1.00  0.00     0.000 C 
BRANCH   3   4
ATOM      4  C   UNL     1     153.607 171.832 165.691  1.00  0.00     0.006 C 
BRANCH   4   5
ATOM      5  C   UNL     1     154.302 170.972 166.755  1.00  0.00     0.053 C 
BRANCH   5   6
ATOM      6  C   UNL     1     155.428 171.706 167.417  1.00  0.00     0.041 C 
ATOM      7  O   UNL     1     156.323 171.069 168.034  1.00  0.00    -0.550 OA
ATOM      8  O   UNL     1     155.507 173.090 167.327  1.00  0.00    -0.550 OA
ENDBRANCH   5   6
ENDBRANCH   4   5
ENDBRANCH   3   4
ENDBRANCH   2   3
ENDBRANCH   1   2
BRANCH   1   9
ATOM      9  C   UNL     1     156.959 173.255 164.117  1.00  0.00     0.000 C 
BRANCH   9  10
ATOM     10  C   UNL     1     157.895 172.904 162.946  1.00  0.00    -0.000 C 
BRANCH  10  11
ATOM     11  C   UNL     1     158.653 174.100 162.334  1.00  0.00    -0.000 C 
BRANCH  11  12
ATOM     12  C   UNL     1     157.811 175.007 161.419  1.00  0.00    -0.000 C 
BRANCH  12  13
ATOM     13  C   UNL     1     156.984 174.217 160.395  1.00  0.00    -0.003 C 
ATOM     14  C   UNL     1     155.525 174.665 160.406  1.00  0.00     0.004 C 
ENDBRANCH  12  13
ENDBRANCH  11  12
ENDBRANCH  10  11
ENDBRANCH   9  10
ENDBRANCH   1   9
TORSDOF 10
ENDMDL
