MODEL 1
REMARK VINA RESULT:    14.149      0.000      0.000
REMARK INTER + INTRA:          26.500
REMARK INTER:                  27.383
REMARK INTRA:                  -0.884
REMARK UNBOUND:                -0.884
REMARK SMILES CCCCCCCCCCCCCCCCCC(=O)[O-]
REMARK SMILES IDX 10 1 11 2 12 3 13 4 14 5 15 6 16 7 17 8 18 9 19 10 20 11
REMARK SMILES IDX 9 12 8 13 7 14 6 15 5 16 4 17 3 18 2 19 1 20
REMARK H PARENT
REMARK Flexibility Score: inf
ROOT
ATOM      1  C   UNL     1     -11.322  56.895  -3.357  1.00  0.00     0.000 C 
ENDROOT
BRANCH   1   2
ATOM      2  C   UNL     1     -10.850  56.095  -4.581  1.00  0.00     0.000 C 
BRANCH   2   3
ATOM      3  C   UNL     1     -10.415  54.666  -4.223  1.00  0.00     0.000 C 
BRANCH   3   4
ATOM      4  C   UNL     1      -8.995  54.607  -3.640  1.00  0.00     0.000 C 
BRANCH   4   5
ATOM      5  C   UNL     1      -8.361  53.229  -3.879  1.00  0.00     0.000 C 
BRANCH   5   6
ATOM      6  C   UNL     1      -8.543  52.279  -2.685  1.00  0.00     0.000 C 
BRANCH   6   7
ATOM      7  C   UNL     1      -8.603  50.801  -3.105  1.00  0.00     0.006 C 
BRANCH   7   8
ATOM      8  C   UNL     1      -9.311  49.929  -2.059  1.00  0.00     0.053 C 
BRANCH   8   9
ATOM      9  C   UNL     1     -10.419  49.126  -2.666  1.00  0.00     0.041 C 
ATOM     10  O   UNL     1     -11.536  49.048  -2.089  1.00  0.00    -0.550 OA
ATOM     11  O   UNL     1     -10.230  48.490  -3.887  1.00  0.00    -0.550 OA
ENDBRANCH   8   9
ENDBRANCH   7   8
ENDBRANCH   6   7
ENDBRANCH   5   6
ENDBRANCH   4   5
ENDBRANCH   3   4
ENDBRANCH   2   3
ENDBRANCH   1   2
BRANCH   1  12
ATOM     12  C   UNL     1     -12.056  58.174  -3.785  1.00  0.00     0.000 C 
BRANCH  12  13
ATOM     13  C   UNL     1     -13.586  58.012  -3.795  1.00  0.00    -0.000 C 
BRANCH  13  14
ATOM     14  C   UNL     1     -14.335  59.269  -4.286  1.00  0.00    -0.000 C 
BRANCH  14  15
ATOM     15  C   UNL     1     -15.313  59.812  -3.228  1.00  0.00    -0.000 C 
BRANCH  15  16
ATOM     16  C   UNL     1     -16.702  59.162  -3.318  1.00  0.00    -0.000 C 
BRANCH  16  17
ATOM     17  C   UNL     1     -17.144  58.525  -1.989  1.00  0.00    -0.000 C 
BRANCH  17  18
ATOM     18  C   UNL     1     -17.560  57.054  -2.150  1.00  0.00    -0.000 C 
BRANCH  18  19
ATOM     19  C   UNL     1     -16.503  56.219  -2.886  1.00  0.00    -0.003 C 
ATOM     20  C   UNL     1     -17.118  55.473  -4.068  1.00  0.00     0.004 C 
ENDBRANCH  18  19
ENDBRANCH  17  18
ENDBRANCH  16  17
ENDBRANCH  15  16
ENDBRANCH  14  15
ENDBRANCH  13  14
ENDBRANCH  12  13
ENDBRANCH   1  12
TORSDOF 16
ENDMDL
MODEL 2
REMARK VINA RESULT:    14.542      3.316      9.095
REMARK INTER + INTRA:          27.261
REMARK INTER:                  28.087
REMARK INTRA:                  -0.826
REMARK UNBOUND:                -0.884
REMARK SMILES CCCCCCCCCCCCCCCCCC(=O)[O-]
REMARK SMILES IDX 10 1 11 2 12 3 13 4 14 5 15 6 16 7 17 8 18 9 19 10 20 11
REMARK SMILES IDX 9 12 8 13 7 14 6 15 5 16 4 17 3 18 2 19 1 20
REMARK H PARENT
REMARK Flexibility Score: inf
ROOT
ATOM      1  C   UNL     1     -10.997  57.288  -3.766  1.00  0.00     0.000 C 
ENDROOT
BRANCH   1   2
ATOM      2  C   UNL     1     -12.294  57.969  -3.302  1.00  0.00     0.000 C 
BRANCH   2   3
ATOM      3  C   UNL     1     -13.131  58.509  -4.472  1.00  0.00     0.000 C 
BRANCH   3   4
ATOM      4  C   UNL     1     -14.630  58.584  -4.143  1.00  0.00     0.000 C 
BRANCH   4   5
ATOM      5  C   UNL     1     -15.037  60.016  -3.766  1.00  0.00     0.000 C 
BRANCH   5   6
ATOM      6  C   UNL     1     -16.200  60.055  -2.761  1.00  0.00     0.000 C 
BRANCH   6   7
ATOM      7  C   UNL     1     -17.485  59.416  -3.314  1.00  0.00     0.006 C 
BRANCH   7   8
ATOM      8  C   UNL     1     -18.261  58.649  -2.235  1.00  0.00     0.053 C 
BRANCH   8   9
ATOM      9  C   UNL     1     -17.487  57.472  -1.727  1.00  0.00     0.041 C 
ATOM     10  O   UNL     1     -17.275  57.336  -0.492  1.00  0.00    -0.550 OA
ATOM     11  O   UNL     1     -17.028  56.506  -2.614  1.00  0.00    -0.550 OA
ENDBRANCH   8   9
ENDBRANCH   7   8
ENDBRANCH   6   7
ENDBRANCH   5   6
ENDBRANCH   4   5
ENDBRANCH   3   4
ENDBRANCH   2   3
ENDBRANCH   1   2
BRANCH   1  12
ATOM     12  C   UNL     1     -11.147  55.761  -3.764  1.00  0.00     0.000 C 
BRANCH  12  13
ATOM     13  C   UNL     1     -10.093  55.053  -4.633  1.00  0.00    -0.000 C 
BRANCH  13  14
ATOM     14  C   UNL     1      -9.034  54.285  -3.815  1.00  0.00    -0.000 C 
BRANCH  14  15
ATOM     15  C   UNL     1      -9.455  52.829  -3.542  1.00  0.00    -0.000 C 
BRANCH  15  16
ATOM     16  C   UNL     1      -8.350  52.013  -2.855  1.00  0.00    -0.000 C 
BRANCH  16  17
ATOM     17  C   UNL     1      -8.546  50.495  -3.021  1.00  0.00    -0.000 C 
BRANCH  17  18
ATOM     18  C   UNL     1      -9.478  49.901  -1.954  1.00  0.00    -0.000 C 
BRANCH  18  19
ATOM     19  C   UNL     1     -10.679  49.164  -2.564  1.00  0.00    -0.003 C 
ATOM     20  C   UNL     1     -10.299  48.490  -3.879  1.00  0.00     0.004 C 
ENDBRANCH  18  19
ENDBRANCH  17  18
ENDBRANCH  16  17
ENDBRANCH  15  16
ENDBRANCH  14  15
ENDBRANCH  13  14
ENDBRANCH  12  13
ENDBRANCH   1  12
TORSDOF 16
ENDMDL
MODEL 3
REMARK VINA RESULT:    14.698      4.591      7.564
REMARK INTER + INTRA:          27.562
REMARK INTER:                  29.015
REMARK INTRA:                  -1.453
REMARK UNBOUND:                -0.884
REMARK SMILES CCCCCCCCCCCCCCCCCC(=O)[O-]
REMARK SMILES IDX 10 1 11 2 12 3 13 4 14 5 15 6 16 7 17 8 18 9 19 10 20 11
REMARK SMILES IDX 9 12 8 13 7 14 6 15 5 16 4 17 3 18 2 19 1 20
REMARK H PARENT
REMARK Flexibility Score: inf
ROOT
ATOM      1  C   UNL     1     -18.930  58.819  -3.561  1.00  0.00     0.000 C 
ENDROOT
BRANCH   1   2
ATOM      2  C   UNL     1     -18.750  57.777  -2.446  1.00  0.00     0.000 C 
BRANCH   2   3
ATOM      3  C   UNL     1     -18.764  58.404  -1.042  1.00  0.00     0.000 C 
BRANCH   3   4
ATOM      4  C   UNL     1     -17.540  58.005  -0.203  1.00  0.00     0.000 C 
BRANCH   4   5
ATOM      5  C   UNL     1     -17.097  56.570  -0.528  1.00  0.00     0.000 C 
BRANCH   5   6
ATOM      6  C   UNL     1     -15.770  56.523  -1.303  1.00  0.00     0.000 C 
BRANCH   6   7
ATOM      7  C   UNL     1     -15.827  55.585  -2.521  1.00  0.00     0.006 C 
BRANCH   7   8
ATOM      8  C   UNL     1     -16.453  56.266  -3.747  1.00  0.00     0.053 C 
BRANCH   8   9
ATOM      9  C   UNL     1     -17.167  55.282  -4.622  1.00  0.00     0.041 C 
ATOM     10  O   UNL     1     -17.472  55.589  -5.804  1.00  0.00    -0.550 OA
ATOM     11  O   UNL     1     -17.463  54.012  -4.142  1.00  0.00    -0.550 OA
ENDBRANCH   8   9
ENDBRANCH   7   8
ENDBRANCH   6   7
ENDBRANCH   5   6
ENDBRANCH   4   5
ENDBRANCH   3   4
ENDBRANCH   2   3
ENDBRANCH   1   2
BRANCH   1  12
ATOM     12  C   UNL     1     -18.908  60.244  -2.991  1.00  0.00     0.000 C 
BRANCH  12  13
ATOM     13  C   UNL     1     -17.646  61.029  -3.387  1.00  0.00    -0.000 C 
BRANCH  13  14
ATOM     14  C   UNL     1     -16.332  60.339  -2.962  1.00  0.00    -0.000 C 
BRANCH  14  15
ATOM     15  C   UNL     1     -15.300  60.302  -4.104  1.00  0.00    -0.000 C 
BRANCH  15  16
ATOM     16  C   UNL     1     -14.726  58.896  -4.336  1.00  0.00    -0.000 C 
BRANCH  16  17
ATOM     17  C   UNL     1     -13.201  58.840  -4.132  1.00  0.00    -0.000 C 
BRANCH  17  18
ATOM     18  C   UNL     1     -12.718  57.457  -3.670  1.00  0.00    -0.000 C 
BRANCH  18  19
ATOM     19  C   UNL     1     -11.189  57.370  -3.567  1.00  0.00    -0.003 C 
ATOM     20  C   UNL     1     -10.609  58.625  -2.921  1.00  0.00     0.004 C 
ENDBRANCH  18  19
ENDBRANCH  17  18
ENDBRANCH  16  17
ENDBRANCH  15  16
ENDBRANCH  14  15
ENDBRANCH  13  14
ENDBRANCH  12  13
ENDBRANCH   1  12
TORSDOF 16
ENDMDL
MODEL 4
REMARK VINA RESULT:    14.912      4.880      7.329
REMARK INTER + INTRA:          27.977
REMARK INTER:                  30.014
REMARK INTRA:                  -2.038
REMARK UNBOUND:                -0.884
REMARK SMILES CCCCCCCCCCCCCCCCCC(=O)[O-]
REMARK SMILES IDX 10 1 11 2 12 3 13 4 14 5 15 6 16 7 17 8 18 9 19 10 20 11
REMARK SMILES IDX 9 12 8 13 7 14 6 15 5 16 4 17 3 18 2 19 1 20
REMARK H PARENT
REMARK Flexibility Score: inf
ROOT
ATOM      1  C   UNL     1     -18.476  58.277  -3.069  1.00  0.00     0.000 C 
ENDROOT
BRANCH   1   2
ATOM      2  C   UNL     1     -18.893  59.753  -3.162  1.00  0.00     0.000 C 
BRANCH   2   3
ATOM      3  C   UNL     1     -17.697  60.693  -3.381  1.00  0.00     0.000 C 
BRANCH   3   4
ATOM      4  C   UNL     1     -16.409  60.176  -2.722  1.00  0.00     0.000 C 
BRANCH   4   5
ATOM      5  C   UNL     1     -15.211  60.325  -3.671  1.00  0.00     0.000 C 
BRANCH   5   6
ATOM      6  C   UNL     1     -14.763  58.984  -4.274  1.00  0.00     0.000 C 
BRANCH   6   7
ATOM      7  C   UNL     1     -13.241  58.901  -4.475  1.00  0.00     0.006 C 
BRANCH   7   8
ATOM      8  C   UNL     1     -12.657  57.584  -3.946  1.00  0.00     0.053 C 
BRANCH   8   9
ATOM      9  C   UNL     1     -11.553  57.823  -2.962  1.00  0.00     0.041 C 
ATOM     10  O   UNL     1     -11.652  57.396  -1.781  1.00  0.00    -0.550 OA
ATOM     11  O   UNL     1     -10.400  58.487  -3.359  1.00  0.00    -0.550 OA
ENDBRANCH   8   9
ENDBRANCH   7   8
ENDBRANCH   6   7
ENDBRANCH   5   6
ENDBRANCH   4   5
ENDBRANCH   3   4
ENDBRANCH   2   3
ENDBRANCH   1   2
BRANCH   1  12
ATOM     12  C   UNL     1     -19.103  57.605  -1.840  1.00  0.00     0.000 C 
BRANCH  12  13
ATOM     13  C   UNL     1     -18.704  58.282  -0.518  1.00  0.00    -0.000 C 
BRANCH  13  14
ATOM     14  C   UNL     1     -17.322  57.840   0.008  1.00  0.00    -0.000 C 
BRANCH  14  15
ATOM     15  C   UNL     1     -16.854  56.519  -0.628  1.00  0.00    -0.000 C 
BRANCH  15  16
ATOM     16  C   UNL     1     -15.653  56.708  -1.567  1.00  0.00    -0.000 C 
BRANCH  16  17
ATOM     17  C   UNL     1     -15.946  56.234  -3.002  1.00  0.00    -0.000 C 
BRANCH  17  18
ATOM     18  C   UNL     1     -16.779  54.943  -3.038  1.00  0.00    -0.000 C 
BRANCH  18  19
ATOM     19  C   UNL     1     -17.537  54.767  -4.362  1.00  0.00    -0.003 C 
ATOM     20  C   UNL     1     -16.864  55.548  -5.488  1.00  0.00     0.004 C 
ENDBRANCH  18  19
ENDBRANCH  17  18
ENDBRANCH  16  17
ENDBRANCH  15  16
ENDBRANCH  14  15
ENDBRANCH  13  14
ENDBRANCH  12  13
ENDBRANCH   1  12
TORSDOF 16
ENDMDL
MODEL 5
REMARK VINA RESULT:    15.582      3.658      7.756
REMARK INTER + INTRA:          29.274
REMARK INTER:                  29.668
REMARK INTRA:                  -0.394
REMARK UNBOUND:                -0.884
REMARK SMILES CCCCCCCCCCCCCCCCCC(=O)[O-]
REMARK SMILES IDX 10 1 11 2 12 3 13 4 14 5 15 6 16 7 17 8 18 9 19 10 20 11
REMARK SMILES IDX 9 12 8 13 7 14 6 15 5 16 4 17 3 18 2 19 1 20
REMARK H PARENT
REMARK Flexibility Score: inf
ROOT
ATOM      1  C   UNL     1     -17.558  60.851  -3.677  1.00  0.00     0.000 C 
ENDROOT
BRANCH   1   2
ATOM      2  C   UNL     1     -18.736  60.065  -3.082  1.00  0.00     0.000 C 
BRANCH   2   3
ATOM      3  C   UNL     1     -18.396  58.588  -2.830  1.00  0.00     0.000 C 
BRANCH   3   4
ATOM      4  C   UNL     1     -18.966  58.068  -1.501  1.00  0.00     0.000 C 
BRANCH   4   5
ATOM      5  C   UNL     1     -17.851  57.875  -0.464  1.00  0.00     0.000 C 
BRANCH   5   6
ATOM      6  C   UNL     1     -16.668  57.061  -1.013  1.00  0.00     0.000 C 
BRANCH   6   7
ATOM      7  C   UNL     1     -17.107  55.965  -1.999  1.00  0.00     0.006 C 
BRANCH   7   8
ATOM      8  C   UNL     1     -16.515  56.175  -3.399  1.00  0.00     0.053 C 
BRANCH   8   9
ATOM      9  C   UNL     1     -17.110  55.232  -4.399  1.00  0.00     0.041 C 
ATOM     10  O   UNL     1     -17.134  55.535  -5.621  1.00  0.00    -0.550 OA
ATOM     11  O   UNL     1     -17.608  54.003  -3.985  1.00  0.00    -0.550 OA
ENDBRANCH   8   9
ENDBRANCH   7   8
ENDBRANCH   6   7
ENDBRANCH   5   6
ENDBRANCH   4   5
ENDBRANCH   3   4
ENDBRANCH   2   3
ENDBRANCH   1   2
BRANCH   1  12
ATOM     12  C   UNL     1     -16.280  60.633  -2.856  1.00  0.00     0.000 C 
BRANCH  12  13
ATOM     13  C   UNL     1     -15.485  59.394  -3.302  1.00  0.00    -0.000 C 
BRANCH  13  14
ATOM     14  C   UNL     1     -14.871  59.531  -4.712  1.00  0.00    -0.000 C 
BRANCH  14  15
ATOM     15  C   UNL     1     -13.454  58.934  -4.788  1.00  0.00    -0.000 C 
BRANCH  15  16
ATOM     16  C   UNL     1     -13.068  58.163  -3.517  1.00  0.00    -0.000 C 
BRANCH  16  17
ATOM     17  C   UNL     1     -11.557  58.213  -3.231  1.00  0.00    -0.000 C 
BRANCH  17  18
ATOM     18  C   UNL     1     -10.907  56.821  -3.242  1.00  0.00    -0.000 C 
BRANCH  18  19
ATOM     19  C   UNL     1     -10.953  56.160  -4.627  1.00  0.00    -0.003 C 
ATOM     20  C   UNL     1     -10.585  54.681  -4.542  1.00  0.00     0.004 C 
ENDBRANCH  18  19
ENDBRANCH  17  18
ENDBRANCH  16  17
ENDBRANCH  15  16
ENDBRANCH  14  15
ENDBRANCH  13  14
ENDBRANCH  12  13
ENDBRANCH   1  12
TORSDOF 16
ENDMDL
MODEL 6
REMARK VINA RESULT:    15.669      2.880      8.704
REMARK INTER + INTRA:          29.441
REMARK INTER:                  30.248
REMARK INTRA:                  -0.807
REMARK UNBOUND:                -0.884
REMARK SMILES CCCCCCCCCCCCCCCCCC(=O)[O-]
REMARK SMILES IDX 10 1 11 2 12 3 13 4 14 5 15 6 16 7 17 8 18 9 19 10 20 11
REMARK SMILES IDX 9 12 8 13 7 14 6 15 5 16 4 17 3 18 2 19 1 20
REMARK H PARENT
REMARK Flexibility Score: inf
ROOT
ATOM      1  C   UNL     1     -13.055  57.839  -4.057  1.00  0.00     0.000 C 
ENDROOT
BRANCH   1   2
ATOM      2  C   UNL     1     -13.582  59.276  -3.919  1.00  0.00     0.000 C 
BRANCH   2   3
ATOM      3  C   UNL     1     -15.094  59.379  -4.172  1.00  0.00     0.000 C 
BRANCH   3   4
ATOM      4  C   UNL     1     -15.858  59.952  -2.968  1.00  0.00     0.000 C 
BRANCH   4   5
ATOM      5  C   UNL     1     -17.320  60.244  -3.335  1.00  0.00     0.000 C 
BRANCH   5   6
ATOM      6  C   UNL     1     -18.295  59.210  -2.749  1.00  0.00     0.000 C 
BRANCH   6   7
ATOM      7  C   UNL     1     -17.580  58.103  -1.956  1.00  0.00     0.006 C 
BRANCH   7   8
ATOM      8  C   UNL     1     -17.948  56.700  -2.458  1.00  0.00     0.053 C 
BRANCH   8   9
ATOM      9  C   UNL     1     -16.802  56.047  -3.167  1.00  0.00     0.041 C 
ATOM     10  O   UNL     1     -15.635  56.135  -2.702  1.00  0.00    -0.550 OA
ATOM     11  O   UNL     1     -17.029  55.311  -4.324  1.00  0.00    -0.550 OA
ENDBRANCH   8   9
ENDBRANCH   7   8
ENDBRANCH   6   7
ENDBRANCH   5   6
ENDBRANCH   4   5
ENDBRANCH   3   4
ENDBRANCH   2   3
ENDBRANCH   1   2
BRANCH   1  12
ATOM     12  C   UNL     1     -11.736  57.661  -3.292  1.00  0.00     0.000 C 
BRANCH  12  13
ATOM     13  C   UNL     1     -10.652  56.953  -4.123  1.00  0.00    -0.000 C 
BRANCH  13  14
ATOM     14  C   UNL     1     -10.763  55.413  -4.096  1.00  0.00    -0.000 C 
BRANCH  14  15
ATOM     15  C   UNL     1      -9.404  54.738  -3.836  1.00  0.00    -0.000 C 
BRANCH  15  16
ATOM     16  C   UNL     1      -9.477  53.207  -3.933  1.00  0.00    -0.000 C 
BRANCH  16  17
ATOM     17  C   UNL     1      -8.622  52.506  -2.862  1.00  0.00    -0.000 C 
BRANCH  17  18
ATOM     18  C   UNL     1      -8.472  50.999  -3.121  1.00  0.00    -0.000 C 
BRANCH  18  19
ATOM     19  C   UNL     1      -9.229  50.146  -2.093  1.00  0.00    -0.003 C 
ATOM     20  C   UNL     1     -10.276  49.267  -2.772  1.00  0.00     0.004 C 
ENDBRANCH  18  19
ENDBRANCH  17  18
ENDBRANCH  16  17
ENDBRANCH  15  16
ENDBRANCH  14  15
ENDBRANCH  13  14
ENDBRANCH  12  13
ENDBRANCH   1  12
TORSDOF 16
ENDMDL
MODEL 7
REMARK VINA RESULT:    15.962      3.092      5.291
REMARK INTER + INTRA:          30.009
REMARK INTER:                  31.313
REMARK INTRA:                  -1.303
REMARK UNBOUND:                -0.884
REMARK SMILES CCCCCCCCCCCCCCCCCC(=O)[O-]
REMARK SMILES IDX 10 1 11 2 12 3 13 4 14 5 15 6 16 7 17 8 18 9 19 10 20 11
REMARK SMILES IDX 9 12 8 13 7 14 6 15 5 16 4 17 3 18 2 19 1 20
REMARK H PARENT
REMARK Flexibility Score: inf
ROOT
ATOM      1  C   UNL     1     -16.266  59.973  -3.030  1.00  0.00     0.000 C 
ENDROOT
BRANCH   1   2
ATOM      2  C   UNL     1     -14.903  60.329  -3.645  1.00  0.00     0.000 C 
BRANCH   2   3
ATOM      3  C   UNL     1     -14.465  59.333  -4.731  1.00  0.00     0.000 C 
BRANCH   3   4
ATOM      4  C   UNL     1     -13.550  58.226  -4.184  1.00  0.00     0.000 C 
BRANCH   4   5
ATOM      5  C   UNL     1     -12.565  58.790  -3.149  1.00  0.00     0.000 C 
BRANCH   5   6
ATOM      6  C   UNL     1     -11.201  58.082  -3.185  1.00  0.00     0.000 C 
BRANCH   6   7
ATOM      7  C   UNL     1     -11.070  57.104  -4.365  1.00  0.00     0.006 C 
BRANCH   7   8
ATOM      8  C   UNL     1     -10.774  55.672  -3.901  1.00  0.00     0.053 C 
BRANCH   8   9
ATOM      9  C   UNL     1     -10.914  54.687  -5.021  1.00  0.00     0.041 C 
ATOM     10  O   UNL     1     -10.324  54.884  -6.116  1.00  0.00    -0.550 OA
ATOM     11  O   UNL     1     -11.667  53.533  -4.843  1.00  0.00    -0.550 OA
ENDBRANCH   8   9
ENDBRANCH   7   8
ENDBRANCH   6   7
ENDBRANCH   5   6
ENDBRANCH   4   5
ENDBRANCH   3   4
ENDBRANCH   2   3
ENDBRANCH   1   2
BRANCH   1  12
ATOM     12  C   UNL     1     -17.361  60.925  -3.531  1.00  0.00     0.000 C 
BRANCH  12  13
ATOM     13  C   UNL     1     -18.772  60.322  -3.426  1.00  0.00    -0.000 C 
BRANCH  13  14
ATOM     14  C   UNL     1     -18.776  58.795  -3.203  1.00  0.00    -0.000 C 
BRANCH  14  15
ATOM     15  C   UNL     1     -18.768  58.427  -1.708  1.00  0.00    -0.000 C 
BRANCH  15  16
ATOM     16  C   UNL     1     -17.569  57.547  -1.323  1.00  0.00    -0.000 C 
BRANCH  16  17
ATOM     17  C   UNL     1     -17.578  56.187  -2.046  1.00  0.00    -0.000 C 
BRANCH  17  18
ATOM     18  C   UNL     1     -16.288  55.935  -2.842  1.00  0.00    -0.000 C 
BRANCH  18  19
ATOM     19  C   UNL     1     -16.478  56.136  -4.352  1.00  0.00    -0.003 C 
ATOM     20  C   UNL     1     -17.152  54.922  -4.986  1.00  0.00     0.004 C 
ENDBRANCH  18  19
ENDBRANCH  17  18
ENDBRANCH  16  17
ENDBRANCH  15  16
ENDBRANCH  14  15
ENDBRANCH  13  14
ENDBRANCH  12  13
ENDBRANCH   1  12
TORSDOF 16
ENDMDL
MODEL 8
REMARK VINA RESULT:    16.283      7.134     10.738
REMARK INTER + INTRA:          30.630
REMARK INTER:                  31.578
REMARK INTRA:                  -0.948
REMARK UNBOUND:                -0.884
REMARK SMILES CCCCCCCCCCCCCCCCCC(=O)[O-]
REMARK SMILES IDX 10 1 11 2 12 3 13 4 14 5 15 6 16 7 17 8 18 9 19 10 20 11
REMARK SMILES IDX 9 12 8 13 7 14 6 15 5 16 4 17 3 18 2 19 1 20
REMARK H PARENT
REMARK Flexibility Score: inf
ROOT
ATOM      1  C   UNL     1      -2.549  48.350  -1.527  1.00  0.00     0.000 C 
ENDROOT
BRANCH   1   2
ATOM      2  C   UNL     1      -1.593  47.882  -0.419  1.00  0.00     0.000 C 
BRANCH   2   3
ATOM      3  C   UNL     1      -1.632  46.360  -0.207  1.00  0.00     0.000 C 
BRANCH   3   4
ATOM      4  C   UNL     1      -0.855  45.591  -1.287  1.00  0.00     0.000 C 
BRANCH   4   5
ATOM      5  C   UNL     1      -1.248  44.107  -1.293  1.00  0.00     0.000 C 
BRANCH   5   6
ATOM      6  C   UNL     1      -2.690  43.875  -0.812  1.00  0.00     0.000 C 
BRANCH   6   7
ATOM      7  C   UNL     1      -3.708  43.877  -1.965  1.00  0.00     0.006 C 
BRANCH   7   8
ATOM      8  C   UNL     1      -5.157  43.877  -1.459  1.00  0.00     0.053 C 
BRANCH   8   9
ATOM      9  C   UNL     1      -5.909  45.082  -1.933  1.00  0.00     0.041 C 
ATOM     10  O   UNL     1      -6.080  45.279  -3.165  1.00  0.00    -0.550 OA
ATOM     11  O   UNL     1      -6.451  45.970  -1.012  1.00  0.00    -0.550 OA
ENDBRANCH   8   9
ENDBRANCH   7   8
ENDBRANCH   6   7
ENDBRANCH   5   6
ENDBRANCH   4   5
ENDBRANCH   3   4
ENDBRANCH   2   3
ENDBRANCH   1   2
BRANCH   1  12
ATOM     12  C   UNL     1      -3.700  49.181  -0.945  1.00  0.00     0.000 C 
BRANCH  12  13
ATOM     13  C   UNL     1      -4.936  49.217  -1.861  1.00  0.00    -0.000 C 
BRANCH  13  14
ATOM     14  C   UNL     1      -5.541  50.627  -2.025  1.00  0.00    -0.000 C 
BRANCH  14  15
ATOM     15  C   UNL     1      -6.640  50.666  -3.102  1.00  0.00    -0.000 C 
BRANCH  15  16
ATOM     16  C   UNL     1      -7.982  51.179  -2.560  1.00  0.00    -0.000 C 
BRANCH  16  17
ATOM     17  C   UNL     1      -8.791  50.080  -1.847  1.00  0.00    -0.000 C 
BRANCH  17  18
ATOM     18  C   UNL     1      -9.725  49.322  -2.803  1.00  0.00    -0.000 C 
BRANCH  18  19
ATOM     19  C   UNL     1     -11.189  49.767  -2.673  1.00  0.00    -0.003 C 
ATOM     20  C   UNL     1     -11.940  48.899  -1.668  1.00  0.00     0.004 C 
ENDBRANCH  18  19
ENDBRANCH  17  18
ENDBRANCH  16  17
ENDBRANCH  15  16
ENDBRANCH  14  15
ENDBRANCH  13  14
ENDBRANCH  12  13
ENDBRANCH   1  12
TORSDOF 16
ENDMDL
