MODEL 1
REMARK VINA RESULT:    -4.648      0.000      0.000
REMARK INTER + INTRA:          -5.707
REMARK INTER:                  -5.599
REMARK INTRA:                  -0.107
REMARK UNBOUND:                -0.107
REMARK SMILES NC(=O)C[C@@H]([NH3+])C(=O)[O-]
REMARK SMILES IDX 4 1 5 2 6 3 7 7 8 8 9 9 2 10 3 11 1 12
REMARK H PARENT 6 4 6 5 6 6 1 13 1 14
REMARK Flexibility Score: inf
ROOT
ATOM      1  C   UNL     1      -9.980  -6.731 -14.314  1.00  0.00     0.171 C 
ENDROOT
BRANCH   1   2
ATOM      2  C   UNL     1      -8.760  -6.096 -13.616  1.00  0.00     0.237 C 
BRANCH   2   3
ATOM      3  N   UNL     1      -8.715  -6.444 -12.190  1.00  0.00    -0.350 N 
ATOM      4  H   UNL     1      -7.778  -6.201 -11.794  1.00  0.00     0.345 HD
ATOM      5  H   UNL     1      -9.437  -5.899 -11.665  1.00  0.00     0.345 HD
ATOM      6  H   UNL     1      -8.889  -7.467 -12.052  1.00  0.00     0.345 HD
ENDBRANCH   2   3
BRANCH   2   7
ATOM      7  C   UNL     1      -7.496  -6.547 -14.298  1.00  0.00     0.100 C 
ATOM      8  O   UNL     1      -7.106  -7.738 -14.186  1.00  0.00    -0.544 OA
ATOM      9  O   UNL     1      -6.743  -5.647 -15.043  1.00  0.00    -0.544 OA
ENDBRANCH   2   7
ENDBRANCH   1   2
BRANCH   1  10
ATOM     10  C   UNL     1     -10.727  -5.730 -15.145  1.00  0.00     0.223 C 
ATOM     11  O   UNL     1     -10.149  -4.679 -15.532  1.00  0.00    -0.275 OA
ATOM     12  N   UNL     1     -12.081  -5.975 -15.527  1.00  0.00    -0.369 N 
ATOM     13  H   UNL     1     -12.596  -5.283 -16.116  1.00  0.00     0.159 HD
ATOM     14  H   UNL     1     -12.570  -6.846 -15.223  1.00  0.00     0.159 HD
ENDBRANCH   1  10
TORSDOF 4
ENDMDL
MODEL 2
REMARK VINA RESULT:    -4.466      2.137      2.359
REMARK INTER + INTRA:          -5.488
REMARK INTER:                  -5.248
REMARK INTRA:                  -0.240
REMARK UNBOUND:                -0.107
REMARK SMILES NC(=O)C[C@@H]([NH3+])C(=O)[O-]
REMARK SMILES IDX 4 1 5 2 6 3 7 7 8 8 9 9 2 10 3 11 1 12
REMARK H PARENT 6 4 6 5 6 6 1 13 1 14
REMARK Flexibility Score: inf
ROOT
ATOM      1  C   UNL     1      -8.501  -4.868 -15.108  1.00  0.00     0.171 C 
ENDROOT
BRANCH   1   2
ATOM      2  C   UNL     1      -9.088  -5.656 -13.920  1.00  0.00     0.237 C 
BRANCH   2   3
ATOM      3  N   UNL     1     -10.244  -6.464 -14.329  1.00  0.00    -0.350 N 
ATOM      4  H   UNL     1      -9.978  -7.086 -15.128  1.00  0.00     0.345 HD
ATOM      5  H   UNL     1     -10.554  -7.074 -13.538  1.00  0.00     0.345 HD
ATOM      6  H   UNL     1     -11.040  -5.851 -14.623  1.00  0.00     0.345 HD
ENDBRANCH   2   3
BRANCH   2   7
ATOM      7  C   UNL     1      -8.024  -6.540 -13.325  1.00  0.00     0.100 C 
ATOM      8  O   UNL     1      -7.393  -7.350 -14.054  1.00  0.00    -0.544 OA
ATOM      9  O   UNL     1      -7.743  -6.480 -11.965  1.00  0.00    -0.544 OA
ENDBRANCH   2   7
ENDBRANCH   1   2
BRANCH   1  10
ATOM     10  C   UNL     1      -9.497  -3.902 -15.679  1.00  0.00     0.223 C 
ATOM     11  O   UNL     1     -10.192  -4.233 -16.677  1.00  0.00    -0.275 OA
ATOM     12  N   UNL     1      -9.685  -2.620 -15.080  1.00  0.00    -0.369 N 
ATOM     13  H   UNL     1     -10.388  -1.953 -15.470  1.00  0.00     0.159 HD
ATOM     14  H   UNL     1      -9.125  -2.335 -14.246  1.00  0.00     0.159 HD
ENDBRANCH   1  10
TORSDOF 4
ENDMDL
MODEL 3
REMARK VINA RESULT:    -4.446      1.672      1.686
REMARK INTER + INTRA:          -5.463
REMARK INTER:                  -5.281
REMARK INTRA:                  -0.182
REMARK UNBOUND:                -0.107
REMARK SMILES NC(=O)C[C@@H]([NH3+])C(=O)[O-]
REMARK SMILES IDX 4 1 5 2 6 3 7 7 8 8 9 9 2 10 3 11 1 12
REMARK H PARENT 6 4 6 5 6 6 1 13 1 14
REMARK Flexibility Score: inf
ROOT
ATOM      1  C   UNL     1      -9.751  -5.569 -14.739  1.00  0.00     0.171 C 
ENDROOT
BRANCH   1   2
ATOM      2  C   UNL     1      -8.589  -5.701 -13.733  1.00  0.00     0.237 C 
BRANCH   2   3
ATOM      3  N   UNL     1      -8.996  -6.453 -12.539  1.00  0.00    -0.350 N 
ATOM      4  H   UNL     1      -9.903  -6.081 -12.176  1.00  0.00     0.345 HD
ATOM      5  H   UNL     1      -9.136  -7.461 -12.781  1.00  0.00     0.345 HD
ATOM      6  H   UNL     1      -8.270  -6.379 -11.788  1.00  0.00     0.345 HD
ENDBRANCH   2   3
BRANCH   2   7
ATOM      7  C   UNL     1      -7.420  -6.377 -14.397  1.00  0.00     0.100 C 
ATOM      8  O   UNL     1      -7.224  -7.610 -14.233  1.00  0.00    -0.544 OA
ATOM      9  O   UNL     1      -6.540  -5.643 -15.183  1.00  0.00    -0.544 OA
ENDBRANCH   2   7
ENDBRANCH   1   2
BRANCH   1  10
ATOM     10  C   UNL     1      -9.586  -4.367 -15.622  1.00  0.00     0.223 C 
ATOM     11  O   UNL     1     -10.239  -4.283 -16.697  1.00  0.00    -0.275 OA
ATOM     12  N   UNL     1      -8.715  -3.302 -15.238  1.00  0.00    -0.369 N 
ATOM     13  H   UNL     1      -8.610  -2.460 -15.848  1.00  0.00     0.159 HD
ATOM     14  H   UNL     1      -8.175  -3.353 -14.346  1.00  0.00     0.159 HD
ENDBRANCH   1  10
TORSDOF 4
ENDMDL
MODEL 4
REMARK VINA RESULT:    -4.426      2.665      4.436
REMARK INTER + INTRA:          -5.439
REMARK INTER:                  -5.337
REMARK INTRA:                  -0.101
REMARK UNBOUND:                -0.107
REMARK SMILES NC(=O)C[C@@H]([NH3+])C(=O)[O-]
REMARK SMILES IDX 4 1 5 2 6 3 7 7 8 8 9 9 2 10 3 11 1 12
REMARK H PARENT 6 4 6 5 6 6 1 13 1 14
REMARK Flexibility Score: inf
ROOT
ATOM      1  C   UNL     1      -7.699  -4.467 -15.968  1.00  0.00     0.171 C 
ENDROOT
BRANCH   1   2
ATOM      2  C   UNL     1      -8.999  -4.011 -15.275  1.00  0.00     0.237 C 
BRANCH   2   3
ATOM      3  N   UNL     1      -9.135  -2.549 -15.297  1.00  0.00    -0.350 N 
ATOM      4  H   UNL     1      -8.433  -2.137 -15.953  1.00  0.00     0.345 HD
ATOM      5  H   UNL     1     -10.087  -2.282 -15.636  1.00  0.00     0.345 HD
ATOM      6  H   UNL     1      -8.986  -2.148 -14.341  1.00  0.00     0.345 HD
ENDBRANCH   2   3
BRANCH   2   7
ATOM      7  C   UNL     1     -10.182  -4.651 -15.950  1.00  0.00     0.100 C 
ATOM      8  O   UNL     1     -10.507  -4.309 -17.117  1.00  0.00    -0.544 OA
ATOM      9  O   UNL     1     -10.934  -5.611 -15.283  1.00  0.00    -0.544 OA
ENDBRANCH   2   7
ENDBRANCH   1   2
BRANCH   1  10
ATOM     10  C   UNL     1      -6.926  -5.432 -15.117  1.00  0.00     0.223 C 
ATOM     11  O   UNL     1      -7.538  -6.228 -14.356  1.00  0.00    -0.275 OA
ATOM     12  N   UNL     1      -5.500  -5.474 -15.186  1.00  0.00    -0.369 N 
ATOM     13  H   UNL     1      -4.963  -6.154 -14.603  1.00  0.00     0.159 HD
ATOM     14  H   UNL     1      -4.979  -4.828 -15.820  1.00  0.00     0.159 HD
ENDBRANCH   1  10
TORSDOF 4
ENDMDL
MODEL 5
REMARK VINA RESULT:    -4.384      2.053      3.986
REMARK INTER + INTRA:          -5.388
REMARK INTER:                  -5.149
REMARK INTRA:                  -0.239
REMARK UNBOUND:                -0.107
REMARK SMILES NC(=O)C[C@@H]([NH3+])C(=O)[O-]
REMARK SMILES IDX 4 1 5 2 6 3 7 7 8 8 9 9 2 10 3 11 1 12
REMARK H PARENT 6 4 6 5 6 6 1 13 1 14
REMARK Flexibility Score: inf
ROOT
ATOM      1  C   UNL     1      -8.977  -5.879 -14.372  1.00  0.00     0.171 C 
ENDROOT
BRANCH   1   2
ATOM      2  C   UNL     1      -8.428  -4.513 -14.831  1.00  0.00     0.237 C 
BRANCH   2   3
ATOM      3  N   UNL     1      -7.296  -4.673 -15.753  1.00  0.00    -0.350 N 
ATOM      4  H   UNL     1      -7.445  -4.082 -16.604  1.00  0.00     0.345 HD
ATOM      5  H   UNL     1      -6.411  -4.356 -15.294  1.00  0.00     0.345 HD
ATOM      6  H   UNL     1      -7.192  -5.673 -16.045  1.00  0.00     0.345 HD
ENDBRANCH   2   3
BRANCH   2   7
ATOM      7  C   UNL     1      -9.525  -3.723 -15.491  1.00  0.00     0.100 C 
ATOM      8  O   UNL     1     -10.197  -4.231 -16.427  1.00  0.00    -0.544 OA
ATOM      9  O   UNL     1      -9.794  -2.422 -15.084  1.00  0.00    -0.544 OA
ENDBRANCH   2   7
ENDBRANCH   1   2
BRANCH   1  10
ATOM     10  C   UNL     1      -7.947  -6.666 -13.617  1.00  0.00     0.223 C 
ATOM     11  O   UNL     1      -7.253  -7.530 -14.217  1.00  0.00    -0.275 OA
ATOM     12  N   UNL     1      -7.726  -6.422 -12.227  1.00  0.00    -0.369 N 
ATOM     13  H   UNL     1      -7.000  -6.962 -11.705  1.00  0.00     0.159 HD
ATOM     14  H   UNL     1      -8.286  -5.702 -11.719  1.00  0.00     0.159 HD
ENDBRANCH   1  10
TORSDOF 4
ENDMDL
MODEL 6
REMARK VINA RESULT:    -4.328      1.623      3.847
REMARK INTER + INTRA:          -5.321
REMARK INTER:                  -5.138
REMARK INTRA:                  -0.183
REMARK UNBOUND:                -0.107
REMARK SMILES NC(=O)C[C@@H]([NH3+])C(=O)[O-]
REMARK SMILES IDX 4 1 5 2 6 3 7 7 8 8 9 9 2 10 3 11 1 12
REMARK H PARENT 6 4 6 5 6 6 1 13 1 14
REMARK Flexibility Score: inf
ROOT
ATOM      1  C   UNL     1      -9.007  -5.769 -13.896  1.00  0.00     0.171 C 
ENDROOT
BRANCH   1   2
ATOM      2  C   UNL     1      -9.932  -5.659 -15.125  1.00  0.00     0.237 C 
BRANCH   2   3
ATOM      3  N   UNL     1     -11.341  -5.848 -14.755  1.00  0.00    -0.350 N 
ATOM      4  H   UNL     1     -11.637  -5.100 -14.087  1.00  0.00     0.345 HD
ATOM      5  H   UNL     1     -11.947  -5.778 -15.605  1.00  0.00     0.345 HD
ATOM      6  H   UNL     1     -11.485  -6.783 -14.307  1.00  0.00     0.345 HD
ENDBRANCH   2   3
BRANCH   2   7
ATOM      7  C   UNL     1      -9.745  -4.316 -15.779  1.00  0.00     0.100 C 
ATOM      8  O   UNL     1      -9.139  -3.395 -15.172  1.00  0.00    -0.544 OA
ATOM      9  O   UNL     1     -10.254  -4.079 -17.050  1.00  0.00    -0.544 OA
ENDBRANCH   2   7
ENDBRANCH   1   2
BRANCH   1  10
ATOM     10  C   UNL     1      -7.665  -6.331 -14.260  1.00  0.00     0.223 C 
ATOM     11  O   UNL     1      -7.444  -7.565 -14.131  1.00  0.00    -0.275 OA
ATOM     12  N   UNL     1      -6.643  -5.481 -14.782  1.00  0.00    -0.369 N 
ATOM     13  H   UNL     1      -5.713  -5.875 -15.048  1.00  0.00     0.159 HD
ATOM     14  H   UNL     1      -6.814  -4.458 -14.905  1.00  0.00     0.159 HD
ENDBRANCH   1  10
TORSDOF 4
ENDMDL
MODEL 7
REMARK VINA RESULT:    -4.294      2.265      3.260
REMARK INTER + INTRA:          -5.280
REMARK INTER:                  -5.162
REMARK INTRA:                  -0.118
REMARK UNBOUND:                -0.107
REMARK SMILES NC(=O)C[C@@H]([NH3+])C(=O)[O-]
REMARK SMILES IDX 4 1 5 2 6 3 7 7 8 8 9 9 2 10 3 11 1 12
REMARK H PARENT 6 4 6 5 6 6 1 13 1 14
REMARK Flexibility Score: inf
ROOT
ATOM      1  C   UNL     1      -8.994  -4.793 -14.523  1.00  0.00     0.171 C 
ENDROOT
BRANCH   1   2
ATOM      2  C   UNL     1      -9.101  -6.297 -14.199  1.00  0.00     0.237 C 
BRANCH   2   3
ATOM      3  N   UNL     1      -9.030  -6.542 -12.752  1.00  0.00    -0.350 N 
ATOM      4  H   UNL     1      -8.110  -6.976 -12.510  1.00  0.00     0.345 HD
ATOM      5  H   UNL     1      -9.104  -5.637 -12.231  1.00  0.00     0.345 HD
ATOM      6  H   UNL     1      -9.801  -7.179 -12.445  1.00  0.00     0.345 HD
ENDBRANCH   2   3
BRANCH   2   7
ATOM      7  C   UNL     1     -10.391  -6.842 -14.752  1.00  0.00     0.100 C 
ATOM      8  O   UNL     1     -11.325  -6.060 -15.069  1.00  0.00    -0.544 OA
ATOM      9  O   UNL     1     -10.566  -8.213 -14.901  1.00  0.00    -0.544 OA
ENDBRANCH   2   7
ENDBRANCH   1   2
BRANCH   1  10
ATOM     10  C   UNL     1      -8.059  -4.539 -15.669  1.00  0.00     0.223 C 
ATOM     11  O   UNL     1      -6.878  -4.976 -15.626  1.00  0.00    -0.275 OA
ATOM     12  N   UNL     1      -8.509  -3.828 -16.823  1.00  0.00    -0.369 N 
ATOM     13  H   UNL     1      -7.861  -3.662 -17.626  1.00  0.00     0.159 HD
ATOM     14  H   UNL     1      -9.487  -3.469 -16.878  1.00  0.00     0.159 HD
ENDBRANCH   1  10
TORSDOF 4
ENDMDL
MODEL 8
REMARK VINA RESULT:    -4.128      1.993      2.275
REMARK INTER + INTRA:          -5.080
REMARK INTER:                  -4.897
REMARK INTRA:                  -0.184
REMARK UNBOUND:                -0.107
REMARK SMILES NC(=O)C[C@@H]([NH3+])C(=O)[O-]
REMARK SMILES IDX 4 1 5 2 6 3 7 7 8 8 9 9 2 10 3 11 1 12
REMARK H PARENT 6 4 6 5 6 6 1 13 1 14
REMARK Flexibility Score: inf
ROOT
ATOM      1  C   UNL     1      -8.656  -4.373 -15.028  1.00  0.00     0.171 C 
ENDROOT
BRANCH   1   2
ATOM      2  C   UNL     1      -7.711  -5.585 -15.157  1.00  0.00     0.237 C 
BRANCH   2   3
ATOM      3  N   UNL     1      -6.305  -5.165 -15.213  1.00  0.00    -0.350 N 
ATOM      4  H   UNL     1      -6.101  -4.727 -16.141  1.00  0.00     0.345 HD
ATOM      5  H   UNL     1      -6.114  -4.450 -14.473  1.00  0.00     0.345 HD
ATOM      6  H   UNL     1      -5.667  -5.983 -15.073  1.00  0.00     0.345 HD
ENDBRANCH   2   3
BRANCH   2   7
ATOM      7  C   UNL     1      -7.925  -6.519 -13.997  1.00  0.00     0.100 C 
ATOM      8  O   UNL     1      -8.615  -6.154 -13.009  1.00  0.00    -0.544 OA
ATOM      9  O   UNL     1      -7.350  -7.784 -14.000  1.00  0.00    -0.544 OA
ENDBRANCH   2   7
ENDBRANCH   1   2
BRANCH   1  10
ATOM     10  C   UNL     1      -9.972  -4.622 -15.707  1.00  0.00     0.223 C 
ATOM     11  O   UNL     1     -10.160  -4.208 -16.882  1.00  0.00    -0.275 OA
ATOM     12  N   UNL     1     -11.002  -5.351 -15.039  1.00  0.00    -0.369 N 
ATOM     13  H   UNL     1     -11.913  -5.535 -15.517  1.00  0.00     0.159 HD
ATOM     14  H   UNL     1     -10.857  -5.710 -14.070  1.00  0.00     0.159 HD
ENDBRANCH   1  10
TORSDOF 4
ENDMDL
MODEL 9
REMARK VINA RESULT:    -4.098      1.755      2.588
REMARK INTER + INTRA:          -5.043
REMARK INTER:                  -4.867
REMARK INTRA:                  -0.176
REMARK UNBOUND:                -0.107
REMARK SMILES NC(=O)C[C@@H]([NH3+])C(=O)[O-]
REMARK SMILES IDX 4 1 5 2 6 3 7 7 8 8 9 9 2 10 3 11 1 12
REMARK H PARENT 6 4 6 5 6 6 1 13 1 14
REMARK Flexibility Score: inf
ROOT
ATOM      1  C   UNL     1      -8.684  -7.873 -14.387  1.00  0.00     0.171 C 
ENDROOT
BRANCH   1   2
ATOM      2  C   UNL     1      -8.812  -6.493 -13.711  1.00  0.00     0.237 C 
BRANCH   2   3
ATOM      3  N   UNL     1      -7.821  -6.326 -12.640  1.00  0.00    -0.350 N 
ATOM      4  H   UNL     1      -7.162  -7.137 -12.636  1.00  0.00     0.345 HD
ATOM      5  H   UNL     1      -7.261  -5.457 -12.801  1.00  0.00     0.345 HD
ATOM      6  H   UNL     1      -8.291  -6.262 -11.706  1.00  0.00     0.345 HD
ENDBRANCH   2   3
BRANCH   2   7
ATOM      7  C   UNL     1      -8.646  -5.409 -14.742  1.00  0.00     0.100 C 
ATOM      8  O   UNL     1      -9.649  -4.774 -15.161  1.00  0.00    -0.544 OA
ATOM      9  O   UNL     1      -7.387  -5.112 -15.251  1.00  0.00    -0.544 OA
ENDBRANCH   2   7
ENDBRANCH   1   2
BRANCH   1  10
ATOM     10  C   UNL     1     -10.022  -8.415 -14.798  1.00  0.00     0.223 C 
ATOM     11  O   UNL     1     -10.130  -9.621 -15.148  1.00  0.00    -0.275 OA
ATOM     12  N   UNL     1     -11.180  -7.580 -14.768  1.00  0.00    -0.369 N 
ATOM     13  H   UNL     1     -12.113  -7.962 -15.043  1.00  0.00     0.159 HD
ATOM     14  H   UNL     1     -11.108  -6.582 -14.471  1.00  0.00     0.159 HD
ENDBRANCH   1  10
TORSDOF 4
ENDMDL
