MODEL 1
REMARK VINA RESULT:    -3.695      0.000      0.000
REMARK INTER + INTRA:          -4.959
REMARK INTER:                  -4.775
REMARK INTRA:                  -0.184
REMARK UNBOUND:                -0.184
REMARK SMILES CCCCCCC(=O)[O-]
REMARK SMILES IDX 5 1 6 2 7 3 8 4 9 5 4 6 3 7 2 8 1 9
REMARK H PARENT
REMARK Flexibility Score: inf
ROOT
ATOM      1  C   UNL     1     -15.222  10.428  30.404  1.00  0.00     0.006 C 
ENDROOT
BRANCH   1   2
ATOM      2  C   UNL     1     -15.019  10.507  31.922  1.00  0.00     0.053 C 
BRANCH   2   3
ATOM      3  C   UNL     1     -14.350   9.266  32.424  1.00  0.00     0.041 C 
ATOM      4  O   UNL     1     -14.035   9.162  33.638  1.00  0.00    -0.550 OA
ATOM      5  O   UNL     1     -14.029   8.243  31.540  1.00  0.00    -0.550 OA
ENDBRANCH   2   3
ENDBRANCH   1   2
BRANCH   1   6
ATOM      6  C   UNL     1     -14.780  11.710  29.680  1.00  0.00     0.000 C 
BRANCH   6   7
ATOM      7  C   UNL     1     -15.714  12.087  28.520  1.00  0.00    -0.000 C 
BRANCH   7   8
ATOM      8  C   UNL     1     -17.020  11.287  28.586  1.00  0.00    -0.003 C 
ATOM      9  C   UNL     1     -18.172  12.059  27.949  1.00  0.00     0.004 C 
ENDBRANCH   7   8
ENDBRANCH   6   7
ENDBRANCH   1   6
TORSDOF 5
ENDMDL
MODEL 2
REMARK VINA RESULT:    -3.653     18.935     19.575
REMARK INTER + INTRA:          -4.904
REMARK INTER:                  -4.522
REMARK INTRA:                  -0.382
REMARK UNBOUND:                -0.184
REMARK SMILES CCCCCCC(=O)[O-]
REMARK SMILES IDX 5 1 6 2 7 3 8 4 9 5 4 6 3 7 2 8 1 9
REMARK H PARENT
REMARK Flexibility Score: inf
ROOT
ATOM      1  C   UNL     1     -15.112  -6.688  21.346  1.00  0.00     0.006 C 
ENDROOT
BRANCH   1   2
ATOM      2  C   UNL     1     -15.165  -5.754  20.130  1.00  0.00     0.053 C 
BRANCH   2   3
ATOM      3  C   UNL     1     -15.860  -6.426  18.987  1.00  0.00     0.041 C 
ATOM      4  O   UNL     1     -17.118  -6.459  18.942  1.00  0.00    -0.550 OA
ATOM      5  O   UNL     1     -15.118  -7.058  17.998  1.00  0.00    -0.550 OA
ENDBRANCH   2   3
ENDBRANCH   1   2
BRANCH   1   6
ATOM      6  C   UNL     1     -15.962  -6.178  22.521  1.00  0.00     0.000 C 
BRANCH   6   7
ATOM      7  C   UNL     1     -16.536  -4.776  22.271  1.00  0.00    -0.000 C 
BRANCH   7   8
ATOM      8  C   UNL     1     -18.043  -4.742  22.552  1.00  0.00    -0.003 C 
ATOM      9  C   UNL     1     -18.716  -6.034  22.101  1.00  0.00     0.004 C 
ENDBRANCH   7   8
ENDBRANCH   6   7
ENDBRANCH   1   6
TORSDOF 5
ENDMDL
MODEL 3
REMARK VINA RESULT:    -3.639      2.720      4.661
REMARK INTER + INTRA:          -4.887
REMARK INTER:                  -4.628
REMARK INTRA:                  -0.259
REMARK UNBOUND:                -0.184
REMARK SMILES CCCCCCC(=O)[O-]
REMARK SMILES IDX 5 1 6 2 7 3 8 4 9 5 4 6 3 7 2 8 1 9
REMARK H PARENT
REMARK Flexibility Score: inf
ROOT
ATOM      1  C   UNL     1     -15.251  10.397  30.333  1.00  0.00     0.006 C 
ENDROOT
BRANCH   1   2
ATOM      2  C   UNL     1     -14.691  11.601  29.565  1.00  0.00     0.053 C 
BRANCH   2   3
ATOM      3  C   UNL     1     -13.820  11.141  28.438  1.00  0.00     0.041 C 
ATOM      4  O   UNL     1     -13.541   9.920  28.310  1.00  0.00    -0.550 OA
ATOM      5  O   UNL     1     -13.276  12.068  27.558  1.00  0.00    -0.550 OA
ENDBRANCH   2   3
ENDBRANCH   1   2
BRANCH   1   6
ATOM      6  C   UNL     1     -14.958  10.469  31.840  1.00  0.00     0.000 C 
BRANCH   6   7
ATOM      7  C   UNL     1     -14.567   9.107  32.433  1.00  0.00    -0.000 C 
BRANCH   7   8
ATOM      8  C   UNL     1     -13.950   8.200  31.361  1.00  0.00    -0.003 C 
ATOM      9  C   UNL     1     -14.680   6.863  31.283  1.00  0.00     0.004 C 
ENDBRANCH   7   8
ENDBRANCH   6   7
ENDBRANCH   1   6
TORSDOF 5
ENDMDL
MODEL 4
REMARK VINA RESULT:    -3.571      2.662      4.237
REMARK INTER + INTRA:          -4.799
REMARK INTER:                  -4.358
REMARK INTRA:                  -0.441
REMARK UNBOUND:                -0.184
REMARK SMILES CCCCCCC(=O)[O-]
REMARK SMILES IDX 5 1 6 2 7 3 8 4 9 5 4 6 3 7 2 8 1 9
REMARK H PARENT
REMARK Flexibility Score: inf
ROOT
ATOM      1  C   UNL     1     -15.034   9.106  32.398  1.00  0.00     0.006 C 
ENDROOT
BRANCH   1   2
ATOM      2  C   UNL     1     -14.873  10.578  31.997  1.00  0.00     0.053 C 
BRANCH   2   3
ATOM      3  C   UNL     1     -15.201  10.762  30.548  1.00  0.00     0.041 C 
ATOM      4  O   UNL     1     -14.503  11.527  29.833  1.00  0.00    -0.550 OA
ATOM      5  O   UNL     1     -16.307  10.126  29.999  1.00  0.00    -0.550 OA
ENDBRANCH   2   3
ENDBRANCH   1   2
BRANCH   1   6
ATOM      6  C   UNL     1     -13.998   8.193  31.724  1.00  0.00     0.000 C 
BRANCH   6   7
ATOM      7  C   UNL     1     -14.630   6.938  31.103  1.00  0.00    -0.000 C 
BRANCH   7   8
ATOM      8  C   UNL     1     -14.580   7.000  29.572  1.00  0.00    -0.003 C 
ATOM      9  C   UNL     1     -13.440   7.893  29.093  1.00  0.00     0.004 C 
ENDBRANCH   7   8
ENDBRANCH   6   7
ENDBRANCH   1   6
TORSDOF 5
ENDMDL
MODEL 5
REMARK VINA RESULT:    -3.564     18.566     19.269
REMARK INTER + INTRA:          -4.789
REMARK INTER:                  -4.398
REMARK INTRA:                  -0.391
REMARK UNBOUND:                -0.184
REMARK SMILES CCCCCCC(=O)[O-]
REMARK SMILES IDX 5 1 6 2 7 3 8 4 9 5 4 6 3 7 2 8 1 9
REMARK H PARENT
REMARK Flexibility Score: inf
ROOT
ATOM      1  C   UNL     1     -17.787  -4.621  22.549  1.00  0.00     0.006 C 
ENDROOT
BRANCH   1   2
ATOM      2  C   UNL     1     -18.671  -5.829  22.213  1.00  0.00     0.053 C 
BRANCH   2   3
ATOM      3  C   UNL     1     -19.041  -5.816  20.763  1.00  0.00     0.041 C 
ATOM      4  O   UNL     1     -19.712  -4.863  20.288  1.00  0.00    -0.550 OA
ATOM      5  O   UNL     1     -18.687  -6.882  19.946  1.00  0.00    -0.550 OA
ENDBRANCH   2   3
ENDBRANCH   1   2
BRANCH   1   6
ATOM      6  C   UNL     1     -16.292  -4.906  22.336  1.00  0.00     0.000 C 
BRANCH   6   7
ATOM      7  C   UNL     1     -15.927  -6.376  22.593  1.00  0.00    -0.000 C 
BRANCH   7   8
ATOM      8  C   UNL     1     -14.915  -6.878  21.555  1.00  0.00    -0.003 C 
ATOM      9  C   UNL     1     -15.126  -6.198  20.206  1.00  0.00     0.004 C 
ENDBRANCH   7   8
ENDBRANCH   6   7
ENDBRANCH   1   6
TORSDOF 5
ENDMDL
MODEL 6
REMARK VINA RESULT:    -3.551      1.805      2.653
REMARK INTER + INTRA:          -4.773
REMARK INTER:                  -4.542
REMARK INTRA:                  -0.232
REMARK UNBOUND:                -0.184
REMARK SMILES CCCCCCC(=O)[O-]
REMARK SMILES IDX 5 1 6 2 7 3 8 4 9 5 4 6 3 7 2 8 1 9
REMARK H PARENT
REMARK Flexibility Score: inf
ROOT
ATOM      1  C   UNL     1     -14.493   9.179  32.423  1.00  0.00     0.006 C 
ENDROOT
BRANCH   1   2
ATOM      2  C   UNL     1     -14.169   8.185  31.300  1.00  0.00     0.053 C 
BRANCH   2   3
ATOM      3  C   UNL     1     -15.185   7.086  31.267  1.00  0.00     0.041 C 
ATOM      4  O   UNL     1     -14.817   5.884  31.215  1.00  0.00    -0.550 OA
ATOM      5  O   UNL     1     -16.540   7.393  31.246  1.00  0.00    -0.550 OA
ENDBRANCH   2   3
ENDBRANCH   1   2
BRANCH   1   6
ATOM      6  C   UNL     1     -15.144  10.469  31.901  1.00  0.00     0.000 C 
BRANCH   6   7
ATOM      7  C   UNL     1     -14.849  10.722  30.415  1.00  0.00    -0.000 C 
BRANCH   7   8
ATOM      8  C   UNL     1     -16.148  10.779  29.601  1.00  0.00    -0.003 C 
ATOM      9  C   UNL     1     -16.104  11.906  28.573  1.00  0.00     0.004 C 
ENDBRANCH   7   8
ENDBRANCH   6   7
ENDBRANCH   1   6
TORSDOF 5
ENDMDL
MODEL 7
REMARK VINA RESULT:    -3.550     19.357     20.050
REMARK INTER + INTRA:          -4.772
REMARK INTER:                  -4.417
REMARK INTRA:                  -0.355
REMARK UNBOUND:                -0.184
REMARK SMILES CCCCCCC(=O)[O-]
REMARK SMILES IDX 5 1 6 2 7 3 8 4 9 5 4 6 3 7 2 8 1 9
REMARK H PARENT
REMARK Flexibility Score: inf
ROOT
ATOM      1  C   UNL     1     -15.043  -5.885  20.207  1.00  0.00     0.006 C 
ENDROOT
BRANCH   1   2
ATOM      2  C   UNL     1     -15.283  -6.687  18.922  1.00  0.00     0.053 C 
BRANCH   2   3
ATOM      3  C   UNL     1     -16.617  -6.347  18.336  1.00  0.00     0.041 C 
ATOM      4  O   UNL     1     -17.661  -6.457  19.031  1.00  0.00    -0.550 OA
ATOM      5  O   UNL     1     -16.713  -5.955  17.007  1.00  0.00    -0.550 OA
ENDBRANCH   2   3
ENDBRANCH   1   2
BRANCH   1   6
ATOM      6  C   UNL     1     -14.838  -6.785  21.436  1.00  0.00     0.000 C 
BRANCH   6   7
ATOM      7  C   UNL     1     -15.857  -6.504  22.551  1.00  0.00    -0.000 C 
BRANCH   7   8
ATOM      8  C   UNL     1     -16.681  -5.251  22.237  1.00  0.00    -0.003 C 
ATOM      9  C   UNL     1     -18.176  -5.523  22.380  1.00  0.00     0.004 C 
ENDBRANCH   7   8
ENDBRANCH   6   7
ENDBRANCH   1   6
TORSDOF 5
ENDMDL
