MODEL 1
REMARK VINA RESULT:    -4.601      0.000      0.000
REMARK INTER + INTRA:          -6.874
REMARK INTER:                  -6.484
REMARK INTRA:                  -0.390
REMARK UNBOUND:                -0.390
REMARK SMILES CCCCCCCCC(=O)[O-]
REMARK SMILES IDX 6 1 7 2 8 3 9 4 10 5 11 6 5 7 4 8 3 9 2 10 1 11
REMARK H PARENT
REMARK Flexibility Score: inf
ROOT
ATOM      1  C   UNL     1      29.366  -7.560 -13.018  1.00  0.00     0.000 C 
ENDROOT
BRANCH   1   2
ATOM      2  C   UNL     1      29.671  -8.557 -14.146  1.00  0.00     0.006 C 
BRANCH   2   3
ATOM      3  C   UNL     1      29.726  -7.851 -15.503  1.00  0.00     0.053 C 
BRANCH   3   4
ATOM      4  C   UNL     1      29.577  -8.839 -16.616  1.00  0.00     0.041 C 
ATOM      5  O   UNL     1      30.556  -9.549 -16.968  1.00  0.00    -0.550 OA
ATOM      6  O   UNL     1      28.371  -8.940 -17.299  1.00  0.00    -0.550 OA
ENDBRANCH   3   4
ENDBRANCH   2   3
ENDBRANCH   1   2
BRANCH   1   7
ATOM      7  C   UNL     1      29.034  -6.155 -13.545  1.00  0.00     0.000 C 
BRANCH   7   8
ATOM      8  C   UNL     1      30.110  -5.117 -13.179  1.00  0.00    -0.000 C 
BRANCH   8   9
ATOM      9  C   UNL     1      31.436  -5.767 -12.750  1.00  0.00    -0.000 C 
BRANCH   9  10
ATOM     10  C   UNL     1      31.810  -5.440 -11.297  1.00  0.00    -0.003 C 
ATOM     11  C   UNL     1      32.719  -6.516 -10.708  1.00  0.00     0.004 C 
ENDBRANCH   9  10
ENDBRANCH   8   9
ENDBRANCH   7   8
ENDBRANCH   1   7
TORSDOF 7
ENDMDL
MODEL 2
REMARK VINA RESULT:    -4.581      3.163      5.401
REMARK INTER + INTRA:          -6.846
REMARK INTER:                  -6.435
REMARK INTRA:                  -0.410
REMARK UNBOUND:                -0.390
REMARK SMILES CCCCCCCCC(=O)[O-]
REMARK SMILES IDX 6 1 7 2 8 3 9 4 10 5 11 6 5 7 4 8 3 9 2 10 1 11
REMARK H PARENT
REMARK Flexibility Score: inf
ROOT
ATOM      1  C   UNL     1      29.849  -5.038 -13.085  1.00  0.00     0.000 C 
ENDROOT
BRANCH   1   2
ATOM      2  C   UNL     1      31.282  -5.520 -12.814  1.00  0.00     0.006 C 
BRANCH   2   3
ATOM      3  C   UNL     1      31.656  -5.330 -11.342  1.00  0.00     0.053 C 
BRANCH   3   4
ATOM      4  C   UNL     1      32.642  -6.369 -10.911  1.00  0.00     0.041 C 
ATOM      5  O   UNL     1      33.048  -7.235 -11.730  1.00  0.00    -0.550 OA
ATOM      6  O   UNL     1      33.074  -6.411  -9.591  1.00  0.00    -0.550 OA
ENDBRANCH   3   4
ENDBRANCH   2   3
ENDBRANCH   1   2
BRANCH   1   7
ATOM      7  C   UNL     1      28.942  -6.153 -13.625  1.00  0.00     0.000 C 
BRANCH   7   8
ATOM      8  C   UNL     1      29.321  -7.541 -13.079  1.00  0.00    -0.000 C 
BRANCH   8   9
ATOM      9  C   UNL     1      29.889  -8.469 -14.166  1.00  0.00    -0.000 C 
BRANCH   9  10
ATOM     10  C   UNL     1      29.751  -7.876 -15.576  1.00  0.00    -0.003 C 
ATOM     11  C   UNL     1      29.395  -8.958 -16.593  1.00  0.00     0.004 C 
ENDBRANCH   9  10
ENDBRANCH   8   9
ENDBRANCH   7   8
ENDBRANCH   1   7
TORSDOF 7
ENDMDL
MODEL 3
REMARK VINA RESULT:    -4.295      5.128      6.136
REMARK INTER + INTRA:          -6.443
REMARK INTER:                  -6.242
REMARK INTRA:                  -0.201
REMARK UNBOUND:                -0.390
REMARK SMILES CCCCCCCCC(=O)[O-]
REMARK SMILES IDX 6 1 7 2 8 3 9 4 10 5 11 6 5 7 4 8 3 9 2 10 1 11
REMARK H PARENT
REMARK Flexibility Score: inf
ROOT
ATOM      1  C   UNL     1      33.299  -5.544 -16.431  1.00  0.00     0.000 C 
ENDROOT
BRANCH   1   2
ATOM      2  C   UNL     1      33.994  -5.178 -17.751  1.00  0.00     0.006 C 
BRANCH   2   3
ATOM      3  C   UNL     1      35.408  -5.764 -17.807  1.00  0.00     0.053 C 
BRANCH   3   4
ATOM      4  C   UNL     1      36.398  -4.802 -17.229  1.00  0.00     0.041 C 
ATOM      5  O   UNL     1      36.398  -3.597 -17.594  1.00  0.00    -0.550 OA
ATOM      6  O   UNL     1      37.354  -5.249 -16.325  1.00  0.00    -0.550 OA
ENDBRANCH   3   4
ENDBRANCH   2   3
ENDBRANCH   1   2
BRANCH   1   7
ATOM      7  C   UNL     1      31.804  -5.189 -16.432  1.00  0.00     0.000 C 
BRANCH   7   8
ATOM      8  C   UNL     1      31.080  -5.676 -15.164  1.00  0.00    -0.000 C 
BRANCH   8   9
ATOM      9  C   UNL     1      29.923  -6.638 -15.478  1.00  0.00    -0.000 C 
BRANCH   9  10
ATOM     10  C   UNL     1      29.895  -7.852 -14.539  1.00  0.00    -0.003 C 
ATOM     11  C   UNL     1      29.520  -7.438 -13.118  1.00  0.00     0.004 C 
ENDBRANCH   9  10
ENDBRANCH   8   9
ENDBRANCH   7   8
ENDBRANCH   1   7
TORSDOF 7
ENDMDL
MODEL 4
REMARK VINA RESULT:    -4.236      1.396      2.458
REMARK INTER + INTRA:          -6.360
REMARK INTER:                  -6.145
REMARK INTRA:                  -0.216
REMARK UNBOUND:                -0.390
REMARK SMILES CCCCCCCCC(=O)[O-]
REMARK SMILES IDX 6 1 7 2 8 3 9 4 10 5 11 6 5 7 4 8 3 9 2 10 1 11
REMARK H PARENT
REMARK Flexibility Score: inf
ROOT
ATOM      1  C   UNL     1      30.001  -5.240 -12.885  1.00  0.00     0.000 C 
ENDROOT
BRANCH   1   2
ATOM      2  C   UNL     1      28.961  -6.230 -13.431  1.00  0.00     0.006 C 
BRANCH   2   3
ATOM      3  C   UNL     1      29.564  -7.630 -13.583  1.00  0.00     0.053 C 
BRANCH   3   4
ATOM      4  C   UNL     1      29.817  -7.940 -15.024  1.00  0.00     0.041 C 
ATOM      5  O   UNL     1      29.725  -9.123 -15.444  1.00  0.00    -0.550 OA
ATOM      6  O   UNL     1      30.205  -6.928 -15.894  1.00  0.00    -0.550 OA
ENDBRANCH   3   4
ENDBRANCH   2   3
ENDBRANCH   1   2
BRANCH   1   7
ATOM      7  C   UNL     1      31.376  -5.888 -12.664  1.00  0.00     0.000 C 
BRANCH   7   8
ATOM      8  C   UNL     1      31.990  -5.523 -11.300  1.00  0.00    -0.000 C 
BRANCH   8   9
ATOM      9  C   UNL     1      32.912  -6.625 -10.754  1.00  0.00    -0.000 C 
BRANCH   9  10
ATOM     10  C   UNL     1      33.097  -6.537  -9.232  1.00  0.00    -0.003 C 
ATOM     11  C   UNL     1      34.047  -7.622  -8.731  1.00  0.00     0.004 C 
ENDBRANCH   9  10
ENDBRANCH   8   9
ENDBRANCH   7   8
ENDBRANCH   1   7
TORSDOF 7
ENDMDL
MODEL 5
REMARK VINA RESULT:    -4.151      3.084      5.508
REMARK INTER + INTRA:          -6.240
REMARK INTER:                  -6.135
REMARK INTRA:                  -0.104
REMARK UNBOUND:                -0.390
REMARK SMILES CCCCCCCCC(=O)[O-]
REMARK SMILES IDX 6 1 7 2 8 3 9 4 10 5 11 6 5 7 4 8 3 9 2 10 1 11
REMARK H PARENT
REMARK Flexibility Score: inf
ROOT
ATOM      1  C   UNL     1      29.043  -6.024 -13.496  1.00  0.00     0.000 C 
ENDROOT
BRANCH   1   2
ATOM      2  C   UNL     1      30.089  -5.106 -12.847  1.00  0.00     0.006 C 
BRANCH   2   3
ATOM      3  C   UNL     1      31.496  -5.694 -12.986  1.00  0.00     0.053 C 
BRANCH   3   4
ATOM      4  C   UNL     1      32.067  -6.014 -11.640  1.00  0.00     0.041 C 
ATOM      5  O   UNL     1      31.743  -5.329 -10.635  1.00  0.00    -0.550 OA
ATOM      6  O   UNL     1      32.996  -7.039 -11.506  1.00  0.00    -0.550 OA
ENDBRANCH   3   4
ENDBRANCH   2   3
ENDBRANCH   1   2
BRANCH   1   7
ATOM      7  C   UNL     1      29.205  -7.494 -13.080  1.00  0.00     0.000 C 
BRANCH   7   8
ATOM      8  C   UNL     1      29.978  -8.323 -14.121  1.00  0.00    -0.000 C 
BRANCH   8   9
ATOM      9  C   UNL     1      29.613  -7.944 -15.566  1.00  0.00    -0.000 C 
BRANCH   9  10
ATOM     10  C   UNL     1      29.544  -9.164 -16.495  1.00  0.00    -0.003 C 
ATOM     11  C   UNL     1      28.466  -8.983 -17.561  1.00  0.00     0.004 C 
ENDBRANCH   9  10
ENDBRANCH   8   9
ENDBRANCH   7   8
ENDBRANCH   1   7
TORSDOF 7
ENDMDL
MODEL 6
REMARK VINA RESULT:    -4.035      4.512      5.059
REMARK INTER + INTRA:          -6.076
REMARK INTER:                  -5.879
REMARK INTRA:                  -0.197
REMARK UNBOUND:                -0.390
REMARK SMILES CCCCCCCCC(=O)[O-]
REMARK SMILES IDX 6 1 7 2 8 3 9 4 10 5 11 6 5 7 4 8 3 9 2 10 1 11
REMARK H PARENT
REMARK Flexibility Score: inf
ROOT
ATOM      1  C   UNL     1      31.729  -5.204 -16.460  1.00  0.00     0.000 C 
ENDROOT
BRANCH   1   2
ATOM      2  C   UNL     1      31.048  -5.552 -15.128  1.00  0.00     0.006 C 
BRANCH   2   3
ATOM      3  C   UNL     1      29.880  -6.518 -15.345  1.00  0.00     0.053 C 
BRANCH   3   4
ATOM      4  C   UNL     1      29.969  -7.672 -14.396  1.00  0.00     0.041 C 
ATOM      5  O   UNL     1      30.325  -7.485 -13.203  1.00  0.00    -0.550 OA
ATOM      6  O   UNL     1      29.709  -8.961 -14.844  1.00  0.00    -0.550 OA
ENDBRANCH   3   4
ENDBRANCH   2   3
ENDBRANCH   1   2
BRANCH   1   7
ATOM      7  C   UNL     1      33.233  -5.516 -16.456  1.00  0.00     0.000 C 
BRANCH   7   8
ATOM      8  C   UNL     1      33.911  -5.181 -17.796  1.00  0.00    -0.000 C 
BRANCH   8   9
ATOM      9  C   UNL     1      35.368  -5.666 -17.858  1.00  0.00    -0.000 C 
BRANCH   9  10
ATOM     10  C   UNL     1      36.289  -4.886 -16.909  1.00  0.00    -0.003 C 
ATOM     11  C   UNL     1      37.472  -5.744 -16.464  1.00  0.00     0.004 C 
ENDBRANCH   9  10
ENDBRANCH   8   9
ENDBRANCH   7   8
ENDBRANCH   1   7
TORSDOF 7
ENDMDL
MODEL 7
REMARK VINA RESULT:    -3.911      4.639      5.292
REMARK INTER + INTRA:          -5.902
REMARK INTER:                  -5.668
REMARK INTRA:                  -0.234
REMARK UNBOUND:                -0.390
REMARK SMILES CCCCCCCCC(=O)[O-]
REMARK SMILES IDX 6 1 7 2 8 3 9 4 10 5 11 6 5 7 4 8 3 9 2 10 1 11
REMARK H PARENT
REMARK Flexibility Score: inf
ROOT
ATOM      1  C   UNL     1      31.675  -5.570 -16.472  1.00  0.00     0.000 C 
ENDROOT
BRANCH   1   2
ATOM      2  C   UNL     1      30.996  -5.300 -15.121  1.00  0.00     0.006 C 
BRANCH   2   3
ATOM      3  C   UNL     1      29.906  -6.338 -14.837  1.00  0.00     0.053 C 
BRANCH   3   4
ATOM      4  C   UNL     1      30.120  -6.973 -13.500  1.00  0.00     0.041 C 
ATOM      5  O   UNL     1      29.311  -7.837 -13.072  1.00  0.00    -0.550 OA
ATOM      6  O   UNL     1      31.185  -6.570 -12.703  1.00  0.00    -0.550 OA
ENDBRANCH   3   4
ENDBRANCH   2   3
ENDBRANCH   1   2
BRANCH   1   7
ATOM      7  C   UNL     1      33.207  -5.502 -16.388  1.00  0.00     0.000 C 
BRANCH   7   8
ATOM      8  C   UNL     1      33.863  -5.229 -17.754  1.00  0.00    -0.000 C 
BRANCH   8   9
ATOM      9  C   UNL     1      35.378  -4.996 -17.645  1.00  0.00    -0.000 C 
BRANCH   9  10
ATOM     10  C   UNL     1      35.993  -5.686 -16.418  1.00  0.00    -0.003 C 
ATOM     11  C   UNL     1      37.461  -6.032 -16.661  1.00  0.00     0.004 C 
ENDBRANCH   9  10
ENDBRANCH   8   9
ENDBRANCH   7   8
ENDBRANCH   1   7
TORSDOF 7
ENDMDL
MODEL 8
REMARK VINA RESULT:    -3.622      4.548      5.423
REMARK INTER + INTRA:          -5.495
REMARK INTER:                  -5.263
REMARK INTRA:                  -0.232
REMARK UNBOUND:                -0.390
REMARK SMILES CCCCCCCCC(=O)[O-]
REMARK SMILES IDX 6 1 7 2 8 3 9 4 10 5 11 6 5 7 4 8 3 9 2 10 1 11
REMARK H PARENT
REMARK Flexibility Score: inf
ROOT
ATOM      1  C   UNL     1      30.703  -6.077 -15.439  1.00  0.00     0.000 C 
ENDROOT
BRANCH   1   2
ATOM      2  C   UNL     1      30.457  -5.583 -14.006  1.00  0.00     0.006 C 
BRANCH   2   3
ATOM      3  C   UNL     1      30.751  -6.689 -12.987  1.00  0.00     0.053 C 
BRANCH   3   4
ATOM      4  C   UNL     1      31.836  -6.264 -12.050  1.00  0.00     0.041 C 
ATOM      5  O   UNL     1      32.875  -6.964 -11.923  1.00  0.00    -0.550 OA
ATOM      6  O   UNL     1      31.677  -5.120 -11.277  1.00  0.00    -0.550 OA
ENDBRANCH   3   4
ENDBRANCH   2   3
ENDBRANCH   1   2
BRANCH   1   7
ATOM      7  C   UNL     1      31.594  -5.122 -16.248  1.00  0.00     0.000 C 
BRANCH   7   8
ATOM      8  C   UNL     1      33.047  -5.620 -16.359  1.00  0.00    -0.000 C 
BRANCH   8   9
ATOM      9  C   UNL     1      33.734  -5.153 -17.652  1.00  0.00    -0.000 C 
BRANCH   9  10
ATOM     10  C   UNL     1      35.122  -5.781 -17.841  1.00  0.00    -0.003 C 
ATOM     11  C   UNL     1      35.977  -5.613 -16.587  1.00  0.00     0.004 C 
ENDBRANCH   9  10
ENDBRANCH   8   9
ENDBRANCH   7   8
ENDBRANCH   1   7
TORSDOF 7
ENDMDL
