MODEL 1
REMARK VINA RESULT:    -3.867      0.000      0.000
REMARK INTER + INTRA:          -6.423
REMARK INTER:                  -5.901
REMARK INTRA:                  -0.522
REMARK UNBOUND:                -0.522
REMARK SMILES CC1=CCC[C@@H](C)C(=O)C[C@H](C(C)C)C(=O)C1
REMARK SMILES IDX 8 1 9 2 6 3 7 4 5 5 4 6 3 7 2 8 1 9 10 11 11 12 15 13 16 14
REMARK SMILES IDX 17 15 12 17 13 18 14 19
REMARK H PARENT
REMARK Flexibility Score: 70.00
ROOT
ATOM      1  C   UNL     1      -7.904  36.011  -0.379  1.00  0.00     0.136 C 
ATOM      2  O   UNL     1      -6.888  35.365  -0.158  1.00  0.00    -0.299 OA
ENDROOT
BRANCH   1   3
ATOM      3  C   UNL     1      -9.248  35.519   0.141  1.00  0.00     0.053 C 
ATOM      4  C   UNL     1      -9.603  34.153  -0.469  1.00  0.00     0.016 C 
BRANCH   3   5
ATOM      5  C   UNL     1     -10.412  36.529  -0.085  1.00  0.00     0.015 C 
BRANCH   5   6
ATOM      6  C   UNL     1     -11.378  36.105  -1.215  1.00  0.00     0.028 C 
BRANCH   6   7
ATOM      7  C   UNL     1     -11.880  37.135  -2.216  1.00  0.00    -0.028 C 
ATOM      8  C   UNL     1     -11.264  37.742  -3.268  1.00  0.00    -0.070 CG0
ATOM      9  C   UNL     1     -11.973  38.926  -3.883  1.00  0.00     0.039 C 
ATOM     10  G   UNL     1     -10.018  37.259  -3.978  1.00  0.00     0.000 G0
ENDBRANCH   6   7
ENDBRANCH   5   6
ENDBRANCH   3   5
ENDBRANCH   1   3
BRANCH   1  11
ATOM     11  C   UNL     1      -7.799  37.317  -1.132  1.00  0.00     0.087 C 
BRANCH  11  12
ATOM     12  C   UNL     1      -7.652  37.189  -2.672  1.00  0.00     0.066 C 
BRANCH  12  13
ATOM     13  C   UNL     1      -8.720  37.895  -3.516  1.00  0.00     0.140 C 
ATOM     14  O   UNL     1      -8.493  39.037  -3.885  1.00  0.00    -0.299 OA
BRANCH  13  15
ATOM     15  C   UNL     1     -10.011  37.266  -3.989  1.00  0.00     0.106 CG0
ATOM     16  G   UNL     1     -11.237  37.759  -3.252  1.00  0.00     0.000 G0
ENDBRANCH  13  15
ENDBRANCH  12  13
BRANCH  12  17
ATOM     17  C   UNL     1      -6.198  37.601  -3.094  1.00  0.00    -0.006 C 
ATOM     18  C   UNL     1      -5.541  38.557  -2.084  1.00  0.00     0.008 C 
ATOM     19  C   UNL     1      -5.279  36.396  -3.361  1.00  0.00     0.008 C 
ENDBRANCH  12  17
ENDBRANCH  11  12
ENDBRANCH   1  11
TORSDOF 1
ENDMDL
MODEL 2
REMARK VINA RESULT:    -3.787      2.485      5.480
REMARK INTER + INTRA:          -6.301
REMARK INTER:                  -6.078
REMARK INTRA:                  -0.222
REMARK UNBOUND:                -0.522
REMARK SMILES CC1=CCC[C@@H](C)C(=O)C[C@H](C(C)C)C(=O)C1
REMARK SMILES IDX 8 1 9 2 6 3 7 4 5 5 4 6 3 7 2 8 1 9 10 11 11 12 15 13 16 14
REMARK SMILES IDX 17 15 12 17 13 18 14 19
REMARK H PARENT
REMARK Flexibility Score: 70.00
ROOT
ATOM      1  C   UNL     1      -9.793  37.350  -2.437  1.00  0.00     0.136 C 
ATOM      2  O   UNL     1     -10.866  36.810  -2.674  1.00  0.00    -0.299 OA
ENDROOT
BRANCH   1   3
ATOM      3  C   UNL     1      -9.091  38.158  -3.519  1.00  0.00     0.053 C 
ATOM      4  C   UNL     1      -9.656  37.819  -4.909  1.00  0.00     0.016 C 
BRANCH   3   5
ATOM      5  C   UNL     1      -7.542  37.996  -3.515  1.00  0.00     0.015 C 
BRANCH   5   6
ATOM      6  C   UNL     1      -6.829  38.961  -2.540  1.00  0.00     0.028 C 
BRANCH   6   7
ATOM      7  C   UNL     1      -5.568  38.518  -1.812  1.00  0.00    -0.028 C 
ATOM      8  C   UNL     1      -5.380  38.019  -0.560  1.00  0.00    -0.070 CG0
ATOM      9  C   UNL     1      -3.956  37.947  -0.061  1.00  0.00     0.039 C 
ATOM     10  G   UNL     1      -6.436  37.392   0.324  1.00  0.00     0.000 G0
ENDBRANCH   6   7
ENDBRANCH   5   6
ENDBRANCH   3   5
ENDBRANCH   1   3
BRANCH   1  11
ATOM     11  C   UNL     1      -9.202  37.241  -1.051  1.00  0.00     0.087 C 
BRANCH  11  12
ATOM     12  C   UNL     1      -8.422  35.930  -0.759  1.00  0.00     0.066 C 
BRANCH  12  13
ATOM     13  C   UNL     1      -7.009  36.096  -0.189  1.00  0.00     0.140 C 
ATOM     14  O   UNL     1      -6.265  35.126  -0.213  1.00  0.00    -0.299 OA
BRANCH  13  15
ATOM     15  C   UNL     1      -6.430  37.388   0.344  1.00  0.00     0.106 CG0
ATOM     16  G   UNL     1      -5.360  37.990  -0.540  1.00  0.00     0.000 G0
ENDBRANCH  13  15
ENDBRANCH  12  13
BRANCH  12  17
ATOM     17  C   UNL     1      -9.306  34.981   0.122  1.00  0.00    -0.006 C 
ATOM     18  C   UNL     1     -10.296  35.754   1.009  1.00  0.00     0.008 C 
ATOM     19  C   UNL     1     -10.050  33.911  -0.698  1.00  0.00     0.008 C 
ENDBRANCH  12  17
ENDBRANCH  11  12
ENDBRANCH   1  11
TORSDOF 1
ENDMDL
MODEL 3
REMARK VINA RESULT:    -3.721      1.702      3.943
REMARK INTER + INTRA:          -6.200
REMARK INTER:                  -5.724
REMARK INTRA:                  -0.476
REMARK UNBOUND:                -0.522
REMARK SMILES CC1=CCC[C@@H](C)C(=O)C[C@H](C(C)C)C(=O)C1
REMARK SMILES IDX 8 1 9 2 6 3 7 4 5 5 4 6 3 7 2 8 1 9 10 11 11 12 15 13 16 14
REMARK SMILES IDX 17 15 12 17 13 18 14 19
REMARK H PARENT
REMARK Flexibility Score: 70.00
ROOT
ATOM      1  C   UNL     1      -8.413  37.581  -3.996  1.00  0.00     0.136 C 
ATOM      2  O   UNL     1      -8.269  38.258  -5.005  1.00  0.00    -0.299 OA
ENDROOT
BRANCH   1   3
ATOM      3  C   UNL     1      -9.804  37.133  -3.570  1.00  0.00     0.053 C 
ATOM      4  C   UNL     1     -10.664  36.781  -4.796  1.00  0.00     0.016 C 
BRANCH   3   5
ATOM      5  C   UNL     1     -10.546  38.165  -2.670  1.00  0.00     0.015 C 
BRANCH   5   6
ATOM      6  C   UNL     1     -10.770  37.666  -1.224  1.00  0.00     0.028 C 
BRANCH   6   7
ATOM      7  C   UNL     1     -10.697  36.178  -0.910  1.00  0.00    -0.028 C 
ATOM      8  C   UNL     1      -9.668  35.399  -0.477  1.00  0.00    -0.070 CG0
ATOM      9  C   UNL     1      -9.874  33.904  -0.536  1.00  0.00     0.039 C 
ATOM     10  G   UNL     1      -8.401  35.880   0.195  1.00  0.00     0.000 G0
ENDBRANCH   6   7
ENDBRANCH   5   6
ENDBRANCH   3   5
ENDBRANCH   1   3
BRANCH   1  11
ATOM     11  C   UNL     1      -7.194  37.162  -3.208  1.00  0.00     0.087 C 
BRANCH  11  12
ATOM     12  C   UNL     1      -7.251  37.453  -1.684  1.00  0.00     0.066 C 
BRANCH  12  13
ATOM     13  C   UNL     1      -7.264  36.229  -0.760  1.00  0.00     0.140 C 
ATOM     14  O   UNL     1      -6.273  35.513  -0.747  1.00  0.00    -0.299 OA
BRANCH  13  15
ATOM     15  C   UNL     1      -8.381  35.868   0.193  1.00  0.00     0.106 CG0
ATOM     16  G   UNL     1      -9.647  35.407  -0.496  1.00  0.00     0.000 G0
ENDBRANCH  13  15
ENDBRANCH  12  13
BRANCH  12  17
ATOM     17  C   UNL     1      -6.119  38.469  -1.302  1.00  0.00    -0.006 C 
ATOM     18  C   UNL     1      -5.079  38.638  -2.421  1.00  0.00     0.008 C 
ATOM     19  C   UNL     1      -6.659  39.844  -0.867  1.00  0.00     0.008 C 
ENDBRANCH  12  17
ENDBRANCH  11  12
ENDBRANCH   1  11
TORSDOF 1
ENDMDL
MODEL 4
REMARK VINA RESULT:    -3.586      2.115      4.350
REMARK INTER + INTRA:          -5.994
REMARK INTER:                  -5.646
REMARK INTRA:                  -0.348
REMARK UNBOUND:                -0.522
REMARK SMILES CC1=CCC[C@@H](C)C(=O)C[C@H](C(C)C)C(=O)C1
REMARK SMILES IDX 8 1 9 2 6 3 7 4 5 5 4 6 3 7 2 8 1 9 10 11 11 12 15 13 16 14
REMARK SMILES IDX 17 15 12 17 13 18 14 19
REMARK H PARENT
REMARK Flexibility Score: 70.00
ROOT
ATOM      1  C   UNL     1     -10.098  36.027  -1.755  1.00  0.00     0.136 C 
ATOM      2  O   UNL     1     -11.275  36.085  -1.425  1.00  0.00    -0.299 OA
ENDROOT
BRANCH   1   3
ATOM      3  C   UNL     1      -9.125  35.165  -0.963  1.00  0.00     0.053 C 
ATOM      4  C   UNL     1      -9.873  34.066  -0.189  1.00  0.00     0.016 C 
BRANCH   3   5
ATOM      5  C   UNL     1      -8.213  35.977   0.003  1.00  0.00     0.015 C 
BRANCH   5   6
ATOM      6  C   UNL     1      -6.704  35.795  -0.282  1.00  0.00     0.028 C 
BRANCH   6   7
ATOM      7  C   UNL     1      -5.850  36.993  -0.667  1.00  0.00    -0.028 C 
ATOM      8  C   UNL     1      -5.665  37.620  -1.861  1.00  0.00    -0.070 CG0
ATOM      9  C   UNL     1      -4.526  38.610  -1.942  1.00  0.00     0.039 C 
ATOM     10  G   UNL     1      -6.575  37.539  -3.067  1.00  0.00     0.000 G0
ENDBRANCH   6   7
ENDBRANCH   5   6
ENDBRANCH   3   5
ENDBRANCH   1   3
BRANCH   1  11
ATOM     11  C   UNL     1      -9.636  36.783  -2.979  1.00  0.00     0.087 C 
BRANCH  11  12
ATOM     12  C   UNL     1      -9.183  38.247  -2.728  1.00  0.00     0.066 C 
BRANCH  12  13
ATOM     13  C   UNL     1      -7.716  38.565  -3.038  1.00  0.00     0.140 C 
ATOM     14  O   UNL     1      -7.413  39.733  -3.231  1.00  0.00    -0.299 OA
BRANCH  13  15
ATOM     15  C   UNL     1      -6.591  37.554  -3.058  1.00  0.00     0.106 CG0
ATOM     16  G   UNL     1      -5.664  37.647  -1.865  1.00  0.00     0.000 G0
ENDBRANCH  13  15
ENDBRANCH  12  13
BRANCH  12  17
ATOM     17  C   UNL     1     -10.166  39.230  -3.454  1.00  0.00    -0.006 C 
ATOM     18  C   UNL     1     -10.324  38.907  -4.950  1.00  0.00     0.008 C 
ATOM     19  C   UNL     1     -11.548  39.315  -2.781  1.00  0.00     0.008 C 
ENDBRANCH  12  17
ENDBRANCH  11  12
ENDBRANCH   1  11
TORSDOF 1
ENDMDL
MODEL 5
REMARK VINA RESULT:    -3.552      1.685      3.910
REMARK INTER + INTRA:          -5.943
REMARK INTER:                  -5.489
REMARK INTRA:                  -0.454
REMARK UNBOUND:                -0.522
REMARK SMILES CC1=CCC[C@@H](C)C(=O)C[C@H](C(C)C)C(=O)C1
REMARK SMILES IDX 8 1 9 2 6 3 7 4 5 5 4 6 3 7 2 8 1 9 10 11 11 12 15 13 16 14
REMARK SMILES IDX 17 15 12 17 13 18 14 19
REMARK H PARENT
REMARK Flexibility Score: 70.00
ROOT
ATOM      1  C   UNL     1      -6.755  36.357  -1.026  1.00  0.00     0.136 C 
ATOM      2  O   UNL     1      -5.689  36.274  -0.431  1.00  0.00    -0.299 OA
ENDROOT
BRANCH   1   3
ATOM      3  C   UNL     1      -6.859  37.192  -2.294  1.00  0.00     0.053 C 
ATOM      4  C   UNL     1      -5.661  36.929  -3.222  1.00  0.00     0.016 C 
BRANCH   3   5
ATOM      5  C   UNL     1      -7.006  38.720  -2.027  1.00  0.00     0.015 C 
BRANCH   5   6
ATOM      6  C   UNL     1      -8.457  39.230  -2.176  1.00  0.00     0.028 C 
BRANCH   6   7
ATOM      7  C   UNL     1      -9.376  38.620  -3.224  1.00  0.00    -0.028 C 
ATOM      8  C   UNL     1     -10.364  37.689  -3.123  1.00  0.00    -0.070 CG0
ATOM      9  C   UNL     1     -10.888  37.107  -4.416  1.00  0.00     0.039 C 
ATOM     10  G   UNL     1     -11.093  37.288  -1.859  1.00  0.00     0.000 G0
ENDBRANCH   6   7
ENDBRANCH   5   6
ENDBRANCH   3   5
ENDBRANCH   1   3
BRANCH   1  11
ATOM     11  C   UNL     1      -7.950  35.586  -0.511  1.00  0.00     0.087 C 
BRANCH  11  12
ATOM     12  C   UNL     1      -9.196  36.444  -0.160  1.00  0.00     0.066 C 
BRANCH  12  13
ATOM     13  C   UNL     1     -10.436  36.226  -1.034  1.00  0.00     0.140 C 
ATOM     14  O   UNL     1     -10.956  35.120  -1.022  1.00  0.00    -0.299 OA
BRANCH  13  15
ATOM     15  C   UNL     1     -11.115  37.292  -1.864  1.00  0.00     0.106 CG0
ATOM     16  G   UNL     1     -10.349  37.676  -3.111  1.00  0.00     0.000 G0
ENDBRANCH  13  15
ENDBRANCH  12  13
BRANCH  12  17
ATOM     17  C   UNL     1      -9.517  36.297   1.368  1.00  0.00    -0.006 C 
ATOM     18  C   UNL     1      -8.351  36.754   2.261  1.00  0.00     0.008 C 
ATOM     19  C   UNL     1     -10.816  37.009   1.787  1.00  0.00     0.008 C 
ENDBRANCH  12  17
ENDBRANCH  11  12
ENDBRANCH   1  11
TORSDOF 1
ENDMDL
MODEL 6
REMARK VINA RESULT:    -3.516      2.160      4.685
REMARK INTER + INTRA:          -5.888
REMARK INTER:                  -5.376
REMARK INTRA:                  -0.512
REMARK UNBOUND:                -0.522
REMARK SMILES CC1=CCC[C@@H](C)C(=O)C[C@H](C(C)C)C(=O)C1
REMARK SMILES IDX 8 1 9 2 6 3 7 4 5 5 4 6 3 7 2 8 1 9 10 11 11 12 15 13 16 14
REMARK SMILES IDX 17 15 12 17 13 18 14 19
REMARK H PARENT
REMARK Flexibility Score: 70.00
ROOT
ATOM      1  C   UNL     1      -7.886  38.784  -2.227  1.00  0.00     0.136 C 
ATOM      2  O   UNL     1      -7.651  39.558  -3.145  1.00  0.00    -0.299 OA
ENDROOT
BRANCH   1   3
ATOM      3  C   UNL     1      -6.744  38.217  -1.396  1.00  0.00     0.053 C 
ATOM      4  C   UNL     1      -5.485  39.090  -1.528  1.00  0.00     0.016 C 
BRANCH   3   5
ATOM      5  C   UNL     1      -6.406  36.733  -1.728  1.00  0.00     0.015 C 
BRANCH   5   6
ATOM      6  C   UNL     1      -6.458  35.803  -0.493  1.00  0.00     0.028 C 
BRANCH   6   7
ATOM      7  C   UNL     1      -7.549  35.982   0.552  1.00  0.00    -0.028 C 
ATOM      8  C   UNL     1      -8.904  35.891   0.462  1.00  0.00    -0.070 CG0
ATOM      9  C   UNL     1      -9.701  36.405   1.638  1.00  0.00     0.039 C 
ATOM     10  G   UNL     1      -9.687  35.193  -0.629  1.00  0.00     0.000 G0
ENDBRANCH   6   7
ENDBRANCH   5   6
ENDBRANCH   3   5
ENDBRANCH   1   3
BRANCH   1  11
ATOM     11  C   UNL     1      -9.321  38.438  -1.903  1.00  0.00     0.087 C 
BRANCH  11  12
ATOM     12  C   UNL     1      -9.843  37.111  -2.518  1.00  0.00     0.066 C 
BRANCH  12  13
ATOM     13  C   UNL     1     -10.477  36.114  -1.541  1.00  0.00     0.140 C 
ATOM     14  O   UNL     1     -11.694  36.015  -1.536  1.00  0.00    -0.299 OA
BRANCH  13  15
ATOM     15  C   UNL     1      -9.711  35.187  -0.623  1.00  0.00     0.106 CG0
ATOM     16  G   UNL     1      -8.928  35.905   0.455  1.00  0.00     0.000 G0
ENDBRANCH  13  15
ENDBRANCH  12  13
BRANCH  12  17
ATOM     17  C   UNL     1     -10.786  37.432  -3.729  1.00  0.00    -0.006 C 
ATOM     18  C   UNL     1     -11.518  38.774  -3.565  1.00  0.00     0.008 C 
ATOM     19  C   UNL     1     -10.067  37.382  -5.089  1.00  0.00     0.008 C 
ENDBRANCH  12  17
ENDBRANCH  11  12
ENDBRANCH   1  11
TORSDOF 1
ENDMDL
MODEL 7
REMARK VINA RESULT:    -3.436      8.426     10.367
REMARK INTER + INTRA:          -5.765
REMARK INTER:                  -5.465
REMARK INTRA:                  -0.300
REMARK UNBOUND:                -0.522
REMARK SMILES CC1=CCC[C@@H](C)C(=O)C[C@H](C(C)C)C(=O)C1
REMARK SMILES IDX 8 1 9 2 6 3 7 4 5 5 4 6 3 7 2 8 1 9 10 11 11 12 15 13 16 14
REMARK SMILES IDX 17 15 12 17 13 18 14 19
REMARK H PARENT
REMARK Flexibility Score: 70.00
ROOT
ATOM      1  C   UNL     1      -4.627  33.828   4.363  1.00  0.00     0.136 C 
ATOM      2  O   UNL     1      -5.745  34.024   3.905  1.00  0.00    -0.299 OA
ENDROOT
BRANCH   1   3
ATOM      3  C   UNL     1      -4.321  32.531   5.099  1.00  0.00     0.053 C 
ATOM      4  C   UNL     1      -5.327  31.433   4.715  1.00  0.00     0.016 C 
BRANCH   3   5
ATOM      5  C   UNL     1      -4.263  32.688   6.647  1.00  0.00     0.015 C 
BRANCH   5   6
ATOM      6  C   UNL     1      -5.029  33.928   7.165  1.00  0.00     0.028 C 
BRANCH   6   7
ATOM      7  C   UNL     1      -4.376  34.862   8.173  1.00  0.00    -0.028 C 
ATOM      8  C   UNL     1      -3.247  35.620   8.098  1.00  0.00    -0.070 CG0
ATOM      9  C   UNL     1      -2.739  36.216   9.390  1.00  0.00     0.039 C 
ATOM     10  G   UNL     1      -2.537  36.048   6.832  1.00  0.00     0.000 G0
ENDBRANCH   6   7
ENDBRANCH   5   6
ENDBRANCH   3   5
ENDBRANCH   1   3
BRANCH   1  11
ATOM     11  C   UNL     1      -3.550  34.866   4.151  1.00  0.00     0.087 C 
BRANCH  11  12
ATOM     12  C   UNL     1      -3.941  36.321   4.528  1.00  0.00     0.066 C 
BRANCH  12  13
ATOM     13  C   UNL     1      -3.400  36.843   5.864  1.00  0.00     0.140 C 
ATOM     14  O   UNL     1      -3.734  37.964   6.216  1.00  0.00    -0.299 OA
BRANCH  13  15
ATOM     15  C   UNL     1      -2.535  36.054   6.821  1.00  0.00     0.106 CG0
ATOM     16  G   UNL     1      -3.254  35.624   8.082  1.00  0.00     0.000 G0
ENDBRANCH  13  15
ENDBRANCH  12  13
BRANCH  12  17
ATOM     17  C   UNL     1      -3.597  37.280   3.336  1.00  0.00    -0.006 C 
ATOM     18  C   UNL     1      -2.121  37.188   2.914  1.00  0.00     0.008 C 
ATOM     19  C   UNL     1      -4.512  37.083   2.114  1.00  0.00     0.008 C 
ENDBRANCH  12  17
ENDBRANCH  11  12
ENDBRANCH   1  11
TORSDOF 1
ENDMDL
MODEL 8
REMARK VINA RESULT:    -3.378      1.816      4.091
REMARK INTER + INTRA:          -5.677
REMARK INTER:                  -5.668
REMARK INTRA:                  -0.009
REMARK UNBOUND:                -0.522
REMARK SMILES CC1=CCC[C@@H](C)C(=O)C[C@H](C(C)C)C(=O)C1
REMARK SMILES IDX 8 1 9 2 6 3 7 4 5 5 4 6 3 7 2 8 1 9 10 11 11 12 15 13 16 14
REMARK SMILES IDX 17 15 12 17 13 18 14 19
REMARK H PARENT
REMARK Flexibility Score: 70.00
ROOT
ATOM      1  C   UNL     1     -10.631  36.201  -0.484  1.00  0.00     0.136 C 
ATOM      2  O   UNL     1     -10.625  36.714   0.627  1.00  0.00    -0.299 OA
ENDROOT
BRANCH   1   3
ATOM      3  C   UNL     1      -9.512  35.254  -0.894  1.00  0.00     0.053 C 
ATOM      4  C   UNL     1      -9.799  33.824  -0.408  1.00  0.00     0.016 C 
BRANCH   3   5
ATOM      5  C   UNL     1      -8.101  35.711  -0.418  1.00  0.00     0.015 C 
BRANCH   5   6
ATOM      6  C   UNL     1      -7.482  36.814  -1.307  1.00  0.00     0.028 C 
BRANCH   6   7
ATOM      7  C   UNL     1      -8.042  38.228  -1.269  1.00  0.00    -0.028 C 
ATOM      8  C   UNL     1      -8.623  38.993  -2.233  1.00  0.00    -0.070 CG0
ATOM      9  C   UNL     1      -8.809  40.459  -1.921  1.00  0.00     0.039 C 
ATOM     10  G   UNL     1      -9.235  38.495  -3.525  1.00  0.00     0.000 G0
ENDBRANCH   6   7
ENDBRANCH   5   6
ENDBRANCH   3   5
ENDBRANCH   1   3
BRANCH   1  11
ATOM     11  C   UNL     1     -11.782  36.486  -1.422  1.00  0.00     0.087 C 
BRANCH  11  12
ATOM     12  C   UNL     1     -11.537  37.619  -2.454  1.00  0.00     0.066 C 
BRANCH  12  13
ATOM     13  C   UNL     1     -10.309  37.460  -3.357  1.00  0.00     0.140 C 
ATOM     14  O   UNL     1     -10.218  36.440  -4.023  1.00  0.00    -0.299 OA
BRANCH  13  15
ATOM     15  C   UNL     1      -9.224  38.498  -3.544  1.00  0.00     0.106 CG0
ATOM     16  G   UNL     1      -8.628  38.999  -2.246  1.00  0.00     0.000 G0
ENDBRANCH  13  15
ENDBRANCH  12  13
BRANCH  12  17
ATOM     17  C   UNL     1     -12.848  37.866  -3.279  1.00  0.00    -0.006 C 
ATOM     18  C   UNL     1     -12.590  38.660  -4.571  1.00  0.00     0.008 C 
ATOM     19  C   UNL     1     -13.619  36.572  -3.596  1.00  0.00     0.008 C 
ENDBRANCH  12  17
ENDBRANCH  11  12
ENDBRANCH   1  11
TORSDOF 1
ENDMDL
MODEL 9
REMARK VINA RESULT:    -3.294      3.429      5.237
REMARK INTER + INTRA:          -5.549
REMARK INTER:                  -5.061
REMARK INTRA:                  -0.488
REMARK UNBOUND:                -0.522
REMARK SMILES CC1=CCC[C@@H](C)C(=O)C[C@H](C(C)C)C(=O)C1
REMARK SMILES IDX 8 1 9 2 6 3 7 4 5 5 4 6 3 7 2 8 1 9 10 11 11 12 15 13 16 14
REMARK SMILES IDX 17 15 12 17 13 18 14 19
REMARK H PARENT
REMARK Flexibility Score: 70.00
ROOT
ATOM      1  C   UNL     1      -8.765  36.272  -1.041  1.00  0.00     0.136 C 
ATOM      2  O   UNL     1      -9.687  36.891  -1.555  1.00  0.00    -0.299 OA
ENDROOT
BRANCH   1   3
ATOM      3  C   UNL     1      -9.055  35.127  -0.082  1.00  0.00     0.053 C 
ATOM      4  C   UNL     1      -9.835  34.006  -0.789  1.00  0.00     0.016 C 
BRANCH   3   5
ATOM      5  C   UNL     1      -9.802  35.568   1.212  1.00  0.00     0.015 C 
BRANCH   5   6
ATOM      6  C   UNL     1      -8.975  36.525   2.100  1.00  0.00     0.028 C 
BRANCH   6   7
ATOM      7  C   UNL     1      -7.812  35.990   2.923  1.00  0.00    -0.028 C 
ATOM      8  C   UNL     1      -6.468  36.171   2.806  1.00  0.00    -0.070 CG0
ATOM      9  C   UNL     1      -5.584  35.262   3.627  1.00  0.00     0.039 C 
ATOM     10  G   UNL     1      -5.775  37.286   2.053  1.00  0.00     0.000 G0
ENDBRANCH   6   7
ENDBRANCH   5   6
ENDBRANCH   3   5
ENDBRANCH   1   3
BRANCH   1  11
ATOM     11  C   UNL     1      -7.342  36.631  -1.404  1.00  0.00     0.087 C 
BRANCH  11  12
ATOM     12  C   UNL     1      -6.653  37.661  -0.468  1.00  0.00     0.066 C 
BRANCH  12  13
ATOM     13  C   UNL     1      -5.676  37.089   0.565  1.00  0.00     0.140 C 
ATOM     14  O   UNL     1      -4.715  36.456   0.154  1.00  0.00    -0.299 OA
BRANCH  13  15
ATOM     15  C   UNL     1      -5.766  37.300   2.060  1.00  0.00     0.106 CG0
ATOM     16  G   UNL     1      -6.466  36.177   2.795  1.00  0.00     0.000 G0
ENDBRANCH  13  15
ENDBRANCH  12  13
BRANCH  12  17
ATOM     17  C   UNL     1      -6.003  38.798  -1.330  1.00  0.00    -0.006 C 
ATOM     18  C   UNL     1      -6.691  38.968  -2.695  1.00  0.00     0.008 C 
ATOM     19  C   UNL     1      -5.932  40.150  -0.598  1.00  0.00     0.008 C 
ENDBRANCH  12  17
ENDBRANCH  11  12
ENDBRANCH   1  11
TORSDOF 1
ENDMDL
