MODEL 1
REMARK VINA RESULT:    -5.248      0.000      0.000
REMARK INTER + INTRA:         -18.170
REMARK INTER:                 -13.838
REMARK INTRA:                  -4.331
REMARK UNBOUND:                -4.331
REMARK SMILES CCCCCCCCCCCCCCCCCCCCCCCCCCCCCC(=O)[O-]
REMARK SMILES IDX 16 1 17 2 18 3 19 4 20 5 21 6 22 7 23 8 24 9 25 10 26 11
REMARK SMILES IDX 27 12 28 13 29 14 30 15 31 16 32 17 15 18 14 19 13 20 12 21
REMARK SMILES IDX 11 22 10 23 9 24 8 25 7 26 6 27 5 28 4 29 3 30 2 31 1 32
REMARK H PARENT
REMARK Flexibility Score: inf
ROOT
ATOM      1  C   UNL     1      25.544  -9.365  20.179  1.00  0.00     0.000 C 
ENDROOT
BRANCH   1   2
ATOM      2  C   UNL     1      26.183  -9.447  18.779  1.00  0.00     0.000 C 
BRANCH   2   3
ATOM      3  C   UNL     1      27.656  -9.898  18.836  1.00  0.00     0.000 C 
BRANCH   3   4
ATOM      4  C   UNL     1      28.627  -8.899  18.178  1.00  0.00     0.000 C 
BRANCH   4   5
ATOM      5  C   UNL     1      27.892  -7.850  17.323  1.00  0.00     0.000 C 
BRANCH   5   6
ATOM      6  C   UNL     1      28.529  -7.669  15.936  1.00  0.00     0.000 C 
BRANCH   6   7
ATOM      7  C   UNL     1      30.059  -7.518  16.000  1.00  0.00     0.000 C 
BRANCH   7   8
ATOM      8  C   UNL     1      30.651  -6.951  14.699  1.00  0.00     0.000 C 
BRANCH   8   9
ATOM      9  C   UNL     1      30.173  -5.516  14.416  1.00  0.00     0.000 C 
BRANCH   9  10
ATOM     10  C   UNL     1      30.540  -4.535  15.540  1.00  0.00     0.000 C 
BRANCH  10  11
ATOM     11  C   UNL     1      29.392  -3.579  15.894  1.00  0.00     0.000 C 
BRANCH  11  12
ATOM     12  C   UNL     1      28.539  -4.147  17.039  1.00  0.00     0.000 C 
BRANCH  12  13
ATOM     13  C   UNL     1      27.048  -4.243  16.679  1.00  0.00     0.006 C 
BRANCH  13  14
ATOM     14  C   UNL     1      26.811  -4.402  15.170  1.00  0.00     0.053 C 
BRANCH  14  15
ATOM     15  C   UNL     1      25.786  -3.425  14.680  1.00  0.00     0.041 C 
ATOM     16  O   UNL     1      26.049  -2.666  13.710  1.00  0.00    -0.550 OA
ATOM     17  O   UNL     1      24.523  -3.384  15.262  1.00  0.00    -0.550 OA
ENDBRANCH  14  15
ENDBRANCH  13  14
ENDBRANCH  12  13
ENDBRANCH  11  12
ENDBRANCH  10  11
ENDBRANCH   9  10
ENDBRANCH   8   9
ENDBRANCH   7   8
ENDBRANCH   6   7
ENDBRANCH   5   6
ENDBRANCH   4   5
ENDBRANCH   3   4
ENDBRANCH   2   3
ENDBRANCH   1   2
BRANCH   1  18
ATOM     18  C   UNL     1      24.143 -10.009  20.224  1.00  0.00     0.000 C 
BRANCH  18  19
ATOM     19  C   UNL     1      23.592 -10.206  21.647  1.00  0.00     0.000 C 
BRANCH  19  20
ATOM     20  C   UNL     1      22.829 -11.530  21.818  1.00  0.00     0.000 C 
BRANCH  20  21
ATOM     21  C   UNL     1      22.284 -12.062  20.480  1.00  0.00     0.000 C 
BRANCH  21  22
ATOM     22  C   UNL     1      22.622 -13.544  20.229  1.00  0.00     0.000 C 
BRANCH  22  23
ATOM     23  C   UNL     1      23.627 -13.727  19.077  1.00  0.00     0.000 C 
BRANCH  23  24
ATOM     24  C   UNL     1      23.782 -12.452  18.223  1.00  0.00    -0.000 C 
BRANCH  24  25
ATOM     25  C   UNL     1      23.166 -12.564  16.818  1.00  0.00    -0.000 C 
BRANCH  25  26
ATOM     26  C   UNL     1      24.198 -12.397  15.691  1.00  0.00    -0.000 C 
BRANCH  26  27
ATOM     27  C   UNL     1      25.012 -11.093  15.832  1.00  0.00    -0.000 C 
BRANCH  27  28
ATOM     28  C   UNL     1      26.153 -10.964  14.803  1.00  0.00    -0.000 C 
BRANCH  28  29
ATOM     29  C   UNL     1      27.568 -11.049  15.400  1.00  0.00    -0.000 C 
BRANCH  29  30
ATOM     30  C   UNL     1      28.663 -11.101  14.325  1.00  0.00    -0.000 C 
BRANCH  30  31
ATOM     31  C   UNL     1      30.053 -10.946  14.952  1.00  0.00    -0.003 C 
ATOM     32  C   UNL     1      30.089 -11.528  16.362  1.00  0.00     0.004 C 
ENDBRANCH  30  31
ENDBRANCH  29  30
ENDBRANCH  28  29
ENDBRANCH  27  28
ENDBRANCH  26  27
ENDBRANCH  25  26
ENDBRANCH  24  25
ENDBRANCH  23  24
ENDBRANCH  22  23
ENDBRANCH  21  22
ENDBRANCH  20  21
ENDBRANCH  19  20
ENDBRANCH  18  19
ENDBRANCH   1  18
TORSDOF 28
ENDMDL
MODEL 2
REMARK VINA RESULT:    -5.197      3.591      6.827
REMARK INTER + INTRA:         -18.034
REMARK INTER:                 -13.678
REMARK INTRA:                  -4.356
REMARK UNBOUND:                -4.331
REMARK SMILES CCCCCCCCCCCCCCCCCCCCCCCCCCCCCC(=O)[O-]
REMARK SMILES IDX 16 1 17 2 18 3 19 4 20 5 21 6 22 7 23 8 24 9 25 10 26 11
REMARK SMILES IDX 27 12 28 13 29 14 30 15 31 16 32 17 15 18 14 19 13 20 12 21
REMARK SMILES IDX 11 22 10 23 9 24 8 25 7 26 6 27 5 28 4 29 3 30 2 31 1 32
REMARK H PARENT
REMARK Flexibility Score: inf
ROOT
ATOM      1  C   UNL     1      22.287 -11.995  20.836  1.00  0.00     0.000 C 
ENDROOT
BRANCH   1   2
ATOM      2  C   UNL     1      22.938 -12.993  19.857  1.00  0.00     0.000 C 
BRANCH   2   3
ATOM      3  C   UNL     1      22.847 -12.517  18.394  1.00  0.00     0.000 C 
BRANCH   3   4
ATOM      4  C   UNL     1      24.161 -12.695  17.610  1.00  0.00     0.000 C 
BRANCH   4   5
ATOM      5  C   UNL     1      23.995 -12.370  16.114  1.00  0.00     0.000 C 
BRANCH   5   6
ATOM      6  C   UNL     1      24.772 -11.112  15.695  1.00  0.00     0.000 C 
BRANCH   6   7
ATOM      7  C   UNL     1      26.036 -11.438  14.880  1.00  0.00     0.000 C 
BRANCH   7   8
ATOM      8  C   UNL     1      27.127 -10.365  15.031  1.00  0.00     0.000 C 
BRANCH   8   9
ATOM      9  C   UNL     1      28.522 -10.977  15.247  1.00  0.00     0.000 C 
BRANCH   9  10
ATOM     10  C   UNL     1      29.634  -9.917  15.301  1.00  0.00     0.000 C 
BRANCH  10  11
ATOM     11  C   UNL     1      30.802 -10.324  16.212  1.00  0.00     0.000 C 
BRANCH  11  12
ATOM     12  C   UNL     1      31.466  -9.088  16.836  1.00  0.00     0.000 C 
BRANCH  12  13
ATOM     13  C   UNL     1      32.974  -9.275  17.067  1.00  0.00     0.006 C 
BRANCH  13  14
ATOM     14  C   UNL     1      33.794  -9.139  15.777  1.00  0.00     0.053 C 
BRANCH  14  15
ATOM     15  C   UNL     1      35.224  -9.524  16.004  1.00  0.00     0.041 C 
ATOM     16  O   UNL     1      36.124  -9.093  15.235  1.00  0.00    -0.550 OA
ATOM     17  O   UNL     1      35.572 -10.318  17.090  1.00  0.00    -0.550 OA
ENDBRANCH  14  15
ENDBRANCH  13  14
ENDBRANCH  12  13
ENDBRANCH  11  12
ENDBRANCH  10  11
ENDBRANCH   9  10
ENDBRANCH   8   9
ENDBRANCH   7   8
ENDBRANCH   6   7
ENDBRANCH   5   6
ENDBRANCH   4   5
ENDBRANCH   3   4
ENDBRANCH   2   3
ENDBRANCH   1   2
BRANCH   1  18
ATOM     18  C   UNL     1      23.298 -10.966  21.383  1.00  0.00     0.000 C 
BRANCH  18  19
ATOM     19  C   UNL     1      23.688  -9.876  20.370  1.00  0.00     0.000 C 
BRANCH  19  20
ATOM     20  C   UNL     1      25.207  -9.655  20.279  1.00  0.00     0.000 C 
BRANCH  20  21
ATOM     21  C   UNL     1      25.706  -9.649  18.822  1.00  0.00     0.000 C 
BRANCH  21  22
ATOM     22  C   UNL     1      27.106 -10.270  18.654  1.00  0.00     0.000 C 
BRANCH  22  23
ATOM     23  C   UNL     1      28.203  -9.203  18.488  1.00  0.00     0.000 C 
BRANCH  23  24
ATOM     24  C   UNL     1      27.641  -7.853  17.994  1.00  0.00    -0.000 C 
BRANCH  24  25
ATOM     25  C   UNL     1      28.712  -6.769  17.791  1.00  0.00    -0.000 C 
BRANCH  25  26
ATOM     26  C   UNL     1      28.401  -5.824  16.619  1.00  0.00    -0.000 C 
BRANCH  26  27
ATOM     27  C   UNL     1      28.645  -6.494  15.249  1.00  0.00    -0.000 C 
BRANCH  27  28
ATOM     28  C   UNL     1      30.073  -6.287  14.707  1.00  0.00    -0.000 C 
BRANCH  28  29
ATOM     29  C   UNL     1      30.901  -5.235  15.464  1.00  0.00    -0.000 C 
BRANCH  29  30
ATOM     30  C   UNL     1      32.355  -5.674  15.690  1.00  0.00    -0.000 C 
BRANCH  30  31
ATOM     31  C   UNL     1      33.103  -5.795  14.358  1.00  0.00    -0.003 C 
ATOM     32  C   UNL     1      33.797  -4.485  13.995  1.00  0.00     0.004 C 
ENDBRANCH  30  31
ENDBRANCH  29  30
ENDBRANCH  28  29
ENDBRANCH  27  28
ENDBRANCH  26  27
ENDBRANCH  25  26
ENDBRANCH  24  25
ENDBRANCH  23  24
ENDBRANCH  22  23
ENDBRANCH  21  22
ENDBRANCH  20  21
ENDBRANCH  19  20
ENDBRANCH  18  19
ENDBRANCH   1  18
TORSDOF 28
ENDMDL
MODEL 3
REMARK VINA RESULT:    -5.086      1.931      3.001
REMARK INTER + INTRA:         -17.743
REMARK INTER:                 -14.436
REMARK INTRA:                  -3.307
REMARK UNBOUND:                -4.331
REMARK SMILES CCCCCCCCCCCCCCCCCCCCCCCCCCCCCC(=O)[O-]
REMARK SMILES IDX 16 1 17 2 18 3 19 4 20 5 21 6 22 7 23 8 24 9 25 10 26 11
REMARK SMILES IDX 27 12 28 13 29 14 30 15 31 16 32 17 15 18 14 19 13 20 12 21
REMARK SMILES IDX 11 22 10 23 9 24 8 25 7 26 6 27 5 28 4 29 3 30 2 31 1 32
REMARK H PARENT
REMARK Flexibility Score: inf
ROOT
ATOM      1  C   UNL     1      24.574  -9.654  20.456  1.00  0.00     0.000 C 
ENDROOT
BRANCH   1   2
ATOM      2  C   UNL     1      25.428  -9.660  19.173  1.00  0.00     0.000 C 
BRANCH   2   3
ATOM      3  C   UNL     1      26.939  -9.664  19.479  1.00  0.00     0.000 C 
BRANCH   3   4
ATOM      4  C   UNL     1      27.797  -9.109  18.327  1.00  0.00     0.000 C 
BRANCH   4   5
ATOM      5  C   UNL     1      27.888  -7.572  18.356  1.00  0.00     0.000 C 
BRANCH   5   6
ATOM      6  C   UNL     1      28.464  -6.990  17.055  1.00  0.00     0.000 C 
BRANCH   6   7
ATOM      7  C   UNL     1      27.561  -5.908  16.438  1.00  0.00     0.000 C 
BRANCH   7   8
ATOM      8  C   UNL     1      28.032  -5.475  15.040  1.00  0.00     0.000 C 
BRANCH   8   9
ATOM      9  C   UNL     1      27.535  -4.068  14.665  1.00  0.00     0.000 C 
BRANCH   9  10
ATOM     10  C   UNL     1      26.086  -3.811  15.109  1.00  0.00     0.000 C 
BRANCH  10  11
ATOM     11  C   UNL     1      25.226  -3.183  14.003  1.00  0.00     0.000 C 
BRANCH  11  12
ATOM     12  C   UNL     1      24.014  -2.452  14.601  1.00  0.00     0.000 C 
BRANCH  12  13
ATOM     13  C   UNL     1      22.674  -3.072  14.171  1.00  0.00     0.006 C 
BRANCH  13  14
ATOM     14  C   UNL     1      21.538  -2.773  15.160  1.00  0.00     0.053 C 
BRANCH  14  15
ATOM     15  C   UNL     1      21.189  -3.989  15.962  1.00  0.00     0.041 C 
ATOM     16  O   UNL     1      20.722  -5.010  15.391  1.00  0.00    -0.550 OA
ATOM     17  O   UNL     1      21.423  -4.015  17.333  1.00  0.00    -0.550 OA
ENDBRANCH  14  15
ENDBRANCH  13  14
ENDBRANCH  12  13
ENDBRANCH  11  12
ENDBRANCH  10  11
ENDBRANCH   9  10
ENDBRANCH   8   9
ENDBRANCH   7   8
ENDBRANCH   6   7
ENDBRANCH   5   6
ENDBRANCH   4   5
ENDBRANCH   3   4
ENDBRANCH   2   3
ENDBRANCH   1   2
BRANCH   1  18
ATOM     18  C   UNL     1      23.218 -10.364  20.261  1.00  0.00     0.000 C 
BRANCH  18  19
ATOM     19  C   UNL     1      22.859 -11.344  21.392  1.00  0.00     0.000 C 
BRANCH  19  20
ATOM     20  C   UNL     1      22.650 -12.784  20.895  1.00  0.00     0.000 C 
BRANCH  20  21
ATOM     21  C   UNL     1      22.782 -12.894  19.364  1.00  0.00     0.000 C 
BRANCH  21  22
ATOM     22  C   UNL     1      23.896 -13.859  18.916  1.00  0.00     0.000 C 
BRANCH  22  23
ATOM     23  C   UNL     1      24.529 -13.439  17.577  1.00  0.00     0.000 C 
BRANCH  23  24
ATOM     24  C   UNL     1      23.690 -12.378  16.836  1.00  0.00    -0.000 C 
BRANCH  24  25
ATOM     25  C   UNL     1      24.458 -11.635  15.731  1.00  0.00    -0.000 C 
BRANCH  25  26
ATOM     26  C   UNL     1      25.923 -11.349  16.101  1.00  0.00    -0.000 C 
BRANCH  26  27
ATOM     27  C   UNL     1      26.660 -10.557  15.000  1.00  0.00    -0.000 C 
BRANCH  27  28
ATOM     28  C   UNL     1      28.184 -10.791  14.987  1.00  0.00    -0.000 C 
BRANCH  28  29
ATOM     29  C   UNL     1      28.735 -11.497  16.236  1.00  0.00    -0.000 C 
BRANCH  29  30
ATOM     30  C   UNL     1      30.235 -11.242  16.449  1.00  0.00    -0.000 C 
BRANCH  30  31
ATOM     31  C   UNL     1      30.610  -9.814  16.040  1.00  0.00    -0.003 C 
ATOM     32  C   UNL     1      31.511  -9.159  17.083  1.00  0.00     0.004 C 
ENDBRANCH  30  31
ENDBRANCH  29  30
ENDBRANCH  28  29
ENDBRANCH  27  28
ENDBRANCH  26  27
ENDBRANCH  25  26
ENDBRANCH  24  25
ENDBRANCH  23  24
ENDBRANCH  22  23
ENDBRANCH  21  22
ENDBRANCH  20  21
ENDBRANCH  19  20
ENDBRANCH  18  19
ENDBRANCH   1  18
TORSDOF 28
ENDMDL
MODEL 4
REMARK VINA RESULT:    -5.068      3.358      9.232
REMARK INTER + INTRA:         -17.695
REMARK INTER:                 -15.047
REMARK INTRA:                  -2.648
REMARK UNBOUND:                -4.331
REMARK SMILES CCCCCCCCCCCCCCCCCCCCCCCCCCCCCC(=O)[O-]
REMARK SMILES IDX 16 1 17 2 18 3 19 4 20 5 21 6 22 7 23 8 24 9 25 10 26 11
REMARK SMILES IDX 27 12 28 13 29 14 30 15 31 16 32 17 15 18 14 19 13 20 12 21
REMARK SMILES IDX 11 22 10 23 9 24 8 25 7 26 6 27 5 28 4 29 3 30 2 31 1 32
REMARK H PARENT
REMARK Flexibility Score: inf
ROOT
ATOM      1  C   UNL     1      28.222  -7.949  17.817  1.00  0.00     0.000 C 
ENDROOT
BRANCH   1   2
ATOM      2  C   UNL     1      28.184  -9.261  18.625  1.00  0.00     0.000 C 
BRANCH   2   3
ATOM      3  C   UNL     1      27.158 -10.263  18.060  1.00  0.00     0.000 C 
BRANCH   3   4
ATOM      4  C   UNL     1      27.806 -11.473  17.361  1.00  0.00     0.000 C 
BRANCH   4   5
ATOM      5  C   UNL     1      28.209 -11.160  15.909  1.00  0.00     0.000 C 
BRANCH   5   6
ATOM      6  C   UNL     1      27.151 -10.326  15.170  1.00  0.00     0.000 C 
BRANCH   6   7
ATOM      7  C   UNL     1      25.970 -11.175  14.667  1.00  0.00     0.000 C 
BRANCH   7   8
ATOM      8  C   UNL     1      24.698 -10.973  15.507  1.00  0.00     0.000 C 
BRANCH   8   9
ATOM      9  C   UNL     1      24.076 -12.306  15.956  1.00  0.00     0.000 C 
BRANCH   9  10
ATOM     10  C   UNL     1      24.311 -12.600  17.446  1.00  0.00     0.000 C 
BRANCH  10  11
ATOM     11  C   UNL     1      23.004 -12.757  18.236  1.00  0.00     0.000 C 
BRANCH  11  12
ATOM     12  C   UNL     1      23.266 -13.401  19.606  1.00  0.00     0.000 C 
BRANCH  12  13
ATOM     13  C   UNL     1      22.550 -12.671  20.754  1.00  0.00     0.006 C 
BRANCH  13  14
ATOM     14  C   UNL     1      22.430 -11.160  20.513  1.00  0.00     0.053 C 
BRANCH  14  15
ATOM     15  C   UNL     1      23.522 -10.414  21.218  1.00  0.00     0.041 C 
ATOM     16  O   UNL     1      24.419  -9.831  20.553  1.00  0.00    -0.550 OA
ATOM     17  O   UNL     1      23.524 -10.319  22.605  1.00  0.00    -0.550 OA
ENDBRANCH  14  15
ENDBRANCH  13  14
ENDBRANCH  12  13
ENDBRANCH  11  12
ENDBRANCH  10  11
ENDBRANCH   9  10
ENDBRANCH   8   9
ENDBRANCH   7   8
ENDBRANCH   6   7
ENDBRANCH   5   6
ENDBRANCH   4   5
ENDBRANCH   3   4
ENDBRANCH   2   3
ENDBRANCH   1   2
BRANCH   1  18
ATOM     18  C   UNL     1      29.653  -7.392  17.670  1.00  0.00     0.000 C 
BRANCH  18  19
ATOM     19  C   UNL     1      29.912  -6.682  16.329  1.00  0.00     0.000 C 
BRANCH  19  20
ATOM     20  C   UNL     1      28.755  -6.849  15.329  1.00  0.00     0.000 C 
BRANCH  20  21
ATOM     21  C   UNL     1      28.065  -5.509  15.013  1.00  0.00     0.000 C 
BRANCH  21  22
ATOM     22  C   UNL     1      27.586  -4.759  16.271  1.00  0.00     0.000 C 
BRANCH  22  23
ATOM     23  C   UNL     1      26.328  -3.912  16.003  1.00  0.00     0.000 C 
BRANCH  23  24
ATOM     24  C   UNL     1      26.126  -3.617  14.503  1.00  0.00    -0.000 C 
BRANCH  24  25
ATOM     25  C   UNL     1      25.300  -2.351  14.222  1.00  0.00    -0.000 C 
BRANCH  25  26
ATOM     26  C   UNL     1      24.447  -2.456  12.947  1.00  0.00    -0.000 C 
BRANCH  26  27
ATOM     27  C   UNL     1      22.939  -2.556  13.259  1.00  0.00    -0.000 C 
BRANCH  27  28
ATOM     28  C   UNL     1      22.633  -3.219  14.617  1.00  0.00    -0.000 C 
BRANCH  28  29
ATOM     29  C   UNL     1      21.166  -3.114  15.067  1.00  0.00    -0.000 C 
BRANCH  29  30
ATOM     30  C   UNL     1      20.943  -3.642  16.492  1.00  0.00    -0.000 C 
BRANCH  30  31
ATOM     31  C   UNL     1      19.742  -2.952  17.149  1.00  0.00    -0.003 C 
ATOM     32  C   UNL     1      19.325  -1.710  16.368  1.00  0.00     0.004 C 
ENDBRANCH  30  31
ENDBRANCH  29  30
ENDBRANCH  28  29
ENDBRANCH  27  28
ENDBRANCH  26  27
ENDBRANCH  25  26
ENDBRANCH  24  25
ENDBRANCH  23  24
ENDBRANCH  22  23
ENDBRANCH  21  22
ENDBRANCH  20  21
ENDBRANCH  19  20
ENDBRANCH  18  19
ENDBRANCH   1  18
TORSDOF 28
ENDMDL
MODEL 5
REMARK VINA RESULT:    -5.059      2.376      6.151
REMARK INTER + INTRA:         -17.670
REMARK INTER:                 -13.554
REMARK INTRA:                  -4.116
REMARK UNBOUND:                -4.331
REMARK SMILES CCCCCCCCCCCCCCCCCCCCCCCCCCCCCC(=O)[O-]
REMARK SMILES IDX 16 1 17 2 18 3 19 4 20 5 21 6 22 7 23 8 24 9 25 10 26 11
REMARK SMILES IDX 27 12 28 13 29 14 30 15 31 16 32 17 15 18 14 19 13 20 12 21
REMARK SMILES IDX 11 22 10 23 9 24 8 25 7 26 6 27 5 28 4 29 3 30 2 31 1 32
REMARK H PARENT
REMARK Flexibility Score: inf
ROOT
ATOM      1  C   UNL     1      33.439  -9.047  17.465  1.00  0.00     0.000 C 
ENDROOT
BRANCH   1   2
ATOM      2  C   UNL     1      34.062  -9.227  16.067  1.00  0.00     0.000 C 
BRANCH   2   3
ATOM      3  C   UNL     1      34.984  -8.053  15.685  1.00  0.00     0.000 C 
BRANCH   3   4
ATOM      4  C   UNL     1      34.730  -7.512  14.265  1.00  0.00     0.000 C 
BRANCH   4   5
ATOM      5  C   UNL     1      34.073  -6.120  14.282  1.00  0.00     0.000 C 
BRANCH   5   6
ATOM      6  C   UNL     1      33.688  -5.666  15.698  1.00  0.00     0.000 C 
BRANCH   6   7
ATOM      7  C   UNL     1      32.165  -5.585  15.902  1.00  0.00     0.000 C 
BRANCH   7   8
ATOM      8  C   UNL     1      31.402  -6.628  15.069  1.00  0.00     0.000 C 
BRANCH   8   9
ATOM      9  C   UNL     1      29.924  -6.250  14.870  1.00  0.00     0.000 C 
BRANCH   9  10
ATOM     10  C   UNL     1      28.963  -7.382  15.267  1.00  0.00     0.000 C 
BRANCH  10  11
ATOM     11  C   UNL     1      28.249  -7.117  16.601  1.00  0.00     0.000 C 
BRANCH  11  12
ATOM     12  C   UNL     1      29.227  -7.237  17.779  1.00  0.00     0.000 C 
BRANCH  12  13
ATOM     13  C   UNL     1      29.406  -5.915  18.542  1.00  0.00     0.006 C 
BRANCH  13  14
ATOM     14  C   UNL     1      28.317  -4.885  18.208  1.00  0.00     0.053 C 
BRANCH  14  15
ATOM     15  C   UNL     1      28.866  -3.773  17.369  1.00  0.00     0.041 C 
ATOM     16  O   UNL     1      29.932  -3.193  17.707  1.00  0.00    -0.550 OA
ATOM     17  O   UNL     1      28.229  -3.406  16.188  1.00  0.00    -0.550 OA
ENDBRANCH  14  15
ENDBRANCH  13  14
ENDBRANCH  12  13
ENDBRANCH  11  12
ENDBRANCH  10  11
ENDBRANCH   9  10
ENDBRANCH   8   9
ENDBRANCH   7   8
ENDBRANCH   6   7
ENDBRANCH   5   6
ENDBRANCH   4   5
ENDBRANCH   3   4
ENDBRANCH   2   3
ENDBRANCH   1   2
BRANCH   1  18
ATOM     18  C   UNL     1      31.958  -9.481  17.507  1.00  0.00     0.000 C 
BRANCH  18  19
ATOM     19  C   UNL     1      31.434 -10.040  16.173  1.00  0.00     0.000 C 
BRANCH  19  20
ATOM     20  C   UNL     1      30.053 -10.703  16.301  1.00  0.00     0.000 C 
BRANCH  20  21
ATOM     21  C   UNL     1      29.385 -10.921  14.930  1.00  0.00     0.000 C 
BRANCH  21  22
ATOM     22  C   UNL     1      27.853 -11.056  15.012  1.00  0.00     0.000 C 
BRANCH  22  23
ATOM     23  C   UNL     1      27.343 -11.061  16.465  1.00  0.00     0.000 C 
BRANCH  23  24
ATOM     24  C   UNL     1      25.842 -10.723  16.563  1.00  0.00    -0.000 C 
BRANCH  24  25
ATOM     25  C   UNL     1      24.985 -11.365  15.459  1.00  0.00    -0.000 C 
BRANCH  25  26
ATOM     26  C   UNL     1      23.771 -12.133  16.006  1.00  0.00    -0.000 C 
BRANCH  26  27
ATOM     27  C   UNL     1      24.179 -13.241  17.001  1.00  0.00    -0.000 C 
BRANCH  27  28
ATOM     28  C   UNL     1      24.081 -12.810  18.478  1.00  0.00    -0.000 C 
BRANCH  28  29
ATOM     29  C   UNL     1      22.688 -12.981  19.106  1.00  0.00    -0.000 C 
BRANCH  29  30
ATOM     30  C   UNL     1      22.191 -11.707  19.804  1.00  0.00    -0.000 C 
BRANCH  30  31
ATOM     31  C   UNL     1      23.296 -11.091  20.669  1.00  0.00    -0.003 C 
ATOM     32  C   UNL     1      22.861 -10.988  22.128  1.00  0.00     0.004 C 
ENDBRANCH  30  31
ENDBRANCH  29  30
ENDBRANCH  28  29
ENDBRANCH  27  28
ENDBRANCH  26  27
ENDBRANCH  25  26
ENDBRANCH  24  25
ENDBRANCH  23  24
ENDBRANCH  22  23
ENDBRANCH  21  22
ENDBRANCH  20  21
ENDBRANCH  19  20
ENDBRANCH  18  19
ENDBRANCH   1  18
TORSDOF 28
ENDMDL
MODEL 6
REMARK VINA RESULT:    -5.056      3.122      9.224
REMARK INTER + INTRA:         -17.664
REMARK INTER:                 -13.935
REMARK INTRA:                  -3.730
REMARK UNBOUND:                -4.331
REMARK SMILES CCCCCCCCCCCCCCCCCCCCCCCCCCCCCC(=O)[O-]
REMARK SMILES IDX 16 1 17 2 18 3 19 4 20 5 21 6 22 7 23 8 24 9 25 10 26 11
REMARK SMILES IDX 27 12 28 13 29 14 30 15 31 16 32 17 15 18 14 19 13 20 12 21
REMARK SMILES IDX 11 22 10 23 9 24 8 25 7 26 6 27 5 28 4 29 3 30 2 31 1 32
REMARK H PARENT
REMARK Flexibility Score: inf
ROOT
ATOM      1  C   UNL     1      31.357  -8.878  17.719  1.00  0.00     0.000 C 
ENDROOT
BRANCH   1   2
ATOM      2  C   UNL     1      30.350  -7.740  17.462  1.00  0.00     0.000 C 
BRANCH   2   3
ATOM      3  C   UNL     1      28.994  -8.267  16.955  1.00  0.00     0.000 C 
BRANCH   3   4
ATOM      4  C   UNL     1      27.859  -8.129  17.988  1.00  0.00     0.000 C 
BRANCH   4   5
ATOM      5  C   UNL     1      27.444  -9.487  18.582  1.00  0.00     0.000 C 
BRANCH   5   6
ATOM      6  C   UNL     1      27.813 -10.668  17.671  1.00  0.00     0.000 C 
BRANCH   6   7
ATOM      7  C   UNL     1      26.592 -11.516  17.274  1.00  0.00     0.000 C 
BRANCH   7   8
ATOM      8  C   UNL     1      25.658 -10.784  16.296  1.00  0.00     0.000 C 
BRANCH   8   9
ATOM      9  C   UNL     1      24.849 -11.757  15.422  1.00  0.00     0.000 C 
BRANCH   9  10
ATOM     10  C   UNL     1      24.170 -12.867  16.239  1.00  0.00     0.000 C 
BRANCH  10  11
ATOM     11  C   UNL     1      22.995 -12.352  17.083  1.00  0.00     0.000 C 
BRANCH  11  12
ATOM     12  C   UNL     1      23.192 -12.701  18.566  1.00  0.00     0.000 C 
BRANCH  12  13
ATOM     13  C   UNL     1      22.291 -11.873  19.497  1.00  0.00     0.006 C 
BRANCH  13  14
ATOM     14  C   UNL     1      22.728 -11.950  20.967  1.00  0.00     0.053 C 
BRANCH  14  15
ATOM     15  C   UNL     1      23.362 -10.667  21.409  1.00  0.00     0.041 C 
ATOM     16  O   UNL     1      23.946  -9.930  20.570  1.00  0.00    -0.550 OA
ATOM     17  O   UNL     1      23.268 -10.258  22.734  1.00  0.00    -0.550 OA
ENDBRANCH  14  15
ENDBRANCH  13  14
ENDBRANCH  12  13
ENDBRANCH  11  12
ENDBRANCH  10  11
ENDBRANCH   9  10
ENDBRANCH   8   9
ENDBRANCH   7   8
ENDBRANCH   6   7
ENDBRANCH   5   6
ENDBRANCH   4   5
ENDBRANCH   3   4
ENDBRANCH   2   3
ENDBRANCH   1   2
BRANCH   1  18
ATOM     18  C   UNL     1      31.632  -9.717  16.453  1.00  0.00     0.000 C 
BRANCH  18  19
ATOM     19  C   UNL     1      32.968  -9.387  15.765  1.00  0.00     0.000 C 
BRANCH  19  20
ATOM     20  C   UNL     1      34.164  -9.414  16.731  1.00  0.00     0.000 C 
BRANCH  20  21
ATOM     21  C   UNL     1      35.240  -8.379  16.350  1.00  0.00     0.000 C 
BRANCH  21  22
ATOM     22  C   UNL     1      34.711  -7.260  15.434  1.00  0.00     0.000 C 
BRANCH  22  23
ATOM     23  C   UNL     1      34.202  -6.044  16.229  1.00  0.00     0.000 C 
BRANCH  23  24
ATOM     24  C   UNL     1      32.851  -5.519  15.703  1.00  0.00    -0.000 C 
BRANCH  24  25
ATOM     25  C   UNL     1      32.361  -6.228  14.429  1.00  0.00    -0.000 C 
BRANCH  25  26
ATOM     26  C   UNL     1      30.842  -6.114  14.220  1.00  0.00    -0.000 C 
BRANCH  26  27
ATOM     27  C   UNL     1      30.315  -4.696  14.526  1.00  0.00    -0.000 C 
BRANCH  27  28
ATOM     28  C   UNL     1      29.229  -4.665  15.621  1.00  0.00    -0.000 C 
BRANCH  28  29
ATOM     29  C   UNL     1      27.832  -5.102  15.152  1.00  0.00    -0.000 C 
BRANCH  29  30
ATOM     30  C   UNL     1      26.702  -4.336  15.858  1.00  0.00    -0.000 C 
BRANCH  30  31
ATOM     31  C   UNL     1      25.768  -3.676  14.837  1.00  0.00    -0.003 C 
ATOM     32  C   UNL     1      26.237  -3.940  13.410  1.00  0.00     0.004 C 
ENDBRANCH  30  31
ENDBRANCH  29  30
ENDBRANCH  28  29
ENDBRANCH  27  28
ENDBRANCH  26  27
ENDBRANCH  25  26
ENDBRANCH  24  25
ENDBRANCH  23  24
ENDBRANCH  22  23
ENDBRANCH  21  22
ENDBRANCH  20  21
ENDBRANCH  19  20
ENDBRANCH  18  19
ENDBRANCH   1  18
TORSDOF 28
ENDMDL
MODEL 7
REMARK VINA RESULT:    -4.983      2.693      6.470
REMARK INTER + INTRA:         -17.472
REMARK INTER:                 -13.108
REMARK INTRA:                  -4.364
REMARK UNBOUND:                -4.331
REMARK SMILES CCCCCCCCCCCCCCCCCCCCCCCCCCCCCC(=O)[O-]
REMARK SMILES IDX 16 1 17 2 18 3 19 4 20 5 21 6 22 7 23 8 24 9 25 10 26 11
REMARK SMILES IDX 27 12 28 13 29 14 30 15 31 16 32 17 15 18 14 19 13 20 12 21
REMARK SMILES IDX 11 22 10 23 9 24 8 25 7 26 6 27 5 28 4 29 3 30 2 31 1 32
REMARK H PARENT
REMARK Flexibility Score: inf
ROOT
ATOM      1  C   UNL     1      22.997 -12.578  19.885  1.00  0.00     0.000 C 
ENDROOT
BRANCH   1   2
ATOM      2  C   UNL     1      22.756 -12.617  18.363  1.00  0.00     0.000 C 
BRANCH   2   3
ATOM      3  C   UNL     1      24.057 -12.855  17.573  1.00  0.00     0.000 C 
BRANCH   3   4
ATOM      4  C   UNL     1      23.930 -12.527  16.073  1.00  0.00     0.000 C 
BRANCH   4   5
ATOM      5  C   UNL     1      24.537 -11.156  15.724  1.00  0.00     0.000 C 
BRANCH   5   6
ATOM      6  C   UNL     1      25.779 -11.272  14.825  1.00  0.00     0.000 C 
BRANCH   6   7
ATOM      7  C   UNL     1      26.964 -10.436  15.338  1.00  0.00     0.000 C 
BRANCH   7   8
ATOM      8  C   UNL     1      28.323 -11.011  14.905  1.00  0.00     0.000 C 
BRANCH   8   9
ATOM      9  C   UNL     1      29.305 -11.140  16.081  1.00  0.00     0.000 C 
BRANCH   9  10
ATOM     10  C   UNL     1      30.674 -10.507  15.785  1.00  0.00     0.000 C 
BRANCH  10  11
ATOM     11  C   UNL     1      31.498 -10.246  17.054  1.00  0.00     0.000 C 
BRANCH  11  12
ATOM     12  C   UNL     1      32.417  -9.029  16.870  1.00  0.00     0.000 C 
BRANCH  12  13
ATOM     13  C   UNL     1      33.425  -9.212  15.724  1.00  0.00     0.006 C 
BRANCH  13  14
ATOM     14  C   UNL     1      34.577  -8.199  15.780  1.00  0.00     0.053 C 
BRANCH  14  15
ATOM     15  C   UNL     1      34.117  -6.836  15.364  1.00  0.00     0.041 C 
ATOM     16  O   UNL     1      33.889  -6.589  14.150  1.00  0.00    -0.550 OA
ATOM     17  O   UNL     1      33.893  -5.850  16.319  1.00  0.00    -0.550 OA
ENDBRANCH  14  15
ENDBRANCH  13  14
ENDBRANCH  12  13
ENDBRANCH  11  12
ENDBRANCH  10  11
ENDBRANCH   9  10
ENDBRANCH   8   9
ENDBRANCH   7   8
ENDBRANCH   6   7
ENDBRANCH   5   6
ENDBRANCH   4   5
ENDBRANCH   3   4
ENDBRANCH   2   3
ENDBRANCH   1   2
BRANCH   1  18
ATOM     18  C   UNL     1      22.747 -11.177  20.483  1.00  0.00     0.000 C 
BRANCH  18  19
ATOM     19  C   UNL     1      24.029 -10.356  20.704  1.00  0.00     0.000 C 
BRANCH  19  20
ATOM     20  C   UNL     1      24.429  -9.523  19.474  1.00  0.00     0.000 C 
BRANCH  20  21
ATOM     21  C   UNL     1      25.727 -10.037  18.824  1.00  0.00     0.000 C 
BRANCH  21  22
ATOM     22  C   UNL     1      27.002  -9.452  19.462  1.00  0.00     0.000 C 
BRANCH  22  23
ATOM     23  C   UNL     1      28.081  -9.122  18.416  1.00  0.00     0.000 C 
BRANCH  23  24
ATOM     24  C   UNL     1      28.003  -7.659  17.930  1.00  0.00    -0.000 C 
BRANCH  24  25
ATOM     25  C   UNL     1      29.244  -7.193  17.152  1.00  0.00    -0.000 C 
BRANCH  25  26
ATOM     26  C   UNL     1      29.077  -7.300  15.627  1.00  0.00    -0.000 C 
BRANCH  26  27
ATOM     27  C   UNL     1      30.339  -6.838  14.867  1.00  0.00    -0.000 C 
BRANCH  27  28
ATOM     28  C   UNL     1      30.195  -5.444  14.223  1.00  0.00    -0.000 C 
BRANCH  28  29
ATOM     29  C   UNL     1      28.970  -4.643  14.694  1.00  0.00    -0.000 C 
BRANCH  29  30
ATOM     30  C   UNL     1      29.344  -3.473  15.616  1.00  0.00    -0.000 C 
BRANCH  30  31
ATOM     31  C   UNL     1      28.521  -3.510  16.908  1.00  0.00    -0.003 C 
ATOM     32  C   UNL     1      29.423  -3.620  18.133  1.00  0.00     0.004 C 
ENDBRANCH  30  31
ENDBRANCH  29  30
ENDBRANCH  28  29
ENDBRANCH  27  28
ENDBRANCH  26  27
ENDBRANCH  25  26
ENDBRANCH  24  25
ENDBRANCH  23  24
ENDBRANCH  22  23
ENDBRANCH  21  22
ENDBRANCH  20  21
ENDBRANCH  19  20
ENDBRANCH  18  19
ENDBRANCH   1  18
TORSDOF 28
ENDMDL
MODEL 8
REMARK VINA RESULT:    -4.932      2.957      9.253
REMARK INTER + INTRA:         -17.337
REMARK INTER:                 -13.860
REMARK INTRA:                  -3.477
REMARK UNBOUND:                -4.331
REMARK SMILES CCCCCCCCCCCCCCCCCCCCCCCCCCCCCC(=O)[O-]
REMARK SMILES IDX 16 1 17 2 18 3 19 4 20 5 21 6 22 7 23 8 24 9 25 10 26 11
REMARK SMILES IDX 27 12 28 13 29 14 30 15 31 16 32 17 15 18 14 19 13 20 12 21
REMARK SMILES IDX 11 22 10 23 9 24 8 25 7 26 6 27 5 28 4 29 3 30 2 31 1 32
REMARK H PARENT
REMARK Flexibility Score: inf
ROOT
ATOM      1  C   UNL     1      31.413  -8.722  17.134  1.00  0.00     0.000 C 
ENDROOT
BRANCH   1   2
ATOM      2  C   UNL     1      31.586  -9.869  16.120  1.00  0.00     0.000 C 
BRANCH   2   3
ATOM      3  C   UNL     1      30.456 -10.911  16.221  1.00  0.00     0.000 C 
BRANCH   3   4
ATOM      4  C   UNL     1      29.696 -11.119  14.897  1.00  0.00     0.000 C 
BRANCH   4   5
ATOM      5  C   UNL     1      28.231 -10.655  14.987  1.00  0.00     0.000 C 
BRANCH   5   6
ATOM      6  C   UNL     1      27.513 -11.205  16.230  1.00  0.00     0.000 C 
BRANCH   6   7
ATOM      7  C   UNL     1      26.679 -10.135  16.956  1.00  0.00     0.000 C 
BRANCH   7   8
ATOM      8  C   UNL     1      25.276 -10.637  17.334  1.00  0.00     0.000 C 
BRANCH   8   9
ATOM      9  C   UNL     1      24.685 -11.579  16.271  1.00  0.00     0.000 C 
BRANCH   9  10
ATOM     10  C   UNL     1      23.682 -12.583  16.859  1.00  0.00     0.000 C 
BRANCH  10  11
ATOM     11  C   UNL     1      24.285 -13.442  17.980  1.00  0.00     0.000 C 
BRANCH  11  12
ATOM     12  C   UNL     1      23.308 -13.568  19.159  1.00  0.00     0.000 C 
BRANCH  12  13
ATOM     13  C   UNL     1      22.641 -12.232  19.524  1.00  0.00     0.006 C 
BRANCH  13  14
ATOM     14  C   UNL     1      22.580 -11.993  21.039  1.00  0.00     0.053 C 
BRANCH  14  15
ATOM     15  C   UNL     1      23.286 -10.726  21.413  1.00  0.00     0.041 C 
ATOM     16  O   UNL     1      23.343 -10.367  22.620  1.00  0.00    -0.550 OA
ATOM     17  O   UNL     1      23.924  -9.965  20.440  1.00  0.00    -0.550 OA
ENDBRANCH  14  15
ENDBRANCH  13  14
ENDBRANCH  12  13
ENDBRANCH  11  12
ENDBRANCH  10  11
ENDBRANCH   9  10
ENDBRANCH   8   9
ENDBRANCH   7   8
ENDBRANCH   6   7
ENDBRANCH   5   6
ENDBRANCH   4   5
ENDBRANCH   3   4
ENDBRANCH   2   3
ENDBRANCH   1   2
BRANCH   1  18
ATOM     18  C   UNL     1      29.972  -8.632  17.678  1.00  0.00     0.000 C 
BRANCH  18  19
ATOM     19  C   UNL     1      29.272  -7.296  17.373  1.00  0.00     0.000 C 
BRANCH  19  20
ATOM     20  C   UNL     1      28.729  -7.217  15.936  1.00  0.00     0.000 C 
BRANCH  20  21
ATOM     21  C   UNL     1      29.711  -6.510  14.984  1.00  0.00     0.000 C 
BRANCH  21  22
ATOM     22  C   UNL     1      29.383  -5.021  14.765  1.00  0.00     0.000 C 
BRANCH  22  23
ATOM     23  C   UNL     1      30.575  -4.238  14.186  1.00  0.00     0.000 C 
BRANCH  23  24
ATOM     24  C   UNL     1      30.195  -2.797  13.788  1.00  0.00    -0.000 C 
BRANCH  24  25
ATOM     25  C   UNL     1      30.403  -2.486  12.296  1.00  0.00    -0.000 C 
BRANCH  25  26
ATOM     26  C   UNL     1      29.108  -2.070  11.580  1.00  0.00    -0.000 C 
BRANCH  26  27
ATOM     27  C   UNL     1      27.993  -1.672  12.572  1.00  0.00    -0.000 C 
BRANCH  27  28
ATOM     28  C   UNL     1      26.572  -1.826  11.996  1.00  0.00    -0.000 C 
BRANCH  28  29
ATOM     29  C   UNL     1      26.019  -3.261  12.027  1.00  0.00    -0.000 C 
BRANCH  29  30
ATOM     30  C   UNL     1      26.337  -3.991  13.340  1.00  0.00    -0.000 C 
BRANCH  30  31
ATOM     31  C   UNL     1      25.516  -3.415  14.499  1.00  0.00    -0.003 C 
ATOM     32  C   UNL     1      26.077  -3.860  15.846  1.00  0.00     0.004 C 
ENDBRANCH  30  31
ENDBRANCH  29  30
ENDBRANCH  28  29
ENDBRANCH  27  28
ENDBRANCH  26  27
ENDBRANCH  25  26
ENDBRANCH  24  25
ENDBRANCH  23  24
ENDBRANCH  22  23
ENDBRANCH  21  22
ENDBRANCH  20  21
ENDBRANCH  19  20
ENDBRANCH  18  19
ENDBRANCH   1  18
TORSDOF 28
ENDMDL
MODEL 9
REMARK VINA RESULT:    -4.847      3.468      9.890
REMARK INTER + INTRA:         -17.113
REMARK INTER:                 -13.453
REMARK INTRA:                  -3.660
REMARK UNBOUND:                -4.331
REMARK SMILES CCCCCCCCCCCCCCCCCCCCCCCCCCCCCC(=O)[O-]
REMARK SMILES IDX 16 1 17 2 18 3 19 4 20 5 21 6 22 7 23 8 24 9 25 10 26 11
REMARK SMILES IDX 27 12 28 13 29 14 30 15 31 16 32 17 15 18 14 19 13 20 12 21
REMARK SMILES IDX 11 22 10 23 9 24 8 25 7 26 6 27 5 28 4 29 3 30 2 31 1 32
REMARK H PARENT
REMARK Flexibility Score: inf
ROOT
ATOM      1  C   UNL     1      32.505  -9.283  17.239  1.00  0.00     0.000 C 
ENDROOT
BRANCH   1   2
ATOM      2  C   UNL     1      30.995  -9.588  17.245  1.00  0.00     0.000 C 
BRANCH   2   3
ATOM      3  C   UNL     1      30.422  -9.726  15.822  1.00  0.00     0.000 C 
BRANCH   3   4
ATOM      4  C   UNL     1      29.082  -8.991  15.627  1.00  0.00     0.000 C 
BRANCH   4   5
ATOM      5  C   UNL     1      27.882  -9.836  16.092  1.00  0.00     0.000 C 
BRANCH   5   6
ATOM      6  C   UNL     1      27.376 -10.792  15.000  1.00  0.00     0.000 C 
BRANCH   6   7
ATOM      7  C   UNL     1      25.889 -11.149  15.166  1.00  0.00     0.000 C 
BRANCH   7   8
ATOM      8  C   UNL     1      25.339 -10.758  16.548  1.00  0.00     0.000 C 
BRANCH   8   9
ATOM      9  C   UNL     1      25.274 -11.955  17.512  1.00  0.00     0.000 C 
BRANCH   9  10
ATOM     10  C   UNL     1      24.100 -12.900  17.208  1.00  0.00     0.000 C 
BRANCH  10  11
ATOM     11  C   UNL     1      22.889 -12.658  18.120  1.00  0.00     0.000 C 
BRANCH  11  12
ATOM     12  C   UNL     1      22.994 -13.496  19.404  1.00  0.00     0.000 C 
BRANCH  12  13
ATOM     13  C   UNL     1      22.684 -12.684  20.672  1.00  0.00     0.006 C 
BRANCH  13  14
ATOM     14  C   UNL     1      22.600 -11.175  20.404  1.00  0.00     0.053 C 
BRANCH  14  15
ATOM     15  C   UNL     1      23.434 -10.407  21.384  1.00  0.00     0.041 C 
ATOM     16  O   UNL     1      23.167 -10.454  22.614  1.00  0.00    -0.550 OA
ATOM     17  O   UNL     1      24.535  -9.678  20.947  1.00  0.00    -0.550 OA
ENDBRANCH  14  15
ENDBRANCH  13  14
ENDBRANCH  12  13
ENDBRANCH  11  12
ENDBRANCH  10  11
ENDBRANCH   9  10
ENDBRANCH   8   9
ENDBRANCH   7   8
ENDBRANCH   6   7
ENDBRANCH   5   6
ENDBRANCH   4   5
ENDBRANCH   3   4
ENDBRANCH   2   3
ENDBRANCH   1   2
BRANCH   1  18
ATOM     18  C   UNL     1      33.094  -9.263  15.813  1.00  0.00     0.000 C 
BRANCH  18  19
ATOM     19  C   UNL     1      34.632  -9.265  15.773  1.00  0.00     0.000 C 
BRANCH  19  20
ATOM     20  C   UNL     1      35.218  -8.004  15.116  1.00  0.00     0.000 C 
BRANCH  20  21
ATOM     21  C   UNL     1      35.131  -6.775  16.041  1.00  0.00     0.000 C 
BRANCH  21  22
ATOM     22  C   UNL     1      35.617  -5.474  15.374  1.00  0.00     0.000 C 
BRANCH  22  23
ATOM     23  C   UNL     1      34.868  -4.235  15.897  1.00  0.00     0.000 C 
BRANCH  23  24
ATOM     24  C   UNL     1      33.861  -3.679  14.869  1.00  0.00    -0.000 C 
BRANCH  24  25
ATOM     25  C   UNL     1      33.988  -4.306  13.470  1.00  0.00    -0.000 C 
BRANCH  25  26
ATOM     26  C   UNL     1      32.695  -4.984  12.991  1.00  0.00    -0.000 C 
BRANCH  26  27
ATOM     27  C   UNL     1      32.273  -6.151  13.910  1.00  0.00    -0.000 C 
BRANCH  27  28
ATOM     28  C   UNL     1      30.765  -6.167  14.234  1.00  0.00    -0.000 C 
BRANCH  28  29
ATOM     29  C   UNL     1      30.220  -4.850  14.812  1.00  0.00    -0.000 C 
BRANCH  29  30
ATOM     30  C   UNL     1      30.524  -4.688  16.309  1.00  0.00    -0.000 C 
BRANCH  30  31
ATOM     31  C   UNL     1      30.378  -6.025  17.044  1.00  0.00    -0.003 C 
ATOM     32  C   UNL     1      29.406  -5.907  18.214  1.00  0.00     0.004 C 
ENDBRANCH  30  31
ENDBRANCH  29  30
ENDBRANCH  28  29
ENDBRANCH  27  28
ENDBRANCH  26  27
ENDBRANCH  25  26
ENDBRANCH  24  25
ENDBRANCH  23  24
ENDBRANCH  22  23
ENDBRANCH  21  22
ENDBRANCH  20  21
ENDBRANCH  19  20
ENDBRANCH  18  19
ENDBRANCH   1  18
TORSDOF 28
ENDMDL
