MODEL 1
REMARK VINA RESULT:    -8.840      0.000      0.000
REMARK INTER + INTRA:          -9.039
REMARK INTER:                  -9.615
REMARK INTRA:                   0.576
REMARK UNBOUND:                 0.576
REMARK SMILES C[C@@H]1[C@H](C)CC[C@@]2(C(=O)[O-])CC[C@@]3(C)C(=CC[C@@H]4[C@@]5(C)CC[C@H](O)C(C)(C)[C@H]5CC[C@@]43C)[C@H]12
REMARK SMILES IDX 7 1 6 2 11 3 33 4 5 5 12 6 15 7 2 8 3 9 13 10 16 11 1 12
REMARK SMILES IDX 4 13 14 14 31 15 17 16 18 17 30 18 32 19 19 20 29 21 28 22
REMARK SMILES IDX 21 23 20 24 25 25 22 26 23 27 26 28 27 29 8 30 9 31 10 32
REMARK SMILES IDX 24 33
REMARK H PARENT 24 34
REMARK Flexibility Score: inf
ROOT
ATOM      1  C   UNL     1     172.451 144.620 158.000  1.00  0.00     0.017 C 
ATOM      2  C   UNL     1     172.804 145.061 159.468  1.00  0.00     0.014 C 
ATOM      3  C   UNL     1     170.937 144.331 157.867  1.00  0.00     0.014 C 
ATOM      4  C   UNL     1     172.785 145.778 157.001  1.00  0.00     0.030 C 
ATOM      5  C   UNL     1     172.964 146.581 159.658  1.00  0.00     0.004 C 
ATOM      6  C   UNL     1     170.518 143.985 156.411  1.00  0.00     0.013 C 
ATOM      7  C   UNL     1     172.394 145.405 155.565  1.00  0.00    -0.063 C 
ATOM      8  C   UNL     1     174.155 146.456 157.323  1.00  0.00    -0.003 C 
ATOM      9  C   UNL     1     174.005 147.226 158.688  1.00  0.00    -0.011 C 
ATOM     10  C   UNL     1     170.916 145.041 155.304  1.00  0.00    -0.006 C 
ATOM     11  C   UNL     1     173.335 145.272 154.628  1.00  0.00    -0.027 C 
ATOM     12  C   UNL     1     175.366 145.487 157.314  1.00  0.00     0.008 C 
ATOM     13  C   UNL     1     175.335 147.517 159.404  1.00  0.00     0.008 C 
ATOM     14  C   UNL     1     170.060 146.328 155.543  1.00  0.00     0.017 C 
ATOM     15  C   UNL     1     170.632 144.480 153.797  1.00  0.00    -0.020 C 
ATOM     16  C   UNL     1     173.164 144.478 153.388  1.00  0.00     0.032 C 
ATOM     17  C   UNL     1     171.856 143.620 153.278  1.00  0.00     0.006 C 
ATOM     18  C   UNL     1     170.447 145.621 152.751  1.00  0.00     0.008 C 
ATOM     19  C   UNL     1     169.288 143.676 153.851  1.00  0.00     0.012 C 
ATOM     20  C   UNL     1     171.756 143.022 151.783  1.00  0.00    -0.025 C 
ATOM     21  C   UNL     1     170.273 145.129 151.299  1.00  0.00     0.005 C 
ATOM     22  C   UNL     1     171.371 144.167 150.747  1.00  0.00     0.003 C 
ATOM     23  C   UNL     1     170.767 141.813 151.690  1.00  0.00     0.010 C 
ATOM     24  C   UNL     1     173.164 142.417 151.438  1.00  0.00     0.012 C 
ATOM     25  C   UNL     1     171.013 143.650 149.278  1.00  0.00    -0.006 C 
ATOM     26  C   UNL     1     170.494 141.318 150.262  1.00  0.00     0.033 C 
ATOM     27  C   UNL     1     170.014 142.454 149.343  1.00  0.00     0.120 C 
ATOM     28  C   UNL     1     170.347 144.777 148.432  1.00  0.00     0.014 C 
ATOM     29  C   UNL     1     172.296 143.258 148.484  1.00  0.00     0.014 C 
ENDROOT
BRANCH   1  30
ATOM     30  C   UNL     1     173.180 143.306 157.710  1.00  0.00     0.048 C 
ATOM     31  O   UNL     1     173.026 142.690 156.623  1.00  0.00    -0.550 OA
ATOM     32  O   UNL     1     173.944 142.708 158.706  1.00  0.00    -0.550 OA
ENDBRANCH   1  30
BRANCH  27  33
ATOM     33  O   UNL     1     169.787 141.942 148.053  1.00  0.00    -0.393 OA
ATOM     34  H   UNL     1     169.211 142.597 147.577  1.00  0.00     0.210 HD
ENDBRANCH  27  33
TORSDOF 2
ENDMDL
MODEL 2
REMARK VINA RESULT:    -7.418      1.781      8.078
REMARK INTER + INTRA:          -7.493
REMARK INTER:                  -8.227
REMARK INTRA:                   0.734
REMARK UNBOUND:                 0.576
REMARK SMILES C[C@@H]1[C@H](C)CC[C@@]2(C(=O)[O-])CC[C@@]3(C)C(=CC[C@@H]4[C@@]5(C)CC[C@H](O)C(C)(C)[C@H]5CC[C@@]43C)[C@H]12
REMARK SMILES IDX 7 1 6 2 11 3 33 4 5 5 12 6 15 7 2 8 3 9 13 10 16 11 1 12
REMARK SMILES IDX 4 13 14 14 31 15 17 16 18 17 30 18 32 19 19 20 29 21 28 22
REMARK SMILES IDX 21 23 20 24 25 25 22 26 23 27 26 28 27 29 8 30 9 31 10 32
REMARK SMILES IDX 24 33
REMARK H PARENT 24 34
REMARK Flexibility Score: inf
ROOT
ATOM      1  C   UNL     1     171.270 141.862 151.529  1.00  0.00     0.017 C 
ATOM      2  C   UNL     1     170.833 141.383 150.096  1.00  0.00     0.014 C 
ATOM      3  C   UNL     1     172.288 140.875 152.147  1.00  0.00     0.014 C 
ATOM      4  C   UNL     1     171.984 143.252 151.431  1.00  0.00     0.030 C 
ATOM      5  C   UNL     1     171.544 142.104 148.936  1.00  0.00     0.004 C 
ATOM      6  C   UNL     1     172.826 141.353 153.524  1.00  0.00     0.013 C 
ATOM      7  C   UNL     1     172.480 143.722 152.805  1.00  0.00    -0.063 C 
ATOM      8  C   UNL     1     171.247 144.224 150.454  1.00  0.00    -0.003 C 
ATOM      9  C   UNL     1     171.413 143.660 148.994  1.00  0.00    -0.011 C 
ATOM     10  C   UNL     1     173.463 142.799 153.556  1.00  0.00    -0.006 C 
ATOM     11  C   UNL     1     171.961 144.816 153.365  1.00  0.00    -0.027 C 
ATOM     12  C   UNL     1     169.766 144.501 150.823  1.00  0.00     0.008 C 
ATOM     13  C   UNL     1     170.367 144.174 147.990  1.00  0.00     0.008 C 
ATOM     14  C   UNL     1     174.794 142.753 152.736  1.00  0.00     0.017 C 
ATOM     15  C   UNL     1     173.789 143.286 155.081  1.00  0.00    -0.020 C 
ATOM     16  C   UNL     1     171.988 145.094 154.822  1.00  0.00     0.032 C 
ATOM     17  C   UNL     1     172.511 143.941 155.747  1.00  0.00     0.006 C 
ATOM     18  C   UNL     1     174.900 144.379 155.143  1.00  0.00     0.008 C 
ATOM     19  C   UNL     1     174.323 142.036 155.859  1.00  0.00     0.012 C 
ATOM     20  C   UNL     1     172.672 144.516 157.246  1.00  0.00    -0.025 C 
ATOM     21  C   UNL     1     175.167 144.933 156.557  1.00  0.00     0.005 C 
ATOM     22  C   UNL     1     173.934 145.482 157.341  1.00  0.00     0.003 C 
ATOM     23  C   UNL     1     172.743 143.377 158.316  1.00  0.00     0.010 C 
ATOM     24  C   UNL     1     171.352 145.300 157.579  1.00  0.00     0.012 C 
ATOM     25  C   UNL     1     174.331 145.921 158.826  1.00  0.00    -0.006 C 
ATOM     26  C   UNL     1     173.077 143.855 159.737  1.00  0.00     0.033 C 
ATOM     27  C   UNL     1     174.371 144.684 159.775  1.00  0.00     0.120 C 
ATOM     28  C   UNL     1     175.739 146.587 158.857  1.00  0.00     0.014 C 
ATOM     29  C   UNL     1     173.360 147.011 159.375  1.00  0.00     0.014 C 
ENDROOT
BRANCH   1  30
ATOM     30  C   UNL     1     170.034 141.849 152.432  1.00  0.00     0.048 C 
ATOM     31  O   UNL     1     169.921 142.635 153.409  1.00  0.00    -0.550 OA
ATOM     32  O   UNL     1     169.059 140.875 152.251  1.00  0.00    -0.550 OA
ENDBRANCH   1  30
BRANCH  27  33
ATOM     33  O   UNL     1     174.619 145.096 161.096  1.00  0.00    -0.393 OA
ATOM     34  H   UNL     1     174.898 144.290 161.606  1.00  0.00     0.210 HD
ENDBRANCH  27  33
TORSDOF 2
ENDMDL
MODEL 3
REMARK VINA RESULT:    -7.202      1.996      3.709
REMARK INTER + INTRA:          -7.257
REMARK INTER:                  -7.836
REMARK INTRA:                   0.579
REMARK UNBOUND:                 0.576
REMARK SMILES C[C@@H]1[C@H](C)CC[C@@]2(C(=O)[O-])CC[C@@]3(C)C(=CC[C@@H]4[C@@]5(C)CC[C@H](O)C(C)(C)[C@H]5CC[C@@]43C)[C@H]12
REMARK SMILES IDX 7 1 6 2 11 3 33 4 5 5 12 6 15 7 2 8 3 9 13 10 16 11 1 12
REMARK SMILES IDX 4 13 14 14 31 15 17 16 18 17 30 18 32 19 19 20 29 21 28 22
REMARK SMILES IDX 21 23 20 24 25 25 22 26 23 27 26 28 27 29 8 30 9 31 10 32
REMARK SMILES IDX 24 33
REMARK H PARENT 24 34
REMARK Flexibility Score: inf
ROOT
ATOM      1  C   UNL     1     173.755 144.713 159.211  1.00  0.00     0.017 C 
ATOM      2  C   UNL     1     174.324 144.826 160.673  1.00  0.00     0.014 C 
ATOM      3  C   UNL     1     174.297 145.859 158.324  1.00  0.00     0.014 C 
ATOM      4  C   UNL     1     174.226 143.370 158.559  1.00  0.00     0.030 C 
ATOM      5  C   UNL     1     175.505 143.885 160.975  1.00  0.00     0.004 C 
ATOM      6  C   UNL     1     173.843 145.738 156.844  1.00  0.00     0.013 C 
ATOM      7  C   UNL     1     173.741 143.253 157.108  1.00  0.00    -0.063 C 
ATOM      8  C   UNL     1     174.124 142.167 159.551  1.00  0.00    -0.003 C 
ATOM      9  C   UNL     1     175.196 142.382 160.685  1.00  0.00    -0.011 C 
ATOM     10  C   UNL     1     174.169 144.367 156.127  1.00  0.00    -0.006 C 
ATOM     11  C   UNL     1     172.873 142.299 156.767  1.00  0.00    -0.027 C 
ATOM     12  C   UNL     1     172.700 141.922 160.115  1.00  0.00     0.008 C 
ATOM     13  C   UNL     1     174.915 141.605 161.982  1.00  0.00     0.008 C 
ATOM     14  C   UNL     1     175.720 144.276 155.952  1.00  0.00     0.017 C 
ATOM     15  C   UNL     1     173.456 144.262 154.661  1.00  0.00    -0.020 C 
ATOM     16  C   UNL     1     171.988 142.369 155.579  1.00  0.00     0.032 C 
ATOM     17  C   UNL     1     171.972 143.727 154.795  1.00  0.00     0.006 C 
ATOM     18  C   UNL     1     174.178 143.261 153.708  1.00  0.00     0.008 C 
ATOM     19  C   UNL     1     173.548 145.680 154.003  1.00  0.00     0.012 C 
ATOM     20  C   UNL     1     171.135 143.524 153.431  1.00  0.00    -0.025 C 
ATOM     21  C   UNL     1     173.478 143.063 152.347  1.00  0.00     0.005 C 
ATOM     22  C   UNL     1     171.970 142.661 152.386  1.00  0.00     0.003 C 
ATOM     23  C   UNL     1     170.673 144.883 152.808  1.00  0.00     0.010 C 
ATOM     24  C   UNL     1     169.804 142.784 153.817  1.00  0.00     0.012 C 
ATOM     25  C   UNL     1     171.343 142.596 150.917  1.00  0.00    -0.006 C 
ATOM     26  C   UNL     1     170.030 144.763 151.418  1.00  0.00     0.033 C 
ATOM     27  C   UNL     1     170.940 144.021 150.427  1.00  0.00     0.120 C 
ATOM     28  C   UNL     1     172.366 142.015 149.895  1.00  0.00     0.014 C 
ATOM     29  C   UNL     1     170.125 141.624 150.861  1.00  0.00     0.014 C 
ENDROOT
BRANCH   1  30
ATOM     30  C   UNL     1     172.236 144.884 159.277  1.00  0.00     0.048 C 
ATOM     31  O   UNL     1     171.519 144.839 158.243  1.00  0.00    -0.550 OA
ATOM     32  O   UNL     1     171.631 145.211 160.485  1.00  0.00    -0.550 OA
ENDBRANCH   1  30
BRANCH  27  33
ATOM     33  O   UNL     1     170.296 143.938 149.179  1.00  0.00    -0.393 OA
ATOM     34  H   UNL     1     170.476 143.030 148.817  1.00  0.00     0.210 HD
ENDBRANCH  27  33
TORSDOF 2
ENDMDL
MODEL 4
REMARK VINA RESULT:    -7.124      2.039      8.065
REMARK INTER + INTRA:          -7.173
REMARK INTER:                  -7.839
REMARK INTRA:                   0.666
REMARK UNBOUND:                 0.576
REMARK SMILES C[C@@H]1[C@H](C)CC[C@@]2(C(=O)[O-])CC[C@@]3(C)C(=CC[C@@H]4[C@@]5(C)CC[C@H](O)C(C)(C)[C@H]5CC[C@@]43C)[C@H]12
REMARK SMILES IDX 7 1 6 2 11 3 33 4 5 5 12 6 15 7 2 8 3 9 13 10 16 11 1 12
REMARK SMILES IDX 4 13 14 14 31 15 17 16 18 17 30 18 32 19 19 20 29 21 28 22
REMARK SMILES IDX 21 23 20 24 25 25 22 26 23 27 26 28 27 29 8 30 9 31 10 32
REMARK SMILES IDX 24 33
REMARK H PARENT 24 34
REMARK Flexibility Score: inf
ROOT
ATOM      1  C   UNL     1     170.387 143.813 150.866  1.00  0.00     0.017 C 
ATOM      2  C   UNL     1     170.115 143.489 149.351  1.00  0.00     0.014 C 
ATOM      3  C   UNL     1     169.072 144.187 151.590  1.00  0.00     0.014 C 
ATOM      4  C   UNL     1     170.959 142.546 151.587  1.00  0.00     0.030 C 
ATOM      5  C   UNL     1     170.041 141.986 149.021  1.00  0.00     0.004 C 
ATOM      6  C   UNL     1     169.271 144.422 153.112  1.00  0.00     0.013 C 
ATOM      7  C   UNL     1     171.179 142.806 153.083  1.00  0.00    -0.063 C 
ATOM      8  C   UNL     1     172.033 141.811 150.722  1.00  0.00    -0.003 C 
ATOM      9  C   UNL     1     171.304 141.185 149.474  1.00  0.00    -0.011 C 
ATOM     10  C   UNL     1     169.952 143.242 153.913  1.00  0.00    -0.006 C 
ATOM     11  C   UNL     1     172.412 142.788 153.591  1.00  0.00    -0.027 C 
ATOM     12  C   UNL     1     173.246 142.693 150.324  1.00  0.00     0.008 C 
ATOM     13  C   UNL     1     172.229 140.875 148.285  1.00  0.00     0.008 C 
ATOM     14  C   UNL     1     168.949 142.043 153.944  1.00  0.00     0.017 C 
ATOM     15  C   UNL     1     170.315 143.676 155.446  1.00  0.00    -0.020 C 
ATOM     16  C   UNL     1     172.802 143.472 154.849  1.00  0.00     0.032 C 
ATOM     17  C   UNL     1     171.722 144.400 155.506  1.00  0.00     0.006 C 
ATOM     18  C   UNL     1     170.429 142.457 156.410  1.00  0.00     0.008 C 
ATOM     19  C   UNL     1     169.136 144.569 155.962  1.00  0.00     0.012 C 
ATOM     20  C   UNL     1     172.254 144.860 156.958  1.00  0.00    -0.025 C 
ATOM     21  C   UNL     1     170.866 142.820 157.844  1.00  0.00     0.005 C 
ATOM     22  C   UNL     1     172.180 143.650 157.990  1.00  0.00     0.003 C 
ATOM     23  C   UNL     1     171.496 146.118 157.498  1.00  0.00     0.010 C 
ATOM     24  C   UNL     1     173.740 145.334 156.771  1.00  0.00     0.012 C 
ATOM     25  C   UNL     1     172.456 144.050 159.512  1.00  0.00    -0.006 C 
ATOM     26  C   UNL     1     171.833 146.492 158.950  1.00  0.00     0.033 C 
ATOM     27  C   UNL     1     171.627 145.310 159.910  1.00  0.00     0.120 C 
ATOM     28  C   UNL     1     172.053 142.895 160.478  1.00  0.00     0.014 C 
ATOM     29  C   UNL     1     173.975 144.279 159.774  1.00  0.00     0.014 C 
ENDROOT
BRANCH   1  30
ATOM     30  C   UNL     1     171.296 145.042 150.934  1.00  0.00     0.048 C 
ATOM     31  O   UNL     1     171.941 145.331 151.976  1.00  0.00    -0.550 OA
ATOM     32  O   UNL     1     171.331 145.933 149.867  1.00  0.00    -0.550 OA
ENDBRANCH   1  30
BRANCH  27  33
ATOM     33  O   UNL     1     171.957 145.712 161.217  1.00  0.00    -0.393 OA
ATOM     34  H   UNL     1     171.308 145.273 161.829  1.00  0.00     0.210 HD
ENDBRANCH  27  33
TORSDOF 2
ENDMDL
MODEL 5
REMARK VINA RESULT:    -6.614      1.858      8.013
REMARK INTER + INTRA:          -6.618
REMARK INTER:                  -7.453
REMARK INTRA:                   0.835
REMARK UNBOUND:                 0.576
REMARK SMILES C[C@@H]1[C@H](C)CC[C@@]2(C(=O)[O-])CC[C@@]3(C)C(=CC[C@@H]4[C@@]5(C)CC[C@H](O)C(C)(C)[C@H]5CC[C@@]43C)[C@H]12
REMARK SMILES IDX 7 1 6 2 11 3 33 4 5 5 12 6 15 7 2 8 3 9 13 10 16 11 1 12
REMARK SMILES IDX 4 13 14 14 31 15 17 16 18 17 30 18 32 19 19 20 29 21 28 22
REMARK SMILES IDX 21 23 20 24 25 25 22 26 23 27 26 28 27 29 8 30 9 31 10 32
REMARK SMILES IDX 24 33
REMARK H PARENT 24 34
REMARK Flexibility Score: inf
ROOT
ATOM      1  C   UNL     1     171.773 142.237 150.818  1.00  0.00     0.017 C 
ATOM      2  C   UNL     1     171.690 142.206 149.247  1.00  0.00     0.014 C 
ATOM      3  C   UNL     1     172.907 141.315 151.323  1.00  0.00     0.014 C 
ATOM      4  C   UNL     1     172.112 143.687 151.304  1.00  0.00     0.030 C 
ATOM      5  C   UNL     1     172.355 143.405 148.547  1.00  0.00     0.004 C 
ATOM      6  C   UNL     1     173.095 141.385 152.864  1.00  0.00     0.013 C 
ATOM      7  C   UNL     1     172.262 143.743 152.830  1.00  0.00    -0.063 C 
ATOM      8  C   UNL     1     171.304 144.773 150.524  1.00  0.00    -0.003 C 
ATOM      9  C   UNL     1     171.822 144.789 149.038  1.00  0.00    -0.011 C 
ATOM     10  C   UNL     1     173.328 142.827 153.470  1.00  0.00    -0.006 C 
ATOM     11  C   UNL     1     171.403 144.455 153.561  1.00  0.00    -0.027 C 
ATOM     12  C   UNL     1     169.764 144.614 150.617  1.00  0.00     0.008 C 
ATOM     13  C   UNL     1     170.840 145.403 148.027  1.00  0.00     0.008 C 
ATOM     14  C   UNL     1     174.732 143.324 152.994  1.00  0.00     0.017 C 
ATOM     15  C   UNL     1     173.289 142.813 155.103  1.00  0.00    -0.020 C 
ATOM     16  C   UNL     1     171.142 144.214 155.001  1.00  0.00     0.032 C 
ATOM     17  C   UNL     1     171.801 142.938 155.630  1.00  0.00     0.006 C 
ATOM     18  C   UNL     1     174.060 144.011 155.737  1.00  0.00     0.008 C 
ATOM     19  C   UNL     1     174.004 141.501 155.570  1.00  0.00     0.012 C 
ATOM     20  C   UNL     1     171.585 142.983 157.229  1.00  0.00    -0.025 C 
ATOM     21  C   UNL     1     173.964 144.086 157.275  1.00  0.00     0.005 C 
ATOM     22  C   UNL     1     172.529 144.081 157.890  1.00  0.00     0.003 C 
ATOM     23  C   UNL     1     171.788 141.582 157.896  1.00  0.00     0.010 C 
ATOM     24  C   UNL     1     170.074 143.332 157.477  1.00  0.00     0.012 C 
ATOM     25  C   UNL     1     172.575 144.052 159.487  1.00  0.00    -0.006 C 
ATOM     26  C   UNL     1     171.774 141.597 159.432  1.00  0.00     0.033 C 
ATOM     27  C   UNL     1     172.791 142.596 160.005  1.00  0.00     0.120 C 
ATOM     28  C   UNL     1     173.745 144.926 160.031  1.00  0.00     0.014 C 
ATOM     29  C   UNL     1     171.288 144.676 160.105  1.00  0.00     0.014 C 
ENDROOT
BRANCH   1  30
ATOM     30  C   UNL     1     170.462 141.676 151.374  1.00  0.00     0.048 C 
ATOM     31  O   UNL     1     169.650 141.048 150.646  1.00  0.00    -0.550 OA
ATOM     32  O   UNL     1     170.093 141.958 152.684  1.00  0.00    -0.550 OA
ENDBRANCH   1  30
BRANCH  27  33
ATOM     33  O   UNL     1     172.727 142.569 161.410  1.00  0.00    -0.393 OA
ATOM     34  H   UNL     1     173.268 143.334 161.741  1.00  0.00     0.210 HD
ENDBRANCH  27  33
TORSDOF 2
ENDMDL
MODEL 6
REMARK VINA RESULT:    -6.241      1.905      8.007
REMARK INTER + INTRA:          -6.213
REMARK INTER:                  -7.283
REMARK INTRA:                   1.071
REMARK UNBOUND:                 0.576
REMARK SMILES C[C@@H]1[C@H](C)CC[C@@]2(C(=O)[O-])CC[C@@]3(C)C(=CC[C@@H]4[C@@]5(C)CC[C@H](O)C(C)(C)[C@H]5CC[C@@]43C)[C@H]12
REMARK SMILES IDX 7 1 6 2 11 3 33 4 5 5 12 6 15 7 2 8 3 9 13 10 16 11 1 12
REMARK SMILES IDX 4 13 14 14 31 15 17 16 18 17 30 18 32 19 19 20 29 21 28 22
REMARK SMILES IDX 21 23 20 24 25 25 22 26 23 27 26 28 27 29 8 30 9 31 10 32
REMARK SMILES IDX 24 33
REMARK H PARENT 24 34
REMARK Flexibility Score: inf
ROOT
ATOM      1  C   UNL     1     170.322 142.787 151.047  1.00  0.00     0.017 C 
ATOM      2  C   UNL     1     170.138 142.376 149.540  1.00  0.00     0.014 C 
ATOM      3  C   UNL     1     170.174 141.556 151.971  1.00  0.00     0.014 C 
ATOM      4  C   UNL     1     171.763 143.356 151.271  1.00  0.00     0.030 C 
ATOM      5  C   UNL     1     171.453 142.205 148.758  1.00  0.00     0.004 C 
ATOM      6  C   UNL     1     170.444 141.890 153.464  1.00  0.00     0.013 C 
ATOM      7  C   UNL     1     172.000 143.710 152.745  1.00  0.00    -0.063 C 
ATOM      8  C   UNL     1     172.201 144.319 150.121  1.00  0.00    -0.003 C 
ATOM      9  C   UNL     1     172.380 143.461 148.813  1.00  0.00    -0.011 C 
ATOM     10  C   UNL     1     171.832 142.578 153.781  1.00  0.00    -0.006 C 
ATOM     11  C   UNL     1     172.204 144.979 153.104  1.00  0.00    -0.027 C 
ATOM     12  C   UNL     1     171.262 145.535 149.913  1.00  0.00     0.008 C 
ATOM     13  C   UNL     1     172.310 144.269 147.507  1.00  0.00     0.008 C 
ATOM     14  C   UNL     1     172.958 141.524 153.522  1.00  0.00     0.017 C 
ATOM     15  C   UNL     1     171.918 143.086 155.331  1.00  0.00    -0.020 C 
ATOM     16  C   UNL     1     171.967 145.502 154.471  1.00  0.00     0.032 C 
ATOM     17  C   UNL     1     171.278 144.526 155.487  1.00  0.00     0.006 C 
ATOM     18  C   UNL     1     173.385 143.221 155.843  1.00  0.00     0.008 C 
ATOM     19  C   UNL     1     171.217 141.997 156.212  1.00  0.00     0.012 C 
ATOM     20  C   UNL     1     171.319 145.197 156.954  1.00  0.00    -0.025 C 
ATOM     21  C   UNL     1     173.509 143.790 157.271  1.00  0.00     0.005 C 
ATOM     22  C   UNL     1     172.794 145.150 157.550  1.00  0.00     0.003 C 
ATOM     23  C   UNL     1     170.287 144.546 157.934  1.00  0.00     0.010 C 
ATOM     24  C   UNL     1     170.837 146.683 156.790  1.00  0.00     0.012 C 
ATOM     25  C   UNL     1     172.909 145.569 159.088  1.00  0.00    -0.006 C 
ATOM     26  C   UNL     1     170.404 145.019 159.391  1.00  0.00     0.033 C 
ATOM     27  C   UNL     1     171.828 144.837 159.941  1.00  0.00     0.120 C 
ATOM     28  C   UNL     1     174.305 145.192 159.669  1.00  0.00     0.014 C 
ATOM     29  C   UNL     1     172.805 147.114 159.266  1.00  0.00     0.014 C 
ENDROOT
BRANCH   1  30
ATOM     30  C   UNL     1     169.196 143.756 151.416  1.00  0.00     0.048 C 
ATOM     31  O   UNL     1     168.768 144.614 150.600  1.00  0.00    -0.550 OA
ATOM     32  O   UNL     1     168.706 143.779 152.717  1.00  0.00    -0.550 OA
ENDBRANCH   1  30
BRANCH  27  33
ATOM     33  O   UNL     1     171.872 145.291 161.271  1.00  0.00    -0.393 OA
ATOM     34  H   UNL     1     171.222 146.039 161.346  1.00  0.00     0.210 HD
ENDBRANCH  27  33
TORSDOF 2
ENDMDL
MODEL 7
REMARK VINA RESULT:    -6.228      2.537      4.484
REMARK INTER + INTRA:          -6.198
REMARK INTER:                  -6.959
REMARK INTRA:                   0.761
REMARK UNBOUND:                 0.576
REMARK SMILES C[C@@H]1[C@H](C)CC[C@@]2(C(=O)[O-])CC[C@@]3(C)C(=CC[C@@H]4[C@@]5(C)CC[C@H](O)C(C)(C)[C@H]5CC[C@@]43C)[C@H]12
REMARK SMILES IDX 7 1 6 2 11 3 33 4 5 5 12 6 15 7 2 8 3 9 13 10 16 11 1 12
REMARK SMILES IDX 4 13 14 14 31 15 17 16 18 17 30 18 32 19 19 20 29 21 28 22
REMARK SMILES IDX 21 23 20 24 25 25 22 26 23 27 26 28 27 29 8 30 9 31 10 32
REMARK SMILES IDX 24 33
REMARK H PARENT 24 34
REMARK Flexibility Score: inf
ROOT
ATOM      1  C   UNL     1     171.095 143.051 157.193  1.00  0.00     0.017 C 
ATOM      2  C   UNL     1     171.090 142.672 158.719  1.00  0.00     0.014 C 
ATOM      3  C   UNL     1     172.526 142.964 156.612  1.00  0.00     0.014 C 
ATOM      4  C   UNL     1     170.214 142.037 156.389  1.00  0.00     0.030 C 
ATOM      5  C   UNL     1     170.631 141.233 159.019  1.00  0.00     0.004 C 
ATOM      6  C   UNL     1     172.571 143.236 155.083  1.00  0.00     0.013 C 
ATOM      7  C   UNL     1     170.245 142.340 154.885  1.00  0.00    -0.063 C 
ATOM      8  C   UNL     1     168.876 141.706 157.126  1.00  0.00    -0.003 C 
ATOM      9  C   UNL     1     169.228 140.888 158.424  1.00  0.00    -0.011 C 
ATOM     10  C   UNL     1     171.624 142.338 154.191  1.00  0.00    -0.006 C 
ATOM     11  C   UNL     1     169.132 142.724 154.257  1.00  0.00    -0.027 C 
ATOM     12  C   UNL     1     167.987 142.942 157.422  1.00  0.00     0.008 C 
ATOM     13  C   UNL     1     168.137 140.912 159.508  1.00  0.00     0.008 C 
ATOM     14  C   UNL     1     172.175 140.875 154.231  1.00  0.00     0.017 C 
ATOM     15  C   UNL     1     171.582 142.852 152.641  1.00  0.00    -0.020 C 
ATOM     16  C   UNL     1     169.119 143.484 152.983  1.00  0.00     0.032 C 
ATOM     17  C   UNL     1     170.505 143.999 152.459  1.00  0.00     0.006 C 
ATOM     18  C   UNL     1     171.171 141.728 151.641  1.00  0.00     0.008 C 
ATOM     19  C   UNL     1     173.035 143.300 152.265  1.00  0.00     0.012 C 
ATOM     20  C   UNL     1     170.304 144.593 150.972  1.00  0.00    -0.025 C 
ATOM     21  C   UNL     1     171.026 142.200 150.180  1.00  0.00     0.005 C 
ATOM     22  C   UNL     1     170.080 143.415 149.925  1.00  0.00     0.003 C 
ATOM     23  C   UNL     1     171.484 145.525 150.540  1.00  0.00     0.010 C 
ATOM     24  C   UNL     1     169.046 145.532 151.022  1.00  0.00     0.012 C 
ATOM     25  C   UNL     1     170.107 143.868 148.392  1.00  0.00    -0.006 C 
ATOM     26  C   UNL     1     171.438 145.975 149.071  1.00  0.00     0.033 C 
ATOM     27  C   UNL     1     171.340 144.781 148.108  1.00  0.00     0.120 C 
ATOM     28  C   UNL     1     170.203 142.635 147.444  1.00  0.00     0.014 C 
ATOM     29  C   UNL     1     168.782 144.582 147.987  1.00  0.00     0.014 C 
ENDROOT
BRANCH   1  30
ATOM     30  C   UNL     1     170.652 144.511 157.065  1.00  0.00     0.048 C 
ATOM     31  O   UNL     1     170.013 144.923 156.060  1.00  0.00    -0.550 OA
ATOM     32  O   UNL     1     171.057 145.440 158.016  1.00  0.00    -0.550 OA
ENDBRANCH   1  30
BRANCH  27  33
ATOM     33  O   UNL     1     171.295 145.256 146.785  1.00  0.00    -0.393 OA
ATOM     34  H   UNL     1     170.453 145.775 146.689  1.00  0.00     0.210 HD
ENDBRANCH  27  33
TORSDOF 2
ENDMDL
MODEL 8
REMARK VINA RESULT:    -6.009      2.371      8.190
REMARK INTER + INTRA:          -5.960
REMARK INTER:                  -6.546
REMARK INTRA:                   0.587
REMARK UNBOUND:                 0.576
REMARK SMILES C[C@@H]1[C@H](C)CC[C@@]2(C(=O)[O-])CC[C@@]3(C)C(=CC[C@@H]4[C@@]5(C)CC[C@H](O)C(C)(C)[C@H]5CC[C@@]43C)[C@H]12
REMARK SMILES IDX 7 1 6 2 11 3 33 4 5 5 12 6 15 7 2 8 3 9 13 10 16 11 1 12
REMARK SMILES IDX 4 13 14 14 31 15 17 16 18 17 30 18 32 19 19 20 29 21 28 22
REMARK SMILES IDX 21 23 20 24 25 25 22 26 23 27 26 28 27 29 8 30 9 31 10 32
REMARK SMILES IDX 24 33
REMARK H PARENT 24 34
REMARK Flexibility Score: inf
ROOT
ATOM      1  C   UNL     1     171.360 144.194 149.121  1.00  0.00     0.017 C 
ATOM      2  C   UNL     1     171.288 144.403 147.564  1.00  0.00     0.014 C 
ATOM      3  C   UNL     1     171.651 145.533 149.839  1.00  0.00     0.014 C 
ATOM      4  C   UNL     1     169.980 143.682 149.653  1.00  0.00     0.030 C 
ATOM      5  C   UNL     1     169.860 144.491 146.995  1.00  0.00     0.004 C 
ATOM      6  C   UNL     1     171.636 145.400 151.386  1.00  0.00     0.013 C 
ATOM      7  C   UNL     1     169.993 143.525 151.180  1.00  0.00    -0.063 C 
ATOM      8  C   UNL     1     169.363 142.584 148.728  1.00  0.00    -0.003 C 
ATOM      9  C   UNL     1     168.963 143.268 147.367  1.00  0.00    -0.011 C 
ATOM     10  C   UNL     1     170.325 144.780 152.017  1.00  0.00    -0.006 C 
ATOM     11  C   UNL     1     169.860 142.317 151.730  1.00  0.00    -0.027 C 
ATOM     12  C   UNL     1     170.262 141.337 148.527  1.00  0.00     0.008 C 
ATOM     13  C   UNL     1     168.820 142.296 146.184  1.00  0.00     0.008 C 
ATOM     14  C   UNL     1     169.165 145.808 151.813  1.00  0.00     0.017 C 
ATOM     15  C   UNL     1     170.501 144.479 153.612  1.00  0.00    -0.020 C 
ATOM     16  C   UNL     1     170.325 141.973 153.096  1.00  0.00     0.032 C 
ATOM     17  C   UNL     1     171.167 143.062 153.847  1.00  0.00     0.006 C 
ATOM     18  C   UNL     1     169.141 144.435 154.373  1.00  0.00     0.008 C 
ATOM     19  C   UNL     1     171.332 145.663 154.215  1.00  0.00     0.012 C 
ATOM     20  C   UNL     1     171.375 142.588 155.375  1.00  0.00    -0.025 C 
ATOM     21  C   UNL     1     169.259 144.058 155.865  1.00  0.00     0.005 C 
ATOM     22  C   UNL     1     170.019 142.735 156.196  1.00  0.00     0.003 C 
ATOM     23  C   UNL     1     172.552 143.344 156.077  1.00  0.00     0.010 C 
ATOM     24  C   UNL     1     171.832 141.086 155.329  1.00  0.00     0.012 C 
ATOM     25  C   UNL     1     170.164 142.521 157.773  1.00  0.00    -0.006 C 
ATOM     26  C   UNL     1     172.682 143.067 157.583  1.00  0.00     0.033 C 
ATOM     27  C   UNL     1     171.368 143.341 158.332  1.00  0.00     0.120 C 
ATOM     28  C   UNL     1     168.882 142.992 158.524  1.00  0.00     0.014 C 
ATOM     29  C   UNL     1     170.307 141.011 158.132  1.00  0.00     0.014 C 
ENDROOT
BRANCH   1  30
ATOM     30  C   UNL     1     172.537 143.264 149.422  1.00  0.00     0.048 C 
ATOM     31  O   UNL     1     172.804 142.893 150.596  1.00  0.00    -0.550 OA
ATOM     32  O   UNL     1     173.411 142.905 148.402  1.00  0.00    -0.550 OA
ENDBRANCH   1  30
BRANCH  27  33
ATOM     33  O   UNL     1     171.548 143.064 159.699  1.00  0.00    -0.393 OA
ATOM     34  H   UNL     1     171.592 143.938 160.170  1.00  0.00     0.210 HD
ENDBRANCH  27  33
TORSDOF 2
ENDMDL
