MODEL 1
REMARK VINA RESULT:    -4.528      0.000      0.000
REMARK INTER + INTRA:          -7.842
REMARK INTER:                  -7.176
REMARK INTRA:                  -0.667
REMARK UNBOUND:                -0.667
REMARK SMILES CCCCCCCCCCCC(=O)[O-]
REMARK SMILES IDX 7 1 8 2 9 3 10 4 11 5 12 6 13 7 14 8 6 9 5 10 4 11 3 12 2 13
REMARK SMILES IDX 1 14
REMARK H PARENT
REMARK Flexibility Score: inf
ROOT
ATOM      1  C   UNL     1       9.680 -14.792 -24.649  1.00  0.00     0.000 C 
ENDROOT
BRANCH   1   2
ATOM      2  C   UNL     1      10.674 -14.908 -23.475  1.00  0.00     0.000 C 
BRANCH   2   3
ATOM      3  C   UNL     1      10.726 -16.289 -22.797  1.00  0.00     0.000 C 
BRANCH   3   4
ATOM      4  C   UNL     1      10.498 -16.219 -21.281  1.00  0.00     0.006 C 
BRANCH   4   5
ATOM      5  C   UNL     1      10.131 -14.797 -20.847  1.00  0.00     0.053 C 
BRANCH   5   6
ATOM      6  C   UNL     1      10.751 -14.475 -19.523  1.00  0.00     0.041 C 
ATOM      7  O   UNL     1      11.157 -15.401 -18.773  1.00  0.00    -0.550 OA
ATOM      8  O   UNL     1      10.833 -13.157 -19.095  1.00  0.00    -0.550 OA
ENDBRANCH   5   6
ENDBRANCH   4   5
ENDBRANCH   3   4
ENDBRANCH   2   3
ENDBRANCH   1   2
BRANCH   1   9
ATOM      9  C   UNL     1       8.999 -13.420 -24.800  1.00  0.00     0.000 C 
BRANCH   9  10
ATOM     10  C   UNL     1       9.121 -12.551 -23.538  1.00  0.00    -0.000 C 
BRANCH  10  11
ATOM     11  C   UNL     1      10.085 -11.368 -23.726  1.00  0.00    -0.000 C 
BRANCH  11  12
ATOM     12  C   UNL     1       9.768 -10.539 -24.981  1.00  0.00    -0.000 C 
BRANCH  12  13
ATOM     13  C   UNL     1       9.341  -9.115 -24.603  1.00  0.00    -0.003 C 
ATOM     14  C   UNL     1       9.288  -8.211 -25.830  1.00  0.00     0.004 C 
ENDBRANCH  12  13
ENDBRANCH  11  12
ENDBRANCH  10  11
ENDBRANCH   9  10
ENDBRANCH   1   9
TORSDOF 10
ENDMDL
MODEL 2
REMARK VINA RESULT:    -4.472      1.025      2.076
REMARK INTER + INTRA:          -7.753
REMARK INTER:                  -7.141
REMARK INTRA:                  -0.611
REMARK UNBOUND:                -0.667
REMARK SMILES CCCCCCCCCCCC(=O)[O-]
REMARK SMILES IDX 7 1 8 2 9 3 10 4 11 5 12 6 13 7 14 8 6 9 5 10 4 11 3 12 2 13
REMARK SMILES IDX 1 14
REMARK H PARENT
REMARK Flexibility Score: inf
ROOT
ATOM      1  C   UNL     1       9.999 -11.846 -23.342  1.00  0.00     0.000 C 
ENDROOT
BRANCH   1   2
ATOM      2  C   UNL     1      11.059 -12.901 -22.964  1.00  0.00     0.000 C 
BRANCH   2   3
ATOM      3  C   UNL     1      10.630 -14.363 -23.178  1.00  0.00     0.000 C 
BRANCH   3   4
ATOM      4  C   UNL     1      10.716 -15.205 -21.897  1.00  0.00     0.006 C 
BRANCH   4   5
ATOM      5  C   UNL     1       9.810 -14.632 -20.803  1.00  0.00     0.053 C 
BRANCH   5   6
ATOM      6  C   UNL     1      10.596 -14.367 -19.557  1.00  0.00     0.041 C 
ATOM      7  O   UNL     1      10.831 -13.183 -19.198  1.00  0.00    -0.550 OA
ATOM      8  O   UNL     1      11.111 -15.425 -18.821  1.00  0.00    -0.550 OA
ENDBRANCH   5   6
ENDBRANCH   4   5
ENDBRANCH   3   4
ENDBRANCH   2   3
ENDBRANCH   1   2
BRANCH   1   9
ATOM      9  C   UNL     1       9.379 -12.010 -24.741  1.00  0.00     0.000 C 
BRANCH   9  10
ATOM     10  C   UNL     1       9.397 -10.709 -25.559  1.00  0.00    -0.000 C 
BRANCH  10  11
ATOM     11  C   UNL     1       9.835  -9.494 -24.726  1.00  0.00    -0.000 C 
BRANCH  11  12
ATOM     12  C   UNL     1       9.417  -8.158 -25.361  1.00  0.00    -0.000 C 
BRANCH  12  13
ATOM     13  C   UNL     1       8.398  -8.380 -26.485  1.00  0.00    -0.003 C 
ATOM     14  C   UNL     1       8.870  -7.748 -27.791  1.00  0.00     0.004 C 
ENDBRANCH  12  13
ENDBRANCH  11  12
ENDBRANCH  10  11
ENDBRANCH   9  10
ENDBRANCH   1   9
TORSDOF 10
ENDMDL
MODEL 3
REMARK VINA RESULT:    -4.378      1.735      4.085
REMARK INTER + INTRA:          -7.603
REMARK INTER:                  -6.306
REMARK INTRA:                  -1.297
REMARK UNBOUND:                -0.667
REMARK SMILES CCCCCCCCCCCC(=O)[O-]
REMARK SMILES IDX 7 1 8 2 9 3 10 4 11 5 12 6 13 7 14 8 6 9 5 10 4 11 3 12 2 13
REMARK SMILES IDX 1 14
REMARK H PARENT
REMARK Flexibility Score: inf
ROOT
ATOM      1  C   UNL     1       9.774 -12.102 -24.090  1.00  0.00     0.000 C 
ENDROOT
BRANCH   1   2
ATOM      2  C   UNL     1      10.419 -12.578 -22.772  1.00  0.00     0.000 C 
BRANCH   2   3
ATOM      3  C   UNL     1      11.212 -13.893 -22.871  1.00  0.00     0.000 C 
BRANCH   3   4
ATOM      4  C   UNL     1      10.665 -14.991 -21.948  1.00  0.00     0.006 C 
BRANCH   4   5
ATOM      5  C   UNL     1       9.797 -14.391 -20.838  1.00  0.00     0.053 C 
BRANCH   5   6
ATOM      6  C   UNL     1      10.585 -14.253 -19.573  1.00  0.00     0.041 C 
ATOM      7  O   UNL     1      10.876 -13.111 -19.130  1.00  0.00    -0.550 OA
ATOM      8  O   UNL     1      11.042 -15.384 -18.910  1.00  0.00    -0.550 OA
ENDBRANCH   5   6
ENDBRANCH   4   5
ENDBRANCH   3   4
ENDBRANCH   2   3
ENDBRANCH   1   2
BRANCH   1   9
ATOM      9  C   UNL     1       8.335 -12.592 -24.331  1.00  0.00     0.000 C 
BRANCH   9  10
ATOM     10  C   UNL     1       8.235 -13.613 -25.477  1.00  0.00    -0.000 C 
BRANCH  10  11
ATOM     11  C   UNL     1       8.386 -15.063 -24.991  1.00  0.00    -0.000 C 
BRANCH  11  12
ATOM     12  C   UNL     1       9.371 -15.875 -25.846  1.00  0.00    -0.000 C 
BRANCH  12  13
ATOM     13  C   UNL     1       9.980 -17.026 -25.035  1.00  0.00    -0.003 C 
ATOM     14  C   UNL     1      11.499 -17.058 -25.177  1.00  0.00     0.004 C 
ENDBRANCH  12  13
ENDBRANCH  11  12
ENDBRANCH  10  11
ENDBRANCH   9  10
ENDBRANCH   1   9
TORSDOF 10
ENDMDL
MODEL 4
REMARK VINA RESULT:    -4.359      2.368      5.278
REMARK INTER + INTRA:          -7.574
REMARK INTER:                  -6.414
REMARK INTRA:                  -1.161
REMARK UNBOUND:                -0.667
REMARK SMILES CCCCCCCCCCCC(=O)[O-]
REMARK SMILES IDX 7 1 8 2 9 3 10 4 11 5 12 6 13 7 14 8 6 9 5 10 4 11 3 12 2 13
REMARK SMILES IDX 1 14
REMARK H PARENT
REMARK Flexibility Score: inf
ROOT
ATOM      1  C   UNL     1       9.621 -15.192 -25.004  1.00  0.00     0.000 C 
ENDROOT
BRANCH   1   2
ATOM      2  C   UNL     1      10.419 -14.697 -23.779  1.00  0.00     0.000 C 
BRANCH   2   3
ATOM      3  C   UNL     1      10.062 -13.280 -23.297  1.00  0.00     0.000 C 
BRANCH   3   4
ATOM      4  C   UNL     1      10.111 -13.140 -21.768  1.00  0.00     0.006 C 
BRANCH   4   5
ATOM      5  C   UNL     1      10.452 -14.478 -21.106  1.00  0.00     0.053 C 
BRANCH   5   6
ATOM      6  C   UNL     1      10.737 -14.286 -19.650  1.00  0.00     0.041 C 
ATOM      7  O   UNL     1      10.737 -13.129 -19.153  1.00  0.00    -0.550 OA
ATOM      8  O   UNL     1      11.055 -15.377 -18.853  1.00  0.00    -0.550 OA
ENDBRANCH   5   6
ENDBRANCH   4   5
ENDBRANCH   3   4
ENDBRANCH   2   3
ENDBRANCH   1   2
BRANCH   1   9
ATOM      9  C   UNL     1       8.854 -16.511 -24.799  1.00  0.00     0.000 C 
BRANCH   9  10
ATOM     10  C   UNL     1       8.419 -16.729 -23.341  1.00  0.00    -0.000 C 
BRANCH  10  11
ATOM     11  C   UNL     1       8.983 -18.029 -22.744  1.00  0.00    -0.000 C 
BRANCH  11  12
ATOM     12  C   UNL     1      10.322 -17.817 -22.020  1.00  0.00    -0.000 C 
BRANCH  12  13
ATOM     13  C   UNL     1      11.500 -18.191 -22.928  1.00  0.00    -0.003 C 
ATOM     14  C   UNL     1      11.172 -19.408 -23.786  1.00  0.00     0.004 C 
ENDBRANCH  12  13
ENDBRANCH  11  12
ENDBRANCH  10  11
ENDBRANCH   9  10
ENDBRANCH   1   9
TORSDOF 10
ENDMDL
MODEL 5
REMARK VINA RESULT:    -4.281      2.860      5.436
REMARK INTER + INTRA:          -7.451
REMARK INTER:                  -6.202
REMARK INTRA:                  -1.248
REMARK UNBOUND:                -0.667
REMARK SMILES CCCCCCCCCCCC(=O)[O-]
REMARK SMILES IDX 7 1 8 2 9 3 10 4 11 5 12 6 13 7 14 8 6 9 5 10 4 11 3 12 2 13
REMARK SMILES IDX 1 14
REMARK H PARENT
REMARK Flexibility Score: inf
ROOT
ATOM      1  C   UNL     1       9.434 -15.411 -25.144  1.00  0.00     0.000 C 
ENDROOT
BRANCH   1   2
ATOM      2  C   UNL     1       9.528 -14.487 -23.911  1.00  0.00     0.000 C 
BRANCH   2   3
ATOM      3  C   UNL     1      10.893 -14.485 -23.200  1.00  0.00     0.000 C 
BRANCH   3   4
ATOM      4  C   UNL     1      10.886 -15.289 -21.893  1.00  0.00     0.006 C 
BRANCH   4   5
ATOM      5  C   UNL     1       9.771 -14.809 -20.959  1.00  0.00     0.053 C 
BRANCH   5   6
ATOM      6  C   UNL     1      10.229 -13.633 -20.156  1.00  0.00     0.041 C 
ATOM      7  O   UNL     1      10.822 -13.808 -19.059  1.00  0.00    -0.550 OA
ATOM      8  O   UNL     1       9.957 -12.344 -20.592  1.00  0.00    -0.550 OA
ENDBRANCH   5   6
ENDBRANCH   4   5
ENDBRANCH   3   4
ENDBRANCH   2   3
ENDBRANCH   1   2
BRANCH   1   9
ATOM      9  C   UNL     1      10.670 -16.292 -25.400  1.00  0.00     0.000 C 
BRANCH   9  10
ATOM     10  C   UNL     1      10.307 -17.754 -25.710  1.00  0.00    -0.000 C 
BRANCH  10  11
ATOM     11  C   UNL     1      11.253 -18.754 -25.025  1.00  0.00    -0.000 C 
BRANCH  11  12
ATOM     12  C   UNL     1      11.177 -18.688 -23.492  1.00  0.00    -0.000 C 
BRANCH  12  13
ATOM     13  C   UNL     1       9.880 -19.327 -22.979  1.00  0.00    -0.003 C 
ATOM     14  C   UNL     1       9.157 -18.402 -22.005  1.00  0.00     0.004 C 
ENDBRANCH  12  13
ENDBRANCH  11  12
ENDBRANCH  10  11
ENDBRANCH   9  10
ENDBRANCH   1   9
TORSDOF 10
ENDMDL
MODEL 6
REMARK VINA RESULT:    -4.269      3.484      4.873
REMARK INTER + INTRA:          -7.432
REMARK INTER:                  -6.175
REMARK INTRA:                  -1.257
REMARK UNBOUND:                -0.667
REMARK SMILES CCCCCCCCCCCC(=O)[O-]
REMARK SMILES IDX 7 1 8 2 9 3 10 4 11 5 12 6 13 7 14 8 6 9 5 10 4 11 3 12 2 13
REMARK SMILES IDX 1 14
REMARK H PARENT
REMARK Flexibility Score: inf
ROOT
ATOM      1  C   UNL     1       8.704 -15.007 -24.512  1.00  0.00     0.000 C 
ENDROOT
BRANCH   1   2
ATOM      2  C   UNL     1       8.494 -15.937 -23.299  1.00  0.00     0.000 C 
BRANCH   2   3
ATOM      3  C   UNL     1       8.863 -17.412 -23.535  1.00  0.00     0.000 C 
BRANCH   3   4
ATOM      4  C   UNL     1       9.616 -18.036 -22.352  1.00  0.00     0.006 C 
BRANCH   4   5
ATOM      5  C   UNL     1      11.086 -17.607 -22.351  1.00  0.00     0.053 C 
BRANCH   5   6
ATOM      6  C   UNL     1      11.793 -18.153 -23.551  1.00  0.00     0.041 C 
ATOM      7  O   UNL     1      12.179 -17.379 -24.466  1.00  0.00    -0.550 OA
ATOM      8  O   UNL     1      11.981 -19.522 -23.685  1.00  0.00    -0.550 OA
ENDBRANCH   5   6
ENDBRANCH   4   5
ENDBRANCH   3   4
ENDBRANCH   2   3
ENDBRANCH   1   2
BRANCH   1   9
ATOM      9  C   UNL     1       9.860 -14.000 -24.375  1.00  0.00     0.000 C 
BRANCH   9  10
ATOM     10  C   UNL     1      10.508 -14.020 -22.981  1.00  0.00    -0.000 C 
BRANCH  10  11
ATOM     11  C   UNL     1      10.191 -12.757 -22.164  1.00  0.00    -0.000 C 
BRANCH  11  12
ATOM     12  C   UNL     1      10.110 -13.033 -20.654  1.00  0.00    -0.000 C 
BRANCH  12  13
ATOM     13  C   UNL     1       9.813 -14.512 -20.382  1.00  0.00    -0.003 C 
ATOM     14  C   UNL     1      10.886 -15.137 -19.495  1.00  0.00     0.004 C 
ENDBRANCH  12  13
ENDBRANCH  11  12
ENDBRANCH  10  11
ENDBRANCH   9  10
ENDBRANCH   1   9
TORSDOF 10
ENDMDL
MODEL 7
REMARK VINA RESULT:    -4.253      2.727      5.905
REMARK INTER + INTRA:          -7.406
REMARK INTER:                  -6.385
REMARK INTRA:                  -1.021
REMARK UNBOUND:                -0.667
REMARK SMILES CCCCCCCCCCCC(=O)[O-]
REMARK SMILES IDX 7 1 8 2 9 3 10 4 11 5 12 6 13 7 14 8 6 9 5 10 4 11 3 12 2 13
REMARK SMILES IDX 1 14
REMARK H PARENT
REMARK Flexibility Score: inf
ROOT
ATOM      1  C   UNL     1      10.862 -15.512 -24.278  1.00  0.00     0.000 C 
ENDROOT
BRANCH   1   2
ATOM      2  C   UNL     1       9.592 -14.640 -24.374  1.00  0.00     0.000 C 
BRANCH   2   3
ATOM      3  C   UNL     1       9.118 -14.029 -23.043  1.00  0.00     0.000 C 
BRANCH   3   4
ATOM      4  C   UNL     1      10.209 -14.031 -21.963  1.00  0.00     0.006 C 
BRANCH   4   5
ATOM      5  C   UNL     1       9.690 -14.648 -20.661  1.00  0.00     0.053 C 
BRANCH   5   6
ATOM      6  C   UNL     1      10.643 -14.385 -19.538  1.00  0.00     0.041 C 
ATOM      7  O   UNL     1      11.228 -15.343 -18.966  1.00  0.00    -0.550 OA
ATOM      8  O   UNL     1      10.848 -13.088 -19.088  1.00  0.00    -0.550 OA
ENDBRANCH   5   6
ENDBRANCH   4   5
ENDBRANCH   3   4
ENDBRANCH   2   3
ENDBRANCH   1   2
BRANCH   1   9
ATOM      9  C   UNL     1      10.610 -17.021 -24.110  1.00  0.00     0.000 C 
BRANCH   9  10
ATOM     10  C   UNL     1      10.850 -17.511 -22.673  1.00  0.00    -0.000 C 
BRANCH  10  11
ATOM     11  C   UNL     1       9.597 -18.146 -22.049  1.00  0.00    -0.000 C 
BRANCH  11  12
ATOM     12  C   UNL     1       8.877 -19.106 -23.010  1.00  0.00    -0.000 C 
BRANCH  12  13
ATOM     13  C   UNL     1       9.412 -20.535 -22.860  1.00  0.00    -0.003 C 
ATOM     14  C   UNL     1      10.302 -20.918 -24.038  1.00  0.00     0.004 C 
ENDBRANCH  12  13
ENDBRANCH  11  12
ENDBRANCH  10  11
ENDBRANCH   9  10
ENDBRANCH   1   9
TORSDOF 10
ENDMDL
MODEL 8
REMARK VINA RESULT:    -4.126      2.091      3.836
REMARK INTER + INTRA:          -7.204
REMARK INTER:                  -6.920
REMARK INTRA:                  -0.284
REMARK UNBOUND:                -0.667
REMARK SMILES CCCCCCCCCCCC(=O)[O-]
REMARK SMILES IDX 7 1 8 2 9 3 10 4 11 5 12 6 13 7 14 8 6 9 5 10 4 11 3 12 2 13
REMARK SMILES IDX 1 14
REMARK H PARENT
REMARK Flexibility Score: inf
ROOT
ATOM      1  C   UNL     1       9.785 -10.370 -24.793  1.00  0.00     0.000 C 
ENDROOT
BRANCH   1   2
ATOM      2  C   UNL     1       9.079 -11.576 -24.138  1.00  0.00     0.000 C 
BRANCH   2   3
ATOM      3  C   UNL     1       9.977 -12.801 -23.889  1.00  0.00     0.000 C 
BRANCH   3   4
ATOM      4  C   UNL     1       9.563 -13.601 -22.646  1.00  0.00     0.006 C 
BRANCH   4   5
ATOM      5  C   UNL     1      10.132 -12.968 -21.373  1.00  0.00     0.053 C 
BRANCH   5   6
ATOM      6  C   UNL     1      10.068 -13.935 -20.232  1.00  0.00     0.041 C 
ATOM      7  O   UNL     1       9.319 -14.944 -20.299  1.00  0.00    -0.550 OA
ATOM      8  O   UNL     1      10.796 -13.694 -19.075  1.00  0.00    -0.550 OA
ENDBRANCH   5   6
ENDBRANCH   4   5
ENDBRANCH   3   4
ENDBRANCH   2   3
ENDBRANCH   1   2
BRANCH   1   9
ATOM      9  C   UNL     1       9.083  -9.013 -24.599  1.00  0.00     0.000 C 
BRANCH   9  10
ATOM     10  C   UNL     1       9.411  -8.007 -25.714  1.00  0.00    -0.000 C 
BRANCH  10  11
ATOM     11  C   UNL     1       8.430  -8.092 -26.894  1.00  0.00    -0.000 C 
BRANCH  11  12
ATOM     12  C   UNL     1       9.106  -7.828 -28.248  1.00  0.00    -0.000 C 
BRANCH  12  13
ATOM     13  C   UNL     1       8.266  -6.871 -29.103  1.00  0.00    -0.003 C 
ATOM     14  C   UNL     1       8.804  -6.787 -30.528  1.00  0.00     0.004 C 
ENDBRANCH  12  13
ENDBRANCH  11  12
ENDBRANCH  10  11
ENDBRANCH   9  10
ENDBRANCH   1   9
TORSDOF 10
ENDMDL
MODEL 9
REMARK VINA RESULT:    -4.055      2.809      5.909
REMARK INTER + INTRA:          -7.092
REMARK INTER:                  -5.969
REMARK INTRA:                  -1.124
REMARK UNBOUND:                -0.667
REMARK SMILES CCCCCCCCCCCC(=O)[O-]
REMARK SMILES IDX 7 1 8 2 9 3 10 4 11 5 12 6 13 7 14 8 6 9 5 10 4 11 3 12 2 13
REMARK SMILES IDX 1 14
REMARK H PARENT
REMARK Flexibility Score: inf
ROOT
ATOM      1  C   UNL     1      10.493 -13.646 -23.641  1.00  0.00     0.000 C 
ENDROOT
BRANCH   1   2
ATOM      2  C   UNL     1       9.048 -13.224 -23.301  1.00  0.00     0.000 C 
BRANCH   2   3
ATOM      3  C   UNL     1       8.124 -13.022 -24.515  1.00  0.00     0.000 C 
BRANCH   3   4
ATOM      4  C   UNL     1       8.622 -11.926 -25.468  1.00  0.00     0.006 C 
BRANCH   4   5
ATOM      5  C   UNL     1       8.239 -10.536 -24.952  1.00  0.00     0.053 C 
BRANCH   5   6
ATOM      6  C   UNL     1       9.462  -9.704 -24.727  1.00  0.00     0.041 C 
ATOM      7  O   UNL     1      10.210  -9.932 -23.740  1.00  0.00    -0.550 OA
ATOM      8  O   UNL     1       9.748  -8.644 -25.577  1.00  0.00    -0.550 OA
ENDBRANCH   5   6
ENDBRANCH   4   5
ENDBRANCH   3   4
ENDBRANCH   2   3
ENDBRANCH   1   2
BRANCH   1   9
ATOM      9  C   UNL     1      10.789 -15.150 -23.497  1.00  0.00     0.000 C 
BRANCH   9  10
ATOM     10  C   UNL     1       9.684 -15.907 -22.743  1.00  0.00    -0.000 C 
BRANCH  10  11
ATOM     11  C   UNL     1      10.188 -16.537 -21.434  1.00  0.00    -0.000 C 
BRANCH  11  12
ATOM     12  C   UNL     1      10.846 -15.512 -20.498  1.00  0.00    -0.000 C 
BRANCH  12  13
ATOM     13  C   UNL     1       9.797 -14.579 -19.882  1.00  0.00    -0.003 C 
ATOM     14  C   UNL     1      10.285 -13.133 -19.865  1.00  0.00     0.004 C 
ENDBRANCH  12  13
ENDBRANCH  11  12
ENDBRANCH  10  11
ENDBRANCH   9  10
ENDBRANCH   1   9
TORSDOF 10
ENDMDL
