MODEL 1
REMARK VINA RESULT:    -4.005      0.000      0.000
REMARK INTER + INTRA:          -6.248
REMARK INTER:                  -6.113
REMARK INTRA:                  -0.135
REMARK UNBOUND:                -0.135
REMARK SMILES CC1=CCC[C@H](C)C(=O)C[C@H](C(C)C)C(=O)C1
REMARK SMILES IDX 8 1 9 2 6 3 7 4 5 5 4 6 3 7 2 8 1 9 10 11 11 12 15 13 16 14
REMARK SMILES IDX 17 15 12 17 13 18 14 19
REMARK H PARENT
REMARK Flexibility Score: 70.00
ROOT
ATOM      1  C   UNL     1      12.136 -18.708  20.590  1.00  0.00     0.136 C 
ATOM      2  O   UNL     1      12.100 -19.924  20.469  1.00  0.00    -0.299 OA
ENDROOT
BRANCH   1   3
ATOM      3  C   UNL     1      12.120 -17.862  19.325  1.00  0.00     0.053 C 
ATOM      4  C   UNL     1      13.528 -17.822  18.722  1.00  0.00     0.016 C 
BRANCH   3   5
ATOM      5  C   UNL     1      11.113 -18.416  18.293  1.00  0.00     0.015 C 
BRANCH   5   6
ATOM      6  C   UNL     1       9.692 -17.850  18.451  1.00  0.00     0.028 C 
BRANCH   6   7
ATOM      7  C   UNL     1       8.788 -18.783  19.222  1.00  0.00    -0.028 C 
ATOM      8  C   UNL     1       8.365 -18.622  20.499  1.00  0.00    -0.070 CG0
ATOM      9  C   UNL     1       7.495 -19.706  21.087  1.00  0.00     0.039 C 
ATOM     10  G   UNL     1       8.682 -17.411  21.360  1.00  0.00     0.000 G0
ENDBRANCH   6   7
ENDBRANCH   5   6
ENDBRANCH   3   5
ENDBRANCH   1   3
BRANCH   1  11
ATOM     11  C   UNL     1      12.222 -18.157  22.002  1.00  0.00     0.087 C 
BRANCH  11  12
ATOM     12  C   UNL     1      11.126 -17.145  22.438  1.00  0.00     0.066 C 
BRANCH  12  13
ATOM     13  C   UNL     1       9.696 -17.683  22.438  1.00  0.00     0.140 C 
ATOM     14  O   UNL     1       9.380 -18.442  23.344  1.00  0.00    -0.299 OA
BRANCH  13  15
ATOM     15  C   UNL     1       8.660 -17.382  21.373  1.00  0.00     0.106 CG0
ATOM     16  G   UNL     1       8.369 -18.611  20.529  1.00  0.00     0.000 G0
ENDBRANCH  13  15
ENDBRANCH  12  13
BRANCH  12  17
ATOM     17  C   UNL     1      11.427 -16.488  23.824  1.00  0.00    -0.006 C 
ATOM     18  C   UNL     1      11.509 -14.955  23.749  1.00  0.00     0.008 C 
ATOM     19  C   UNL     1      12.684 -17.058  24.500  1.00  0.00     0.008 C 
ENDBRANCH  12  17
ENDBRANCH  11  12
ENDBRANCH   1  11
TORSDOF 1
ENDMDL
MODEL 2
REMARK VINA RESULT:    -3.940      2.169      4.834
REMARK INTER + INTRA:          -6.148
REMARK INTER:                  -6.072
REMARK INTRA:                  -0.076
REMARK UNBOUND:                -0.135
REMARK SMILES CC1=CCC[C@H](C)C(=O)C[C@H](C(C)C)C(=O)C1
REMARK SMILES IDX 8 1 9 2 6 3 7 4 5 5 4 6 3 7 2 8 1 9 10 11 11 12 15 13 16 14
REMARK SMILES IDX 17 15 12 17 13 18 14 19
REMARK H PARENT
REMARK Flexibility Score: 70.00
ROOT
ATOM      1  C   UNL     1      10.381 -21.215  21.005  1.00  0.00     0.136 C 
ATOM      2  O   UNL     1      11.486 -21.637  21.310  1.00  0.00    -0.299 OA
ENDROOT
BRANCH   1   3
ATOM      3  C   UNL     1       9.197 -21.616  21.874  1.00  0.00     0.053 C 
ATOM      4  C   UNL     1       9.565 -22.856  22.694  1.00  0.00     0.016 C 
BRANCH   3   5
ATOM      5  C   UNL     1       8.773 -20.463  22.809  1.00  0.00     0.015 C 
BRANCH   5   6
ATOM      6  C   UNL     1       9.933 -19.876  23.631  1.00  0.00     0.028 C 
BRANCH   6   7
ATOM      7  C   UNL     1       9.946 -18.366  23.603  1.00  0.00    -0.028 C 
ATOM      8  C   UNL     1      10.795 -17.581  22.898  1.00  0.00    -0.070 CG0
ATOM      9  C   UNL     1      10.654 -16.086  23.052  1.00  0.00     0.039 C 
ATOM     10  G   UNL     1      11.853 -18.106  21.942  1.00  0.00     0.000 G0
ENDBRANCH   6   7
ENDBRANCH   5   6
ENDBRANCH   3   5
ENDBRANCH   1   3
BRANCH   1  11
ATOM     11  C   UNL     1      10.292 -20.347  19.763  1.00  0.00     0.087 C 
BRANCH  11  12
ATOM     12  C   UNL     1      10.134 -18.815  19.976  1.00  0.00     0.066 C 
BRANCH  12  13
ATOM     13  C   UNL     1      11.374 -18.091  20.494  1.00  0.00     0.140 C 
ATOM     14  O   UNL     1      12.056 -17.486  19.678  1.00  0.00    -0.299 OA
BRANCH  13  15
ATOM     15  C   UNL     1      11.846 -18.109  21.935  1.00  0.00     0.106 CG0
ATOM     16  G   UNL     1      10.767 -17.591  22.871  1.00  0.00     0.000 G0
ENDBRANCH  13  15
ENDBRANCH  12  13
BRANCH  12  17
ATOM     17  C   UNL     1       9.606 -18.080  18.701  1.00  0.00    -0.006 C 
ATOM     18  C   UNL     1       8.115 -17.714  18.802  1.00  0.00     0.008 C 
ATOM     19  C   UNL     1       9.880 -18.854  17.402  1.00  0.00     0.008 C 
ENDBRANCH  12  17
ENDBRANCH  11  12
ENDBRANCH   1  11
TORSDOF 1
ENDMDL
MODEL 3
REMARK VINA RESULT:    -3.794      1.988      4.382
REMARK INTER + INTRA:          -5.925
REMARK INTER:                  -5.737
REMARK INTRA:                  -0.188
REMARK UNBOUND:                -0.135
REMARK SMILES CC1=CCC[C@H](C)C(=O)C[C@H](C(C)C)C(=O)C1
REMARK SMILES IDX 8 1 9 2 6 3 7 4 5 5 4 6 3 7 2 8 1 9 10 11 11 12 15 13 16 14
REMARK SMILES IDX 17 15 12 17 13 18 14 19
REMARK H PARENT
REMARK Flexibility Score: 70.00
ROOT
ATOM      1  C   UNL     1      12.528 -18.188  21.427  1.00  0.00     0.136 C 
ATOM      2  O   UNL     1      13.694 -18.489  21.224  1.00  0.00    -0.299 OA
ENDROOT
BRANCH   1   3
ATOM      3  C   UNL     1      12.081 -17.980  22.867  1.00  0.00     0.053 C 
ATOM      4  C   UNL     1      13.220 -17.335  23.663  1.00  0.00     0.016 C 
BRANCH   3   5
ATOM      5  C   UNL     1      10.814 -17.099  22.938  1.00  0.00     0.015 C 
BRANCH   5   6
ATOM      6  C   UNL     1       9.520 -17.897  23.168  1.00  0.00     0.028 C 
BRANCH   6   7
ATOM      7  C   UNL     1       9.792 -19.294  23.675  1.00  0.00    -0.028 C 
ATOM      8  C   UNL     1       9.743 -20.437  22.951  1.00  0.00    -0.070 CG0
ATOM      9  C   UNL     1      10.012 -21.734  23.675  1.00  0.00     0.039 C 
ATOM     10  G   UNL     1       9.468 -20.494  21.458  1.00  0.00     0.000 G0
ENDBRANCH   6   7
ENDBRANCH   5   6
ENDBRANCH   3   5
ENDBRANCH   1   3
BRANCH   1  11
ATOM     11  C   UNL     1      11.623 -18.078  20.212  1.00  0.00     0.087 C 
BRANCH  11  12
ATOM     12  C   UNL     1      11.085 -19.404  19.604  1.00  0.00     0.066 C 
BRANCH  12  13
ATOM     13  C   UNL     1      10.723 -20.492  20.614  1.00  0.00     0.140 C 
ATOM     14  O   UNL     1      11.493 -21.435  20.726  1.00  0.00    -0.299 OA
BRANCH  13  15
ATOM     15  C   UNL     1       9.457 -20.508  21.448  1.00  0.00     0.106 CG0
ATOM     16  G   UNL     1       9.777 -20.433  22.931  1.00  0.00     0.000 G0
ENDBRANCH  13  15
ENDBRANCH  12  13
BRANCH  12  17
ATOM     17  C   UNL     1       9.877 -19.179  18.638  1.00  0.00    -0.006 C 
ATOM     18  C   UNL     1      10.268 -19.319  17.157  1.00  0.00     0.008 C 
ATOM     19  C   UNL     1       9.155 -17.843  18.876  1.00  0.00     0.008 C 
ENDBRANCH  12  17
ENDBRANCH  11  12
ENDBRANCH   1  11
TORSDOF 1
ENDMDL
MODEL 4
REMARK VINA RESULT:    -3.633      2.384      2.881
REMARK INTER + INTRA:          -5.679
REMARK INTER:                  -5.508
REMARK INTRA:                  -0.172
REMARK UNBOUND:                -0.135
REMARK SMILES CC1=CCC[C@H](C)C(=O)C[C@H](C(C)C)C(=O)C1
REMARK SMILES IDX 8 1 9 2 6 3 7 4 5 5 4 6 3 7 2 8 1 9 10 11 11 12 15 13 16 14
REMARK SMILES IDX 17 15 12 17 13 18 14 19
REMARK H PARENT
REMARK Flexibility Score: 70.00
ROOT
ATOM      1  C   UNL     1      11.496 -17.782  20.393  1.00  0.00     0.136 C 
ATOM      2  O   UNL     1      12.164 -17.268  19.509  1.00  0.00    -0.299 OA
ENDROOT
BRANCH   1   3
ATOM      3  C   UNL     1      10.297 -18.628  19.984  1.00  0.00     0.053 C 
ATOM      4  C   UNL     1       9.536 -17.919  18.860  1.00  0.00     0.016 C 
BRANCH   3   5
ATOM      5  C   UNL     1      10.736 -20.036  19.528  1.00  0.00     0.015 C 
BRANCH   5   6
ATOM      6  C   UNL     1      11.427 -20.856  20.631  1.00  0.00     0.028 C 
BRANCH   6   7
ATOM      7  C   UNL     1      10.446 -21.377  21.655  1.00  0.00    -0.028 C 
ATOM      8  C   UNL     1      10.355 -20.995  22.951  1.00  0.00    -0.070 CG0
ATOM      9  C   UNL     1       9.322 -21.682  23.810  1.00  0.00     0.039 C 
ATOM     10  G   UNL     1      11.201 -19.902  23.582  1.00  0.00     0.000 G0
ENDBRANCH   6   7
ENDBRANCH   5   6
ENDBRANCH   3   5
ENDBRANCH   1   3
BRANCH   1  11
ATOM     11  C   UNL     1      11.913 -17.502  21.825  1.00  0.00     0.087 C 
BRANCH  11  12
ATOM     12  C   UNL     1      10.779 -17.341  22.877  1.00  0.00     0.066 C 
BRANCH  12  13
ATOM     13  C   UNL     1      10.464 -18.587  23.702  1.00  0.00     0.140 C 
ATOM     14  O   UNL     1       9.563 -18.505  24.525  1.00  0.00    -0.299 OA
BRANCH  13  15
ATOM     15  C   UNL     1      11.219 -19.898  23.607  1.00  0.00     0.106 CG0
ATOM     16  G   UNL     1      10.367 -20.976  22.960  1.00  0.00     0.000 G0
ENDBRANCH  13  15
ENDBRANCH  12  13
BRANCH  12  17
ATOM     17  C   UNL     1      11.018 -16.134  23.841  1.00  0.00    -0.006 C 
ATOM     18  C   UNL     1      10.023 -14.984  23.610  1.00  0.00     0.008 C 
ATOM     19  C   UNL     1      12.461 -15.608  23.803  1.00  0.00     0.008 C 
ENDBRANCH  12  17
ENDBRANCH  11  12
ENDBRANCH   1  11
TORSDOF 1
ENDMDL
MODEL 5
REMARK VINA RESULT:    -3.615      5.904      7.962
REMARK INTER + INTRA:          -5.652
REMARK INTER:                  -5.658
REMARK INTRA:                   0.006
REMARK UNBOUND:                -0.135
REMARK SMILES CC1=CCC[C@H](C)C(=O)C[C@H](C(C)C)C(=O)C1
REMARK SMILES IDX 8 1 9 2 6 3 7 4 5 5 4 6 3 7 2 8 1 9 10 11 11 12 15 13 16 14
REMARK SMILES IDX 17 15 12 17 13 18 14 19
REMARK H PARENT
REMARK Flexibility Score: 70.00
ROOT
ATOM      1  C   UNL     1       8.397 -22.566  24.395  1.00  0.00     0.136 C 
ATOM      2  O   UNL     1       9.499 -22.464  24.911  1.00  0.00    -0.299 OA
ENDROOT
BRANCH   1   3
ATOM      3  C   UNL     1       8.320 -23.072  22.961  1.00  0.00     0.053 C 
ATOM      4  C   UNL     1       9.107 -22.127  22.047  1.00  0.00     0.016 C 
BRANCH   3   5
ATOM      5  C   UNL     1       8.872 -24.509  22.845  1.00  0.00     0.015 C 
BRANCH   5   6
ATOM      6  C   UNL     1       7.792 -25.597  22.965  1.00  0.00     0.028 C 
BRANCH   6   7
ATOM      7  C   UNL     1       6.494 -25.189  22.309  1.00  0.00    -0.028 C 
ATOM      8  C   UNL     1       5.283 -25.095  22.909  1.00  0.00    -0.070 CG0
ATOM      9  C   UNL     1       4.107 -24.706  22.048  1.00  0.00     0.039 C 
ATOM     10  G   UNL     1       5.042 -25.324  24.392  1.00  0.00     0.000 G0
ENDBRANCH   6   7
ENDBRANCH   5   6
ENDBRANCH   3   5
ENDBRANCH   1   3
BRANCH   1  11
ATOM     11  C   UNL     1       7.201 -22.147  25.232  1.00  0.00     0.087 C 
BRANCH  11  12
ATOM     12  C   UNL     1       5.832 -22.802  24.894  1.00  0.00     0.066 C 
BRANCH  12  13
ATOM     13  C   UNL     1       5.700 -24.278  25.260  1.00  0.00     0.140 C 
ATOM     14  O   UNL     1       6.218 -24.649  26.305  1.00  0.00    -0.299 OA
BRANCH  13  15
ATOM     15  C   UNL     1       5.017 -25.324  24.400  1.00  0.00     0.106 CG0
ATOM     16  G   UNL     1       5.288 -25.082  22.924  1.00  0.00     0.000 G0
ENDBRANCH  13  15
ENDBRANCH  12  13
BRANCH  12  17
ATOM     17  C   UNL     1       4.622 -22.014  25.493  1.00  0.00    -0.006 C 
ATOM     18  C   UNL     1       3.927 -21.116  24.457  1.00  0.00     0.008 C 
ATOM     19  C   UNL     1       4.992 -21.201  26.743  1.00  0.00     0.008 C 
ENDBRANCH  12  17
ENDBRANCH  11  12
ENDBRANCH   1  11
TORSDOF 1
ENDMDL
MODEL 6
REMARK VINA RESULT:    -3.464      2.566      4.522
REMARK INTER + INTRA:          -5.422
REMARK INTER:                  -5.105
REMARK INTRA:                  -0.317
REMARK UNBOUND:                -0.135
REMARK SMILES CC1=CCC[C@H](C)C(=O)C[C@H](C(C)C)C(=O)C1
REMARK SMILES IDX 8 1 9 2 6 3 7 4 5 5 4 6 3 7 2 8 1 9 10 11 11 12 15 13 16 14
REMARK SMILES IDX 17 15 12 17 13 18 14 19
REMARK H PARENT
REMARK Flexibility Score: 70.00
ROOT
ATOM      1  C   UNL     1      10.141 -21.021  21.009  1.00  0.00     0.136 C 
ATOM      2  O   UNL     1      10.053 -21.252  19.812  1.00  0.00    -0.299 OA
ENDROOT
BRANCH   1   3
ATOM      3  C   UNL     1       9.185 -21.742  21.949  1.00  0.00     0.053 C 
ATOM      4  C   UNL     1       9.983 -22.681  22.860  1.00  0.00     0.016 C 
BRANCH   3   5
ATOM      5  C   UNL     1       8.371 -20.741  22.796  1.00  0.00     0.015 C 
BRANCH   5   6
ATOM      6  C   UNL     1       8.913 -20.555  24.224  1.00  0.00     0.028 C 
BRANCH   6   7
ATOM      7  C   UNL     1       8.729 -19.142  24.725  1.00  0.00    -0.028 C 
ATOM      8  C   UNL     1       9.648 -18.147  24.685  1.00  0.00    -0.070 CG0
ATOM      9  C   UNL     1       9.261 -16.817  25.284  1.00  0.00     0.039 C 
ATOM     10  G   UNL     1      11.022 -18.275  24.050  1.00  0.00     0.000 G0
ENDBRANCH   6   7
ENDBRANCH   5   6
ENDBRANCH   3   5
ENDBRANCH   1   3
BRANCH   1  11
ATOM     11  C   UNL     1      11.184 -20.006  21.441  1.00  0.00     0.087 C 
BRANCH  11  12
ATOM     12  C   UNL     1      10.780 -18.505  21.389  1.00  0.00     0.066 C 
BRANCH  12  13
ATOM     13  C   UNL     1      11.065 -17.702  22.656  1.00  0.00     0.140 C 
ATOM     14  O   UNL     1      11.375 -16.527  22.521  1.00  0.00    -0.299 OA
BRANCH  13  15
ATOM     15  C   UNL     1      11.040 -18.270  24.062  1.00  0.00     0.106 CG0
ATOM     16  G   UNL     1       9.655 -18.152  24.676  1.00  0.00     0.000 G0
ENDBRANCH  13  15
ENDBRANCH  12  13
BRANCH  12  17
ATOM     17  C   UNL     1      11.391 -17.758  20.160  1.00  0.00    -0.006 C 
ATOM     18  C   UNL     1      10.474 -17.796  18.926  1.00  0.00     0.008 C 
ATOM     19  C   UNL     1      12.800 -18.252  19.794  1.00  0.00     0.008 C 
ENDBRANCH  12  17
ENDBRANCH  11  12
ENDBRANCH   1  11
TORSDOF 1
ENDMDL
MODEL 7
REMARK VINA RESULT:    -3.415     11.738     12.895
REMARK INTER + INTRA:          -5.347
REMARK INTER:                  -5.449
REMARK INTRA:                   0.102
REMARK UNBOUND:                -0.135
REMARK SMILES CC1=CCC[C@H](C)C(=O)C[C@H](C(C)C)C(=O)C1
REMARK SMILES IDX 8 1 9 2 6 3 7 4 5 5 4 6 3 7 2 8 1 9 10 11 11 12 15 13 16 14
REMARK SMILES IDX 17 15 12 17 13 18 14 19
REMARK H PARENT
REMARK Flexibility Score: 70.00
ROOT
ATOM      1  C   UNL     1      19.584 -10.397  25.265  1.00  0.00     0.136 C 
ATOM      2  O   UNL     1      20.025  -9.426  24.668  1.00  0.00    -0.299 OA
ENDROOT
BRANCH   1   3
ATOM      3  C   UNL     1      20.576 -11.329  25.947  1.00  0.00     0.053 C 
ATOM      4  C   UNL     1      21.365 -10.548  27.002  1.00  0.00     0.016 C 
BRANCH   3   5
ATOM      5  C   UNL     1      19.858 -12.531  26.597  1.00  0.00     0.015 C 
BRANCH   5   6
ATOM      6  C   UNL     1      19.697 -12.403  28.122  1.00  0.00     0.028 C 
BRANCH   6   7
ATOM      7  C   UNL     1      18.250 -12.267  28.534  1.00  0.00    -0.028 C 
ATOM      8  C   UNL     1      17.604 -11.115  28.836  1.00  0.00    -0.070 CG0
ATOM      9  C   UNL     1      16.161 -11.218  29.266  1.00  0.00     0.039 C 
ATOM     10  G   UNL     1      18.227  -9.733  28.739  1.00  0.00     0.000 G0
ENDBRANCH   6   7
ENDBRANCH   5   6
ENDBRANCH   3   5
ENDBRANCH   1   3
BRANCH   1  11
ATOM     11  C   UNL     1      18.079 -10.594  25.246  1.00  0.00     0.087 C 
BRANCH  11  12
ATOM     12  C   UNL     1      17.237  -9.741  26.236  1.00  0.00     0.066 C 
BRANCH  12  13
ATOM     13  C   UNL     1      18.019  -9.097  27.379  1.00  0.00     0.140 C 
ATOM     14  O   UNL     1      18.538  -8.010  27.165  1.00  0.00    -0.299 OA
BRANCH  13  15
ATOM     15  C   UNL     1      18.236  -9.730  28.740  1.00  0.00     0.106 CG0
ATOM     16  G   UNL     1      17.603 -11.109  28.811  1.00  0.00     0.000 G0
ENDBRANCH  13  15
ENDBRANCH  12  13
BRANCH  12  17
ATOM     17  C   UNL     1      16.387  -8.644  25.515  1.00  0.00    -0.006 C 
ATOM     18  C   UNL     1      14.874  -8.875  25.663  1.00  0.00     0.008 C 
ATOM     19  C   UNL     1      16.759  -8.469  24.034  1.00  0.00     0.008 C 
ENDBRANCH  12  17
ENDBRANCH  11  12
ENDBRANCH   1  11
TORSDOF 1
ENDMDL
MODEL 8
REMARK VINA RESULT:    -3.389      2.208      4.529
REMARK INTER + INTRA:          -5.307
REMARK INTER:                  -5.150
REMARK INTRA:                  -0.157
REMARK UNBOUND:                -0.135
REMARK SMILES CC1=CCC[C@H](C)C(=O)C[C@H](C(C)C)C(=O)C1
REMARK SMILES IDX 8 1 9 2 6 3 7 4 5 5 4 6 3 7 2 8 1 9 10 11 11 12 15 13 16 14
REMARK SMILES IDX 17 15 12 17 13 18 14 19
REMARK H PARENT
REMARK Flexibility Score: 70.00
ROOT
ATOM      1  C   UNL     1       8.982 -18.521  19.937  1.00  0.00     0.136 C 
ATOM      2  O   UNL     1       8.522 -17.504  19.438  1.00  0.00    -0.299 OA
ENDROOT
BRANCH   1   3
ATOM      3  C   UNL     1      10.182 -19.170  19.262  1.00  0.00     0.053 C 
ATOM      4  C   UNL     1       9.892 -19.343  17.768  1.00  0.00     0.016 C 
BRANCH   3   5
ATOM      5  C   UNL     1      11.461 -18.329  19.464  1.00  0.00     0.015 C 
BRANCH   5   6
ATOM      6  C   UNL     1      12.506 -19.001  20.370  1.00  0.00     0.028 C 
BRANCH   6   7
ATOM      7  C   UNL     1      12.811 -18.178  21.599  1.00  0.00    -0.028 C 
ATOM      8  C   UNL     1      12.357 -18.405  22.854  1.00  0.00    -0.070 CG0
ATOM      9  C   UNL     1      12.757 -17.425  23.929  1.00  0.00     0.039 C 
ATOM     10  G   UNL     1      11.501 -19.596  23.252  1.00  0.00     0.000 G0
ENDBRANCH   6   7
ENDBRANCH   5   6
ENDBRANCH   3   5
ENDBRANCH   1   3
BRANCH   1  11
ATOM     11  C   UNL     1       8.288 -19.057  21.176  1.00  0.00     0.087 C 
BRANCH  11  12
ATOM     12  C   UNL     1       9.107 -20.007  22.095  1.00  0.00     0.066 C 
BRANCH  12  13
ATOM     13  C   UNL     1      10.017 -19.318  23.109  1.00  0.00     0.140 C 
ATOM     14  O   UNL     1       9.521 -18.447  23.812  1.00  0.00    -0.299 OA
BRANCH  13  15
ATOM     15  C   UNL     1      11.498 -19.601  23.273  1.00  0.00     0.106 CG0
ATOM     16  G   UNL     1      12.334 -18.405  22.851  1.00  0.00     0.000 G0
ENDBRANCH  13  15
ENDBRANCH  12  13
BRANCH  12  17
ATOM     17  C   UNL     1       8.210 -21.051  22.836  1.00  0.00    -0.006 C 
ATOM     18  C   UNL     1       8.948 -22.368  23.125  1.00  0.00     0.008 C 
ATOM     19  C   UNL     1       6.884 -21.329  22.112  1.00  0.00     0.008 C 
ENDBRANCH  12  17
ENDBRANCH  11  12
ENDBRANCH   1  11
TORSDOF 1
ENDMDL
MODEL 9
REMARK VINA RESULT:    -3.380      5.576      7.864
REMARK INTER + INTRA:          -5.293
REMARK INTER:                  -5.414
REMARK INTRA:                   0.122
REMARK UNBOUND:                -0.135
REMARK SMILES CC1=CCC[C@H](C)C(=O)C[C@H](C(C)C)C(=O)C1
REMARK SMILES IDX 8 1 9 2 6 3 7 4 5 5 4 6 3 7 2 8 1 9 10 11 11 12 15 13 16 14
REMARK SMILES IDX 17 15 12 17 13 18 14 19
REMARK H PARENT
REMARK Flexibility Score: 70.00
ROOT
ATOM      1  C   UNL     1       8.299 -24.146  22.851  1.00  0.00     0.136 C 
ATOM      2  O   UNL     1       8.478 -25.330  22.607  1.00  0.00    -0.299 OA
ENDROOT
BRANCH   1   3
ATOM      3  C   UNL     1       9.517 -23.234  22.909  1.00  0.00     0.053 C 
ATOM      4  C   UNL     1       9.298 -22.035  21.980  1.00  0.00     0.016 C 
BRANCH   3   5
ATOM      5  C   UNL     1       9.787 -22.752  24.350  1.00  0.00     0.015 C 
BRANCH   5   6
ATOM      6  C   UNL     1       9.553 -21.245  24.551  1.00  0.00     0.028 C 
BRANCH   6   7
ATOM      7  C   UNL     1       8.931 -20.937  25.892  1.00  0.00    -0.028 C 
ATOM      8  C   UNL     1       7.616 -21.015  26.207  1.00  0.00    -0.070 CG0
ATOM      9  C   UNL     1       7.208 -20.619  27.604  1.00  0.00     0.039 C 
ATOM     10  G   UNL     1       6.536 -21.505  25.256  1.00  0.00     0.000 G0
ENDBRANCH   6   7
ENDBRANCH   5   6
ENDBRANCH   3   5
ENDBRANCH   1   3
BRANCH   1  11
ATOM     11  C   UNL     1       6.869 -23.701  23.103  1.00  0.00     0.087 C 
BRANCH  11  12
ATOM     12  C   UNL     1       6.235 -24.089  24.468  1.00  0.00     0.066 C 
BRANCH  12  13
ATOM     13  C   UNL     1       6.205 -22.980  25.518  1.00  0.00     0.140 C 
ATOM     14  O   UNL     1       5.850 -23.283  26.649  1.00  0.00    -0.299 OA
BRANCH  13  15
ATOM     15  C   UNL     1       6.537 -21.525  25.247  1.00  0.00     0.106 CG0
ATOM     16  G   UNL     1       7.599 -21.017  26.208  1.00  0.00     0.000 G0
ENDBRANCH  13  15
ENDBRANCH  12  13
BRANCH  12  17
ATOM     17  C   UNL     1       4.801 -24.692  24.319  1.00  0.00    -0.006 C 
ATOM     18  C   UNL     1       4.771 -25.932  23.410  1.00  0.00     0.008 C 
ATOM     19  C   UNL     1       3.760 -23.662  23.852  1.00  0.00     0.008 C 
ENDBRANCH  12  17
ENDBRANCH  11  12
ENDBRANCH   1  11
TORSDOF 1
ENDMDL
