MODEL 1
REMARK VINA RESULT:    -1.752      0.000      0.000
REMARK INTER + INTRA:          -1.752
REMARK INTER:                  -1.752
REMARK INTRA:                   0.000
REMARK UNBOUND:                 0.000
REMARK SMILES CC(=O)[O-]
REMARK SMILES IDX 1 1 2 2 3 3 4 4
REMARK H PARENT
REMARK Flexibility Score: inf
ROOT
ATOM      1  C   UNL     1      17.215  49.391  33.667  1.00  0.00     0.063 C 
ATOM      2  C   UNL     1      18.021  48.191  33.305  1.00  0.00     0.038 C 
ATOM      3  O   UNL     1      18.789  48.222  32.308  1.00  0.00    -0.550 OA
ATOM      4  O   UNL     1      17.968  47.052  34.098  1.00  0.00    -0.550 OA
ENDROOT
TORSDOF 0
ENDMDL
MODEL 2
REMARK VINA RESULT:    -1.719      1.640      2.174
REMARK INTER + INTRA:          -1.719
REMARK INTER:                  -1.719
REMARK INTRA:                   0.000
REMARK UNBOUND:                 0.000
REMARK SMILES CC(=O)[O-]
REMARK SMILES IDX 1 1 2 2 3 3 4 4
REMARK H PARENT
REMARK Flexibility Score: inf
ROOT
ATOM      1  C   UNL     1      19.058  46.878  34.280  1.00  0.00     0.063 C 
ATOM      2  C   UNL     1      18.494  48.137  33.717  1.00  0.00     0.038 C 
ATOM      3  O   UNL     1      17.525  48.092  32.914  1.00  0.00    -0.550 OA
ATOM      4  O   UNL     1      19.000  49.367  34.117  1.00  0.00    -0.550 OA
ENDROOT
TORSDOF 0
ENDMDL
MODEL 3
REMARK VINA RESULT:    -1.618     24.021     24.317
REMARK INTER + INTRA:          -1.618
REMARK INTER:                  -1.618
REMARK INTRA:                   0.000
REMARK UNBOUND:                 0.000
REMARK SMILES CC(=O)[O-]
REMARK SMILES IDX 1 1 2 2 3 3 4 4
REMARK H PARENT
REMARK Flexibility Score: inf
ROOT
ATOM      1  C   UNL     1       0.535  31.710  26.239  1.00  0.00     0.063 C 
ATOM      2  C   UNL     1       0.302  33.011  26.928  1.00  0.00     0.038 C 
ATOM      3  O   UNL     1       1.247  33.831  27.069  1.00  0.00    -0.550 OA
ATOM      4  O   UNL     1      -0.971  33.346  27.370  1.00  0.00    -0.550 OA
ENDROOT
TORSDOF 0
ENDMDL
MODEL 4
REMARK VINA RESULT:    -1.607     24.338     24.661
REMARK INTER + INTRA:          -1.607
REMARK INTER:                  -1.607
REMARK INTRA:                   0.000
REMARK UNBOUND:                 0.000
REMARK SMILES CC(=O)[O-]
REMARK SMILES IDX 1 1 2 2 3 3 4 4
REMARK H PARENT
REMARK Flexibility Score: inf
ROOT
ATOM      1  C   UNL     1       1.051  33.533  26.940  1.00  0.00     0.063 C 
ATOM      2  C   UNL     1       0.399  32.194  26.998  1.00  0.00     0.038 C 
ATOM      3  O   UNL     1      -0.476  31.954  27.872  1.00  0.00    -0.550 OA
ATOM      4  O   UNL     1       0.715  31.224  26.055  1.00  0.00    -0.550 OA
ENDROOT
TORSDOF 0
ENDMDL
MODEL 5
REMARK VINA RESULT:    -1.569     24.063     24.323
REMARK INTER + INTRA:          -1.569
REMARK INTER:                  -1.569
REMARK INTRA:                   0.000
REMARK UNBOUND:                 0.000
REMARK SMILES CC(=O)[O-]
REMARK SMILES IDX 1 1 2 2 3 3 4 4
REMARK H PARENT
REMARK Flexibility Score: inf
ROOT
ATOM      1  C   UNL     1      -1.125  33.149  27.370  1.00  0.00     0.063 C 
ATOM      2  C   UNL     1       0.287  32.927  26.947  1.00  0.00     0.038 C 
ATOM      3  O   UNL     1       1.134  33.852  27.060  1.00  0.00    -0.550 OA
ATOM      4  O   UNL     1       0.685  31.683  26.475  1.00  0.00    -0.550 OA
ENDROOT
TORSDOF 0
ENDMDL
MODEL 6
REMARK VINA RESULT:    -1.500      2.112      2.333
REMARK INTER + INTRA:          -1.500
REMARK INTER:                  -1.500
REMARK INTRA:                   0.000
REMARK UNBOUND:                 0.000
REMARK SMILES CC(=O)[O-]
REMARK SMILES IDX 1 1 2 2 3 3 4 4
REMARK H PARENT
REMARK Flexibility Score: inf
ROOT
ATOM      1  C   UNL     1      17.993  48.159  33.103  1.00  0.00     0.063 C 
ATOM      2  C   UNL     1      17.786  49.434  33.847  1.00  0.00     0.038 C 
ATOM      3  O   UNL     1      18.775  50.125  34.206  1.00  0.00    -0.550 OA
ATOM      4  O   UNL     1      16.498  49.891  34.100  1.00  0.00    -0.550 OA
ENDROOT
TORSDOF 0
ENDMDL
MODEL 7
REMARK VINA RESULT:    -0.334     12.024     12.529
REMARK INTER + INTRA:          -0.334
REMARK INTER:                  -0.334
REMARK INTRA:                   0.000
REMARK UNBOUND:                 0.000
REMARK SMILES CC(=O)[O-]
REMARK SMILES IDX 1 1 2 2 3 3 4 4
REMARK H PARENT
REMARK Flexibility Score: inf
ROOT
ATOM      1  C   UNL     1      18.927  35.269  31.343  1.00  0.00     0.063 C 
ATOM      2  C   UNL     1      18.238  36.222  30.427  1.00  0.00     0.038 C 
ATOM      3  O   UNL     1      18.599  37.427  30.379  1.00  0.00    -0.550 OA
ATOM      4  O   UNL     1      17.231  35.770  29.583  1.00  0.00    -0.550 OA
ENDROOT
TORSDOF 0
ENDMDL
