MODEL 1
REMARK VINA RESULT:    -3.993      0.000      0.000
REMARK INTER + INTRA:          -5.324
REMARK INTER:                  -5.160
REMARK INTRA:                  -0.165
REMARK UNBOUND:                -0.165
REMARK SMILES CCCCCCC(C)=O
REMARK SMILES IDX 4 1 3 2 2 3 1 4 5 5 6 6 7 7 9 8 8 9
REMARK H PARENT
REMARK Flexibility Score: inf
ROOT
ATOM      1  C   UNL     1      25.263  55.909  -7.896  1.00  0.00     0.000 C 
ENDROOT
BRANCH   1   2
ATOM      2  C   UNL     1      24.139  54.930  -8.268  1.00  0.00    -0.000 C 
BRANCH   2   3
ATOM      3  C   UNL     1      22.827  55.229  -7.528  1.00  0.00    -0.003 C 
ATOM      4  C   UNL     1      22.808  54.669  -6.107  1.00  0.00     0.004 C 
ENDBRANCH   2   3
ENDBRANCH   1   2
BRANCH   1   5
ATOM      5  C   UNL     1      25.663  56.769  -9.100  1.00  0.00     0.008 C 
BRANCH   5   6
ATOM      6  C   UNL     1      25.481  58.264  -8.793  1.00  0.00     0.075 C 
BRANCH   6   7
ATOM      7  C   UNL     1      26.542  59.159  -9.397  1.00  0.00     0.129 C 
ATOM      8  O   UNL     1      26.708  60.268  -8.911  1.00  0.00    -0.300 OA
ATOM      9  C   UNL     1      27.395  58.747 -10.564  1.00  0.00     0.087 C 
ENDBRANCH   6   7
ENDBRANCH   5   6
ENDBRANCH   1   5
TORSDOF 5
ENDMDL
MODEL 2
REMARK VINA RESULT:    -3.960      1.535      2.524
REMARK INTER + INTRA:          -5.282
REMARK INTER:                  -5.101
REMARK INTRA:                  -0.180
REMARK UNBOUND:                -0.165
REMARK SMILES CCCCCCC(C)=O
REMARK SMILES IDX 4 1 3 2 2 3 1 4 5 5 6 6 7 7 9 8 8 9
REMARK H PARENT
REMARK Flexibility Score: inf
ROOT
ATOM      1  C   UNL     1      25.137  58.111  -8.745  1.00  0.00     0.000 C 
ENDROOT
BRANCH   1   2
ATOM      2  C   UNL     1      25.617  56.685  -9.055  1.00  0.00    -0.000 C 
BRANCH   2   3
ATOM      3  C   UNL     1      25.299  55.696  -7.923  1.00  0.00    -0.003 C 
ATOM      4  C   UNL     1      23.867  55.166  -7.986  1.00  0.00     0.004 C 
ENDBRANCH   2   3
ENDBRANCH   1   2
BRANCH   1   5
ATOM      5  C   UNL     1      26.194  59.146  -9.147  1.00  0.00     0.008 C 
BRANCH   5   6
ATOM      6  C   UNL     1      27.127  58.585 -10.233  1.00  0.00     0.075 C 
BRANCH   6   7
ATOM      7  C   UNL     1      28.258  59.511 -10.624  1.00  0.00     0.129 C 
ATOM      8  O   UNL     1      29.167  59.060 -11.303  1.00  0.00    -0.300 OA
ATOM      9  C   UNL     1      28.311  60.957 -10.215  1.00  0.00     0.087 C 
ENDBRANCH   6   7
ENDBRANCH   5   6
ENDBRANCH   1   5
TORSDOF 5
ENDMDL
MODEL 3
REMARK VINA RESULT:    -3.959      2.028      5.519
REMARK INTER + INTRA:          -5.281
REMARK INTER:                  -5.132
REMARK INTRA:                  -0.149
REMARK UNBOUND:                -0.165
REMARK SMILES CCCCCCC(C)=O
REMARK SMILES IDX 4 1 3 2 2 3 1 4 5 5 6 6 7 7 9 8 8 9
REMARK H PARENT
REMARK Flexibility Score: inf
ROOT
ATOM      1  C   UNL     1      25.937  59.178  -9.125  1.00  0.00     0.000 C 
ENDROOT
BRANCH   1   2
ATOM      2  C   UNL     1      27.296  59.683  -9.634  1.00  0.00    -0.000 C 
BRANCH   2   3
ATOM      3  C   UNL     1      27.819  58.869 -10.827  1.00  0.00    -0.003 C 
ATOM      4  C   UNL     1      29.205  59.318 -11.288  1.00  0.00     0.004 C 
ENDBRANCH   2   3
ENDBRANCH   1   2
BRANCH   1   5
ATOM      5  C   UNL     1      25.918  57.648  -9.038  1.00  0.00     0.008 C 
BRANCH   5   6
ATOM      6  C   UNL     1      24.535  57.139  -8.600  1.00  0.00     0.075 C 
BRANCH   6   7
ATOM      7  C   UNL     1      24.550  55.779  -7.937  1.00  0.00     0.129 C 
ATOM      8  O   UNL     1      25.611  55.177  -7.875  1.00  0.00    -0.300 OA
ATOM      9  C   UNL     1      23.321  55.138  -7.353  1.00  0.00     0.087 C 
ENDBRANCH   6   7
ENDBRANCH   5   6
ENDBRANCH   1   5
TORSDOF 5
ENDMDL
MODEL 4
REMARK VINA RESULT:    -3.867     16.413     18.205
REMARK INTER + INTRA:          -5.161
REMARK INTER:                  -4.699
REMARK INTRA:                  -0.462
REMARK UNBOUND:                -0.165
REMARK SMILES CCCCCCC(C)=O
REMARK SMILES IDX 4 1 3 2 2 3 1 4 5 5 6 6 7 7 9 8 8 9
REMARK H PARENT
REMARK Flexibility Score: inf
ROOT
ATOM      1  C   UNL     1      16.473  42.809   1.762  1.00  0.00     0.000 C 
ENDROOT
BRANCH   1   2
ATOM      2  C   UNL     1      16.270  44.295   2.093  1.00  0.00    -0.000 C 
BRANCH   2   3
ATOM      3  C   UNL     1      15.357  45.006   1.083  1.00  0.00    -0.003 C 
ATOM      4  C   UNL     1      16.064  45.320  -0.235  1.00  0.00     0.004 C 
ENDBRANCH   2   3
ENDBRANCH   1   2
BRANCH   1   5
ATOM      5  C   UNL     1      17.936  42.397   1.958  1.00  0.00     0.008 C 
BRANCH   5   6
ATOM      6  C   UNL     1      18.795  43.601   2.376  1.00  0.00     0.075 C 
BRANCH   6   7
ATOM      7  C   UNL     1      19.880  43.968   1.387  1.00  0.00     0.129 C 
ATOM      8  O   UNL     1      20.982  43.457   1.520  1.00  0.00    -0.300 OA
ATOM      9  C   UNL     1      19.664  44.930   0.251  1.00  0.00     0.087 C 
ENDBRANCH   6   7
ENDBRANCH   5   6
ENDBRANCH   1   5
TORSDOF 5
ENDMDL
MODEL 5
REMARK VINA RESULT:    -3.801     16.734     18.443
REMARK INTER + INTRA:          -5.077
REMARK INTER:                  -4.583
REMARK INTRA:                  -0.494
REMARK UNBOUND:                -0.165
REMARK SMILES CCCCCCC(C)=O
REMARK SMILES IDX 4 1 3 2 2 3 1 4 5 5 6 6 7 7 9 8 8 9
REMARK H PARENT
REMARK Flexibility Score: inf
ROOT
ATOM      1  C   UNL     1      17.986  42.578   1.870  1.00  0.00     0.000 C 
ENDROOT
BRANCH   1   2
ATOM      2  C   UNL     1      18.695  43.775   2.522  1.00  0.00    -0.000 C 
BRANCH   2   3
ATOM      3  C   UNL     1      19.935  44.226   1.736  1.00  0.00    -0.003 C 
ATOM      4  C   UNL     1      19.596  44.734   0.335  1.00  0.00     0.004 C 
ENDBRANCH   2   3
ENDBRANCH   1   2
BRANCH   1   5
ATOM      5  C   UNL     1      16.504  42.885   1.624  1.00  0.00     0.008 C 
BRANCH   5   6
ATOM      6  C   UNL     1      16.150  44.303   2.099  1.00  0.00     0.075 C 
BRANCH   6   7
ATOM      7  C   UNL     1      15.485  45.167   1.049  1.00  0.00     0.129 C 
ATOM      8  O   UNL     1      14.473  45.776   1.357  1.00  0.00    -0.300 OA
ATOM      9  C   UNL     1      16.014  45.306  -0.352  1.00  0.00     0.087 C 
ENDBRANCH   6   7
ENDBRANCH   5   6
ENDBRANCH   1   5
TORSDOF 5
ENDMDL
MODEL 6
REMARK VINA RESULT:    -3.618     16.226     17.525
REMARK INTER + INTRA:          -4.840
REMARK INTER:                  -4.633
REMARK INTRA:                  -0.207
REMARK UNBOUND:                -0.165
REMARK SMILES CCCCCCC(C)=O
REMARK SMILES IDX 4 1 3 2 2 3 1 4 5 5 6 6 7 7 9 8 8 9
REMARK H PARENT
REMARK Flexibility Score: inf
ROOT
ATOM      1  C   UNL     1      17.259  44.585  -0.077  1.00  0.00     0.000 C 
ENDROOT
BRANCH   1   2
ATOM      2  C   UNL     1      16.034  45.501  -0.212  1.00  0.00    -0.000 C 
BRANCH   2   3
ATOM      3  C   UNL     1      15.096  45.416   1.002  1.00  0.00    -0.003 C 
ATOM      4  C   UNL     1      15.704  44.631   2.164  1.00  0.00     0.004 C 
ENDBRANCH   2   3
ENDBRANCH   1   2
BRANCH   1   5
ATOM      5  C   UNL     1      18.560  45.393  -0.153  1.00  0.00     0.008 C 
BRANCH   5   6
ATOM      6  C   UNL     1      19.774  44.514   0.190  1.00  0.00     0.075 C 
BRANCH   6   7
ATOM      7  C   UNL     1      19.860  44.108   1.645  1.00  0.00     0.129 C 
ATOM      8  O   UNL     1      20.538  44.791   2.397  1.00  0.00    -0.300 OA
ATOM      9  C   UNL     1      19.151  42.906   2.204  1.00  0.00     0.087 C 
ENDBRANCH   6   7
ENDBRANCH   5   6
ENDBRANCH   1   5
TORSDOF 5
ENDMDL
MODEL 7
REMARK VINA RESULT:    -3.617     15.271     16.927
REMARK INTER + INTRA:          -4.839
REMARK INTER:                  -4.681
REMARK INTRA:                  -0.158
REMARK UNBOUND:                -0.165
REMARK SMILES CCCCCCC(C)=O
REMARK SMILES IDX 4 1 3 2 2 3 1 4 5 5 6 6 7 7 9 8 8 9
REMARK H PARENT
REMARK Flexibility Score: inf
ROOT
ATOM      1  C   UNL     1      32.834  46.164   1.988  1.00  0.00     0.000 C 
ENDROOT
BRANCH   1   2
ATOM      2  C   UNL     1      32.723  46.565   3.467  1.00  0.00    -0.000 C 
BRANCH   2   3
ATOM      3  C   UNL     1      32.150  47.978   3.654  1.00  0.00    -0.003 C 
ATOM      4  C   UNL     1      33.043  48.868   4.517  1.00  0.00     0.004 C 
ENDBRANCH   2   3
ENDBRANCH   1   2
BRANCH   1   5
ATOM      5  C   UNL     1      31.940  44.957   1.678  1.00  0.00     0.008 C 
BRANCH   5   6
ATOM      6  C   UNL     1      30.480  45.392   1.478  1.00  0.00     0.075 C 
BRANCH   6   7
ATOM      7  C   UNL     1      29.849  44.892   0.197  1.00  0.00     0.129 C 
ATOM      8  O   UNL     1      30.466  44.078  -0.473  1.00  0.00    -0.300 OA
ATOM      9  C   UNL     1      28.501  45.351  -0.287  1.00  0.00     0.087 C 
ENDBRANCH   6   7
ENDBRANCH   5   6
ENDBRANCH   1   5
TORSDOF 5
ENDMDL
MODEL 8
REMARK VINA RESULT:    -3.592      5.018      7.807
REMARK INTER + INTRA:          -4.806
REMARK INTER:                  -4.546
REMARK INTRA:                  -0.261
REMARK UNBOUND:                -0.165
REMARK SMILES CCCCCCC(C)=O
REMARK SMILES IDX 4 1 3 2 2 3 1 4 5 5 6 6 7 7 9 8 8 9
REMARK H PARENT
REMARK Flexibility Score: inf
ROOT
ATOM      1  C   UNL     1      30.055  57.338 -13.164  1.00  0.00     0.000 C 
ENDROOT
BRANCH   1   2
ATOM      2  C   UNL     1      31.353  56.549 -13.393  1.00  0.00    -0.000 C 
BRANCH   2   3
ATOM      3  C   UNL     1      32.485  57.424 -13.952  1.00  0.00    -0.003 C 
ATOM      4  C   UNL     1      33.866  56.987 -13.465  1.00  0.00     0.004 C 
ENDBRANCH   2   3
ENDBRANCH   1   2
BRANCH   1   5
ATOM      5  C   UNL     1      30.357  58.802 -12.819  1.00  0.00     0.008 C 
BRANCH   5   6
ATOM      6  C   UNL     1      30.565  58.978 -11.306  1.00  0.00     0.075 C 
BRANCH   6   7
ATOM      7  C   UNL     1      29.436  59.698 -10.600  1.00  0.00     0.129 C 
ATOM      8  O   UNL     1      29.705  60.695  -9.947  1.00  0.00    -0.300 OA
ATOM      9  C   UNL     1      28.005  59.243 -10.666  1.00  0.00     0.087 C 
ENDBRANCH   6   7
ENDBRANCH   5   6
ENDBRANCH   1   5
TORSDOF 5
ENDMDL
