MODEL 1
REMARK VINA RESULT:    -4.734      0.000      0.000
REMARK INTER + INTRA:          -7.529
REMARK INTER:                  -7.225
REMARK INTRA:                  -0.304
REMARK UNBOUND:                -0.304
REMARK SMILES CC1=CCC[C@H](C)C(=O)C[C@H](C(C)C)C(=O)C1
REMARK SMILES IDX 8 1 9 2 6 3 7 4 5 5 4 6 3 7 2 8 1 9 10 11 11 12 15 13 16 14
REMARK SMILES IDX 17 15 12 17 13 18 14 19
REMARK H PARENT
REMARK Flexibility Score: 70.00
ROOT
ATOM      1  C   UNL     1     102.722 132.250  50.862  1.00  0.00     0.136 C 
ATOM      2  O   UNL     1     102.792 131.412  49.976  1.00  0.00    -0.299 OA
ENDROOT
BRANCH   1   3
ATOM      3  C   UNL     1     101.821 132.013  52.056  1.00  0.00     0.053 C 
ATOM      4  C   UNL     1     100.390 131.762  51.573  1.00  0.00     0.016 C 
BRANCH   3   5
ATOM      5  C   UNL     1     102.304 130.832  52.928  1.00  0.00     0.015 C 
BRANCH   5   6
ATOM      6  C   UNL     1     103.476 131.198  53.850  1.00  0.00     0.028 C 
BRANCH   6   7
ATOM      7  C   UNL     1     103.118 132.349  54.760  1.00  0.00    -0.028 C 
ATOM      8  C   UNL     1     103.587 133.614  54.672  1.00  0.00    -0.070 CG0
ATOM      9  C   UNL     1     103.079 134.623  55.671  1.00  0.00     0.039 C 
ATOM     10  G   UNL     1     104.574 134.081  53.616  1.00  0.00     0.000 G0
ENDBRANCH   6   7
ENDBRANCH   5   6
ENDBRANCH   3   5
ENDBRANCH   1   3
BRANCH   1  11
ATOM     11  C   UNL     1     103.446 133.564  50.700  1.00  0.00     0.087 C 
BRANCH  11  12
ATOM     12  C   UNL     1     102.900 134.702  51.600  1.00  0.00     0.066 C 
BRANCH  12  13
ATOM     13  C   UNL     1     103.949 135.071  52.650  1.00  0.00     0.140 C 
ATOM     14  O   UNL     1     104.321 136.234  52.690  1.00  0.00    -0.299 OA
BRANCH  13  15
ATOM     15  C   UNL     1     104.584 134.094  53.618  1.00  0.00     0.106 CG0
ATOM     16  G   UNL     1     103.593 133.629  54.671  1.00  0.00     0.000 G0
ENDBRANCH  13  15
ENDBRANCH  12  13
BRANCH  12  17
ATOM     17  C   UNL     1     102.261 135.903  50.823  1.00  0.00    -0.006 C 
ATOM     18  C   UNL     1     103.218 136.475  49.758  1.00  0.00     0.008 C 
ATOM     19  C   UNL     1     100.962 135.477  50.110  1.00  0.00     0.008 C 
ENDBRANCH  12  17
ENDBRANCH  11  12
ENDBRANCH   1  11
TORSDOF 1
ENDMDL
MODEL 2
REMARK VINA RESULT:    -4.674      2.039      2.746
REMARK INTER + INTRA:          -7.437
REMARK INTER:                  -7.094
REMARK INTRA:                  -0.343
REMARK UNBOUND:                -0.304
REMARK SMILES CC1=CCC[C@H](C)C(=O)C[C@H](C(C)C)C(=O)C1
REMARK SMILES IDX 8 1 9 2 6 3 7 4 5 5 4 6 3 7 2 8 1 9 10 11 11 12 15 13 16 14
REMARK SMILES IDX 17 15 12 17 13 18 14 19
REMARK H PARENT
REMARK Flexibility Score: 70.00
ROOT
ATOM      1  C   UNL     1     103.192 132.550  51.112  1.00  0.00     0.136 C 
ATOM      2  O   UNL     1     103.370 132.968  49.978  1.00  0.00    -0.299 OA
ENDROOT
BRANCH   1   3
ATOM      3  C   UNL     1     102.433 131.257  51.329  1.00  0.00     0.053 C 
ATOM      4  C   UNL     1     102.911 130.596  52.626  1.00  0.00     0.016 C 
BRANCH   3   5
ATOM      5  C   UNL     1     100.904 131.476  51.374  1.00  0.00     0.015 C 
BRANCH   5   6
ATOM      6  C   UNL     1     100.310 131.325  52.781  1.00  0.00     0.028 C 
BRANCH   6   7
ATOM      7  C   UNL     1      99.552 132.564  53.192  1.00  0.00    -0.028 C 
ATOM      8  C   UNL     1     100.000 133.540  54.015  1.00  0.00    -0.070 CG0
ATOM      9  C   UNL     1      99.087 134.712  54.276  1.00  0.00     0.039 C 
ATOM     10  G   UNL     1     101.371 133.534  54.669  1.00  0.00     0.000 G0
ENDBRANCH   6   7
ENDBRANCH   5   6
ENDBRANCH   3   5
ENDBRANCH   1   3
BRANCH   1  11
ATOM     11  C   UNL     1     103.628 133.387  52.290  1.00  0.00     0.087 C 
BRANCH  11  12
ATOM     12  C   UNL     1     102.707 134.600  52.578  1.00  0.00     0.066 C 
BRANCH  12  13
ATOM     13  C   UNL     1     102.276 134.577  54.045  1.00  0.00     0.140 C 
ATOM     14  O   UNL     1     102.721 135.449  54.777  1.00  0.00    -0.299 OA
BRANCH  13  15
ATOM     15  C   UNL     1     101.367 133.534  54.663  1.00  0.00     0.106 CG0
ATOM     16  G   UNL     1      99.993 133.539  54.016  1.00  0.00     0.000 G0
ENDBRANCH  13  15
ENDBRANCH  12  13
BRANCH  12  17
ATOM     17  C   UNL     1     103.246 135.972  52.046  1.00  0.00    -0.006 C 
ATOM     18  C   UNL     1     104.786 136.030  52.058  1.00  0.00     0.008 C 
ATOM     19  C   UNL     1     102.774 136.234  50.603  1.00  0.00     0.008 C 
ENDBRANCH  12  17
ENDBRANCH  11  12
ENDBRANCH   1  11
TORSDOF 1
ENDMDL
MODEL 3
REMARK VINA RESULT:    -4.504      2.260      4.618
REMARK INTER + INTRA:          -7.178
REMARK INTER:                  -6.704
REMARK INTRA:                  -0.475
REMARK UNBOUND:                -0.304
REMARK SMILES CC1=CCC[C@H](C)C(=O)C[C@H](C(C)C)C(=O)C1
REMARK SMILES IDX 8 1 9 2 6 3 7 4 5 5 4 6 3 7 2 8 1 9 10 11 11 12 15 13 16 14
REMARK SMILES IDX 17 15 12 17 13 18 14 19
REMARK H PARENT
REMARK Flexibility Score: 70.00
ROOT
ATOM      1  C   UNL     1     103.436 133.277  50.965  1.00  0.00     0.136 C 
ATOM      2  O   UNL     1     104.069 133.077  49.939  1.00  0.00    -0.299 OA
ENDROOT
BRANCH   1   3
ATOM      3  C   UNL     1     103.759 134.479  51.828  1.00  0.00     0.053 C 
ATOM      4  C   UNL     1     105.264 134.514  52.111  1.00  0.00     0.016 C 
BRANCH   3   5
ATOM      5  C   UNL     1     103.308 135.806  51.177  1.00  0.00     0.015 C 
BRANCH   5   6
ATOM      6  C   UNL     1     101.808 136.084  51.344  1.00  0.00     0.028 C 
BRANCH   6   7
ATOM      7  C   UNL     1     101.407 136.066  52.800  1.00  0.00    -0.028 C 
ATOM      8  C   UNL     1     100.567 135.182  53.387  1.00  0.00    -0.070 CG0
ATOM      9  C   UNL     1     100.319 135.326  54.868  1.00  0.00     0.039 C 
ATOM     10  G   UNL     1      99.881 134.046  52.649  1.00  0.00     0.000 G0
ENDBRANCH   6   7
ENDBRANCH   5   6
ENDBRANCH   3   5
ENDBRANCH   1   3
BRANCH   1  11
ATOM     11  C   UNL     1     102.418 132.260  51.419  1.00  0.00     0.087 C 
BRANCH  11  12
ATOM     12  C   UNL     1     101.999 132.406  52.904  1.00  0.00     0.066 C 
BRANCH  12  13
ATOM     13  C   UNL     1     100.500 132.694  52.986  1.00  0.00     0.140 C 
ATOM     14  O   UNL     1      99.766 131.772  53.311  1.00  0.00    -0.299 OA
BRANCH  13  15
ATOM     15  C   UNL     1      99.856 134.026  52.661  1.00  0.00     0.106 CG0
ATOM     16  G   UNL     1     100.554 135.171  53.375  1.00  0.00     0.000 G0
ENDBRANCH  13  15
ENDBRANCH  12  13
BRANCH  12  17
ATOM     17  C   UNL     1     102.529 131.273  53.849  1.00  0.00    -0.006 C 
ATOM     18  C   UNL     1     103.250 130.160  53.064  1.00  0.00     0.008 C 
ATOM     19  C   UNL     1     103.517 131.834  54.890  1.00  0.00     0.008 C 
ENDBRANCH  12  17
ENDBRANCH  11  12
ENDBRANCH   1  11
TORSDOF 1
ENDMDL
MODEL 4
REMARK VINA RESULT:    -4.436      2.192      4.097
REMARK INTER + INTRA:          -7.074
REMARK INTER:                  -6.670
REMARK INTRA:                  -0.404
REMARK UNBOUND:                -0.304
REMARK SMILES CC1=CCC[C@H](C)C(=O)C[C@H](C(C)C)C(=O)C1
REMARK SMILES IDX 8 1 9 2 6 3 7 4 5 5 4 6 3 7 2 8 1 9 10 11 11 12 15 13 16 14
REMARK SMILES IDX 17 15 12 17 13 18 14 19
REMARK H PARENT
REMARK Flexibility Score: 70.00
ROOT
ATOM      1  C   UNL     1     102.746 133.598  50.666  1.00  0.00     0.136 C 
ATOM      2  O   UNL     1     102.780 133.215  49.506  1.00  0.00    -0.299 OA
ENDROOT
BRANCH   1   3
ATOM      3  C   UNL     1     101.914 134.808  51.037  1.00  0.00     0.053 C 
ATOM      4  C   UNL     1     102.604 136.077  50.529  1.00  0.00     0.016 C 
BRANCH   3   5
ATOM      5  C   UNL     1     100.476 134.723  50.477  1.00  0.00     0.015 C 
BRANCH   5   6
ATOM      6  C   UNL     1      99.633 133.621  51.134  1.00  0.00     0.028 C 
BRANCH   6   7
ATOM      7  C   UNL     1      99.522 133.832  52.625  1.00  0.00    -0.028 C 
ATOM      8  C   UNL     1     100.044 133.036  53.586  1.00  0.00    -0.070 CG0
ATOM      9  C   UNL     1      99.839 133.443  55.024  1.00  0.00     0.039 C 
ATOM     10  G   UNL     1     100.839 131.773  53.302  1.00  0.00     0.000 G0
ENDBRANCH   6   7
ENDBRANCH   5   6
ENDBRANCH   3   5
ENDBRANCH   1   3
BRANCH   1  11
ATOM     11  C   UNL     1     103.626 132.931  51.694  1.00  0.00     0.087 C 
BRANCH  11  12
ATOM     12  C   UNL     1     103.167 133.151  53.158  1.00  0.00     0.066 C 
BRANCH  12  13
ATOM     13  C   UNL     1     102.325 131.959  53.614  1.00  0.00     0.140 C 
ATOM     14  O   UNL     1     102.890 131.078  54.245  1.00  0.00    -0.299 OA
BRANCH  13  15
ATOM     15  C   UNL     1     100.852 131.774  53.312  1.00  0.00     0.106 CG0
ATOM     16  G   UNL     1     100.065 133.047  53.573  1.00  0.00     0.000 G0
ENDBRANCH  13  15
ENDBRANCH  12  13
BRANCH  12  17
ATOM     17  C   UNL     1     104.301 133.601  54.140  1.00  0.00    -0.006 C 
ATOM     18  C   UNL     1     105.615 133.915  53.397  1.00  0.00     0.008 C 
ATOM     19  C   UNL     1     103.890 134.861  54.927  1.00  0.00     0.008 C 
ENDBRANCH  12  17
ENDBRANCH  11  12
ENDBRANCH   1  11
TORSDOF 1
ENDMDL
MODEL 5
REMARK VINA RESULT:    -4.382      2.095      3.862
REMARK INTER + INTRA:          -6.991
REMARK INTER:                  -6.680
REMARK INTRA:                  -0.311
REMARK UNBOUND:                -0.304
REMARK SMILES CC1=CCC[C@H](C)C(=O)C[C@H](C(C)C)C(=O)C1
REMARK SMILES IDX 8 1 9 2 6 3 7 4 5 5 4 6 3 7 2 8 1 9 10 11 11 12 15 13 16 14
REMARK SMILES IDX 17 15 12 17 13 18 14 19
REMARK H PARENT
REMARK Flexibility Score: 70.00
ROOT
ATOM      1  C   UNL     1     103.153 132.821  52.307  1.00  0.00     0.136 C 
ATOM      2  O   UNL     1     102.167 132.163  52.605  1.00  0.00    -0.299 OA
ENDROOT
BRANCH   1   3
ATOM      3  C   UNL     1     103.251 133.453  50.934  1.00  0.00     0.053 C 
ATOM      4  C   UNL     1     103.247 132.356  49.866  1.00  0.00     0.016 C 
BRANCH   3   5
ATOM      5  C   UNL     1     102.108 134.459  50.670  1.00  0.00     0.015 C 
BRANCH   5   6
ATOM      6  C   UNL     1     102.384 135.856  51.244  1.00  0.00     0.028 C 
BRANCH   6   7
ATOM      7  C   UNL     1     101.727 136.035  52.591  1.00  0.00    -0.028 C 
ATOM      8  C   UNL     1     102.354 136.316  53.756  1.00  0.00    -0.070 CG0
ATOM      9  C   UNL     1     101.503 136.481  54.991  1.00  0.00     0.039 C 
ATOM     10  G   UNL     1     103.857 136.497  53.888  1.00  0.00     0.000 G0
ENDBRANCH   6   7
ENDBRANCH   5   6
ENDBRANCH   3   5
ENDBRANCH   1   3
BRANCH   1  11
ATOM     11  C   UNL     1     104.313 132.897  53.269  1.00  0.00     0.087 C 
BRANCH  11  12
ATOM     12  C   UNL     1     105.110 134.224  53.193  1.00  0.00     0.066 C 
BRANCH  12  13
ATOM     13  C   UNL     1     104.570 135.205  54.235  1.00  0.00     0.140 C 
ATOM     14  O   UNL     1     104.689 134.899  55.412  1.00  0.00    -0.299 OA
BRANCH  13  15
ATOM     15  C   UNL     1     103.868 136.509  53.913  1.00  0.00     0.106 CG0
ATOM     16  G   UNL     1     102.372 136.310  53.745  1.00  0.00     0.000 G0
ENDBRANCH  13  15
ENDBRANCH  12  13
BRANCH  12  17
ATOM     17  C   UNL     1     106.667 134.053  53.161  1.00  0.00    -0.006 C 
ATOM     18  C   UNL     1     107.398 135.360  53.522  1.00  0.00     0.008 C 
ATOM     19  C   UNL     1     107.128 132.964  54.150  1.00  0.00     0.008 C 
ENDBRANCH  12  17
ENDBRANCH  11  12
ENDBRANCH   1  11
TORSDOF 1
ENDMDL
MODEL 6
REMARK VINA RESULT:    -4.315      1.905      4.016
REMARK INTER + INTRA:          -6.890
REMARK INTER:                  -6.422
REMARK INTRA:                  -0.468
REMARK UNBOUND:                -0.304
REMARK SMILES CC1=CCC[C@H](C)C(=O)C[C@H](C(C)C)C(=O)C1
REMARK SMILES IDX 8 1 9 2 6 3 7 4 5 5 4 6 3 7 2 8 1 9 10 11 11 12 15 13 16 14
REMARK SMILES IDX 17 15 12 17 13 18 14 19
REMARK H PARENT
REMARK Flexibility Score: 70.00
ROOT
ATOM      1  C   UNL     1     102.194 132.429  53.220  1.00  0.00     0.136 C 
ATOM      2  O   UNL     1     101.000 132.259  53.417  1.00  0.00    -0.299 OA
ENDROOT
BRANCH   1   3
ATOM      3  C   UNL     1     102.955 131.471  52.326  1.00  0.00     0.053 C 
ATOM      4  C   UNL     1     102.880 130.058  52.913  1.00  0.00     0.016 C 
BRANCH   3   5
ATOM      5  C   UNL     1     102.421 131.475  50.876  1.00  0.00     0.015 C 
BRANCH   5   6
ATOM      6  C   UNL     1     102.989 132.619  50.024  1.00  0.00     0.028 C 
BRANCH   6   7
ATOM      7  C   UNL     1     102.075 133.821  50.043  1.00  0.00    -0.028 C 
ATOM      8  C   UNL     1     102.403 135.069  50.449  1.00  0.00    -0.070 CG0
ATOM      9  C   UNL     1     101.342 136.138  50.362  1.00  0.00     0.039 C 
ATOM     10  G   UNL     1     103.778 135.459  50.963  1.00  0.00     0.000 G0
ENDBRANCH   6   7
ENDBRANCH   5   6
ENDBRANCH   3   5
ENDBRANCH   1   3
BRANCH   1  11
ATOM     11  C   UNL     1     102.921 133.523  53.963  1.00  0.00     0.087 C 
BRANCH  11  12
ATOM     12  C   UNL     1     104.179 134.055  53.231  1.00  0.00     0.066 C 
BRANCH  12  13
ATOM     13  C   UNL     1     103.829 135.342  52.482  1.00  0.00     0.140 C 
ATOM     14  O   UNL     1     103.556 136.327  53.152  1.00  0.00    -0.299 OA
BRANCH  13  15
ATOM     15  C   UNL     1     103.764 135.474  50.975  1.00  0.00     0.106 CG0
ATOM     16  G   UNL     1     102.397 135.087  50.439  1.00  0.00     0.000 G0
ENDBRANCH  13  15
ENDBRANCH  12  13
BRANCH  12  17
ATOM     17  C   UNL     1     105.475 134.108  54.110  1.00  0.00    -0.006 C 
ATOM     18  C   UNL     1     105.837 132.725  54.687  1.00  0.00     0.008 C 
ATOM     19  C   UNL     1     106.682 134.610  53.293  1.00  0.00     0.008 C 
ENDBRANCH  12  17
ENDBRANCH  11  12
ENDBRANCH   1  11
TORSDOF 1
ENDMDL
MODEL 7
REMARK VINA RESULT:    -4.192      1.843      4.139
REMARK INTER + INTRA:          -6.702
REMARK INTER:                  -6.124
REMARK INTRA:                  -0.579
REMARK UNBOUND:                -0.304
REMARK SMILES CC1=CCC[C@H](C)C(=O)C[C@H](C(C)C)C(=O)C1
REMARK SMILES IDX 8 1 9 2 6 3 7 4 5 5 4 6 3 7 2 8 1 9 10 11 11 12 15 13 16 14
REMARK SMILES IDX 17 15 12 17 13 18 14 19
REMARK H PARENT
REMARK Flexibility Score: 70.00
ROOT
ATOM      1  C   UNL     1     102.279 135.281  52.830  1.00  0.00     0.136 C 
ATOM      2  O   UNL     1     101.550 136.239  53.040  1.00  0.00    -0.299 OA
ENDROOT
BRANCH   1   3
ATOM      3  C   UNL     1     103.362 135.374  51.775  1.00  0.00     0.053 C 
ATOM      4  C   UNL     1     102.778 135.988  50.499  1.00  0.00     0.016 C 
BRANCH   3   5
ATOM      5  C   UNL     1     104.578 136.198  52.256  1.00  0.00     0.015 C 
BRANCH   5   6
ATOM      6  C   UNL     1     104.969 135.909  53.712  1.00  0.00     0.028 C 
BRANCH   6   7
ATOM      7  C   UNL     1     106.022 134.829  53.791  1.00  0.00    -0.028 C 
ATOM      8  C   UNL     1     105.888 133.625  54.393  1.00  0.00    -0.070 CG0
ATOM      9  C   UNL     1     107.060 132.677  54.335  1.00  0.00     0.039 C 
ATOM     10  G   UNL     1     104.624 133.166  55.101  1.00  0.00     0.000 G0
ENDBRANCH   6   7
ENDBRANCH   5   6
ENDBRANCH   3   5
ENDBRANCH   1   3
BRANCH   1  11
ATOM     11  C   UNL     1     102.016 133.977  53.543  1.00  0.00     0.087 C 
BRANCH  11  12
ATOM     12  C   UNL     1     102.898 132.801  53.053  1.00  0.00     0.066 C 
BRANCH  12  13
ATOM     13  C   UNL     1     103.751 132.285  54.213  1.00  0.00     0.140 C 
ATOM     14  O   UNL     1     103.710 131.087  54.454  1.00  0.00    -0.299 OA
BRANCH  13  15
ATOM     15  C   UNL     1     104.617 133.154  55.103  1.00  0.00     0.106 CG0
ATOM     16  G   UNL     1     105.875 133.609  54.385  1.00  0.00     0.000 G0
ENDBRANCH  13  15
ENDBRANCH  12  13
BRANCH  12  17
ATOM     17  C   UNL     1     102.135 131.708  52.230  1.00  0.00    -0.006 C 
ATOM     18  C   UNL     1     100.607 131.903  52.292  1.00  0.00     0.008 C 
ATOM     19  C   UNL     1     102.555 131.734  50.747  1.00  0.00     0.008 C 
ENDBRANCH  12  17
ENDBRANCH  11  12
ENDBRANCH   1  11
TORSDOF 1
ENDMDL
MODEL 8
REMARK VINA RESULT:    -4.132      2.236      3.467
REMARK INTER + INTRA:          -6.610
REMARK INTER:                  -6.078
REMARK INTRA:                  -0.532
REMARK UNBOUND:                -0.304
REMARK SMILES CC1=CCC[C@H](C)C(=O)C[C@H](C(C)C)C(=O)C1
REMARK SMILES IDX 8 1 9 2 6 3 7 4 5 5 4 6 3 7 2 8 1 9 10 11 11 12 15 13 16 14
REMARK SMILES IDX 17 15 12 17 13 18 14 19
REMARK H PARENT
REMARK Flexibility Score: 70.00
ROOT
ATOM      1  C   UNL     1      99.945 134.174  53.616  1.00  0.00     0.136 C 
ATOM      2  O   UNL     1      98.806 134.098  54.050  1.00  0.00    -0.299 OA
ENDROOT
BRANCH   1   3
ATOM      3  C   UNL     1     100.940 135.113  54.266  1.00  0.00     0.053 C 
ATOM      4  C   UNL     1     100.273 136.469  54.514  1.00  0.00     0.016 C 
BRANCH   3   5
ATOM      5  C   UNL     1     101.502 134.546  55.589  1.00  0.00     0.015 C 
BRANCH   5   6
ATOM      6  C   UNL     1     102.456 133.361  55.384  1.00  0.00     0.028 C 
BRANCH   6   7
ATOM      7  C   UNL     1     103.708 133.785  54.654  1.00  0.00    -0.028 C 
ATOM      8  C   UNL     1     104.096 133.372  53.426  1.00  0.00    -0.070 CG0
ATOM      9  C   UNL     1     105.376 133.941  52.866  1.00  0.00     0.039 C 
ATOM     10  G   UNL     1     103.310 132.390  52.574  1.00  0.00     0.000 G0
ENDBRANCH   6   7
ENDBRANCH   5   6
ENDBRANCH   3   5
ENDBRANCH   1   3
BRANCH   1  11
ATOM     11  C   UNL     1     100.315 133.415  52.365  1.00  0.00     0.087 C 
BRANCH  11  12
ATOM     12  C   UNL     1     101.452 134.071  51.541  1.00  0.00     0.066 C 
BRANCH  12  13
ATOM     13  C   UNL     1     102.617 133.089  51.407  1.00  0.00     0.140 C 
ATOM     14  O   UNL     1     103.004 132.826  50.278  1.00  0.00    -0.299 OA
BRANCH  13  15
ATOM     15  C   UNL     1     103.302 132.396  52.567  1.00  0.00     0.106 CG0
ATOM     16  G   UNL     1     104.085 133.379  53.420  1.00  0.00     0.000 G0
ENDBRANCH  13  15
ENDBRANCH  12  13
BRANCH  12  17
ATOM     17  C   UNL     1     100.985 134.761  50.215  1.00  0.00    -0.006 C 
ATOM     18  C   UNL     1      99.457 134.673  50.026  1.00  0.00     0.008 C 
ATOM     19  C   UNL     1     101.379 136.251  50.194  1.00  0.00     0.008 C 
ENDBRANCH  12  17
ENDBRANCH  11  12
ENDBRANCH   1  11
TORSDOF 1
ENDMDL
