MODEL 1
REMARK VINA RESULT:    -3.916      0.000      0.000
REMARK INTER + INTRA:          -5.231
REMARK INTER:                  -5.061
REMARK INTRA:                  -0.170
REMARK UNBOUND:                -0.170
REMARK SMILES CCCCCCC(=O)[O-]
REMARK SMILES IDX 5 1 6 2 7 3 8 4 9 5 4 6 3 7 2 8 1 9
REMARK H PARENT
REMARK Flexibility Score: inf
ROOT
ATOM      1  C   UNL     1      13.931 -30.910  21.692  1.00  0.00     0.006 C 
ENDROOT
BRANCH   1   2
ATOM      2  C   UNL     1      13.691 -32.119  20.783  1.00  0.00     0.053 C 
BRANCH   2   3
ATOM      3  C   UNL     1      14.583 -33.254  21.175  1.00  0.00     0.041 C 
ATOM      4  O   UNL     1      14.983 -33.364  22.364  1.00  0.00    -0.550 OA
ATOM      5  O   UNL     1      14.935 -34.218  20.238  1.00  0.00    -0.550 OA
ENDBRANCH   2   3
ENDBRANCH   1   2
BRANCH   1   6
ATOM      6  C   UNL     1      12.738 -30.681  22.628  1.00  0.00     0.000 C 
BRANCH   6   7
ATOM      7  C   UNL     1      13.170 -29.923  23.893  1.00  0.00    -0.000 C 
BRANCH   7   8
ATOM      8  C   UNL     1      12.543 -28.524  23.986  1.00  0.00    -0.003 C 
ATOM      9  C   UNL     1      11.233 -28.409  23.207  1.00  0.00     0.004 C 
ENDBRANCH   7   8
ENDBRANCH   6   7
ENDBRANCH   1   6
TORSDOF 5
ENDMDL
MODEL 2
REMARK VINA RESULT:    -3.830      0.864      1.466
REMARK INTER + INTRA:          -5.120
REMARK INTER:                  -4.821
REMARK INTRA:                  -0.299
REMARK UNBOUND:                -0.170
REMARK SMILES CCCCCCC(=O)[O-]
REMARK SMILES IDX 5 1 6 2 7 3 8 4 9 5 4 6 3 7 2 8 1 9
REMARK H PARENT
REMARK Flexibility Score: inf
ROOT
ATOM      1  C   UNL     1      14.839 -30.143  21.761  1.00  0.00     0.006 C 
ENDROOT
BRANCH   1   2
ATOM      2  C   UNL     1      13.765 -31.188  21.443  1.00  0.00     0.053 C 
BRANCH   2   3
ATOM      3  C   UNL     1      14.375 -32.550  21.337  1.00  0.00     0.041 C 
ATOM      4  O   UNL     1      14.186 -33.251  20.308  1.00  0.00    -0.550 OA
ATOM      5  O   UNL     1      15.194 -33.026  22.354  1.00  0.00    -0.550 OA
ENDBRANCH   2   3
ENDBRANCH   1   2
BRANCH   1   6
ATOM      6  C   UNL     1      14.610 -29.522  23.144  1.00  0.00     0.000 C 
BRANCH   6   7
ATOM      7  C   UNL     1      13.223 -29.893  23.691  1.00  0.00    -0.000 C 
BRANCH   7   8
ATOM      8  C   UNL     1      12.409 -28.662  24.120  1.00  0.00    -0.003 C 
ATOM      9  C   UNL     1      11.259 -28.350  23.163  1.00  0.00     0.004 C 
ENDBRANCH   7   8
ENDBRANCH   6   7
ENDBRANCH   1   6
TORSDOF 5
ENDMDL
MODEL 3
REMARK VINA RESULT:    -3.729      1.549      1.981
REMARK INTER + INTRA:          -4.989
REMARK INTER:                  -4.711
REMARK INTRA:                  -0.277
REMARK UNBOUND:                -0.170
REMARK SMILES CCCCCCC(=O)[O-]
REMARK SMILES IDX 5 1 6 2 7 3 8 4 9 5 4 6 3 7 2 8 1 9
REMARK H PARENT
REMARK Flexibility Score: inf
ROOT
ATOM      1  C   UNL     1      13.667 -31.137  21.378  1.00  0.00     0.006 C 
ENDROOT
BRANCH   1   2
ATOM      2  C   UNL     1      14.963 -30.356  21.613  1.00  0.00     0.053 C 
BRANCH   2   3
ATOM      3  C   UNL     1      16.113 -31.295  21.802  1.00  0.00     0.041 C 
ATOM      4  O   UNL     1      17.142 -31.190  21.083  1.00  0.00    -0.550 OA
ATOM      5  O   UNL     1      16.068 -32.256  22.805  1.00  0.00    -0.550 OA
ENDBRANCH   2   3
ENDBRANCH   1   2
BRANCH   1   6
ATOM      6  C   UNL     1      12.592 -30.738  22.396  1.00  0.00     0.000 C 
BRANCH   6   7
ATOM      7  C   UNL     1      13.223 -30.094  23.639  1.00  0.00    -0.000 C 
BRANCH   7   8
ATOM      8  C   UNL     1      12.410 -28.900  24.162  1.00  0.00    -0.003 C 
ATOM      9  C   UNL     1      11.275 -28.498  23.220  1.00  0.00     0.004 C 
ENDBRANCH   7   8
ENDBRANCH   6   7
ENDBRANCH   1   6
TORSDOF 5
ENDMDL
MODEL 4
REMARK VINA RESULT:    -3.726      2.973      4.734
REMARK INTER + INTRA:          -4.985
REMARK INTER:                  -4.684
REMARK INTRA:                  -0.301
REMARK UNBOUND:                -0.170
REMARK SMILES CCCCCCC(=O)[O-]
REMARK SMILES IDX 5 1 6 2 7 3 8 4 9 5 4 6 3 7 2 8 1 9
REMARK H PARENT
REMARK Flexibility Score: inf
ROOT
ATOM      1  C   UNL     1      13.676 -30.148  23.812  1.00  0.00     0.006 C 
ENDROOT
BRANCH   1   2
ATOM      2  C   UNL     1      12.705 -29.022  24.180  1.00  0.00     0.053 C 
BRANCH   2   3
ATOM      3  C   UNL     1      11.623 -28.908  23.153  1.00  0.00     0.041 C 
ATOM      4  O   UNL     1      10.982 -27.832  23.024  1.00  0.00    -0.550 OA
ATOM      5  O   UNL     1      11.353 -29.976  22.306  1.00  0.00    -0.550 OA
ENDBRANCH   2   3
ENDBRANCH   1   2
BRANCH   1   6
ATOM      6  C   UNL     1      14.899 -29.598  23.068  1.00  0.00     0.000 C 
BRANCH   6   7
ATOM      7  C   UNL     1      14.945 -30.121  21.624  1.00  0.00    -0.000 C 
BRANCH   7   8
ATOM      8  C   UNL     1      14.831 -31.651  21.546  1.00  0.00    -0.003 C 
ATOM      9  C   UNL     1      13.610 -32.114  20.752  1.00  0.00     0.004 C 
ENDBRANCH   7   8
ENDBRANCH   6   7
ENDBRANCH   1   6
TORSDOF 5
ENDMDL
MODEL 5
REMARK VINA RESULT:    -3.723      1.204      1.548
REMARK INTER + INTRA:          -4.981
REMARK INTER:                  -4.720
REMARK INTRA:                  -0.261
REMARK UNBOUND:                -0.170
REMARK SMILES CCCCCCC(=O)[O-]
REMARK SMILES IDX 5 1 6 2 7 3 8 4 9 5 4 6 3 7 2 8 1 9
REMARK H PARENT
REMARK Flexibility Score: inf
ROOT
ATOM      1  C   UNL     1      13.692 -31.756  20.972  1.00  0.00     0.006 C 
ENDROOT
BRANCH   1   2
ATOM      2  C   UNL     1      14.511 -32.707  21.849  1.00  0.00     0.053 C 
BRANCH   2   3
ATOM      3  C   UNL     1      15.034 -33.849  21.035  1.00  0.00     0.041 C 
ATOM      4  O   UNL     1      15.765 -34.725  21.567  1.00  0.00    -0.550 OA
ATOM      5  O   UNL     1      14.674 -33.971  19.698  1.00  0.00    -0.550 OA
ENDBRANCH   2   3
ENDBRANCH   1   2
BRANCH   1   6
ATOM      6  C   UNL     1      12.641 -31.009  21.803  1.00  0.00     0.000 C 
BRANCH   6   7
ATOM      7  C   UNL     1      13.075 -30.906  23.273  1.00  0.00    -0.000 C 
BRANCH   7   8
ATOM      8  C   UNL     1      13.213 -29.451  23.747  1.00  0.00    -0.003 C 
ATOM      9  C   UNL     1      14.457 -28.761  23.187  1.00  0.00     0.004 C 
ENDBRANCH   7   8
ENDBRANCH   6   7
ENDBRANCH   1   6
TORSDOF 5
ENDMDL
MODEL 6
REMARK VINA RESULT:    -3.645      3.592      4.657
REMARK INTER + INTRA:          -4.880
REMARK INTER:                  -4.519
REMARK INTRA:                  -0.361
REMARK UNBOUND:                -0.170
REMARK SMILES CCCCCCC(=O)[O-]
REMARK SMILES IDX 5 1 6 2 7 3 8 4 9 5 4 6 3 7 2 8 1 9
REMARK H PARENT
REMARK Flexibility Score: inf
ROOT
ATOM      1  C   UNL     1      13.539 -30.872  23.613  1.00  0.00     0.006 C 
ENDROOT
BRANCH   1   2
ATOM      2  C   UNL     1      12.600 -30.013  22.762  1.00  0.00     0.053 C 
BRANCH   2   3
ATOM      3  C   UNL     1      12.076 -28.862  23.561  1.00  0.00     0.041 C 
ATOM      4  O   UNL     1      11.054 -28.236  23.177  1.00  0.00    -0.550 OA
ATOM      5  O   UNL     1      12.689 -28.510  24.758  1.00  0.00    -0.550 OA
ENDBRANCH   2   3
ENDBRANCH   1   2
BRANCH   1   6
ATOM      6  C   UNL     1      14.992 -30.732  23.141  1.00  0.00     0.000 C 
BRANCH   6   7
ATOM      7  C   UNL     1      15.068 -29.948  21.823  1.00  0.00    -0.000 C 
BRANCH   7   8
ATOM      8  C   UNL     1      16.001 -28.730  21.913  1.00  0.00    -0.003 C 
ATOM      9  C   UNL     1      15.727 -27.864  23.142  1.00  0.00     0.004 C 
ENDBRANCH   7   8
ENDBRANCH   6   7
ENDBRANCH   1   6
TORSDOF 5
ENDMDL
MODEL 7
REMARK VINA RESULT:    -3.638      1.433      1.799
REMARK INTER + INTRA:          -4.871
REMARK INTER:                  -4.661
REMARK INTRA:                  -0.210
REMARK UNBOUND:                -0.170
REMARK SMILES CCCCCCC(=O)[O-]
REMARK SMILES IDX 5 1 6 2 7 3 8 4 9 5 4 6 3 7 2 8 1 9
REMARK H PARENT
REMARK Flexibility Score: inf
ROOT
ATOM      1  C   UNL     1      14.944 -31.679  23.431  1.00  0.00     0.006 C 
ENDROOT
BRANCH   1   2
ATOM      2  C   UNL     1      14.869 -33.207  23.347  1.00  0.00     0.053 C 
BRANCH   2   3
ATOM      3  C   UNL     1      14.985 -33.659  21.925  1.00  0.00     0.041 C 
ATOM      4  O   UNL     1      15.701 -34.652  21.632  1.00  0.00    -0.550 OA
ATOM      5  O   UNL     1      14.265 -33.011  20.929  1.00  0.00    -0.550 OA
ENDBRANCH   2   3
ENDBRANCH   1   2
BRANCH   1   6
ATOM      6  C   UNL     1      13.625 -31.092  23.948  1.00  0.00     0.000 C 
BRANCH   6   7
ATOM      7  C   UNL     1      12.827 -30.444  22.807  1.00  0.00    -0.000 C 
BRANCH   7   8
ATOM      8  C   UNL     1      12.121 -29.150  23.241  1.00  0.00    -0.003 C 
ATOM      9  C   UNL     1      12.844 -28.434  24.381  1.00  0.00     0.004 C 
ENDBRANCH   7   8
ENDBRANCH   6   7
ENDBRANCH   1   6
TORSDOF 5
ENDMDL
MODEL 8
REMARK VINA RESULT:    -3.611      9.198     10.118
REMARK INTER + INTRA:          -4.836
REMARK INTER:                  -4.658
REMARK INTRA:                  -0.178
REMARK UNBOUND:                -0.170
REMARK SMILES CCCCCCC(=O)[O-]
REMARK SMILES IDX 5 1 6 2 7 3 8 4 9 5 4 6 3 7 2 8 1 9
REMARK H PARENT
REMARK Flexibility Score: inf
ROOT
ATOM      1  C   UNL     1      21.377 -26.852  20.903  1.00  0.00     0.006 C 
ENDROOT
BRANCH   1   2
ATOM      2  C   UNL     1      21.696 -25.580  20.112  1.00  0.00     0.053 C 
BRANCH   2   3
ATOM      3  C   UNL     1      23.104 -25.617  19.607  1.00  0.00     0.041 C 
ATOM      4  O   UNL     1      23.698 -26.719  19.467  1.00  0.00    -0.550 OA
ATOM      5  O   UNL     1      23.744 -24.439  19.245  1.00  0.00    -0.550 OA
ENDBRANCH   2   3
ENDBRANCH   1   2
BRANCH   1   6
ATOM      6  C   UNL     1      19.916 -27.273  20.702  1.00  0.00     0.000 C 
BRANCH   6   7
ATOM      7  C   UNL     1      19.716 -28.752  21.068  1.00  0.00    -0.000 C 
BRANCH   7   8
ATOM      8  C   UNL     1      21.045 -29.505  21.232  1.00  0.00    -0.003 C 
ATOM      9  C   UNL     1      20.913 -31.004  20.963  1.00  0.00     0.004 C 
ENDBRANCH   7   8
ENDBRANCH   6   7
ENDBRANCH   1   6
TORSDOF 5
ENDMDL
MODEL 9
REMARK VINA RESULT:    -3.570      2.926      5.010
REMARK INTER + INTRA:          -4.783
REMARK INTER:                  -4.472
REMARK INTRA:                  -0.311
REMARK UNBOUND:                -0.170
REMARK SMILES CCCCCCC(=O)[O-]
REMARK SMILES IDX 5 1 6 2 7 3 8 4 9 5 4 6 3 7 2 8 1 9
REMARK H PARENT
REMARK Flexibility Score: inf
ROOT
ATOM      1  C   UNL     1      14.849 -30.406  23.108  1.00  0.00     0.006 C 
ENDROOT
BRANCH   1   2
ATOM      2  C   UNL     1      13.505 -30.632  23.805  1.00  0.00     0.053 C 
BRANCH   2   3
ATOM      3  C   UNL     1      12.676 -29.387  23.758  1.00  0.00     0.041 C 
ATOM      4  O   UNL     1      11.767 -29.263  22.896  1.00  0.00    -0.550 OA
ATOM      5  O   UNL     1      12.875 -28.383  24.698  1.00  0.00    -0.550 OA
ENDBRANCH   2   3
ENDBRANCH   1   2
BRANCH   1   6
ATOM      6  C   UNL     1      14.768 -30.774  21.622  1.00  0.00     0.000 C 
BRANCH   6   7
ATOM      7  C   UNL     1      13.813 -31.957  21.400  1.00  0.00    -0.000 C 
BRANCH   7   8
ATOM      8  C   UNL     1      14.531 -33.201  20.853  1.00  0.00    -0.003 C 
ATOM      9  C   UNL     1      15.254 -33.993  21.942  1.00  0.00     0.004 C 
ENDBRANCH   7   8
ENDBRANCH   6   7
ENDBRANCH   1   6
TORSDOF 5
ENDMDL
