MODEL 1
REMARK VINA RESULT:    -3.430      0.000      0.000
REMARK INTER + INTRA:          -5.673
REMARK INTER:                  -5.235
REMARK INTRA:                  -0.438
REMARK UNBOUND:                -0.438
REMARK SMILES O=C([O-])CCCCCCCCC(=O)[O-]
REMARK SMILES IDX 7 1 6 2 5 3 4 4 2 5 1 6 3 7 8 8 9 9 10 10 11 11 12 12 13 13
REMARK SMILES IDX 14 14
REMARK H PARENT
REMARK Flexibility Score: inf
ROOT
ATOM      1  C   UNL     1       4.592  69.102  22.096  1.00  0.00     0.000 C 
ENDROOT
BRANCH   1   2
ATOM      2  C   UNL     1       5.162  69.565  23.452  1.00  0.00     0.000 C 
BRANCH   2   3
ATOM      3  C   UNL     1       6.697  69.699  23.507  1.00  0.00     0.006 C 
BRANCH   3   4
ATOM      4  C   UNL     1       7.423  68.460  24.051  1.00  0.00     0.053 C 
BRANCH   4   5
ATOM      5  C   UNL     1       8.292  67.820  23.013  1.00  0.00     0.041 C 
ATOM      6  O   UNL     1       9.535  67.728  23.195  1.00  0.00    -0.550 OA
ATOM      7  O   UNL     1       7.734  67.356  21.828  1.00  0.00    -0.550 OA
ENDBRANCH   4   5
ENDBRANCH   3   4
ENDBRANCH   2   3
ENDBRANCH   1   2
BRANCH   1   8
ATOM      8  C   UNL     1       3.071  68.865  22.078  1.00  0.00     0.000 C 
BRANCH   8   9
ATOM      9  C   UNL     1       2.398  69.415  20.808  1.00  0.00     0.000 C 
BRANCH   9  10
ATOM     10  C   UNL     1       3.411  69.745  19.701  1.00  0.00     0.006 C 
BRANCH  10  11
ATOM     11  C   UNL     1       3.406  71.232  19.323  1.00  0.00     0.053 C 
BRANCH  11  12
ATOM     12  C   UNL     1       2.071  71.626  18.774  1.00  0.00     0.041 C 
ATOM     13  O   UNL     1       1.522  70.927  17.882  1.00  0.00    -0.550 OA
ATOM     14  O   UNL     1       1.410  72.737  19.282  1.00  0.00    -0.550 OA
ENDBRANCH  11  12
ENDBRANCH  10  11
ENDBRANCH   9  10
ENDBRANCH   8   9
ENDBRANCH   1   8
TORSDOF 9
ENDMDL
MODEL 2
REMARK VINA RESULT:    -3.386      1.744      2.795
REMARK INTER + INTRA:          -5.606
REMARK INTER:                  -5.031
REMARK INTRA:                  -0.575
REMARK UNBOUND:                -0.438
REMARK SMILES O=C([O-])CCCCCCCCC(=O)[O-]
REMARK SMILES IDX 7 1 6 2 5 3 4 4 2 5 1 6 3 7 8 8 9 9 10 10 11 11 12 12 13 13
REMARK SMILES IDX 14 14
REMARK H PARENT
REMARK Flexibility Score: inf
ROOT
ATOM      1  C   UNL     1       1.662  68.892  20.741  1.00  0.00     0.000 C 
ENDROOT
BRANCH   1   2
ATOM      2  C   UNL     1       2.821  68.829  21.757  1.00  0.00     0.000 C 
BRANCH   2   3
ATOM      3  C   UNL     1       4.134  69.494  21.297  1.00  0.00     0.006 C 
BRANCH   3   4
ATOM      4  C   UNL     1       5.395  68.658  21.562  1.00  0.00     0.053 C 
BRANCH   4   5
ATOM      5  C   UNL     1       6.138  69.136  22.772  1.00  0.00     0.041 C 
ATOM      6  O   UNL     1       5.646  70.035  23.504  1.00  0.00    -0.550 OA
ATOM      7  O   UNL     1       7.388  68.612  23.073  1.00  0.00    -0.550 OA
ENDBRANCH   4   5
ENDBRANCH   3   4
ENDBRANCH   2   3
ENDBRANCH   1   2
BRANCH   1   8
ATOM      8  C   UNL     1       1.939  68.193  19.397  1.00  0.00     0.000 C 
BRANCH   8   9
ATOM      9  C   UNL     1       1.146  68.810  18.232  1.00  0.00     0.000 C 
BRANCH   9  10
ATOM     10  C   UNL     1       0.960  70.327  18.383  1.00  0.00     0.006 C 
BRANCH  10  11
ATOM     11  C   UNL     1       2.217  71.116  17.995  1.00  0.00     0.053 C 
BRANCH  11  12
ATOM     12  C   UNL     1       2.213  72.460  18.653  1.00  0.00     0.041 C 
ATOM     13  O   UNL     1       3.086  73.315  18.351  1.00  0.00    -0.550 OA
ATOM     14  O   UNL     1       1.216  72.786  19.563  1.00  0.00    -0.550 OA
ENDBRANCH  11  12
ENDBRANCH  10  11
ENDBRANCH   9  10
ENDBRANCH   8   9
ENDBRANCH   1   8
TORSDOF 9
ENDMDL
MODEL 3
REMARK VINA RESULT:    -3.347     10.435     12.958
REMARK INTER + INTRA:          -5.546
REMARK INTER:                  -4.974
REMARK INTRA:                  -0.572
REMARK UNBOUND:                -0.438
REMARK SMILES O=C([O-])CCCCCCCCC(=O)[O-]
REMARK SMILES IDX 7 1 6 2 5 3 4 4 2 5 1 6 3 7 8 8 9 9 10 10 11 11 12 12 13 13
REMARK SMILES IDX 14 14
REMARK H PARENT
REMARK Flexibility Score: inf
ROOT
ATOM      1  C   UNL     1       2.484  66.329  10.056  1.00  0.00     0.000 C 
ENDROOT
BRANCH   1   2
ATOM      2  C   UNL     1       1.481  65.785   9.018  1.00  0.00     0.000 C 
BRANCH   2   3
ATOM      3  C   UNL     1       2.112  65.225   7.727  1.00  0.00     0.006 C 
BRANCH   3   4
ATOM      4  C   UNL     1       3.143  64.110   7.957  1.00  0.00     0.053 C 
BRANCH   4   5
ATOM      5  C   UNL     1       2.519  62.887   8.556  1.00  0.00     0.041 C 
ATOM      6  O   UNL     1       3.097  62.274   9.491  1.00  0.00    -0.550 OA
ATOM      7  O   UNL     1       1.315  62.406   8.058  1.00  0.00    -0.550 OA
ENDBRANCH   4   5
ENDBRANCH   3   4
ENDBRANCH   2   3
ENDBRANCH   1   2
BRANCH   1   8
ATOM      8  C   UNL     1       2.562  65.523  11.366  1.00  0.00     0.000 C 
BRANCH   8   9
ATOM      9  C   UNL     1       2.961  66.390  12.573  1.00  0.00     0.000 C 
BRANCH   9  10
ATOM     10  C   UNL     1       3.389  65.550  13.786  1.00  0.00     0.006 C 
BRANCH  10  11
ATOM     11  C   UNL     1       3.087  64.057  13.605  1.00  0.00     0.053 C 
BRANCH  11  12
ATOM     12  C   UNL     1       1.995  63.629  14.535  1.00  0.00     0.041 C 
ATOM     13  O   UNL     1       2.123  62.582  15.221  1.00  0.00    -0.550 OA
ATOM     14  O   UNL     1       0.858  64.414  14.681  1.00  0.00    -0.550 OA
ENDBRANCH  11  12
ENDBRANCH  10  11
ENDBRANCH   9  10
ENDBRANCH   8   9
ENDBRANCH   1   8
TORSDOF 9
ENDMDL
MODEL 4
REMARK VINA RESULT:    -3.339      1.315      7.461
REMARK INTER + INTRA:          -5.534
REMARK INTER:                  -5.280
REMARK INTRA:                  -0.254
REMARK UNBOUND:                -0.438
REMARK SMILES O=C([O-])CCCCCCCCC(=O)[O-]
REMARK SMILES IDX 7 1 6 2 5 3 4 4 2 5 1 6 3 7 8 8 9 9 10 10 11 11 12 12 13 13
REMARK SMILES IDX 14 14
REMARK H PARENT
REMARK Flexibility Score: inf
ROOT
ATOM      1  C   UNL     1       4.085  68.858  21.431  1.00  0.00     0.000 C 
ENDROOT
BRANCH   1   2
ATOM      2  C   UNL     1       3.827  69.866  20.292  1.00  0.00     0.000 C 
BRANCH   2   3
ATOM      3  C   UNL     1       2.344  70.074  19.924  1.00  0.00     0.006 C 
BRANCH   3   4
ATOM      4  C   UNL     1       2.118  70.894  18.645  1.00  0.00     0.053 C 
BRANCH   4   5
ATOM      5  C   UNL     1       2.073  72.365  18.925  1.00  0.00     0.041 C 
ATOM      6  O   UNL     1       3.018  73.110  18.554  1.00  0.00    -0.550 OA
ATOM      7  O   UNL     1       1.003  72.908  19.625  1.00  0.00    -0.550 OA
ENDBRANCH   4   5
ENDBRANCH   3   4
ENDBRANCH   2   3
ENDBRANCH   1   2
BRANCH   1   8
ATOM      8  C   UNL     1       4.974  69.384  22.573  1.00  0.00     0.000 C 
BRANCH   8   9
ATOM      9  C   UNL     1       6.364  68.724  22.596  1.00  0.00     0.000 C 
BRANCH   9  10
ATOM     10  C   UNL     1       6.924  68.578  24.019  1.00  0.00     0.006 C 
BRANCH  10  11
ATOM     11  C   UNL     1       8.449  68.731  24.070  1.00  0.00     0.053 C 
BRANCH  11  12
ATOM     12  C   UNL     1       9.114  67.528  23.479  1.00  0.00     0.041 C 
ATOM     13  O   UNL     1      10.030  67.667  22.625  1.00  0.00    -0.550 OA
ATOM     14  O   UNL     1       8.758  66.256  23.906  1.00  0.00    -0.550 OA
ENDBRANCH  11  12
ENDBRANCH  10  11
ENDBRANCH   9  10
ENDBRANCH   8   9
ENDBRANCH   1   8
TORSDOF 9
ENDMDL
MODEL 5
REMARK VINA RESULT:    -3.333      5.809      8.057
REMARK INTER + INTRA:          -5.525
REMARK INTER:                  -5.034
REMARK INTRA:                  -0.491
REMARK UNBOUND:                -0.438
REMARK SMILES O=C([O-])CCCCCCCCC(=O)[O-]
REMARK SMILES IDX 7 1 6 2 5 3 4 4 2 5 1 6 3 7 8 8 9 9 10 10 11 11 12 12 13 13
REMARK SMILES IDX 14 14
REMARK H PARENT
REMARK Flexibility Score: inf
ROOT
ATOM      1  C   UNL     1       2.907  68.905  15.618  1.00  0.00     0.000 C 
ENDROOT
BRANCH   1   2
ATOM      2  C   UNL     1       1.564  69.496  16.094  1.00  0.00     0.000 C 
BRANCH   2   3
ATOM      3  C   UNL     1       1.588  70.128  17.501  1.00  0.00     0.006 C 
BRANCH   3   4
ATOM      4  C   UNL     1       2.772  71.073  17.751  1.00  0.00     0.053 C 
BRANCH   4   5
ATOM      5  C   UNL     1       2.356  72.302  18.500  1.00  0.00     0.041 C 
ATOM      6  O   UNL     1       1.450  72.238  19.372  1.00  0.00    -0.550 OA
ATOM      7  O   UNL     1       2.947  73.526  18.211  1.00  0.00    -0.550 OA
ENDBRANCH   4   5
ENDBRANCH   3   4
ENDBRANCH   2   3
ENDBRANCH   1   2
BRANCH   1   8
ATOM      8  C   UNL     1       3.524  69.602  14.391  1.00  0.00     0.000 C 
BRANCH   8   9
ATOM      9  C   UNL     1       2.516  70.495  13.646  1.00  0.00     0.000 C 
BRANCH   9  10
ATOM     10  C   UNL     1       3.127  71.836  13.210  1.00  0.00     0.006 C 
BRANCH  10  11
ATOM     11  C   UNL     1       2.270  72.560  12.163  1.00  0.00     0.053 C 
BRANCH  11  12
ATOM     12  C   UNL     1       3.124  73.450  11.315  1.00  0.00     0.041 C 
ATOM     13  O   UNL     1       4.098  74.065  11.825  1.00  0.00    -0.550 OA
ATOM     14  O   UNL     1       2.876  73.561   9.954  1.00  0.00    -0.550 OA
ENDBRANCH  11  12
ENDBRANCH  10  11
ENDBRANCH   9  10
ENDBRANCH   8   9
ENDBRANCH   1   8
TORSDOF 9
ENDMDL
MODEL 6
REMARK VINA RESULT:    -3.331      9.986     11.514
REMARK INTER + INTRA:          -5.522
REMARK INTER:                  -4.926
REMARK INTRA:                  -0.595
REMARK UNBOUND:                -0.438
REMARK SMILES O=C([O-])CCCCCCCCC(=O)[O-]
REMARK SMILES IDX 7 1 6 2 5 3 4 4 2 5 1 6 3 7 8 8 9 9 10 10 11 11 12 12 13 13
REMARK SMILES IDX 14 14
REMARK H PARENT
REMARK Flexibility Score: inf
ROOT
ATOM      1  C   UNL     1       2.993  66.345  12.588  1.00  0.00     0.000 C 
ENDROOT
BRANCH   1   2
ATOM      2  C   UNL     1       3.400  65.444  13.771  1.00  0.00     0.000 C 
BRANCH   2   3
ATOM      3  C   UNL     1       3.037  63.953  13.615  1.00  0.00     0.006 C 
BRANCH   3   4
ATOM      4  C   UNL     1       2.106  63.410  14.709  1.00  0.00     0.053 C 
BRANCH   4   5
ATOM      5  C   UNL     1       2.831  62.516  15.667  1.00  0.00     0.041 C 
ATOM      6  O   UNL     1       3.851  61.880  15.292  1.00  0.00    -0.550 OA
ATOM      7  O   UNL     1       2.360  62.358  16.964  1.00  0.00    -0.550 OA
ENDBRANCH   4   5
ENDBRANCH   3   4
ENDBRANCH   2   3
ENDBRANCH   1   2
BRANCH   1   8
ATOM      8  C   UNL     1       1.511  66.249  12.179  1.00  0.00     0.000 C 
BRANCH   8   9
ATOM      9  C   UNL     1       1.326  65.803  10.718  1.00  0.00     0.000 C 
BRANCH   9  10
ATOM     10  C   UNL     1       2.629  65.287  10.089  1.00  0.00     0.006 C 
BRANCH  10  11
ATOM     11  C   UNL     1       2.439  64.821   8.640  1.00  0.00     0.053 C 
BRANCH  11  12
ATOM     12  C   UNL     1       2.271  63.335   8.588  1.00  0.00     0.041 C 
ATOM     13  O   UNL     1       1.395  62.823   7.842  1.00  0.00    -0.550 OA
ATOM     14  O   UNL     1       3.114  62.513   9.325  1.00  0.00    -0.550 OA
ENDBRANCH  11  12
ENDBRANCH  10  11
ENDBRANCH   9  10
ENDBRANCH   8   9
ENDBRANCH   1   8
TORSDOF 9
ENDMDL
MODEL 7
REMARK VINA RESULT:    -3.298     14.619     16.341
REMARK INTER + INTRA:          -5.471
REMARK INTER:                  -4.777
REMARK INTRA:                  -0.694
REMARK UNBOUND:                -0.438
REMARK SMILES O=C([O-])CCCCCCCCC(=O)[O-]
REMARK SMILES IDX 7 1 6 2 5 3 4 4 2 5 1 6 3 7 8 8 9 9 10 10 11 11 12 12 13 13
REMARK SMILES IDX 14 14
REMARK H PARENT
REMARK Flexibility Score: inf
ROOT
ATOM      1  C   UNL     1       2.705  66.641   5.673  1.00  0.00     0.000 C 
ENDROOT
BRANCH   1   2
ATOM      2  C   UNL     1       3.578  66.255   6.885  1.00  0.00     0.000 C 
BRANCH   2   3
ATOM      3  C   UNL     1       3.358  64.826   7.422  1.00  0.00     0.006 C 
BRANCH   3   4
ATOM      4  C   UNL     1       2.237  64.706   8.465  1.00  0.00     0.053 C 
BRANCH   4   5
ATOM      5  C   UNL     1       0.994  64.108   7.883  1.00  0.00     0.041 C 
ATOM      6  O   UNL     1      -0.046  64.806   7.753  1.00  0.00    -0.550 OA
ATOM      7  O   UNL     1       0.973  62.769   7.514  1.00  0.00    -0.550 OA
ENDBRANCH   4   5
ENDBRANCH   3   4
ENDBRANCH   2   3
ENDBRANCH   1   2
BRANCH   1   8
ATOM      8  C   UNL     1       3.481  66.877   4.364  1.00  0.00     0.000 C 
BRANCH   8   9
ATOM      9  C   UNL     1       4.810  66.103   4.313  1.00  0.00     0.000 C 
BRANCH   9  10
ATOM     10  C   UNL     1       6.011  67.013   4.016  1.00  0.00     0.006 C 
BRANCH  10  11
ATOM     11  C   UNL     1       5.728  68.486   4.338  1.00  0.00     0.053 C 
BRANCH  11  12
ATOM     12  C   UNL     1       6.356  68.864   5.642  1.00  0.00     0.041 C 
ATOM     13  O   UNL     1       5.636  69.213   6.614  1.00  0.00    -0.550 OA
ATOM     14  O   UNL     1       7.734  68.784   5.800  1.00  0.00    -0.550 OA
ENDBRANCH  11  12
ENDBRANCH  10  11
ENDBRANCH   9  10
ENDBRANCH   8   9
ENDBRANCH   1   8
TORSDOF 9
ENDMDL
MODEL 8
REMARK VINA RESULT:    -3.289      5.457      9.242
REMARK INTER + INTRA:          -5.458
REMARK INTER:                  -4.963
REMARK INTRA:                  -0.494
REMARK UNBOUND:                -0.438
REMARK SMILES O=C([O-])CCCCCCCCC(=O)[O-]
REMARK SMILES IDX 7 1 6 2 5 3 4 4 2 5 1 6 3 7 8 8 9 9 10 10 11 11 12 12 13 13
REMARK SMILES IDX 14 14
REMARK H PARENT
REMARK Flexibility Score: inf
ROOT
ATOM      1  C   UNL     1       1.890  69.633  13.439  1.00  0.00     0.000 C 
ENDROOT
BRANCH   1   2
ATOM      2  C   UNL     1       1.841  71.125  13.052  1.00  0.00     0.000 C 
BRANCH   2   3
ATOM      3  C   UNL     1       3.167  71.893  13.231  1.00  0.00     0.006 C 
BRANCH   3   4
ATOM      4  C   UNL     1       3.947  72.122  11.928  1.00  0.00     0.053 C 
BRANCH   4   5
ATOM      5  C   UNL     1       3.693  73.483  11.356  1.00  0.00     0.041 C 
ATOM      6  O   UNL     1       2.827  73.641  10.455  1.00  0.00    -0.550 OA
ATOM      7  O   UNL     1       4.435  74.572  11.796  1.00  0.00    -0.550 OA
ENDBRANCH   4   5
ENDBRANCH   3   4
ENDBRANCH   2   3
ENDBRANCH   1   2
BRANCH   1   8
ATOM      8  C   UNL     1       1.370  69.312  14.852  1.00  0.00     0.000 C 
BRANCH   8   9
ATOM      9  C   UNL     1       2.495  69.245  15.899  1.00  0.00     0.000 C 
BRANCH   9  10
ATOM     10  C   UNL     1       2.692  70.576  16.640  1.00  0.00     0.006 C 
BRANCH  10  11
ATOM     11  C   UNL     1       1.741  70.732  17.834  1.00  0.00     0.053 C 
BRANCH  11  12
ATOM     12  C   UNL     1       2.214  71.825  18.739  1.00  0.00     0.041 C 
ATOM     13  O   UNL     1       3.437  72.120  18.790  1.00  0.00    -0.550 OA
ATOM     14  O   UNL     1       1.299  72.552  19.488  1.00  0.00    -0.550 OA
ENDBRANCH  11  12
ENDBRANCH  10  11
ENDBRANCH   9  10
ENDBRANCH   8   9
ENDBRANCH   1   8
TORSDOF 9
ENDMDL
MODEL 9
REMARK VINA RESULT:    -3.276     14.485     16.065
REMARK INTER + INTRA:          -5.438
REMARK INTER:                  -5.030
REMARK INTRA:                  -0.408
REMARK UNBOUND:                -0.438
REMARK SMILES O=C([O-])CCCCCCCCC(=O)[O-]
REMARK SMILES IDX 7 1 6 2 5 3 4 4 2 5 1 6 3 7 8 8 9 9 10 10 11 11 12 12 13 13
REMARK SMILES IDX 14 14
REMARK H PARENT
REMARK Flexibility Score: inf
ROOT
ATOM      1  C   UNL     1       3.949  66.393   5.064  1.00  0.00     0.000 C 
ENDROOT
BRANCH   1   2
ATOM      2  C   UNL     1       5.318  66.495   4.362  1.00  0.00     0.000 C 
BRANCH   2   3
ATOM      3  C   UNL     1       6.263  67.578   4.921  1.00  0.00     0.006 C 
BRANCH   3   4
ATOM      4  C   UNL     1       5.576  68.912   5.247  1.00  0.00     0.053 C 
BRANCH   4   5
ATOM      5  C   UNL     1       6.537  69.913   5.809  1.00  0.00     0.041 C 
ATOM      6  O   UNL     1       6.510  71.109   5.416  1.00  0.00    -0.550 OA
ATOM      7  O   UNL     1       7.486  69.518   6.744  1.00  0.00    -0.550 OA
ENDBRANCH   4   5
ENDBRANCH   3   4
ENDBRANCH   2   3
ENDBRANCH   1   2
BRANCH   1   8
ATOM      8  C   UNL     1       3.991  65.806   6.487  1.00  0.00     0.000 C 
BRANCH   8   9
ATOM      9  C   UNL     1       2.741  66.156   7.312  1.00  0.00     0.000 C 
BRANCH   9  10
ATOM     10  C   UNL     1       2.508  65.179   8.474  1.00  0.00     0.006 C 
BRANCH  10  11
ATOM     11  C   UNL     1       3.192  63.824   8.249  1.00  0.00     0.053 C 
BRANCH  11  12
ATOM     12  C   UNL     1       2.186  62.717   8.303  1.00  0.00     0.041 C 
ATOM     13  O   UNL     1       1.131  62.787   7.619  1.00  0.00    -0.550 OA
ATOM     14  O   UNL     1       2.437  61.586   9.068  1.00  0.00    -0.550 OA
ENDBRANCH  11  12
ENDBRANCH  10  11
ENDBRANCH   9  10
ENDBRANCH   8   9
ENDBRANCH   1   8
TORSDOF 9
ENDMDL
