MODEL 1
REMARK VINA RESULT:    -2.685      0.000      0.000
REMARK INTER + INTRA:          -3.800
REMARK INTER:                  -3.470
REMARK INTRA:                  -0.330
REMARK UNBOUND:                -0.330
REMARK SMILES CCCCCC(=O)OC
REMARK SMILES IDX 4 1 3 2 2 3 1 4 5 5 6 6 7 7 8 8 9 9
REMARK H PARENT
REMARK Flexibility Score: inf
ROOT
ATOM      1  C   UNL     1     195.993 199.013 217.019  1.00  0.00     0.012 C 
ENDROOT
BRANCH   1   2
ATOM      2  C   UNL     1     195.817 197.626 217.658  1.00  0.00     0.000 C 
BRANCH   2   3
ATOM      3  C   UNL     1     196.825 197.363 218.786  1.00  0.00    -0.003 C 
ATOM      4  C   UNL     1     198.245 197.246 218.237  1.00  0.00     0.004 C 
ENDBRANCH   2   3
ENDBRANCH   1   2
BRANCH   1   5
ATOM      5  C   UNL     1     195.182 200.100 217.735  1.00  0.00     0.123 C 
BRANCH   5   6
ATOM      6  C   UNL     1     196.096 201.077 218.403  1.00  0.00     0.305 C 
ATOM      7  O   UNL     1     195.613 202.062 219.027  1.00  0.00    -0.252 OA
BRANCH   6   8
ATOM      8  O   UNL     1     197.476 200.862 218.369  1.00  0.00    -0.469 OA
ATOM      9  C   UNL     1     198.271 200.798 219.546  1.00  0.00     0.282 C 
ENDBRANCH   6   8
ENDBRANCH   5   6
ENDBRANCH   1   5
TORSDOF 5
ENDMDL
MODEL 2
REMARK VINA RESULT:    -2.671     18.442     19.397
REMARK INTER + INTRA:          -3.782
REMARK INTER:                  -3.471
REMARK INTRA:                  -0.311
REMARK UNBOUND:                -0.330
REMARK SMILES CCCCCC(=O)OC
REMARK SMILES IDX 4 1 3 2 2 3 1 4 5 5 6 6 7 7 8 8 9 9
REMARK H PARENT
REMARK Flexibility Score: inf
ROOT
ATOM      1  C   UNL     1     212.374 208.001 218.840  1.00  0.00     0.012 C 
ENDROOT
BRANCH   1   2
ATOM      2  C   UNL     1     213.288 206.816 219.187  1.00  0.00     0.000 C 
BRANCH   2   3
ATOM      3  C   UNL     1     214.225 207.118 220.366  1.00  0.00    -0.003 C 
ATOM      4  C   UNL     1     213.686 208.267 221.214  1.00  0.00     0.004 C 
ENDBRANCH   2   3
ENDBRANCH   1   2
BRANCH   1   5
ATOM      5  C   UNL     1     212.771 208.688 217.527  1.00  0.00     0.123 C 
BRANCH   5   6
ATOM      6  C   UNL     1     213.587 209.910 217.805  1.00  0.00     0.305 C 
ATOM      7  O   UNL     1     214.835 209.809 217.958  1.00  0.00    -0.252 OA
BRANCH   6   8
ATOM      8  O   UNL     1     212.963 211.160 217.848  1.00  0.00    -0.469 OA
ATOM      9  C   UNL     1     212.644 211.816 219.070  1.00  0.00     0.282 C 
ENDBRANCH   6   8
ENDBRANCH   5   6
ENDBRANCH   1   5
TORSDOF 5
ENDMDL
MODEL 3
REMARK VINA RESULT:    -2.623     13.009     15.198
REMARK INTER + INTRA:          -3.720
REMARK INTER:                  -3.624
REMARK INTRA:                  -0.096
REMARK UNBOUND:                -0.330
REMARK SMILES CCCCCC(=O)OC
REMARK SMILES IDX 4 1 3 2 2 3 1 4 5 5 6 6 7 7 8 8 9 9
REMARK H PARENT
REMARK Flexibility Score: inf
ROOT
ATOM      1  C   UNL     1     206.888 210.733 218.670  1.00  0.00     0.012 C 
ENDROOT
BRANCH   1   2
ATOM      2  C   UNL     1     206.806 212.058 217.896  1.00  0.00     0.000 C 
BRANCH   2   3
ATOM      3  C   UNL     1     208.141 212.443 217.242  1.00  0.00    -0.003 C 
ATOM      4  C   UNL     1     208.775 213.637 217.951  1.00  0.00     0.004 C 
ENDBRANCH   2   3
ENDBRANCH   1   2
BRANCH   1   5
ATOM      5  C   UNL     1     205.710 209.798 218.367  1.00  0.00     0.123 C 
BRANCH   5   6
ATOM      6  C   UNL     1     206.183 208.384 218.255  1.00  0.00     0.305 C 
ATOM      7  O   UNL     1     205.842 207.686 217.261  1.00  0.00    -0.252 OA
BRANCH   6   8
ATOM      8  O   UNL     1     207.037 207.864 219.231  1.00  0.00    -0.469 OA
ATOM      9  C   UNL     1     206.561 207.350 220.469  1.00  0.00     0.282 C 
ENDBRANCH   6   8
ENDBRANCH   5   6
ENDBRANCH   1   5
TORSDOF 5
ENDMDL
MODEL 4
REMARK VINA RESULT:    -2.605      1.691      2.545
REMARK INTER + INTRA:          -3.697
REMARK INTER:                  -3.327
REMARK INTRA:                  -0.370
REMARK UNBOUND:                -0.330
REMARK SMILES CCCCCC(=O)OC
REMARK SMILES IDX 4 1 3 2 2 3 1 4 5 5 6 6 7 7 8 8 9 9
REMARK H PARENT
REMARK Flexibility Score: inf
ROOT
ATOM      1  C   UNL     1     196.682 200.177 217.533  1.00  0.00     0.012 C 
ENDROOT
BRANCH   1   2
ATOM      2  C   UNL     1     195.210 199.771 217.358  1.00  0.00     0.000 C 
BRANCH   2   3
ATOM      3  C   UNL     1     194.929 198.342 217.843  1.00  0.00    -0.003 C 
ATOM      4  C   UNL     1     196.206 197.505 217.852  1.00  0.00     0.004 C 
ENDBRANCH   2   3
ENDBRANCH   1   2
BRANCH   1   5
ATOM      5  C   UNL     1     196.891 201.151 218.700  1.00  0.00     0.123 C 
BRANCH   5   6
ATOM      6  C   UNL     1     197.556 200.457 219.845  1.00  0.00     0.305 C 
ATOM      7  O   UNL     1     198.810 200.518 219.972  1.00  0.00    -0.252 OA
BRANCH   6   8
ATOM      8  O   UNL     1     196.776 199.787 220.790  1.00  0.00    -0.469 OA
ATOM      9  C   UNL     1     195.457 200.200 221.128  1.00  0.00     0.282 C 
ENDBRANCH   6   8
ENDBRANCH   5   6
ENDBRANCH   1   5
TORSDOF 5
ENDMDL
MODEL 5
REMARK VINA RESULT:    -2.603     17.942     19.480
REMARK INTER + INTRA:          -3.695
REMARK INTER:                  -3.336
REMARK INTRA:                  -0.359
REMARK UNBOUND:                -0.330
REMARK SMILES CCCCCC(=O)OC
REMARK SMILES IDX 4 1 3 2 2 3 1 4 5 5 6 6 7 7 8 8 9 9
REMARK H PARENT
REMARK Flexibility Score: inf
ROOT
ATOM      1  C   UNL     1     214.184 207.322 220.442  1.00  0.00     0.012 C 
ENDROOT
BRANCH   1   2
ATOM      2  C   UNL     1     215.115 208.519 220.193  1.00  0.00     0.000 C 
BRANCH   2   3
ATOM      3  C   UNL     1     214.926 209.639 221.227  1.00  0.00    -0.003 C 
ATOM      4  C   UNL     1     214.011 210.735 220.687  1.00  0.00     0.004 C 
ENDBRANCH   2   3
ENDBRANCH   1   2
BRANCH   1   5
ATOM      5  C   UNL     1     213.458 206.864 219.170  1.00  0.00     0.123 C 
BRANCH   5   6
ATOM      6  C   UNL     1     212.496 207.913 218.714  1.00  0.00     0.305 C 
ATOM      7  O   UNL     1     211.610 208.338 219.505  1.00  0.00    -0.252 OA
BRANCH   6   8
ATOM      8  O   UNL     1     212.617 208.446 217.428  1.00  0.00    -0.469 OA
ATOM      9  C   UNL     1     213.050 209.780 217.189  1.00  0.00     0.282 C 
ENDBRANCH   6   8
ENDBRANCH   5   6
ENDBRANCH   1   5
TORSDOF 5
ENDMDL
MODEL 6
REMARK VINA RESULT:    -2.586      2.075      3.552
REMARK INTER + INTRA:          -3.673
REMARK INTER:                  -3.388
REMARK INTRA:                  -0.285
REMARK UNBOUND:                -0.330
REMARK SMILES CCCCCC(=O)OC
REMARK SMILES IDX 4 1 3 2 2 3 1 4 5 5 6 6 7 7 8 8 9 9
REMARK H PARENT
REMARK Flexibility Score: inf
ROOT
ATOM      1  C   UNL     1     195.193 199.683 217.503  1.00  0.00     0.012 C 
ENDROOT
BRANCH   1   2
ATOM      2  C   UNL     1     194.992 200.531 218.769  1.00  0.00     0.000 C 
BRANCH   2   3
ATOM      3  C   UNL     1     196.055 201.628 218.919  1.00  0.00    -0.003 C 
ATOM      4  C   UNL     1     197.458 201.028 218.984  1.00  0.00     0.004 C 
ENDBRANCH   2   3
ENDBRANCH   1   2
BRANCH   1   5
ATOM      5  C   UNL     1     194.879 198.198 217.731  1.00  0.00     0.123 C 
BRANCH   5   6
ATOM      6  C   UNL     1     196.054 197.507 218.347  1.00  0.00     0.305 C 
ATOM      7  O   UNL     1     195.882 196.737 219.331  1.00  0.00    -0.252 OA
BRANCH   6   8
ATOM      8  O   UNL     1     197.325 197.687 217.796  1.00  0.00    -0.469 OA
ATOM      9  C   UNL     1     198.519 197.462 218.536  1.00  0.00     0.282 C 
ENDBRANCH   6   8
ENDBRANCH   5   6
ENDBRANCH   1   5
TORSDOF 5
ENDMDL
MODEL 7
REMARK VINA RESULT:    -2.580     18.344     19.500
REMARK INTER + INTRA:          -3.664
REMARK INTER:                  -3.352
REMARK INTRA:                  -0.312
REMARK UNBOUND:                -0.330
REMARK SMILES CCCCCC(=O)OC
REMARK SMILES IDX 4 1 3 2 2 3 1 4 5 5 6 6 7 7 8 8 9 9
REMARK H PARENT
REMARK Flexibility Score: inf
ROOT
ATOM      1  C   UNL     1     213.364 209.407 217.146  1.00  0.00     0.012 C 
ENDROOT
BRANCH   1   2
ATOM      2  C   UNL     1     213.055 210.859 217.549  1.00  0.00     0.000 C 
BRANCH   2   3
ATOM      3  C   UNL     1     211.790 210.976 218.411  1.00  0.00    -0.003 C 
ATOM      4  C   UNL     1     212.087 211.692 219.726  1.00  0.00     0.004 C 
ENDBRANCH   2   3
ENDBRANCH   1   2
BRANCH   1   5
ATOM      5  C   UNL     1     212.563 208.385 217.963  1.00  0.00     0.123 C 
BRANCH   5   6
ATOM      6  C   UNL     1     213.457 207.674 218.928  1.00  0.00     0.305 C 
ATOM      7  O   UNL     1     213.228 206.469 219.224  1.00  0.00    -0.252 OA
BRANCH   6   8
ATOM      8  O   UNL     1     214.567 208.338 219.456  1.00  0.00    -0.469 OA
ATOM      9  C   UNL     1     214.532 209.014 220.707  1.00  0.00     0.282 C 
ENDBRANCH   6   8
ENDBRANCH   5   6
ENDBRANCH   1   5
TORSDOF 5
ENDMDL
MODEL 8
REMARK VINA RESULT:    -2.574      2.202      3.783
REMARK INTER + INTRA:          -3.657
REMARK INTER:                  -3.351
REMARK INTRA:                  -0.305
REMARK UNBOUND:                -0.330
REMARK SMILES CCCCCC(=O)OC
REMARK SMILES IDX 4 1 3 2 2 3 1 4 5 5 6 6 7 7 8 8 9 9
REMARK H PARENT
REMARK Flexibility Score: inf
ROOT
ATOM      1  C   UNL     1     195.531 199.497 217.457  1.00  0.00     0.012 C 
ENDROOT
BRANCH   1   2
ATOM      2  C   UNL     1     196.776 200.391 217.577  1.00  0.00     0.000 C 
BRANCH   2   3
ATOM      3  C   UNL     1     196.741 201.290 218.821  1.00  0.00    -0.003 C 
ATOM      4  C   UNL     1     195.318 201.753 219.122  1.00  0.00     0.004 C 
ENDBRANCH   2   3
ENDBRANCH   1   2
BRANCH   1   5
ATOM      5  C   UNL     1     195.884 198.017 217.264  1.00  0.00     0.123 C 
BRANCH   5   6
ATOM      6  C   UNL     1     196.667 197.511 218.433  1.00  0.00     0.305 C 
ATOM      7  O   UNL     1     197.876 197.182 218.282  1.00  0.00    -0.252 OA
BRANCH   6   8
ATOM      8  O   UNL     1     196.065 197.453 219.692  1.00  0.00    -0.469 OA
ATOM      9  C   UNL     1     196.586 198.139 220.823  1.00  0.00     0.282 C 
ENDBRANCH   6   8
ENDBRANCH   5   6
ENDBRANCH   1   5
TORSDOF 5
ENDMDL
MODEL 9
REMARK VINA RESULT:    -2.542      1.779      3.440
REMARK INTER + INTRA:          -3.615
REMARK INTER:                  -3.323
REMARK INTRA:                  -0.292
REMARK UNBOUND:                -0.330
REMARK SMILES CCCCCC(=O)OC
REMARK SMILES IDX 4 1 3 2 2 3 1 4 5 5 6 6 7 7 8 8 9 9
REMARK H PARENT
REMARK Flexibility Score: inf
ROOT
ATOM      1  C   UNL     1     196.710 199.447 217.407  1.00  0.00     0.012 C 
ENDROOT
BRANCH   1   2
ATOM      2  C   UNL     1     195.234 199.839 217.584  1.00  0.00     0.000 C 
BRANCH   2   3
ATOM      3  C   UNL     1     194.953 200.486 218.947  1.00  0.00    -0.003 C 
ATOM      4  C   UNL     1     195.593 201.870 219.039  1.00  0.00     0.004 C 
ENDBRANCH   2   3
ENDBRANCH   1   2
BRANCH   1   5
ATOM      5  C   UNL     1     197.085 198.186 218.197  1.00  0.00     0.123 C 
BRANCH   5   6
ATOM      6  C   UNL     1     198.288 198.443 219.047  1.00  0.00     0.305 C 
ATOM      7  O   UNL     1     199.342 197.776 218.859  1.00  0.00    -0.252 OA
BRANCH   6   8
ATOM      8  O   UNL     1     198.246 199.453 220.012  1.00  0.00    -0.469 OA
ATOM      9  C   UNL     1     199.088 200.599 219.958  1.00  0.00     0.282 C 
ENDBRANCH   6   8
ENDBRANCH   5   6
ENDBRANCH   1   5
TORSDOF 5
ENDMDL
