MODEL 1
REMARK VINA RESULT:    58.521      0.000      0.000
REMARK INTER + INTRA:          89.958
REMARK INTER:                  84.179
REMARK INTRA:                   5.778
REMARK UNBOUND:                 5.778
REMARK SMILES O=c1c(O[C@@H]2O[C@@H](CO)[C@@H](O)[C@H](O)[C@@H]2O)c(-c2ccc(O)cc2)oc2cc(O)cc(O)c12
REMARK SMILES IDX 4 1 3 2 16 3 24 4 2 5 25 6 1 7 32 8 26 9 30 10 27 11 29 12
REMARK SMILES IDX 17 13 18 14 19 15 20 16 23 17 22 18 21 19 31 21 28 23 5 25
REMARK SMILES IDX 14 26 6 27 12 28 7 29 10 30 15 31 13 33 8 35 9 36 11 38
REMARK H PARENT 21 20 31 22 28 24 15 32 13 34 9 37 11 39
REMARK Flexibility Score: inf
ROOT
ATOM      1  O   UNL     1      -4.214   0.834   1.161  1.00  0.00    -0.454 OA
ENDROOT
BRANCH   1   2
ATOM      2  C   UNL     1      -3.102   0.533   1.979  1.00  0.00     0.214 A 
ATOM      3  C   UNL     1      -3.295   0.519   3.374  1.00  0.00     0.180 A 
ATOM      4  O   UNL     1      -2.310   0.156   4.184  1.00  0.00    -0.452 OA
ATOM      5  C   UNL     1      -1.817   0.209   1.482  1.00  0.00     0.239 A 
ATOM      6  C   UNL     1      -1.093  -0.151   3.761  1.00  0.00     0.146 A 
ATOM      7  O   UNL     1      -1.625   0.143   0.242  1.00  0.00    -0.285 OA
ATOM      8  C   UNL     1      -0.766  -0.089   2.384  1.00  0.00     0.111 A 
ATOM      9  C   UNL     1      -0.138  -0.542   4.703  1.00  0.00     0.094 A 
ATOM     10  C   UNL     1       0.578  -0.372   1.992  1.00  0.00     0.134 A 
ATOM     11  C   UNL     1       1.152  -0.882   4.302  1.00  0.00     0.123 A 
ATOM     12  C   UNL     1       1.503  -0.799   2.953  1.00  0.00     0.093 A 
BRANCH   3  13
ATOM     13  C   UNL     1      -4.595   0.869   3.981  1.00  0.00     0.021 A 
ATOM     14  C   UNL     1      -4.659   1.219   5.338  1.00  0.00     0.016 A 
ATOM     15  C   UNL     1      -5.881   1.571   5.920  1.00  0.00     0.047 A 
ATOM     16  C   UNL     1      -7.049   1.593   5.146  1.00  0.00     0.115 A 
ATOM     17  C   UNL     1      -5.765   0.917   3.204  1.00  0.00     0.016 A 
ATOM     18  C   UNL     1      -6.986   1.269   3.786  1.00  0.00     0.047 A 
BRANCH  16  19
ATOM     19  O   UNL     1      -8.272   1.940   5.714  1.00  0.00    -0.508 OA
ATOM     20  H   UNL     1      -8.660   2.870   5.610  1.00  0.00     0.293 HD
ENDBRANCH  16  19
ENDBRANCH   3  13
BRANCH  10  21
ATOM     21  O   UNL     1       1.058  -0.218   0.688  1.00  0.00    -0.507 OA
ATOM     22  H   UNL     1       0.785  -0.795  -0.093  1.00  0.00     0.293 HD
ENDBRANCH  10  21
BRANCH  11  23
ATOM     23  O   UNL     1       2.082  -1.292   5.255  1.00  0.00    -0.508 OA
ATOM     24  H   UNL     1       2.142  -0.847   6.162  1.00  0.00     0.293 HD
ENDBRANCH  11  23
ENDBRANCH   1   2
BRANCH   1  25
ATOM     25  C   UNL     1      -5.491   0.187   1.161  1.00  0.00     0.339 C 
ATOM     26  C   UNL     1      -5.904  -0.222  -0.267  1.00  0.00     0.214 C 
ATOM     27  O   UNL     1      -5.512  -0.928   2.043  1.00  0.00    -0.332 OA
ATOM     28  C   UNL     1      -5.057  -1.404  -0.784  1.00  0.00     0.180 C 
ATOM     29  C   UNL     1      -4.592  -1.928   1.636  1.00  0.00     0.179 C 
ATOM     30  C   UNL     1      -5.007  -2.522   0.268  1.00  0.00     0.177 C 
BRANCH  26  31
ATOM     31  O   UNL     1      -5.794   0.885  -1.125  1.00  0.00    -0.384 OA
ATOM     32  H   UNL     1      -5.295   1.584  -0.627  1.00  0.00     0.211 HD
ENDBRANCH  26  31
BRANCH  28  33
ATOM     33  O   UNL     1      -3.749  -0.986  -1.084  1.00  0.00    -0.387 OA
ATOM     34  H   UNL     1      -3.146  -1.425  -0.429  1.00  0.00     0.211 HD
ENDBRANCH  28  33
BRANCH  29  35
ATOM     35  C   UNL     1      -4.525  -3.001   2.730  1.00  0.00     0.191 C 
BRANCH  35  36
ATOM     36  O   UNL     1      -4.052  -2.445   3.926  1.00  0.00    -0.394 OA
ATOM     37  H   UNL     1      -3.090  -2.685   3.979  1.00  0.00     0.210 HD
ENDBRANCH  35  36
ENDBRANCH  29  35
BRANCH  30  38
ATOM     38  O   UNL     1      -6.274  -3.125   0.359  1.00  0.00    -0.387 OA
ATOM     39  H   UNL     1      -6.154  -4.092   0.169  1.00  0.00     0.211 HD
ENDBRANCH  30  38
ENDBRANCH   1  25
TORSDOF 11
ENDMDL
