MODEL 1
REMARK VINA RESULT:    -3.975      0.000      0.000
REMARK INTER + INTRA:          -5.453
REMARK INTER:                  -5.137
REMARK INTRA:                  -0.317
REMARK UNBOUND:                -0.317
REMARK SMILES CCCCCCC(=O)[O-]
REMARK SMILES IDX 5 1 6 2 7 3 8 4 9 5 4 6 3 7 2 8 1 9
REMARK H PARENT
REMARK Flexibility Score: inf
ROOT
ATOM      1  C   UNL     1     108.335 -82.475  23.022  1.00  0.00     0.006 C 
ENDROOT
BRANCH   1   2
ATOM      2  C   UNL     1     109.817 -82.489  23.420  1.00  0.00     0.053 C 
BRANCH   2   3
ATOM      3  C   UNL     1     110.175 -81.305  24.266  1.00  0.00     0.041 C 
ATOM      4  O   UNL     1     110.436 -80.197  23.727  1.00  0.00    -0.550 OA
ATOM      5  O   UNL     1     110.188 -81.418  25.651  1.00  0.00    -0.550 OA
ENDBRANCH   2   3
ENDBRANCH   1   2
BRANCH   1   6
ATOM      6  C   UNL     1     107.605 -83.758  23.456  1.00  0.00     0.000 C 
BRANCH   6   7
ATOM      7  C   UNL     1     106.490 -83.487  24.478  1.00  0.00    -0.000 C 
BRANCH   7   8
ATOM      8  C   UNL     1     106.419 -82.010  24.895  1.00  0.00    -0.003 C 
ATOM      9  C   UNL     1     106.881 -81.824  26.337  1.00  0.00     0.004 C 
ENDBRANCH   7   8
ENDBRANCH   6   7
ENDBRANCH   1   6
TORSDOF 5
ENDMDL
MODEL 2
REMARK VINA RESULT:    -3.888      7.155      9.256
REMARK INTER + INTRA:          -5.341
REMARK INTER:                  -5.151
REMARK INTRA:                  -0.190
REMARK UNBOUND:                -0.317
REMARK SMILES CCCCCCC(=O)[O-]
REMARK SMILES IDX 5 1 6 2 7 3 8 4 9 5 4 6 3 7 2 8 1 9
REMARK H PARENT
REMARK Flexibility Score: inf
ROOT
ATOM      1  C   UNL     1     115.932 -82.368  21.893  1.00  0.00     0.006 C 
ENDROOT
BRANCH   1   2
ATOM      2  C   UNL     1     114.727 -82.121  20.976  1.00  0.00     0.053 C 
BRANCH   2   3
ATOM      3  C   UNL     1     113.835 -83.322  20.895  1.00  0.00     0.041 C 
ATOM      4  O   UNL     1     113.940 -84.125  19.931  1.00  0.00    -0.550 OA
ATOM      5  O   UNL     1     112.912 -83.572  21.903  1.00  0.00    -0.550 OA
ENDBRANCH   2   3
ENDBRANCH   1   2
BRANCH   1   6
ATOM      6  C   UNL     1     116.918 -83.387  21.294  1.00  0.00     0.000 C 
BRANCH   6   7
ATOM      7  C   UNL     1     118.386 -82.989  21.515  1.00  0.00    -0.000 C 
BRANCH   7   8
ATOM      8  C   UNL     1     118.547 -81.503  21.871  1.00  0.00    -0.003 C 
ATOM      9  C   UNL     1     119.298 -80.754  20.773  1.00  0.00     0.004 C 
ENDBRANCH   7   8
ENDBRANCH   6   7
ENDBRANCH   1   6
TORSDOF 5
ENDMDL
MODEL 3
REMARK VINA RESULT:    -3.846      5.757      7.581
REMARK INTER + INTRA:          -5.286
REMARK INTER:                  -4.875
REMARK INTRA:                  -0.411
REMARK UNBOUND:                -0.317
REMARK SMILES CCCCCCC(=O)[O-]
REMARK SMILES IDX 5 1 6 2 7 3 8 4 9 5 4 6 3 7 2 8 1 9
REMARK H PARENT
REMARK Flexibility Score: inf
ROOT
ATOM      1  C   UNL     1     115.088 -82.856  20.212  1.00  0.00     0.006 C 
ENDROOT
BRANCH   1   2
ATOM      2  C   UNL     1     113.909 -83.825  20.381  1.00  0.00     0.053 C 
BRANCH   2   3
ATOM      3  C   UNL     1     112.803 -83.217  21.188  1.00  0.00     0.041 C 
ATOM      4  O   UNL     1     112.474 -83.722  22.293  1.00  0.00    -0.550 OA
ATOM      5  O   UNL     1     112.158 -82.073  20.734  1.00  0.00    -0.550 OA
ENDBRANCH   2   3
ENDBRANCH   1   2
BRANCH   1   6
ATOM      6  C   UNL     1     115.658 -82.394  21.565  1.00  0.00     0.000 C 
BRANCH   6   7
ATOM      7  C   UNL     1     115.722 -80.864  21.687  1.00  0.00    -0.000 C 
BRANCH   7   8
ATOM      8  C   UNL     1     115.372 -80.152  20.371  1.00  0.00    -0.003 C 
ATOM      9  C   UNL     1     114.234 -79.156  20.572  1.00  0.00     0.004 C 
ENDBRANCH   7   8
ENDBRANCH   6   7
ENDBRANCH   1   6
TORSDOF 5
ENDMDL
MODEL 4
REMARK VINA RESULT:    -3.818      6.941      8.346
REMARK INTER + INTRA:          -5.250
REMARK INTER:                  -5.075
REMARK INTRA:                  -0.175
REMARK UNBOUND:                -0.317
REMARK SMILES CCCCCCC(=O)[O-]
REMARK SMILES IDX 5 1 6 2 7 3 8 4 9 5 4 6 3 7 2 8 1 9
REMARK H PARENT
REMARK Flexibility Score: inf
ROOT
ATOM      1  C   UNL     1     115.999 -82.584  21.567  1.00  0.00     0.006 C 
ENDROOT
BRANCH   1   2
ATOM      2  C   UNL     1     117.244 -83.462  21.376  1.00  0.00     0.053 C 
BRANCH   2   3
ATOM      3  C   UNL     1     118.495 -82.747  21.785  1.00  0.00     0.041 C 
ATOM      4  O   UNL     1     119.206 -83.199  22.720  1.00  0.00    -0.550 OA
ATOM      5  O   UNL     1     118.893 -81.598  21.111  1.00  0.00    -0.550 OA
ENDBRANCH   2   3
ENDBRANCH   1   2
BRANCH   1   6
ATOM      6  C   UNL     1     115.008 -82.719  20.398  1.00  0.00     0.000 C 
BRANCH   6   7
ATOM      7  C   UNL     1     113.987 -83.846  20.616  1.00  0.00    -0.000 C 
BRANCH   7   8
ATOM      8  C   UNL     1     112.932 -83.490  21.674  1.00  0.00    -0.003 C 
ATOM      9  C   UNL     1     112.103 -82.284  21.239  1.00  0.00     0.004 C 
ENDBRANCH   7   8
ENDBRANCH   6   7
ENDBRANCH   1   6
TORSDOF 5
ENDMDL
MODEL 5
REMARK VINA RESULT:    -3.812      8.108      9.650
REMARK INTER + INTRA:          -5.243
REMARK INTER:                  -5.061
REMARK INTRA:                  -0.182
REMARK UNBOUND:                -0.317
REMARK SMILES CCCCCCC(=O)[O-]
REMARK SMILES IDX 5 1 6 2 7 3 8 4 9 5 4 6 3 7 2 8 1 9
REMARK H PARENT
REMARK Flexibility Score: inf
ROOT
ATOM      1  C   UNL     1     118.332 -82.962  21.489  1.00  0.00     0.006 C 
ENDROOT
BRANCH   1   2
ATOM      2  C   UNL     1     118.577 -81.948  22.615  1.00  0.00     0.053 C 
BRANCH   2   3
ATOM      3  C   UNL     1     119.563 -82.461  23.619  1.00  0.00     0.041 C 
ATOM      4  O   UNL     1     119.276 -83.453  24.340  1.00  0.00    -0.550 OA
ATOM      5  O   UNL     1     120.813 -81.865  23.735  1.00  0.00    -0.550 OA
ENDBRANCH   2   3
ENDBRANCH   1   2
BRANCH   1   6
ATOM      6  C   UNL     1     116.866 -83.427  21.434  1.00  0.00     0.000 C 
BRANCH   6   7
ATOM      7  C   UNL     1     115.872 -82.260  21.539  1.00  0.00    -0.000 C 
BRANCH   7   8
ATOM      8  C   UNL     1     114.418 -82.701  21.310  1.00  0.00    -0.003 C 
ATOM      9  C   UNL     1     114.334 -83.772  20.226  1.00  0.00     0.004 C 
ENDBRANCH   7   8
ENDBRANCH   6   7
ENDBRANCH   1   6
TORSDOF 5
ENDMDL
MODEL 6
REMARK VINA RESULT:    -3.789      3.628      4.592
REMARK INTER + INTRA:          -5.213
REMARK INTER:                  -4.849
REMARK INTRA:                  -0.364
REMARK UNBOUND:                -0.317
REMARK SMILES CCCCCCC(=O)[O-]
REMARK SMILES IDX 5 1 6 2 7 3 8 4 9 5 4 6 3 7 2 8 1 9
REMARK H PARENT
REMARK Flexibility Score: inf
ROOT
ATOM      1  C   UNL     1     104.918 -81.890  23.236  1.00  0.00     0.006 C 
ENDROOT
BRANCH   1   2
ATOM      2  C   UNL     1     105.220 -81.430  21.803  1.00  0.00     0.053 C 
BRANCH   2   3
ATOM      3  C   UNL     1     105.466 -82.591  20.889  1.00  0.00     0.041 C 
ATOM      4  O   UNL     1     106.150 -82.439  19.842  1.00  0.00    -0.550 OA
ATOM      5  O   UNL     1     104.970 -83.849  21.210  1.00  0.00    -0.550 OA
ENDBRANCH   2   3
ENDBRANCH   1   2
BRANCH   1   6
ATOM      6  C   UNL     1     106.176 -81.890  24.123  1.00  0.00     0.000 C 
BRANCH   6   7
ATOM      7  C   UNL     1     106.706 -83.305  24.397  1.00  0.00    -0.000 C 
BRANCH   7   8
ATOM      8  C   UNL     1     107.843 -83.704  23.444  1.00  0.00    -0.003 C 
ATOM      9  C   UNL     1     109.006 -82.719  23.533  1.00  0.00     0.004 C 
ENDBRANCH   7   8
ENDBRANCH   6   7
ENDBRANCH   1   6
TORSDOF 5
ENDMDL
MODEL 7
REMARK VINA RESULT:    -3.777      8.310      9.120
REMARK INTER + INTRA:          -5.198
REMARK INTER:                  -4.927
REMARK INTRA:                  -0.271
REMARK UNBOUND:                -0.317
REMARK SMILES CCCCCCC(=O)[O-]
REMARK SMILES IDX 5 1 6 2 7 3 8 4 9 5 4 6 3 7 2 8 1 9
REMARK H PARENT
REMARK Flexibility Score: inf
ROOT
ATOM      1  C   UNL     1     115.733 -82.270  21.854  1.00  0.00     0.006 C 
ENDROOT
BRANCH   1   2
ATOM      2  C   UNL     1     116.754 -83.366  21.522  1.00  0.00     0.053 C 
BRANCH   2   3
ATOM      3  C   UNL     1     118.138 -82.983  21.947  1.00  0.00     0.041 C 
ATOM      4  O   UNL     1     118.885 -82.338  21.164  1.00  0.00    -0.550 OA
ATOM      5  O   UNL     1     118.591 -83.308  23.219  1.00  0.00    -0.550 OA
ENDBRANCH   2   3
ENDBRANCH   1   2
BRANCH   1   6
ATOM      6  C   UNL     1     114.947 -81.812  20.613  1.00  0.00     0.000 C 
BRANCH   6   7
ATOM      7  C   UNL     1     115.122 -80.314  20.322  1.00  0.00    -0.000 C 
BRANCH   7   8
ATOM      8  C   UNL     1     116.406 -79.739  20.939  1.00  0.00    -0.003 C 
ATOM      9  C   UNL     1     116.111 -78.473  21.740  1.00  0.00     0.004 C 
ENDBRANCH   7   8
ENDBRANCH   6   7
ENDBRANCH   1   6
TORSDOF 5
ENDMDL
MODEL 8
REMARK VINA RESULT:    -3.770      7.746      9.418
REMARK INTER + INTRA:          -5.189
REMARK INTER:                  -4.974
REMARK INTRA:                  -0.215
REMARK UNBOUND:                -0.317
REMARK SMILES CCCCCCC(=O)[O-]
REMARK SMILES IDX 5 1 6 2 7 3 8 4 9 5 4 6 3 7 2 8 1 9
REMARK H PARENT
REMARK Flexibility Score: inf
ROOT
ATOM      1  C   UNL     1     118.179 -82.879  21.516  1.00  0.00     0.006 C 
ENDROOT
BRANCH   1   2
ATOM      2  C   UNL     1     118.162 -81.514  22.218  1.00  0.00     0.053 C 
BRANCH   2   3
ATOM      3  C   UNL     1     118.736 -80.436  21.351  1.00  0.00     0.041 C 
ATOM      4  O   UNL     1     118.396 -79.236  21.522  1.00  0.00    -0.550 OA
ATOM      5  O   UNL     1     119.674 -80.753  20.375  1.00  0.00    -0.550 OA
ENDBRANCH   2   3
ENDBRANCH   1   2
BRANCH   1   6
ATOM      6  C   UNL     1     116.762 -83.385  21.195  1.00  0.00     0.000 C 
BRANCH   6   7
ATOM      7  C   UNL     1     115.666 -82.507  21.818  1.00  0.00    -0.000 C 
BRANCH   7   8
ATOM      8  C   UNL     1     114.318 -82.643  21.093  1.00  0.00    -0.003 C 
ATOM      9  C   UNL     1     114.340 -83.807  20.106  1.00  0.00     0.004 C 
ENDBRANCH   7   8
ENDBRANCH   6   7
ENDBRANCH   1   6
TORSDOF 5
ENDMDL
MODEL 9
REMARK VINA RESULT:    -3.768      8.131      9.412
REMARK INTER + INTRA:          -5.186
REMARK INTER:                  -4.814
REMARK INTRA:                  -0.372
REMARK UNBOUND:                -0.317
REMARK SMILES CCCCCCC(=O)[O-]
REMARK SMILES IDX 5 1 6 2 7 3 8 4 9 5 4 6 3 7 2 8 1 9
REMARK H PARENT
REMARK Flexibility Score: inf
ROOT
ATOM      1  C   UNL     1     117.165 -82.955  22.104  1.00  0.00     0.006 C 
ENDROOT
BRANCH   1   2
ATOM      2  C   UNL     1     118.547 -82.756  21.467  1.00  0.00     0.053 C 
BRANCH   2   3
ATOM      3  C   UNL     1     118.949 -81.313  21.454  1.00  0.00     0.041 C 
ATOM      4  O   UNL     1     118.665 -80.567  22.427  1.00  0.00    -0.550 OA
ATOM      5  O   UNL     1     119.668 -80.800  20.380  1.00  0.00    -0.550 OA
ENDBRANCH   2   3
ENDBRANCH   1   2
BRANCH   1   6
ATOM      6  C   UNL     1     116.123 -83.454  21.087  1.00  0.00     0.000 C 
BRANCH   6   7
ATOM      7  C   UNL     1     114.937 -82.489  20.936  1.00  0.00    -0.000 C 
BRANCH   7   8
ATOM      8  C   UNL     1     115.236 -81.093  21.501  1.00  0.00    -0.003 C 
ATOM      9  C   UNL     1     115.476 -80.086  20.379  1.00  0.00     0.004 C 
ENDBRANCH   7   8
ENDBRANCH   6   7
ENDBRANCH   1   6
TORSDOF 5
ENDMDL
