MODEL 1
REMARK VINA RESULT:    -4.126      0.000      0.000
REMARK INTER + INTRA:          -5.761
REMARK INTER:                  -5.574
REMARK INTRA:                  -0.187
REMARK UNBOUND:                -0.187
REMARK SMILES COc1ccc(-c2cc(=O)c3c(OC)c(OC)c(OC)c(OC)c3o2)cc1
REMARK SMILES IDX 7 1 8 2 9 3 10 4 11 5 24 6 25 7 21 8 18 9 15 10 12 11 6 12
REMARK SMILES IDX 3 13 4 14 27 15 5 16 26 17 2 18 1 19 22 20 23 21 13 22 14 23
REMARK SMILES IDX 19 24 20 25 16 26 17 27
REMARK H PARENT
REMARK Flexibility Score: inf
ROOT
ATOM      1  C   UNL     1      82.619  -9.719  24.811  1.00  0.00     0.138 A 
ATOM      2  C   UNL     1      83.975  -9.895  25.100  1.00  0.00     0.100 A 
ATOM      3  C   UNL     1      84.385  -9.966  26.428  1.00  0.00     0.197 A 
ATOM      4  O   UNL     1      85.613 -10.124  26.668  1.00  0.00    -0.289 OA
ATOM      5  C   UNL     1      83.429  -9.859  27.469  1.00  0.00     0.115 A 
ATOM      6  C   UNL     1      82.073  -9.697  27.098  1.00  0.00     0.188 A 
ATOM      7  O   UNL     1      81.744  -9.639  25.809  1.00  0.00    -0.452 OA
ATOM      8  C   UNL     1      81.071  -9.575  28.087  1.00  0.00     0.209 A 
ATOM      9  C   UNL     1      81.429  -9.610  29.454  1.00  0.00     0.211 A 
ATOM     10  C   UNL     1      82.789  -9.764  29.834  1.00  0.00     0.208 A 
ATOM     11  C   UNL     1      83.788  -9.913  28.838  1.00  0.00     0.179 A 
ENDROOT
BRANCH   1  12
ATOM     12  C   UNL     1      82.129  -9.627  23.414  1.00  0.00     0.018 A 
ATOM     13  C   UNL     1      81.248  -9.472  20.735  1.00  0.00     0.118 A 
ATOM     14  C   UNL     1      82.525  -9.006  21.093  1.00  0.00     0.047 A 
ATOM     15  C   UNL     1      80.421 -10.016  21.723  1.00  0.00     0.047 A 
ATOM     16  C   UNL     1      82.960  -9.084  22.418  1.00  0.00     0.016 A 
ATOM     17  C   UNL     1      80.855 -10.098  23.050  1.00  0.00     0.016 A 
BRANCH  13  18
ATOM     18  O   UNL     1      80.766  -9.417  19.419  1.00  0.00    -0.497 OA
ATOM     19  C   UNL     1      79.509  -9.940  19.002  1.00  0.00     0.278 C 
ENDBRANCH  13  18
ENDBRANCH   1  12
BRANCH   8  20
ATOM     20  O   UNL     1      79.714  -9.374  27.766  1.00  0.00    -0.490 OA
ATOM     21  C   UNL     1      78.927 -10.125  26.849  1.00  0.00     0.278 C 
ENDBRANCH   8  20
BRANCH  11  22
ATOM     22  O   UNL     1      85.149 -10.121  29.154  1.00  0.00    -0.492 OA
ATOM     23  C   UNL     1      86.084  -9.160  29.629  1.00  0.00     0.278 C 
ENDBRANCH  11  22
BRANCH   9  24
ATOM     24  O   UNL     1      80.462  -9.462  30.464  1.00  0.00    -0.490 OA
ATOM     25  C   UNL     1      79.919  -8.226  30.929  1.00  0.00     0.279 C 
ENDBRANCH   9  24
BRANCH  10  26
ATOM     26  O   UNL     1      83.196  -9.767  31.181  1.00  0.00    -0.490 OA
ATOM     27  C   UNL     1      83.649  -8.662  31.956  1.00  0.00     0.278 C 
ENDBRANCH  10  26
TORSDOF 6
ENDMDL
MODEL 2
REMARK VINA RESULT:    -3.953      1.705      1.946
REMARK INTER + INTRA:          -5.526
REMARK INTER:                  -5.634
REMARK INTRA:                   0.108
REMARK UNBOUND:                -0.187
REMARK SMILES COc1ccc(-c2cc(=O)c3c(OC)c(OC)c(OC)c(OC)c3o2)cc1
REMARK SMILES IDX 7 1 8 2 9 3 10 4 11 5 24 6 25 7 21 8 18 9 15 10 12 11 6 12
REMARK SMILES IDX 3 13 4 14 27 15 5 16 26 17 2 18 1 19 22 20 23 21 13 22 14 23
REMARK SMILES IDX 19 24 20 25 16 26 17 27
REMARK H PARENT
REMARK Flexibility Score: inf
ROOT
ATOM      1  C   UNL     1      82.694  -8.621  25.296  1.00  0.00     0.138 A 
ATOM      2  C   UNL     1      83.810  -7.855  25.644  1.00  0.00     0.100 A 
ATOM      3  C   UNL     1      84.013  -7.513  26.978  1.00  0.00     0.197 A 
ATOM      4  O   UNL     1      85.025  -6.822  27.271  1.00  0.00    -0.289 OA
ATOM      5  C   UNL     1      83.090  -7.942  27.965  1.00  0.00     0.115 A 
ATOM      6  C   UNL     1      81.992  -8.726  27.537  1.00  0.00     0.188 A 
ATOM      7  O   UNL     1      81.856  -9.022  26.246  1.00  0.00    -0.452 OA
ATOM      8  C   UNL     1      81.030  -9.178  28.469  1.00  0.00     0.209 A 
ATOM      9  C   UNL     1      81.166  -8.837  29.834  1.00  0.00     0.211 A 
ATOM     10  C   UNL     1      82.260  -8.043  30.269  1.00  0.00     0.208 A 
ATOM     11  C   UNL     1      83.238  -7.615  29.334  1.00  0.00     0.179 A 
ENDROOT
BRANCH   1  12
ATOM     12  C   UNL     1      82.425  -9.005  23.888  1.00  0.00     0.018 A 
ATOM     13  C   UNL     1      81.866  -9.703  21.209  1.00  0.00     0.118 A 
ATOM     14  C   UNL     1      80.850  -9.733  22.180  1.00  0.00     0.047 A 
ATOM     15  C   UNL     1      83.157  -9.321  21.587  1.00  0.00     0.047 A 
ATOM     16  C   UNL     1      81.128  -9.386  23.505  1.00  0.00     0.016 A 
ATOM     17  C   UNL     1      83.437  -8.971  22.912  1.00  0.00     0.016 A 
BRANCH  13  18
ATOM     18  O   UNL     1      81.636 -10.040  19.867  1.00  0.00    -0.497 OA
ATOM     19  C   UNL     1      80.347 -10.115  19.267  1.00  0.00     0.278 C 
ENDBRANCH  13  18
ENDBRANCH   1  12
BRANCH   8  20
ATOM     20  O   UNL     1      79.901  -9.927  28.085  1.00  0.00    -0.490 OA
ATOM     21  C   UNL     1      79.078  -9.718  26.943  1.00  0.00     0.278 C 
ENDBRANCH   8  20
BRANCH  11  22
ATOM     22  O   UNL     1      84.374  -6.868  29.714  1.00  0.00    -0.492 OA
ATOM     23  C   UNL     1      85.519  -7.332  30.420  1.00  0.00     0.278 C 
ENDBRANCH  11  22
BRANCH   9  24
ATOM     24  O   UNL     1      80.212  -9.244  30.784  1.00  0.00    -0.490 OA
ATOM     25  C   UNL     1      80.446 -10.125  31.882  1.00  0.00     0.279 C 
ENDBRANCH   9  24
BRANCH  10  26
ATOM     26  O   UNL     1      82.415  -7.649  31.611  1.00  0.00    -0.490 OA
ATOM     27  C   UNL     1      82.507  -6.325  32.125  1.00  0.00     0.278 C 
ENDBRANCH  10  26
TORSDOF 6
ENDMDL
