MODEL 1
REMARK VINA RESULT:     3.390      0.000      0.000
REMARK INTER + INTRA:           3.339
REMARK INTER:                   3.588
REMARK INTRA:                  -0.249
REMARK UNBOUND:                -0.249
REMARK SMILES O=c1cc(-c2ccccc2)oc2ccccc12
REMARK SMILES IDX 4 1 3 2 2 3 1 4 17 5 16 6 15 7 14 8 13 9 12 10 11 11 5 12
REMARK SMILES IDX 8 13 7 14 9 15 6 16 10 17
REMARK H PARENT
REMARK Flexibility Score: inf
ROOT
ATOM      1  C   UNL     1      30.904  22.537  35.202  1.00  0.00     0.138 A 
ATOM      2  C   UNL     1      30.311  22.604  33.923  1.00  0.00     0.100 A 
ATOM      3  C   UNL     1      30.315  21.475  33.102  1.00  0.00     0.193 A 
ATOM      4  O   UNL     1      29.785  21.535  31.959  1.00  0.00    -0.289 OA
ATOM      5  C   UNL     1      30.909  20.291  33.559  1.00  0.00     0.065 A 
ATOM      6  C   UNL     1      30.949  19.118  32.782  1.00  0.00     0.016 A 
ATOM      7  C   UNL     1      31.555  17.964  33.288  1.00  0.00     0.001 A 
ATOM      8  C   UNL     1      32.124  17.970  34.565  1.00  0.00     0.004 A 
ATOM      9  C   UNL     1      32.089  19.130  35.343  1.00  0.00     0.048 A 
ATOM     10  C   UNL     1      31.486  20.291  34.847  1.00  0.00     0.138 A 
ATOM     11  O   UNL     1      31.459  21.389  35.595  1.00  0.00    -0.456 OA
ENDROOT
BRANCH   1  12
ATOM     12  C   UNL     1      30.942  23.698  36.143  1.00  0.00     0.017 A 
ATOM     13  C   UNL     1      30.922  25.913  37.892  1.00  0.00     0.000 A 
ATOM     14  C   UNL     1      32.052  25.100  37.809  1.00  0.00     0.001 A 
ATOM     15  C   UNL     1      29.803  25.631  37.111  1.00  0.00     0.001 A 
ATOM     16  C   UNL     1      32.067  24.001  36.943  1.00  0.00     0.012 A 
ATOM     17  C   UNL     1      29.809  24.535  36.244  1.00  0.00     0.012 A 
ENDBRANCH   1  12
TORSDOF 1
ENDMDL
MODEL 2
REMARK VINA RESULT:     4.781     10.968     13.245
REMARK INTER + INTRA:           4.811
REMARK INTER:                   5.032
REMARK INTRA:                  -0.221
REMARK UNBOUND:                -0.249
REMARK SMILES O=c1cc(-c2ccccc2)oc2ccccc12
REMARK SMILES IDX 4 1 3 2 2 3 1 4 17 5 16 6 15 7 14 8 13 9 12 10 11 11 5 12
REMARK SMILES IDX 8 13 7 14 9 15 6 16 10 17
REMARK H PARENT
REMARK Flexibility Score: inf
ROOT
ATOM      1  C   UNL     1      19.783  25.837  33.501  1.00  0.00     0.138 A 
ATOM      2  C   UNL     1      18.489  26.254  33.124  1.00  0.00     0.100 A 
ATOM      3  C   UNL     1      17.576  26.640  34.107  1.00  0.00     0.193 A 
ATOM      4  O   UNL     1      16.420  27.013  33.770  1.00  0.00    -0.289 OA
ATOM      5  C   UNL     1      17.959  26.607  35.456  1.00  0.00     0.065 A 
ATOM      6  C   UNL     1      17.088  26.982  36.496  1.00  0.00     0.016 A 
ATOM      7  C   UNL     1      17.522  26.930  37.824  1.00  0.00     0.001 A 
ATOM      8  C   UNL     1      18.819  26.506  38.125  1.00  0.00     0.004 A 
ATOM      9  C   UNL     1      19.690  26.132  37.098  1.00  0.00     0.048 A 
ATOM     10  C   UNL     1      19.267  26.180  35.765  1.00  0.00     0.138 A 
ATOM     11  O   UNL     1      20.104  25.821  34.796  1.00  0.00    -0.456 OA
ENDROOT
BRANCH   1  12
ATOM     12  C   UNL     1      20.820  25.408  32.513  1.00  0.00     0.017 A 
ATOM     13  C   UNL     1      22.740  24.507  30.651  1.00  0.00     0.000 A 
ATOM     14  C   UNL     1      22.728  25.844  31.049  1.00  0.00     0.001 A 
ATOM     15  C   UNL     1      21.803  23.617  31.173  1.00  0.00     0.001 A 
ATOM     16  C   UNL     1      21.778  26.296  31.972  1.00  0.00     0.012 A 
ATOM     17  C   UNL     1      20.851  24.060  32.095  1.00  0.00     0.012 A 
ENDBRANCH   1  12
TORSDOF 1
ENDMDL
MODEL 3
REMARK VINA RESULT:     4.788      9.762     11.869
REMARK INTER + INTRA:           4.819
REMARK INTER:                   5.086
REMARK INTRA:                  -0.266
REMARK UNBOUND:                -0.249
REMARK SMILES O=c1cc(-c2ccccc2)oc2ccccc12
REMARK SMILES IDX 4 1 3 2 2 3 1 4 17 5 16 6 15 7 14 8 13 9 12 10 11 11 5 12
REMARK SMILES IDX 8 13 7 14 9 15 6 16 10 17
REMARK H PARENT
REMARK Flexibility Score: inf
ROOT
ATOM      1  C   UNL     1      20.915  23.496  36.341  1.00  0.00     0.138 A 
ATOM      2  C   UNL     1      20.326  24.296  37.343  1.00  0.00     0.100 A 
ATOM      3  C   UNL     1      19.786  25.537  37.005  1.00  0.00     0.193 A 
ATOM      4  O   UNL     1      19.259  26.251  37.901  1.00  0.00    -0.289 OA
ATOM      5  C   UNL     1      19.836  25.973  35.673  1.00  0.00     0.065 A 
ATOM      6  C   UNL     1      19.310  27.213  35.265  1.00  0.00     0.016 A 
ATOM      7  C   UNL     1      19.388  27.597  33.923  1.00  0.00     0.001 A 
ATOM      8  C   UNL     1      19.986  26.754  32.982  1.00  0.00     0.004 A 
ATOM      9  C   UNL     1      20.510  25.521  33.379  1.00  0.00     0.048 A 
ATOM     10  C   UNL     1      20.439  25.126  34.720  1.00  0.00     0.138 A 
ATOM     11  O   UNL     1      20.942  23.951  35.086  1.00  0.00    -0.456 OA
ENDROOT
BRANCH   1  12
ATOM     12  C   UNL     1      21.517  22.156  36.617  1.00  0.00     0.017 A 
ATOM     13  C   UNL     1      22.669  19.615  37.043  1.00  0.00     0.000 A 
ATOM     14  C   UNL     1      22.191  20.354  38.125  1.00  0.00     0.001 A 
ATOM     15  C   UNL     1      22.578  20.132  35.752  1.00  0.00     0.001 A 
ATOM     16  C   UNL     1      21.619  21.614  37.919  1.00  0.00     0.012 A 
ATOM     17  C   UNL     1      22.008  21.390  35.538  1.00  0.00     0.012 A 
ENDBRANCH   1  12
TORSDOF 1
ENDMDL
MODEL 4
REMARK VINA RESULT:     5.043      5.494      6.874
REMARK INTER + INTRA:           5.089
REMARK INTER:                   5.355
REMARK INTRA:                  -0.266
REMARK UNBOUND:                -0.249
REMARK SMILES O=c1cc(-c2ccccc2)oc2ccccc12
REMARK SMILES IDX 4 1 3 2 2 3 1 4 17 5 16 6 15 7 14 8 13 9 12 10 11 11 5 12
REMARK SMILES IDX 8 13 7 14 9 15 6 16 10 17
REMARK H PARENT
REMARK Flexibility Score: inf
ROOT
ATOM      1  C   UNL     1      26.827  18.227  35.887  1.00  0.00     0.138 A 
ATOM      2  C   UNL     1      28.002  17.564  36.301  1.00  0.00     0.100 A 
ATOM      3  C   UNL     1      29.209  17.834  35.655  1.00  0.00     0.193 A 
ATOM      4  O   UNL     1      30.259  17.242  36.026  1.00  0.00    -0.289 OA
ATOM      5  C   UNL     1      29.238  18.762  34.605  1.00  0.00     0.065 A 
ATOM      6  C   UNL     1      30.421  19.080  33.911  1.00  0.00     0.016 A 
ATOM      7  C   UNL     1      30.392  20.012  32.870  1.00  0.00     0.001 A 
ATOM      8  C   UNL     1      29.191  20.632  32.513  1.00  0.00     0.004 A 
ATOM      9  C   UNL     1      28.012  20.321  33.196  1.00  0.00     0.048 A 
ATOM     10  C   UNL     1      28.028  19.389  34.239  1.00  0.00     0.138 A 
ATOM     11  O   UNL     1      26.901  19.101  34.882  1.00  0.00    -0.456 OA
ENDROOT
BRANCH   1  12
ATOM     12  C   UNL     1      25.494  17.995  36.524  1.00  0.00     0.017 A 
ATOM     13  C   UNL     1      22.940  17.627  37.666  1.00  0.00     0.000 A 
ATOM     14  C   UNL     1      24.023  16.876  38.123  1.00  0.00     0.001 A 
ATOM     15  C   UNL     1      23.120  18.558  36.645  1.00  0.00     0.001 A 
ATOM     16  C   UNL     1      25.292  17.055  37.560  1.00  0.00     0.012 A 
ATOM     17  C   UNL     1      24.384  18.743  36.077  1.00  0.00     0.012 A 
ENDBRANCH   1  12
TORSDOF 1
ENDMDL
MODEL 5
REMARK VINA RESULT:     6.143      1.677      2.070
REMARK INTER + INTRA:           6.253
REMARK INTER:                   6.503
REMARK INTRA:                  -0.250
REMARK UNBOUND:                -0.249
REMARK SMILES O=c1cc(-c2ccccc2)oc2ccccc12
REMARK SMILES IDX 4 1 3 2 2 3 1 4 17 5 16 6 15 7 14 8 13 9 12 10 11 11 5 12
REMARK SMILES IDX 8 13 7 14 9 15 6 16 10 17
REMARK H PARENT
REMARK Flexibility Score: inf
ROOT
ATOM      1  C   UNL     1      30.532  22.650  35.340  1.00  0.00     0.138 A 
ATOM      2  C   UNL     1      31.498  22.316  34.368  1.00  0.00     0.100 A 
ATOM      3  C   UNL     1      31.262  21.249  33.500  1.00  0.00     0.193 A 
ATOM      4  O   UNL     1      32.125  20.951  32.630  1.00  0.00    -0.289 OA
ATOM      5  C   UNL     1      30.067  20.523  33.607  1.00  0.00     0.065 A 
ATOM      6  C   UNL     1      29.766  19.436  32.765  1.00  0.00     0.016 A 
ATOM      7  C   UNL     1      28.559  18.748  32.916  1.00  0.00     0.001 A 
ATOM      8  C   UNL     1      27.647  19.134  33.903  1.00  0.00     0.004 A 
ATOM      9  C   UNL     1      27.938  20.212  34.743  1.00  0.00     0.048 A 
ATOM     10  C   UNL     1      29.143  20.908  34.602  1.00  0.00     0.138 A 
ATOM     11  O   UNL     1      29.410  21.931  35.407  1.00  0.00    -0.456 OA
ENDROOT
BRANCH   1  12
ATOM     12  C   UNL     1      30.707  23.777  36.307  1.00  0.00     0.017 A 
ATOM     13  C   UNL     1      30.940  25.925  38.123  1.00  0.00     0.000 A 
ATOM     14  C   UNL     1      32.057  25.150  37.812  1.00  0.00     0.001 A 
ATOM     15  C   UNL     1      29.708  25.638  37.536  1.00  0.00     0.001 A 
ATOM     16  C   UNL     1      31.947  24.084  36.913  1.00  0.00     0.012 A 
ATOM     17  C   UNL     1      29.590  24.575  36.637  1.00  0.00     0.012 A 
ENDBRANCH   1  12
TORSDOF 1
ENDMDL
MODEL 6
REMARK VINA RESULT:     6.242      9.486     11.423
REMARK INTER + INTRA:           6.358
REMARK INTER:                   6.622
REMARK INTRA:                  -0.264
REMARK UNBOUND:                -0.249
REMARK SMILES O=c1cc(-c2ccccc2)oc2ccccc12
REMARK SMILES IDX 4 1 3 2 2 3 1 4 17 5 16 6 15 7 14 8 13 9 12 10 11 11 5 12
REMARK SMILES IDX 8 13 7 14 9 15 6 16 10 17
REMARK H PARENT
REMARK Flexibility Score: inf
ROOT
ATOM      1  C   UNL     1      21.261  23.381  34.868  1.00  0.00     0.138 A 
ATOM      2  C   UNL     1      21.423  23.273  33.471  1.00  0.00     0.100 A 
ATOM      3  C   UNL     1      21.018  24.324  32.647  1.00  0.00     0.193 A 
ATOM      4  O   UNL     1      21.163  24.227  31.398  1.00  0.00    -0.289 OA
ATOM      5  C   UNL     1      20.456  25.473  33.220  1.00  0.00     0.065 A 
ATOM      6  C   UNL     1      20.026  26.568  32.447  1.00  0.00     0.016 A 
ATOM      7  C   UNL     1      19.472  27.690  33.071  1.00  0.00     0.001 A 
ATOM      8  C   UNL     1      19.341  27.729  34.462  1.00  0.00     0.004 A 
ATOM      9  C   UNL     1      19.766  26.646  35.237  1.00  0.00     0.048 A 
ATOM     10  C   UNL     1      20.321  25.518  34.623  1.00  0.00     0.138 A 
ATOM     11  O   UNL     1      20.720  24.493  35.370  1.00  0.00    -0.456 OA
ENDROOT
BRANCH   1  12
ATOM     12  C   UNL     1      21.668  22.303  35.821  1.00  0.00     0.017 A 
ATOM     13  C   UNL     1      22.425  20.332  37.694  1.00  0.00     0.000 A 
ATOM     14  C   UNL     1      22.369  20.019  36.336  1.00  0.00     0.001 A 
ATOM     15  C   UNL     1      22.108  21.619  38.125  1.00  0.00     0.001 A 
ATOM     16  C   UNL     1      21.994  20.992  35.403  1.00  0.00     0.012 A 
ATOM     17  C   UNL     1      21.732  22.597  37.200  1.00  0.00     0.012 A 
ENDBRANCH   1  12
TORSDOF 1
ENDMDL
