MODEL 1
REMARK VINA RESULT:    -4.010      0.000      0.000
REMARK INTER + INTRA:          -9.296
REMARK INTER:                  -7.057
REMARK INTRA:                  -2.239
REMARK UNBOUND:                -2.239
REMARK SMILES CCCCCCCCCCCCCCC(=O)[O-]
REMARK SMILES IDX 9 1 10 2 11 3 12 4 13 5 14 6 15 7 16 8 17 9 8 10 7 11 6 12
REMARK SMILES IDX 5 13 4 14 3 15 2 16 1 17
REMARK H PARENT
REMARK Flexibility Score: inf
ROOT
ATOM      1  C   UNL     1       2.545  -6.541  -8.810  1.00  0.00     0.000 C 
ENDROOT
BRANCH   1   2
ATOM      2  C   UNL     1       3.311  -7.119  -7.606  1.00  0.00     0.000 C 
BRANCH   2   3
ATOM      3  C   UNL     1       3.020  -6.369  -6.296  1.00  0.00     0.000 C 
BRANCH   3   4
ATOM      4  C   UNL     1       4.256  -5.642  -5.735  1.00  0.00     0.000 C 
BRANCH   4   5
ATOM      5  C   UNL     1       5.584  -6.403  -5.902  1.00  0.00     0.006 C 
BRANCH   5   6
ATOM      6  C   UNL     1       6.034  -7.109  -4.616  1.00  0.00     0.053 C 
BRANCH   6   7
ATOM      7  C   UNL     1       5.489  -8.501  -4.565  1.00  0.00     0.041 C 
ATOM      8  O   UNL     1       6.022  -9.415  -5.248  1.00  0.00    -0.550 OA
ATOM      9  O   UNL     1       4.362  -8.779  -3.802  1.00  0.00    -0.550 OA
ENDBRANCH   6   7
ENDBRANCH   5   6
ENDBRANCH   4   5
ENDBRANCH   3   4
ENDBRANCH   2   3
ENDBRANCH   1   2
BRANCH   1  10
ATOM     10  C   UNL     1       3.417  -5.810  -9.847  1.00  0.00     0.000 C 
BRANCH  10  11
ATOM     11  C   UNL     1       4.889  -5.693  -9.417  1.00  0.00    -0.000 C 
BRANCH  11  12
ATOM     12  C   UNL     1       5.343  -4.231  -9.260  1.00  0.00    -0.000 C 
BRANCH  12  13
ATOM     13  C   UNL     1       4.176  -3.236  -9.389  1.00  0.00    -0.000 C 
BRANCH  13  14
ATOM     14  C   UNL     1       3.810  -2.577  -8.048  1.00  0.00    -0.000 C 
BRANCH  14  15
ATOM     15  C   UNL     1       2.424  -3.008  -7.537  1.00  0.00    -0.000 C 
BRANCH  15  16
ATOM     16  C   UNL     1       1.278  -2.377  -8.345  1.00  0.00    -0.003 C 
ATOM     17  C   UNL     1       0.445  -3.411  -9.100  1.00  0.00     0.004 C 
ENDBRANCH  15  16
ENDBRANCH  14  15
ENDBRANCH  13  14
ENDBRANCH  12  13
ENDBRANCH  11  12
ENDBRANCH  10  11
ENDBRANCH   1  10
TORSDOF 13
ENDMDL
MODEL 2
REMARK VINA RESULT:    -3.806      2.783      4.096
REMARK INTER + INTRA:          -8.937
REMARK INTER:                  -7.853
REMARK INTRA:                  -1.084
REMARK UNBOUND:                -2.239
REMARK SMILES CCCCCCCCCCCCCCC(=O)[O-]
REMARK SMILES IDX 9 1 10 2 11 3 12 4 13 5 14 6 15 7 16 8 17 9 8 10 7 11 6 12
REMARK SMILES IDX 5 13 4 14 3 15 2 16 1 17
REMARK H PARENT
REMARK Flexibility Score: inf
ROOT
ATOM      1  C   UNL     1       3.733  -3.021  -7.866  1.00  0.00     0.000 C 
ENDROOT
BRANCH   1   2
ATOM      2  C   UNL     1       2.624  -3.854  -7.199  1.00  0.00     0.000 C 
BRANCH   2   3
ATOM      3  C   UNL     1       3.112  -5.237  -6.735  1.00  0.00     0.000 C 
BRANCH   3   4
ATOM      4  C   UNL     1       4.322  -5.745  -7.541  1.00  0.00     0.000 C 
BRANCH   4   5
ATOM      5  C   UNL     1       5.419  -6.424  -6.702  1.00  0.00     0.006 C 
BRANCH   5   6
ATOM      6  C   UNL     1       5.155  -6.340  -5.192  1.00  0.00     0.053 C 
BRANCH   6   7
ATOM      7  C   UNL     1       4.968  -7.709  -4.618  1.00  0.00     0.041 C 
ATOM      8  O   UNL     1       4.985  -7.880  -3.371  1.00  0.00    -0.550 OA
ATOM      9  O   UNL     1       4.824  -8.803  -5.461  1.00  0.00    -0.550 OA
ENDBRANCH   6   7
ENDBRANCH   5   6
ENDBRANCH   4   5
ENDBRANCH   3   4
ENDBRANCH   2   3
ENDBRANCH   1   2
BRANCH   1  10
ATOM     10  C   UNL     1       3.469  -2.641  -9.335  1.00  0.00     0.000 C 
BRANCH  10  11
ATOM     11  C   UNL     1       4.753  -2.275 -10.099  1.00  0.00    -0.000 C 
BRANCH  11  12
ATOM     12  C   UNL     1       5.980  -2.173  -9.177  1.00  0.00    -0.000 C 
BRANCH  12  13
ATOM     13  C   UNL     1       6.451  -0.720  -8.983  1.00  0.00    -0.000 C 
BRANCH  13  14
ATOM     14  C   UNL     1       5.962  -0.112  -7.659  1.00  0.00    -0.000 C 
BRANCH  14  15
ATOM     15  C   UNL     1       7.043   0.732  -6.961  1.00  0.00    -0.000 C 
BRANCH  15  16
ATOM     16  C   UNL     1       8.433   0.079  -7.028  1.00  0.00    -0.003 C 
ATOM     17  C   UNL     1       9.065  -0.116  -5.650  1.00  0.00     0.004 C 
ENDBRANCH  15  16
ENDBRANCH  14  15
ENDBRANCH  13  14
ENDBRANCH  12  13
ENDBRANCH  11  12
ENDBRANCH  10  11
ENDBRANCH   1  10
TORSDOF 13
ENDMDL
MODEL 3
REMARK VINA RESULT:    -3.755      1.519      2.446
REMARK INTER + INTRA:          -8.848
REMARK INTER:                  -6.685
REMARK INTRA:                  -2.163
REMARK UNBOUND:                -2.239
REMARK SMILES CCCCCCCCCCCCCCC(=O)[O-]
REMARK SMILES IDX 9 1 10 2 11 3 12 4 13 5 14 6 15 7 16 8 17 9 8 10 7 11 6 12
REMARK SMILES IDX 5 13 4 14 3 15 2 16 1 17
REMARK H PARENT
REMARK Flexibility Score: inf
ROOT
ATOM      1  C   UNL     1       3.474  -5.870  -6.144  1.00  0.00     0.000 C 
ENDROOT
BRANCH   1   2
ATOM      2  C   UNL     1       3.436  -6.494  -4.737  1.00  0.00     0.000 C 
BRANCH   2   3
ATOM      3  C   UNL     1       4.722  -7.261  -4.388  1.00  0.00     0.000 C 
BRANCH   3   4
ATOM      4  C   UNL     1       5.998  -6.439  -4.648  1.00  0.00     0.000 C 
BRANCH   4   5
ATOM      5  C   UNL     1       7.232  -7.270  -5.043  1.00  0.00     0.006 C 
BRANCH   5   6
ATOM      6  C   UNL     1       7.443  -7.345  -6.560  1.00  0.00     0.053 C 
BRANCH   6   7
ATOM      7  C   UNL     1       7.141  -8.721  -7.063  1.00  0.00     0.041 C 
ATOM      8  O   UNL     1       5.987  -9.206  -6.924  1.00  0.00    -0.550 OA
ATOM      9  O   UNL     1       8.146  -9.488  -7.639  1.00  0.00    -0.550 OA
ENDBRANCH   6   7
ENDBRANCH   5   6
ENDBRANCH   4   5
ENDBRANCH   3   4
ENDBRANCH   2   3
ENDBRANCH   1   2
BRANCH   1  10
ATOM     10  C   UNL     1       3.329  -6.872  -7.305  1.00  0.00     0.000 C 
BRANCH  10  11
ATOM     11  C   UNL     1       4.244  -6.544  -8.498  1.00  0.00    -0.000 C 
BRANCH  11  12
ATOM     12  C   UNL     1       5.053  -5.253  -8.283  1.00  0.00    -0.000 C 
BRANCH  12  13
ATOM     13  C   UNL     1       5.026  -4.330  -9.514  1.00  0.00    -0.000 C 
BRANCH  13  14
ATOM     14  C   UNL     1       3.822  -3.374  -9.509  1.00  0.00    -0.000 C 
BRANCH  14  15
ATOM     15  C   UNL     1       3.618  -2.686  -8.148  1.00  0.00    -0.000 C 
BRANCH  15  16
ATOM     16  C   UNL     1       2.156  -2.739  -7.676  1.00  0.00    -0.003 C 
ATOM     17  C   UNL     1       1.330  -3.787  -8.421  1.00  0.00     0.004 C 
ENDBRANCH  15  16
ENDBRANCH  14  15
ENDBRANCH  13  14
ENDBRANCH  12  13
ENDBRANCH  11  12
ENDBRANCH  10  11
ENDBRANCH   1  10
TORSDOF 13
ENDMDL
MODEL 4
REMARK VINA RESULT:    -3.748      2.462      3.710
REMARK INTER + INTRA:          -8.836
REMARK INTER:                  -7.860
REMARK INTRA:                  -0.975
REMARK UNBOUND:                -2.239
REMARK SMILES CCCCCCCCCCCCCCC(=O)[O-]
REMARK SMILES IDX 9 1 10 2 11 3 12 4 13 5 14 6 15 7 16 8 17 9 8 10 7 11 6 12
REMARK SMILES IDX 5 13 4 14 3 15 2 16 1 17
REMARK H PARENT
REMARK Flexibility Score: inf
ROOT
ATOM      1  C   UNL     1       2.611  -4.372  -7.091  1.00  0.00     0.000 C 
ENDROOT
BRANCH   1   2
ATOM      2  C   UNL     1       3.147  -5.590  -7.866  1.00  0.00     0.000 C 
BRANCH   2   3
ATOM      3  C   UNL     1       3.467  -6.785  -6.953  1.00  0.00     0.000 C 
BRANCH   3   4
ATOM      4  C   UNL     1       3.304  -6.456  -5.458  1.00  0.00     0.000 C 
BRANCH   4   5
ATOM      5  C   UNL     1       4.414  -7.013  -4.549  1.00  0.00     0.006 C 
BRANCH   5   6
ATOM      6  C   UNL     1       5.772  -6.339  -4.782  1.00  0.00     0.053 C 
BRANCH   6   7
ATOM      7  C   UNL     1       6.798  -7.354  -5.180  1.00  0.00     0.041 C 
ATOM      8  O   UNL     1       6.439  -8.492  -5.582  1.00  0.00    -0.550 OA
ATOM      9  O   UNL     1       8.150  -7.060  -5.058  1.00  0.00    -0.550 OA
ENDBRANCH   6   7
ENDBRANCH   5   6
ENDBRANCH   4   5
ENDBRANCH   3   4
ENDBRANCH   2   3
ENDBRANCH   1   2
BRANCH   1  10
ATOM     10  C   UNL     1       2.145  -3.195  -7.968  1.00  0.00     0.000 C 
BRANCH  10  11
ATOM     11  C   UNL     1       3.206  -2.754  -8.991  1.00  0.00    -0.000 C 
BRANCH  11  12
ATOM     12  C   UNL     1       4.439  -2.119  -8.326  1.00  0.00    -0.000 C 
BRANCH  12  13
ATOM     13  C   UNL     1       5.576  -1.851  -9.328  1.00  0.00    -0.000 C 
BRANCH  13  14
ATOM     14  C   UNL     1       6.489  -0.694  -8.891  1.00  0.00    -0.000 C 
BRANCH  14  15
ATOM     15  C   UNL     1       6.025  -0.038  -7.579  1.00  0.00    -0.000 C 
BRANCH  15  16
ATOM     16  C   UNL     1       7.174   0.663  -6.835  1.00  0.00    -0.003 C 
ATOM     17  C   UNL     1       8.503  -0.080  -6.960  1.00  0.00     0.004 C 
ENDBRANCH  15  16
ENDBRANCH  14  15
ENDBRANCH  13  14
ENDBRANCH  12  13
ENDBRANCH  11  12
ENDBRANCH  10  11
ENDBRANCH   1  10
TORSDOF 13
ENDMDL
MODEL 5
REMARK VINA RESULT:    -3.676      1.656      2.656
REMARK INTER + INTRA:          -8.708
REMARK INTER:                  -6.904
REMARK INTRA:                  -1.804
REMARK UNBOUND:                -2.239
REMARK SMILES CCCCCCCCCCCCCCC(=O)[O-]
REMARK SMILES IDX 9 1 10 2 11 3 12 4 13 5 14 6 15 7 16 8 17 9 8 10 7 11 6 12
REMARK SMILES IDX 5 13 4 14 3 15 2 16 1 17
REMARK H PARENT
REMARK Flexibility Score: inf
ROOT
ATOM      1  C   UNL     1       4.174  -6.290  -8.358  1.00  0.00     0.000 C 
ENDROOT
BRANCH   1   2
ATOM      2  C   UNL     1       4.607  -5.789  -6.969  1.00  0.00     0.000 C 
BRANCH   2   3
ATOM      3  C   UNL     1       3.562  -6.076  -5.878  1.00  0.00     0.000 C 
BRANCH   3   4
ATOM      4  C   UNL     1       4.164  -6.765  -4.640  1.00  0.00     0.000 C 
BRANCH   4   5
ATOM      5  C   UNL     1       5.697  -6.668  -4.527  1.00  0.00     0.006 C 
BRANCH   5   6
ATOM      6  C   UNL     1       6.392  -8.032  -4.631  1.00  0.00     0.053 C 
BRANCH   6   7
ATOM      7  C   UNL     1       7.705  -7.897  -5.336  1.00  0.00     0.041 C 
ATOM      8  O   UNL     1       8.606  -7.158  -4.860  1.00  0.00    -0.550 OA
ATOM      9  O   UNL     1       7.914  -8.548  -6.545  1.00  0.00    -0.550 OA
ENDBRANCH   6   7
ENDBRANCH   5   6
ENDBRANCH   4   5
ENDBRANCH   3   4
ENDBRANCH   2   3
ENDBRANCH   1   2
BRANCH   1  10
ATOM     10  C   UNL     1       3.037  -7.329  -8.351  1.00  0.00     0.000 C 
BRANCH  10  11
ATOM     11  C   UNL     1       1.970  -7.057  -9.426  1.00  0.00    -0.000 C 
BRANCH  11  12
ATOM     12  C   UNL     1       2.090  -5.649 -10.033  1.00  0.00    -0.000 C 
BRANCH  12  13
ATOM     13  C   UNL     1       0.757  -4.880 -10.002  1.00  0.00    -0.000 C 
BRANCH  13  14
ATOM     14  C   UNL     1       0.846  -3.577  -9.191  1.00  0.00    -0.000 C 
BRANCH  14  15
ATOM     15  C   UNL     1       1.484  -3.784  -7.806  1.00  0.00    -0.000 C 
BRANCH  15  16
ATOM     16  C   UNL     1       2.545  -2.718  -7.483  1.00  0.00    -0.003 C 
ATOM     17  C   UNL     1       3.619  -2.603  -8.563  1.00  0.00     0.004 C 
ENDBRANCH  15  16
ENDBRANCH  14  15
ENDBRANCH  13  14
ENDBRANCH  12  13
ENDBRANCH  11  12
ENDBRANCH  10  11
ENDBRANCH   1  10
TORSDOF 13
ENDMDL
MODEL 6
REMARK VINA RESULT:    -3.553      2.520      3.871
REMARK INTER + INTRA:          -8.492
REMARK INTER:                  -7.036
REMARK INTRA:                  -1.456
REMARK UNBOUND:                -2.239
REMARK SMILES CCCCCCCCCCCCCCC(=O)[O-]
REMARK SMILES IDX 9 1 10 2 11 3 12 4 13 5 14 6 15 7 16 8 17 9 8 10 7 11 6 12
REMARK SMILES IDX 5 13 4 14 3 15 2 16 1 17
REMARK H PARENT
REMARK Flexibility Score: inf
ROOT
ATOM      1  C   UNL     1       5.595  -6.372  -4.784  1.00  0.00     0.000 C 
ENDROOT
BRANCH   1   2
ATOM      2  C   UNL     1       6.714  -7.423  -4.668  1.00  0.00     0.000 C 
BRANCH   2   3
ATOM      3  C   UNL     1       6.698  -8.441  -5.820  1.00  0.00     0.000 C 
BRANCH   3   4
ATOM      4  C   UNL     1       6.372  -7.799  -7.181  1.00  0.00     0.000 C 
BRANCH   4   5
ATOM      5  C   UNL     1       5.501  -8.663  -8.111  1.00  0.00     0.006 C 
BRANCH   5   6
ATOM      6  C   UNL     1       4.184  -9.103  -7.458  1.00  0.00     0.053 C 
BRANCH   6   7
ATOM      7  C   UNL     1       3.053  -8.983  -8.430  1.00  0.00     0.041 C 
ATOM      8  O   UNL     1       2.599  -7.849  -8.735  1.00  0.00    -0.550 OA
ATOM      9  O   UNL     1       2.467 -10.125  -8.960  1.00  0.00    -0.550 OA
ENDBRANCH   6   7
ENDBRANCH   5   6
ENDBRANCH   4   5
ENDBRANCH   3   4
ENDBRANCH   2   3
ENDBRANCH   1   2
BRANCH   1  10
ATOM     10  C   UNL     1       4.174  -6.900  -4.513  1.00  0.00     0.000 C 
BRANCH  10  11
ATOM     11  C   UNL     1       3.121  -6.299  -5.461  1.00  0.00    -0.000 C 
BRANCH  11  12
ATOM     12  C   UNL     1       3.726  -5.288  -6.450  1.00  0.00    -0.000 C 
BRANCH  12  13
ATOM     13  C   UNL     1       2.657  -4.609  -7.325  1.00  0.00    -0.000 C 
BRANCH  13  14
ATOM     14  C   UNL     1       2.888  -3.096  -7.472  1.00  0.00    -0.000 C 
BRANCH  14  15
ATOM     15  C   UNL     1       1.716  -2.384  -8.171  1.00  0.00    -0.000 C 
BRANCH  15  16
ATOM     16  C   UNL     1       1.131  -3.213  -9.327  1.00  0.00    -0.003 C 
ATOM     17  C   UNL     1      -0.392  -3.121  -9.412  1.00  0.00     0.004 C 
ENDBRANCH  15  16
ENDBRANCH  14  15
ENDBRANCH  13  14
ENDBRANCH  12  13
ENDBRANCH  11  12
ENDBRANCH  10  11
ENDBRANCH   1  10
TORSDOF 13
ENDMDL
MODEL 7
REMARK VINA RESULT:    -3.538      4.920      7.283
REMARK INTER + INTRA:          -8.465
REMARK INTER:                  -7.539
REMARK INTRA:                  -0.926
REMARK UNBOUND:                -2.239
REMARK SMILES CCCCCCCCCCCCCCC(=O)[O-]
REMARK SMILES IDX 9 1 10 2 11 3 12 4 13 5 14 6 15 7 16 8 17 9 8 10 7 11 6 12
REMARK SMILES IDX 5 13 4 14 3 15 2 16 1 17
REMARK H PARENT
REMARK Flexibility Score: inf
ROOT
ATOM      1  C   UNL     1       4.244  -2.460  -9.221  1.00  0.00     0.000 C 
ENDROOT
BRANCH   1   2
ATOM      2  C   UNL     1       5.543  -3.228  -9.523  1.00  0.00     0.000 C 
BRANCH   2   3
ATOM      3  C   UNL     1       6.753  -2.300  -9.724  1.00  0.00     0.000 C 
BRANCH   3   4
ATOM      4  C   UNL     1       6.446  -0.833  -9.372  1.00  0.00     0.000 C 
BRANCH   4   5
ATOM      5  C   UNL     1       7.121  -0.322  -8.087  1.00  0.00     0.006 C 
BRANCH   5   6
ATOM      6  C   UNL     1       6.392   0.877  -7.465  1.00  0.00     0.053 C 
BRANCH   6   7
ATOM      7  C   UNL     1       6.922   2.159  -8.026  1.00  0.00     0.041 C 
ATOM      8  O   UNL     1       6.246   2.808  -8.867  1.00  0.00    -0.550 OA
ATOM      9  O   UNL     1       8.183   2.611  -7.658  1.00  0.00    -0.550 OA
ENDBRANCH   6   7
ENDBRANCH   5   6
ENDBRANCH   4   5
ENDBRANCH   3   4
ENDBRANCH   2   3
ENDBRANCH   1   2
BRANCH   1  10
ATOM     10  C   UNL     1       3.760  -2.548  -7.762  1.00  0.00     0.000 C 
BRANCH  10  11
ATOM     11  C   UNL     1       2.289  -2.985  -7.644  1.00  0.00    -0.000 C 
BRANCH  11  12
ATOM     12  C   UNL     1       2.144  -4.463  -7.240  1.00  0.00    -0.000 C 
BRANCH  12  13
ATOM     13  C   UNL     1       3.476  -5.080  -6.778  1.00  0.00    -0.000 C 
BRANCH  13  14
ATOM     14  C   UNL     1       3.289  -6.439  -6.084  1.00  0.00    -0.000 C 
BRANCH  14  15
ATOM     15  C   UNL     1       3.980  -6.502  -4.710  1.00  0.00    -0.000 C 
BRANCH  15  16
ATOM     16  C   UNL     1       5.511  -6.409  -4.819  1.00  0.00    -0.003 C 
ATOM     17  C   UNL     1       6.137  -7.649  -5.456  1.00  0.00     0.004 C 
ENDBRANCH  15  16
ENDBRANCH  14  15
ENDBRANCH  13  14
ENDBRANCH  12  13
ENDBRANCH  11  12
ENDBRANCH  10  11
ENDBRANCH   1  10
TORSDOF 13
ENDMDL
MODEL 8
REMARK VINA RESULT:    -3.470      3.149      6.174
REMARK INTER + INTRA:          -8.346
REMARK INTER:                  -6.616
REMARK INTRA:                  -1.729
REMARK UNBOUND:                -2.239
REMARK SMILES CCCCCCCCCCCCCCC(=O)[O-]
REMARK SMILES IDX 9 1 10 2 11 3 12 4 13 5 14 6 15 7 16 8 17 9 8 10 7 11 6 12
REMARK SMILES IDX 5 13 4 14 3 15 2 16 1 17
REMARK H PARENT
REMARK Flexibility Score: inf
ROOT
ATOM      1  C   UNL     1       3.497  -7.184  -7.822  1.00  0.00     0.000 C 
ENDROOT
BRANCH   1   2
ATOM      2  C   UNL     1       4.537  -6.603  -8.796  1.00  0.00     0.000 C 
BRANCH   2   3
ATOM      3  C   UNL     1       4.050  -5.323  -9.496  1.00  0.00     0.000 C 
BRANCH   3   4
ATOM      4  C   UNL     1       4.734  -4.052  -8.962  1.00  0.00     0.000 C 
BRANCH   4   5
ATOM      5  C   UNL     1       3.864  -2.782  -9.005  1.00  0.00     0.006 C 
BRANCH   5   6
ATOM      6  C   UNL     1       2.852  -2.711  -7.855  1.00  0.00     0.053 C 
BRANCH   6   7
ATOM      7  C   UNL     1       1.454  -2.794  -8.383  1.00  0.00     0.041 C 
ATOM      8  O   UNL     1       0.699  -1.788  -8.333  1.00  0.00    -0.550 OA
ATOM      9  O   UNL     1       0.970  -3.996  -8.883  1.00  0.00    -0.550 OA
ENDBRANCH   6   7
ENDBRANCH   5   6
ENDBRANCH   4   5
ENDBRANCH   3   4
ENDBRANCH   2   3
ENDBRANCH   1   2
BRANCH   1  10
ATOM     10  C   UNL     1       2.940  -6.185  -6.791  1.00  0.00     0.000 C 
BRANCH  10  11
ATOM     11  C   UNL     1       3.929  -5.887  -5.651  1.00  0.00    -0.000 C 
BRANCH  11  12
ATOM     12  C   UNL     1       3.850  -6.923  -4.516  1.00  0.00    -0.000 C 
BRANCH  12  13
ATOM     13  C   UNL     1       5.237  -7.446  -4.100  1.00  0.00    -0.000 C 
BRANCH  13  14
ATOM     14  C   UNL     1       6.378  -6.521  -4.555  1.00  0.00    -0.000 C 
BRANCH  14  15
ATOM     15  C   UNL     1       7.572  -7.297  -5.138  1.00  0.00    -0.000 C 
BRANCH  15  16
ATOM     16  C   UNL     1       7.483  -7.453  -6.665  1.00  0.00    -0.003 C 
ATOM     17  C   UNL     1       6.964  -8.826  -7.092  1.00  0.00     0.004 C 
ENDBRANCH  15  16
ENDBRANCH  14  15
ENDBRANCH  13  14
ENDBRANCH  12  13
ENDBRANCH  11  12
ENDBRANCH  10  11
ENDBRANCH   1  10
TORSDOF 13
ENDMDL
MODEL 9
REMARK VINA RESULT:    -3.438      3.984      6.620
REMARK INTER + INTRA:          -8.290
REMARK INTER:                  -7.037
REMARK INTRA:                  -1.253
REMARK UNBOUND:                -2.239
REMARK SMILES CCCCCCCCCCCCCCC(=O)[O-]
REMARK SMILES IDX 9 1 10 2 11 3 12 4 13 5 14 6 15 7 16 8 17 9 8 10 7 11 6 12
REMARK SMILES IDX 5 13 4 14 3 15 2 16 1 17
REMARK H PARENT
REMARK Flexibility Score: inf
ROOT
ATOM      1  C   UNL     1       3.257  -3.512  -7.409  1.00  0.00     0.000 C 
ENDROOT
BRANCH   1   2
ATOM      2  C   UNL     1       3.541  -2.556  -8.581  1.00  0.00     0.000 C 
BRANCH   2   3
ATOM      3  C   UNL     1       4.933  -2.766  -9.200  1.00  0.00     0.000 C 
BRANCH   3   4
ATOM      4  C   UNL     1       5.802  -1.496  -9.163  1.00  0.00     0.000 C 
BRANCH   4   5
ATOM      5  C   UNL     1       5.728  -0.700  -7.847  1.00  0.00     0.006 C 
BRANCH   5   6
ATOM      6  C   UNL     1       6.673   0.508  -7.825  1.00  0.00     0.053 C 
BRANCH   6   7
ATOM      7  C   UNL     1       8.021   0.109  -7.312  1.00  0.00     0.041 C 
ATOM      8  O   UNL     1       8.911  -0.284  -8.110  1.00  0.00    -0.550 OA
ATOM      9  O   UNL     1       8.277   0.122  -5.946  1.00  0.00    -0.550 OA
ENDBRANCH   6   7
ENDBRANCH   5   6
ENDBRANCH   4   5
ENDBRANCH   3   4
ENDBRANCH   2   3
ENDBRANCH   1   2
BRANCH   1  10
ATOM     10  C   UNL     1       4.160  -4.758  -7.351  1.00  0.00     0.000 C 
BRANCH  10  11
ATOM     11  C   UNL     1       3.423  -6.051  -7.744  1.00  0.00    -0.000 C 
BRANCH  11  12
ATOM     12  C   UNL     1       3.416  -7.093  -6.612  1.00  0.00    -0.000 C 
BRANCH  12  13
ATOM     13  C   UNL     1       3.544  -6.450  -5.220  1.00  0.00    -0.000 C 
BRANCH  13  14
ATOM     14  C   UNL     1       4.653  -7.092  -4.371  1.00  0.00    -0.000 C 
BRANCH  14  15
ATOM     15  C   UNL     1       6.040  -6.487  -4.654  1.00  0.00    -0.000 C 
BRANCH  15  16
ATOM     16  C   UNL     1       7.001  -7.498  -5.300  1.00  0.00    -0.003 C 
ATOM     17  C   UNL     1       7.288  -7.190  -6.769  1.00  0.00     0.004 C 
ENDBRANCH  15  16
ENDBRANCH  14  15
ENDBRANCH  13  14
ENDBRANCH  12  13
ENDBRANCH  11  12
ENDBRANCH  10  11
ENDBRANCH   1  10
TORSDOF 13
ENDMDL
