MODEL 1
REMARK VINA RESULT:    -2.964      0.000      0.000
REMARK INTER + INTRA:          -6.101
REMARK INTER:                  -5.129
REMARK INTRA:                  -0.972
REMARK UNBOUND:                -0.972
REMARK SMILES CCCCCCCCCCCCCCO
REMARK SMILES IDX 8 1 7 2 6 3 5 4 4 5 3 6 2 7 1 8 9 9 10 10 11 11 12 12 13 13
REMARK SMILES IDX 14 14 15 15
REMARK H PARENT 15 16
REMARK Flexibility Score: inf
ROOT
ATOM      1  C   UNL     1     128.602 126.915 116.984  1.00  0.00     0.000 C 
ENDROOT
BRANCH   1   2
ATOM      2  C   UNL     1     127.959 127.834 118.038  1.00  0.00    -0.000 C 
BRANCH   2   3
ATOM      3  C   UNL     1     126.446 128.008 117.834  1.00  0.00    -0.000 C 
BRANCH   3   4
ATOM      4  C   UNL     1     125.883 129.068 118.788  1.00  0.00    -0.000 C 
BRANCH   4   5
ATOM      5  C   UNL     1     124.659 128.535 119.543  1.00  0.00    -0.000 C 
BRANCH   5   6
ATOM      6  C   UNL     1     123.940 127.451 118.730  1.00  0.00    -0.000 C 
BRANCH   6   7
ATOM      7  C   UNL     1     123.682 126.205 119.583  1.00  0.00    -0.003 C 
ATOM      8  C   UNL     1     124.981 125.661 120.171  1.00  0.00     0.004 C 
ENDBRANCH   6   7
ENDBRANCH   5   6
ENDBRANCH   4   5
ENDBRANCH   3   4
ENDBRANCH   2   3
ENDBRANCH   1   2
BRANCH   1   9
ATOM      9  C   UNL     1     127.808 126.771 115.669  1.00  0.00     0.000 C 
BRANCH   9  10
ATOM     10  C   UNL     1     127.936 125.407 114.969  1.00  0.00     0.000 C 
BRANCH  10  11
ATOM     11  C   UNL     1     129.388 124.900 114.914  1.00  0.00     0.000 C 
BRANCH  11  12
ATOM     12  C   UNL     1     129.517 123.432 115.353  1.00  0.00     0.002 C 
BRANCH  12  13
ATOM     13  C   UNL     1     128.315 122.954 116.182  1.00  0.00     0.028 C 
BRANCH  13  14
ATOM     14  C   UNL     1     127.678 121.709 115.559  1.00  0.00     0.156 C 
BRANCH  14  15
ATOM     15  O   UNL     1     126.377 121.995 115.123  1.00  0.00    -0.396 OA
ATOM     16  H   UNL     1     125.994 122.638 115.775  1.00  0.00     0.210 HD
ENDBRANCH  14  15
ENDBRANCH  13  14
ENDBRANCH  12  13
ENDBRANCH  11  12
ENDBRANCH  10  11
ENDBRANCH   9  10
ENDBRANCH   1   9
TORSDOF 13
ENDMDL
MODEL 2
REMARK VINA RESULT:    -2.878     10.475     13.059
REMARK INTER + INTRA:          -5.953
REMARK INTER:                  -5.110
REMARK INTRA:                  -0.844
REMARK UNBOUND:                -0.972
REMARK SMILES CCCCCCCCCCCCCCO
REMARK SMILES IDX 8 1 7 2 6 3 5 4 4 5 3 6 2 7 1 8 9 9 10 10 11 11 12 12 13 13
REMARK SMILES IDX 14 14 15 15
REMARK H PARENT 15 16
REMARK Flexibility Score: inf
ROOT
ATOM      1  C   UNL     1     114.204 129.514 115.522  1.00  0.00     0.000 C 
ENDROOT
BRANCH   1   2
ATOM      2  C   UNL     1     113.684 128.130 115.095  1.00  0.00    -0.000 C 
BRANCH   2   3
ATOM      3  C   UNL     1     112.224 127.889 115.507  1.00  0.00    -0.000 C 
BRANCH   3   4
ATOM      4  C   UNL     1     111.850 128.741 116.726  1.00  0.00    -0.000 C 
BRANCH   4   5
ATOM      5  C   UNL     1     110.959 127.955 117.695  1.00  0.00    -0.000 C 
BRANCH   5   6
ATOM      6  C   UNL     1     111.521 126.550 117.943  1.00  0.00    -0.000 C 
BRANCH   6   7
ATOM      7  C   UNL     1     110.411 125.579 118.359  1.00  0.00    -0.003 C 
ATOM      8  C   UNL     1     110.990 124.246 118.824  1.00  0.00     0.004 C 
ENDBRANCH   6   7
ENDBRANCH   5   6
ENDBRANCH   4   5
ENDBRANCH   3   4
ENDBRANCH   2   3
ENDBRANCH   1   2
BRANCH   1   9
ATOM      9  C   UNL     1     115.539 129.940 114.875  1.00  0.00     0.000 C 
BRANCH   9  10
ATOM     10  C   UNL     1     116.792 129.705 115.737  1.00  0.00     0.000 C 
BRANCH  10  11
ATOM     11  C   UNL     1     117.630 128.507 115.255  1.00  0.00     0.000 C 
BRANCH  11  12
ATOM     12  C   UNL     1     117.340 127.226 116.053  1.00  0.00     0.002 C 
BRANCH  12  13
ATOM     13  C   UNL     1     117.535 127.413 117.565  1.00  0.00     0.028 C 
BRANCH  13  14
ATOM     14  C   UNL     1     117.951 126.099 118.233  1.00  0.00     0.156 C 
BRANCH  14  15
ATOM     15  O   UNL     1     116.894 125.587 118.998  1.00  0.00    -0.396 OA
ATOM     16  H   UNL     1     116.116 125.503 118.388  1.00  0.00     0.210 HD
ENDBRANCH  14  15
ENDBRANCH  13  14
ENDBRANCH  12  13
ENDBRANCH  11  12
ENDBRANCH  10  11
ENDBRANCH   9  10
ENDBRANCH   1   9
TORSDOF 13
ENDMDL
MODEL 3
REMARK VINA RESULT:    -2.793      1.251      2.800
REMARK INTER + INTRA:          -5.807
REMARK INTER:                  -5.043
REMARK INTRA:                  -0.763
REMARK UNBOUND:                -0.972
REMARK SMILES CCCCCCCCCCCCCCO
REMARK SMILES IDX 8 1 7 2 6 3 5 4 4 5 3 6 2 7 1 8 9 9 10 10 11 11 12 12 13 13
REMARK SMILES IDX 14 14 15 15
REMARK H PARENT 15 16
REMARK Flexibility Score: inf
ROOT
ATOM      1  C   UNL     1     128.153 125.162 115.185  1.00  0.00     0.000 C 
ENDROOT
BRANCH   1   2
ATOM      2  C   UNL     1     128.176 126.696 115.313  1.00  0.00    -0.000 C 
BRANCH   2   3
ATOM      3  C   UNL     1     129.188 127.191 116.357  1.00  0.00    -0.000 C 
BRANCH   3   4
ATOM      4  C   UNL     1     128.500 127.473 117.698  1.00  0.00    -0.000 C 
BRANCH   4   5
ATOM      5  C   UNL     1     127.009 127.774 117.500  1.00  0.00    -0.000 C 
BRANCH   5   6
ATOM      6  C   UNL     1     126.175 127.209 118.657  1.00  0.00    -0.000 C 
BRANCH   6   7
ATOM      7  C   UNL     1     124.917 128.052 118.888  1.00  0.00    -0.003 C 
ATOM      8  C   UNL     1     123.679 127.169 119.024  1.00  0.00     0.004 C 
ENDBRANCH   6   7
ENDBRANCH   5   6
ENDBRANCH   4   5
ENDBRANCH   3   4
ENDBRANCH   2   3
ENDBRANCH   1   2
BRANCH   1   9
ATOM      9  C   UNL     1     129.517 124.510 114.875  1.00  0.00     0.000 C 
BRANCH   9  10
ATOM     10  C   UNL     1     129.772 123.160 115.567  1.00  0.00     0.000 C 
BRANCH  10  11
ATOM     11  C   UNL     1     128.543 122.641 116.334  1.00  0.00     0.000 C 
BRANCH  11  12
ATOM     12  C   UNL     1     128.105 121.243 115.869  1.00  0.00     0.002 C 
BRANCH  12  13
ATOM     13  C   UNL     1     126.685 121.231 115.283  1.00  0.00     0.028 C 
BRANCH  13  14
ATOM     14  C   UNL     1     126.195 119.798 115.057  1.00  0.00     0.156 C 
BRANCH  14  15
ATOM     15  O   UNL     1     127.099 118.883 115.613  1.00  0.00    -0.396 OA
ATOM     16  H   UNL     1     127.353 118.256 114.885  1.00  0.00     0.210 HD
ENDBRANCH  14  15
ENDBRANCH  13  14
ENDBRANCH  12  13
ENDBRANCH  11  12
ENDBRANCH  10  11
ENDBRANCH   9  10
ENDBRANCH   1   9
TORSDOF 13
ENDMDL
MODEL 4
REMARK VINA RESULT:    -2.784     13.700     15.637
REMARK INTER + INTRA:          -5.790
REMARK INTER:                  -5.150
REMARK INTRA:                  -0.640
REMARK UNBOUND:                -0.972
REMARK SMILES CCCCCCCCCCCCCCO
REMARK SMILES IDX 8 1 7 2 6 3 5 4 4 5 3 6 2 7 1 8 9 9 10 10 11 11 12 12 13 13
REMARK SMILES IDX 14 14 15 15
REMARK H PARENT 15 16
REMARK Flexibility Score: inf
ROOT
ATOM      1  C   UNL     1     112.384 124.617 119.640  1.00  0.00     0.000 C 
ENDROOT
BRANCH   1   2
ATOM      2  C   UNL     1     113.332 123.408 119.715  1.00  0.00    -0.000 C 
BRANCH   2   3
ATOM      3  C   UNL     1     112.888 122.245 118.814  1.00  0.00    -0.000 C 
BRANCH   3   4
ATOM      4  C   UNL     1     113.930 121.121 118.816  1.00  0.00    -0.000 C 
BRANCH   4   5
ATOM      5  C   UNL     1     114.124 120.546 117.408  1.00  0.00    -0.000 C 
BRANCH   5   6
ATOM      6  C   UNL     1     112.776 120.348 116.704  1.00  0.00    -0.000 C 
BRANCH   6   7
ATOM      7  C   UNL     1     112.975 119.941 115.241  1.00  0.00    -0.003 C 
ATOM      8  C   UNL     1     112.105 118.739 114.879  1.00  0.00     0.004 C 
ENDBRANCH   6   7
ENDBRANCH   5   6
ENDBRANCH   4   5
ENDBRANCH   3   4
ENDBRANCH   2   3
ENDBRANCH   1   2
BRANCH   1   9
ATOM      9  C   UNL     1     111.145 124.424 118.740  1.00  0.00     0.000 C 
BRANCH   9  10
ATOM     10  C   UNL     1     110.434 125.720 118.312  1.00  0.00     0.000 C 
BRANCH  10  11
ATOM     11  C   UNL     1     111.386 126.927 118.244  1.00  0.00     0.000 C 
BRANCH  11  12
ATOM     12  C   UNL     1     111.661 127.380 116.801  1.00  0.00     0.002 C 
BRANCH  12  13
ATOM     13  C   UNL     1     112.985 128.148 116.663  1.00  0.00     0.028 C 
BRANCH  13  14
ATOM     14  C   UNL     1     113.462 128.162 115.208  1.00  0.00     0.156 C 
BRANCH  14  15
ATOM     15  O   UNL     1     114.677 127.473 115.089  1.00  0.00    -0.396 OA
ATOM     16  H   UNL     1     115.382 128.077 115.441  1.00  0.00     0.210 HD
ENDBRANCH  14  15
ENDBRANCH  13  14
ENDBRANCH  12  13
ENDBRANCH  11  12
ENDBRANCH  10  11
ENDBRANCH   9  10
ENDBRANCH   1   9
TORSDOF 13
ENDMDL
MODEL 5
REMARK VINA RESULT:    -2.767      1.574      5.947
REMARK INTER + INTRA:          -5.761
REMARK INTER:                  -4.638
REMARK INTRA:                  -1.123
REMARK UNBOUND:                -0.972
REMARK SMILES CCCCCCCCCCCCCCO
REMARK SMILES IDX 8 1 7 2 6 3 5 4 4 5 3 6 2 7 1 8 9 9 10 10 11 11 12 12 13 13
REMARK SMILES IDX 14 14 15 15
REMARK H PARENT 15 16
REMARK Flexibility Score: inf
ROOT
ATOM      1  C   UNL     1     127.718 127.075 118.083  1.00  0.00     0.000 C 
ENDROOT
BRANCH   1   2
ATOM      2  C   UNL     1     128.623 126.861 116.857  1.00  0.00    -0.000 C 
BRANCH   2   3
ATOM      3  C   UNL     1     127.833 126.764 115.543  1.00  0.00    -0.000 C 
BRANCH   3   4
ATOM      4  C   UNL     1     127.979 125.371 114.917  1.00  0.00    -0.000 C 
BRANCH   4   5
ATOM      5  C   UNL     1     129.448 124.936 114.878  1.00  0.00    -0.000 C 
BRANCH   5   6
ATOM      6  C   UNL     1     129.610 123.495 115.376  1.00  0.00    -0.000 C 
BRANCH   6   7
ATOM      7  C   UNL     1     128.474 123.113 116.331  1.00  0.00    -0.003 C 
ATOM      8  C   UNL     1     129.012 122.410 117.574  1.00  0.00     0.004 C 
ENDBRANCH   6   7
ENDBRANCH   5   6
ENDBRANCH   4   5
ENDBRANCH   3   4
ENDBRANCH   2   3
ENDBRANCH   1   2
BRANCH   1   9
ATOM      9  C   UNL     1     126.517 128.016 117.855  1.00  0.00     0.000 C 
BRANCH   9  10
ATOM     10  C   UNL     1     126.171 128.939 119.036  1.00  0.00     0.000 C 
BRANCH  10  11
ATOM     11  C   UNL     1     124.822 128.591 119.690  1.00  0.00     0.000 C 
BRANCH  11  12
ATOM     12  C   UNL     1     123.912 127.770 118.761  1.00  0.00     0.002 C 
BRANCH  12  13
ATOM     13  C   UNL     1     123.408 126.476 119.416  1.00  0.00     0.028 C 
BRANCH  13  14
ATOM     14  C   UNL     1     124.430 125.934 120.420  1.00  0.00     0.156 C 
BRANCH  14  15
ATOM     15  O   UNL     1     125.337 125.081 119.776  1.00  0.00    -0.396 OA
ATOM     16  H   UNL     1     126.178 125.596 119.660  1.00  0.00     0.210 HD
ENDBRANCH  14  15
ENDBRANCH  13  14
ENDBRANCH  12  13
ENDBRANCH  11  12
ENDBRANCH  10  11
ENDBRANCH   9  10
ENDBRANCH   1   9
TORSDOF 13
ENDMDL
MODEL 6
REMARK VINA RESULT:    -2.755     11.422     14.252
REMARK INTER + INTRA:          -5.740
REMARK INTER:                  -4.916
REMARK INTRA:                  -0.825
REMARK UNBOUND:                -0.972
REMARK SMILES CCCCCCCCCCCCCCO
REMARK SMILES IDX 8 1 7 2 6 3 5 4 4 5 3 6 2 7 1 8 9 9 10 10 11 11 12 12 13 13
REMARK SMILES IDX 14 14 15 15
REMARK H PARENT 15 16
REMARK Flexibility Score: inf
ROOT
ATOM      1  C   UNL     1     112.211 127.823 115.577  1.00  0.00     0.000 C 
ENDROOT
BRANCH   1   2
ATOM      2  C   UNL     1     112.243 127.716 117.112  1.00  0.00    -0.000 C 
BRANCH   2   3
ATOM      3  C   UNL     1     111.072 128.448 117.785  1.00  0.00    -0.000 C 
BRANCH   3   4
ATOM      4  C   UNL     1     109.981 127.459 118.214  1.00  0.00    -0.000 C 
BRANCH   4   5
ATOM      5  C   UNL     1     110.555 126.047 118.386  1.00  0.00    -0.000 C 
BRANCH   5   6
ATOM      6  C   UNL     1     110.014 125.384 119.658  1.00  0.00    -0.000 C 
BRANCH   6   7
ATOM      7  C   UNL     1     110.911 124.221 120.095  1.00  0.00    -0.003 C 
ATOM      8  C   UNL     1     111.827 123.773 118.959  1.00  0.00     0.004 C 
ENDBRANCH   6   7
ENDBRANCH   5   6
ENDBRANCH   4   5
ENDBRANCH   3   4
ENDBRANCH   2   3
ENDBRANCH   1   2
BRANCH   1   9
ATOM      9  C   UNL     1     112.544 129.220 115.010  1.00  0.00     0.000 C 
BRANCH   9  10
ATOM     10  C   UNL     1     113.734 129.932 115.677  1.00  0.00     0.000 C 
BRANCH  10  11
ATOM     11  C   UNL     1     115.085 129.559 115.041  1.00  0.00     0.000 C 
BRANCH  11  12
ATOM     12  C   UNL     1     115.871 128.540 115.883  1.00  0.00     0.002 C 
BRANCH  12  13
ATOM     13  C   UNL     1     117.352 128.458 115.484  1.00  0.00     0.028 C 
BRANCH  13  14
ATOM     14  C   UNL     1     118.150 127.636 116.499  1.00  0.00     0.156 C 
BRANCH  14  15
ATOM     15  O   UNL     1     117.376 126.569 116.977  1.00  0.00    -0.396 OA
ATOM     16  H   UNL     1     116.913 126.897 117.792  1.00  0.00     0.210 HD
ENDBRANCH  14  15
ENDBRANCH  13  14
ENDBRANCH  12  13
ENDBRANCH  11  12
ENDBRANCH  10  11
ENDBRANCH   9  10
ENDBRANCH   1   9
TORSDOF 13
ENDMDL
MODEL 7
REMARK VINA RESULT:    -2.716     11.853     14.931
REMARK INTER + INTRA:          -5.673
REMARK INTER:                  -4.929
REMARK INTRA:                  -0.744
REMARK UNBOUND:                -0.972
REMARK SMILES CCCCCCCCCCCCCCO
REMARK SMILES IDX 8 1 7 2 6 3 5 4 4 5 3 6 2 7 1 8 9 9 10 10 11 11 12 12 13 13
REMARK SMILES IDX 14 14 15 15
REMARK H PARENT 15 16
REMARK Flexibility Score: inf
ROOT
ATOM      1  C   UNL     1     111.516 126.165 117.876  1.00  0.00     0.000 C 
ENDROOT
BRANCH   1   2
ATOM      2  C   UNL     1     110.388 125.312 118.484  1.00  0.00    -0.000 C 
BRANCH   2   3
ATOM      3  C   UNL     1     110.892 124.330 119.552  1.00  0.00    -0.000 C 
BRANCH   3   4
ATOM      4  C   UNL     1     112.374 124.572 119.864  1.00  0.00    -0.000 C 
BRANCH   4   5
ATOM      5  C   UNL     1     113.157 123.254 119.875  1.00  0.00    -0.000 C 
BRANCH   5   6
ATOM      6  C   UNL     1     112.759 122.368 118.688  1.00  0.00    -0.000 C 
BRANCH   6   7
ATOM      7  C   UNL     1     113.810 121.281 118.438  1.00  0.00    -0.003 C 
ATOM      8  C   UNL     1     113.374 120.340 117.319  1.00  0.00     0.004 C 
ENDBRANCH   6   7
ENDBRANCH   5   6
ENDBRANCH   4   5
ENDBRANCH   3   4
ENDBRANCH   2   3
ENDBRANCH   1   2
BRANCH   1   9
ATOM      9  C   UNL     1     111.224 127.678 117.797  1.00  0.00     0.000 C 
BRANCH   9  10
ATOM     10  C   UNL     1     112.299 128.519 117.086  1.00  0.00     0.000 C 
BRANCH  10  11
ATOM     11  C   UNL     1     112.263 128.361 115.556  1.00  0.00     0.000 C 
BRANCH  11  12
ATOM     12  C   UNL     1     113.655 128.091 114.959  1.00  0.00     0.002 C 
BRANCH  12  13
ATOM     13  C   UNL     1     114.628 129.259 115.176  1.00  0.00     0.028 C 
BRANCH  13  14
ATOM     14  C   UNL     1     115.972 128.763 115.717  1.00  0.00     0.156 C 
BRANCH  14  15
ATOM     15  O   UNL     1     116.099 127.382 115.509  1.00  0.00    -0.396 OA
ATOM     16  H   UNL     1     116.960 127.244 115.035  1.00  0.00     0.210 HD
ENDBRANCH  14  15
ENDBRANCH  13  14
ENDBRANCH  12  13
ENDBRANCH  11  12
ENDBRANCH  10  11
ENDBRANCH   9  10
ENDBRANCH   1   9
TORSDOF 13
ENDMDL
MODEL 8
REMARK VINA RESULT:    -2.671      1.036      2.146
REMARK INTER + INTRA:          -5.595
REMARK INTER:                  -4.414
REMARK INTRA:                  -1.181
REMARK UNBOUND:                -0.972
REMARK SMILES CCCCCCCCCCCCCCO
REMARK SMILES IDX 8 1 7 2 6 3 5 4 4 5 3 6 2 7 1 8 9 9 10 10 11 11 12 12 13 13
REMARK SMILES IDX 14 14 15 15
REMARK H PARENT 15 16
REMARK Flexibility Score: inf
ROOT
ATOM      1  C   UNL     1     126.679 127.845 117.587  1.00  0.00     0.000 C 
ENDROOT
BRANCH   1   2
ATOM      2  C   UNL     1     126.331 129.109 118.393  1.00  0.00    -0.000 C 
BRANCH   2   3
ATOM      3  C   UNL     1     126.408 128.888 119.911  1.00  0.00    -0.000 C 
BRANCH   3   4
ATOM      4  C   UNL     1     125.225 129.555 120.623  1.00  0.00    -0.000 C 
BRANCH   4   5
ATOM      5  C   UNL     1     124.259 128.506 121.186  1.00  0.00    -0.000 C 
BRANCH   5   6
ATOM      6  C   UNL     1     124.811 127.088 120.993  1.00  0.00    -0.000 C 
BRANCH   6   7
ATOM      7  C   UNL     1     123.789 126.192 120.286  1.00  0.00    -0.003 C 
ATOM      8  C   UNL     1     123.349 126.800 118.956  1.00  0.00     0.004 C 
ENDBRANCH   6   7
ENDBRANCH   5   6
ENDBRANCH   4   5
ENDBRANCH   3   4
ENDBRANCH   2   3
ENDBRANCH   1   2
BRANCH   1   9
ATOM      9  C   UNL     1     127.891 127.046 118.112  1.00  0.00     0.000 C 
BRANCH   9  10
ATOM     10  C   UNL     1     129.075 126.932 117.136  1.00  0.00     0.000 C 
BRANCH  10  11
ATOM     11  C   UNL     1     128.634 126.918 115.662  1.00  0.00     0.000 C 
BRANCH  11  12
ATOM     12  C   UNL     1     128.121 125.540 115.213  1.00  0.00     0.002 C 
BRANCH  12  13
ATOM     13  C   UNL     1     129.244 124.497 115.105  1.00  0.00     0.028 C 
BRANCH  13  14
ATOM     14  C   UNL     1     128.789 123.141 115.652  1.00  0.00     0.156 C 
BRANCH  14  15
ATOM     15  O   UNL     1     127.418 122.960 115.426  1.00  0.00    -0.396 OA
ATOM     16  H   UNL     1     127.133 122.202 115.999  1.00  0.00     0.210 HD
ENDBRANCH  14  15
ENDBRANCH  13  14
ENDBRANCH  12  13
ENDBRANCH  11  12
ENDBRANCH  10  11
ENDBRANCH   9  10
ENDBRANCH   1   9
TORSDOF 13
ENDMDL
MODEL 9
REMARK VINA RESULT:    -2.658      1.554      2.576
REMARK INTER + INTRA:          -5.572
REMARK INTER:                  -4.148
REMARK INTRA:                  -1.424
REMARK UNBOUND:                -0.972
REMARK SMILES CCCCCCCCCCCCCCO
REMARK SMILES IDX 8 1 7 2 6 3 5 4 4 5 3 6 2 7 1 8 9 9 10 10 11 11 12 12 13 13
REMARK SMILES IDX 14 14 15 15
REMARK H PARENT 15 16
REMARK Flexibility Score: inf
ROOT
ATOM      1  C   UNL     1     128.280 128.353 119.321  1.00  0.00     0.000 C 
ENDROOT
BRANCH   1   2
ATOM      2  C   UNL     1     127.641 129.574 118.635  1.00  0.00    -0.000 C 
BRANCH   2   3
ATOM      3  C   UNL     1     126.107 129.555 118.691  1.00  0.00    -0.000 C 
BRANCH   3   4
ATOM      4  C   UNL     1     125.559 128.187 118.266  1.00  0.00    -0.000 C 
BRANCH   4   5
ATOM      5  C   UNL     1     124.114 127.999 118.744  1.00  0.00    -0.000 C 
BRANCH   5   6
ATOM      6  C   UNL     1     124.058 127.798 120.263  1.00  0.00    -0.000 C 
BRANCH   6   7
ATOM      7  C   UNL     1     124.850 126.556 120.682  1.00  0.00    -0.003 C 
ATOM      8  C   UNL     1     125.906 126.901 121.728  1.00  0.00     0.004 C 
ENDBRANCH   6   7
ENDBRANCH   5   6
ENDBRANCH   4   5
ENDBRANCH   3   4
ENDBRANCH   2   3
ENDBRANCH   1   2
BRANCH   1   9
ATOM      9  C   UNL     1     129.228 127.522 118.431  1.00  0.00     0.000 C 
BRANCH   9  10
ATOM     10  C   UNL     1     129.752 128.243 117.177  1.00  0.00     0.000 C 
BRANCH  10  11
ATOM     11  C   UNL     1     129.458 127.472 115.879  1.00  0.00     0.000 C 
BRANCH  11  12
ATOM     12  C   UNL     1     128.196 126.599 115.986  1.00  0.00     0.002 C 
BRANCH  12  13
ATOM     13  C   UNL     1     128.189 125.441 114.976  1.00  0.00     0.028 C 
BRANCH  13  14
ATOM     14  C   UNL     1     128.422 124.099 115.675  1.00  0.00     0.156 C 
BRANCH  14  15
ATOM     15  O   UNL     1     128.337 124.255 117.066  1.00  0.00    -0.396 OA
ATOM     16  H   UNL     1     128.424 125.227 117.249  1.00  0.00     0.210 HD
ENDBRANCH  14  15
ENDBRANCH  13  14
ENDBRANCH  12  13
ENDBRANCH  11  12
ENDBRANCH  10  11
ENDBRANCH   9  10
ENDBRANCH   1   9
TORSDOF 13
ENDMDL
