MODEL 1
REMARK VINA RESULT:    -4.347      0.000      0.000
REMARK INTER + INTRA:          -5.050
REMARK INTER:                  -4.855
REMARK INTRA:                  -0.195
REMARK UNBOUND:                -0.195
REMARK SMILES O=C([O-])c1ccccc1C(=O)[O-]
REMARK SMILES IDX 4 1 9 2 5 3 8 4 6 5 7 6 2 7 1 8 3 9 10 10 11 11 12 12
REMARK H PARENT
REMARK Flexibility Score: inf
ROOT
ATOM      1  C   UNL     1      -5.287 -19.255   9.552  1.00  0.00     0.006 A 
ATOM      2  C   UNL     1      -4.408 -18.264   9.034  1.00  0.00     0.006 A 
ATOM      3  C   UNL     1      -4.826 -20.578   9.682  1.00  0.00     0.010 A 
ATOM      4  C   UNL     1      -3.082 -18.618   8.726  1.00  0.00     0.010 A 
ATOM      5  C   UNL     1      -3.512 -20.911   9.350  1.00  0.00     0.001 A 
ATOM      6  C   UNL     1      -2.638 -19.931   8.885  1.00  0.00     0.001 A 
ENDROOT
BRANCH   1   7
ATOM      7  C   UNL     1      -6.656 -18.950  10.030  1.00  0.00     0.072 C 
ATOM      8  O   UNL     1      -6.900 -18.851  11.261  1.00  0.00    -0.545 OA
ATOM      9  O   UNL     1      -7.703 -18.835   9.123  1.00  0.00    -0.545 OA
ENDBRANCH   1   7
BRANCH   2  10
ATOM     10  C   UNL     1      -4.850 -16.882   8.733  1.00  0.00     0.072 C 
ATOM     11  O   UNL     1      -4.478 -15.924   9.463  1.00  0.00    -0.545 OA
ATOM     12  O   UNL     1      -5.622 -16.613   7.610  1.00  0.00    -0.545 OA
ENDBRANCH   2  10
TORSDOF 2
ENDMDL
MODEL 2
REMARK VINA RESULT:    -4.331      1.907      3.318
REMARK INTER + INTRA:          -5.032
REMARK INTER:                  -4.815
REMARK INTRA:                  -0.217
REMARK UNBOUND:                -0.195
REMARK SMILES O=C([O-])c1ccccc1C(=O)[O-]
REMARK SMILES IDX 4 1 9 2 5 3 8 4 6 5 7 6 2 7 1 8 3 9 10 10 11 11 12 12
REMARK H PARENT
REMARK Flexibility Score: inf
ROOT
ATOM      1  C   UNL     1      -3.034 -19.000   7.374  1.00  0.00     0.006 A 
ATOM      2  C   UNL     1      -3.283 -18.838   8.765  1.00  0.00     0.006 A 
ATOM      3  C   UNL     1      -1.842 -19.625   6.961  1.00  0.00     0.010 A 
ATOM      4  C   UNL     1      -2.363 -19.363   9.692  1.00  0.00     0.010 A 
ATOM      5  C   UNL     1      -0.933 -20.119   7.898  1.00  0.00     0.001 A 
ATOM      6  C   UNL     1      -1.199 -20.000   9.260  1.00  0.00     0.001 A 
ENDROOT
BRANCH   1   7
ATOM      7  C   UNL     1      -4.005 -18.604   6.329  1.00  0.00     0.072 C 
ATOM      8  O   UNL     1      -4.018 -17.430   5.875  1.00  0.00    -0.545 OA
ATOM      9  O   UNL     1      -4.961 -19.510   5.885  1.00  0.00    -0.545 OA
ENDBRANCH   1   7
BRANCH   2  10
ATOM     10  C   UNL     1      -4.438 -18.072   9.287  1.00  0.00     0.072 C 
ATOM     11  O   UNL     1      -4.372 -16.818   9.394  1.00  0.00    -0.545 OA
ATOM     12  O   UNL     1      -5.631 -18.712   9.602  1.00  0.00    -0.545 OA
ENDBRANCH   2  10
TORSDOF 2
ENDMDL
MODEL 3
REMARK VINA RESULT:    -4.322      0.174      2.874
REMARK INTER + INTRA:          -5.022
REMARK INTER:                  -4.819
REMARK INTRA:                  -0.204
REMARK UNBOUND:                -0.195
REMARK SMILES O=C([O-])c1ccccc1C(=O)[O-]
REMARK SMILES IDX 4 1 9 2 5 3 8 4 6 5 7 6 2 7 1 8 3 9 10 10 11 11 12 12
REMARK H PARENT
REMARK Flexibility Score: inf
ROOT
ATOM      1  C   UNL     1      -4.328 -18.388   8.999  1.00  0.00     0.006 A 
ATOM      2  C   UNL     1      -5.217 -19.360   9.535  1.00  0.00     0.006 A 
ATOM      3  C   UNL     1      -2.990 -18.747   8.751  1.00  0.00     0.010 A 
ATOM      4  C   UNL     1      -4.753 -20.672   9.744  1.00  0.00     0.010 A 
ATOM      5  C   UNL     1      -2.546 -20.050   8.985  1.00  0.00     0.001 A 
ATOM      6  C   UNL     1      -3.428 -21.013   9.469  1.00  0.00     0.001 A 
ENDROOT
BRANCH   1   7
ATOM      7  C   UNL     1      -4.759 -17.023   8.619  1.00  0.00     0.072 C 
ATOM      8  O   UNL     1      -4.549 -16.045   9.385  1.00  0.00    -0.545 OA
ATOM      9  O   UNL     1      -5.463 -16.816   7.439  1.00  0.00    -0.545 OA
ENDBRANCH   1   7
BRANCH   2  10
ATOM     10  C   UNL     1      -6.599 -19.034   9.957  1.00  0.00     0.072 C 
ATOM     11  O   UNL     1      -6.853 -18.795  11.168  1.00  0.00    -0.545 OA
ATOM     12  O   UNL     1      -7.618 -18.921   9.019  1.00  0.00    -0.545 OA
ENDBRANCH   2  10
TORSDOF 2
ENDMDL
MODEL 4
REMARK VINA RESULT:    -4.320      1.931      2.892
REMARK INTER + INTRA:          -5.020
REMARK INTER:                  -4.800
REMARK INTRA:                  -0.220
REMARK UNBOUND:                -0.195
REMARK SMILES O=C([O-])c1ccccc1C(=O)[O-]
REMARK SMILES IDX 4 1 9 2 5 3 8 4 6 5 7 6 2 7 1 8 3 9 10 10 11 11 12 12
REMARK H PARENT
REMARK Flexibility Score: inf
ROOT
ATOM      1  C   UNL     1      -3.238 -18.889   8.774  1.00  0.00     0.006 A 
ATOM      2  C   UNL     1      -2.966 -19.048   7.387  1.00  0.00     0.006 A 
ATOM      3  C   UNL     1      -2.320 -19.393   9.714  1.00  0.00     0.010 A 
ATOM      4  C   UNL     1      -1.756 -19.646   6.990  1.00  0.00     0.010 A 
ATOM      5  C   UNL     1      -1.135 -20.002   9.297  1.00  0.00     0.001 A 
ATOM      6  C   UNL     1      -0.848 -20.117   7.939  1.00  0.00     0.001 A 
ENDROOT
BRANCH   1   7
ATOM      7  C   UNL     1      -4.418 -18.153   9.286  1.00  0.00     0.072 C 
ATOM      8  O   UNL     1      -4.352 -16.920   9.528  1.00  0.00    -0.545 OA
ATOM      9  O   UNL     1      -5.596 -18.834   9.569  1.00  0.00    -0.545 OA
ENDBRANCH   1   7
BRANCH   2  10
ATOM     10  C   UNL     1      -3.939 -18.676   6.333  1.00  0.00     0.072 C 
ATOM     11  O   UNL     1      -4.745 -19.534   5.883  1.00  0.00    -0.545 OA
ATOM     12  O   UNL     1      -4.023 -17.367   5.875  1.00  0.00    -0.545 OA
ENDBRANCH   2  10
TORSDOF 2
ENDMDL
MODEL 5
REMARK VINA RESULT:    -3.823     14.270     14.906
REMARK INTER + INTRA:          -4.465
REMARK INTER:                  -4.474
REMARK INTRA:                   0.009
REMARK UNBOUND:                -0.195
REMARK SMILES O=C([O-])c1ccccc1C(=O)[O-]
REMARK SMILES IDX 4 1 9 2 5 3 8 4 6 5 7 6 2 7 1 8 3 9 10 10 11 11 12 12
REMARK H PARENT
REMARK Flexibility Score: inf
ROOT
ATOM      1  C   UNL     1      -7.034  -9.873  21.005  1.00  0.00     0.006 A 
ATOM      2  C   UNL     1      -5.695 -10.261  21.287  1.00  0.00     0.006 A 
ATOM      3  C   UNL     1      -8.091 -10.559  21.632  1.00  0.00     0.010 A 
ATOM      4  C   UNL     1      -5.460 -11.275  22.234  1.00  0.00     0.010 A 
ATOM      5  C   UNL     1      -7.835 -11.576  22.552  1.00  0.00     0.001 A 
ATOM      6  C   UNL     1      -6.523 -11.926  22.861  1.00  0.00     0.001 A 
ENDROOT
BRANCH   1   7
ATOM      7  C   UNL     1      -7.375  -8.728  20.129  1.00  0.00     0.072 C 
ATOM      8  O   UNL     1      -7.587  -7.587  20.615  1.00  0.00    -0.545 OA
ATOM      9  O   UNL     1      -7.531  -8.919  18.761  1.00  0.00    -0.545 OA
ENDBRANCH   1   7
BRANCH   2  10
ATOM     10  C   UNL     1      -4.529  -9.691  20.571  1.00  0.00     0.072 C 
ATOM     11  O   UNL     1      -4.318  -8.449  20.590  1.00  0.00    -0.545 OA
ATOM     12  O   UNL     1      -3.619 -10.520  19.925  1.00  0.00    -0.545 OA
ENDBRANCH   2  10
TORSDOF 2
ENDMDL
MODEL 6
REMARK VINA RESULT:    -3.810     14.312     14.998
REMARK INTER + INTRA:          -4.451
REMARK INTER:                  -4.499
REMARK INTRA:                   0.049
REMARK UNBOUND:                -0.195
REMARK SMILES O=C([O-])c1ccccc1C(=O)[O-]
REMARK SMILES IDX 4 1 9 2 5 3 8 4 6 5 7 6 2 7 1 8 3 9 10 10 11 11 12 12
REMARK H PARENT
REMARK Flexibility Score: inf
ROOT
ATOM      1  C   UNL     1      -5.686 -10.260  21.288  1.00  0.00     0.006 A 
ATOM      2  C   UNL     1      -7.031  -9.871  21.036  1.00  0.00     0.006 A 
ATOM      3  C   UNL     1      -5.435 -11.308  22.193  1.00  0.00     0.010 A 
ATOM      4  C   UNL     1      -8.077 -10.587  21.648  1.00  0.00     0.010 A 
ATOM      5  C   UNL     1      -6.487 -11.990  22.805  1.00  0.00     0.001 A 
ATOM      6  C   UNL     1      -7.806 -11.639  22.524  1.00  0.00     0.001 A 
ENDROOT
BRANCH   1   7
ATOM      7  C   UNL     1      -4.528  -9.657  20.588  1.00  0.00     0.072 C 
ATOM      8  O   UNL     1      -4.355  -8.411  20.587  1.00  0.00    -0.545 OA
ATOM      9  O   UNL     1      -3.654 -10.461  19.866  1.00  0.00    -0.545 OA
ENDBRANCH   1   7
BRANCH   2  10
ATOM     10  C   UNL     1      -7.382  -8.692  20.211  1.00  0.00     0.072 C 
ATOM     11  O   UNL     1      -7.557  -7.568  20.752  1.00  0.00    -0.545 OA
ATOM     12  O   UNL     1      -7.458  -8.793  18.827  1.00  0.00    -0.545 OA
ENDBRANCH   2  10
TORSDOF 2
ENDMDL
MODEL 7
REMARK VINA RESULT:    -3.735      2.859      4.503
REMARK INTER + INTRA:          -4.367
REMARK INTER:                  -4.147
REMARK INTRA:                  -0.220
REMARK UNBOUND:                -0.195
REMARK SMILES O=C([O-])c1ccccc1C(=O)[O-]
REMARK SMILES IDX 4 1 9 2 5 3 8 4 6 5 7 6 2 7 1 8 3 9 10 10 11 11 12 12
REMARK H PARENT
REMARK Flexibility Score: inf
ROOT
ATOM      1  C   UNL     1      -3.852 -18.431   7.213  1.00  0.00     0.006 A 
ATOM      2  C   UNL     1      -3.744 -18.387   8.630  1.00  0.00     0.006 A 
ATOM      3  C   UNL     1      -4.588 -17.430   6.551  1.00  0.00     0.010 A 
ATOM      4  C   UNL     1      -4.319 -17.309   9.328  1.00  0.00     0.010 A 
ATOM      5  C   UNL     1      -5.168 -16.381   7.266  1.00  0.00     0.001 A 
ATOM      6  C   UNL     1      -5.024 -16.314   8.650  1.00  0.00     0.001 A 
ENDROOT
BRANCH   1   7
ATOM      7  C   UNL     1      -3.167 -19.449   6.382  1.00  0.00     0.072 C 
ATOM      8  O   UNL     1      -1.976 -19.282   6.013  1.00  0.00    -0.545 OA
ATOM      9  O   UNL     1      -3.859 -20.573   5.945  1.00  0.00    -0.545 OA
ENDBRANCH   1   7
BRANCH   2  10
ATOM     10  C   UNL     1      -3.111 -19.470   9.418  1.00  0.00     0.072 C 
ATOM     11  O   UNL     1      -3.765 -20.507   9.710  1.00  0.00    -0.545 OA
ATOM     12  O   UNL     1      -1.774 -19.390   9.789  1.00  0.00    -0.545 OA
ENDBRANCH   2  10
TORSDOF 2
ENDMDL
MODEL 8
REMARK VINA RESULT:    -3.693     14.675     16.001
REMARK INTER + INTRA:          -4.320
REMARK INTER:                  -4.422
REMARK INTRA:                   0.102
REMARK UNBOUND:                -0.195
REMARK SMILES O=C([O-])c1ccccc1C(=O)[O-]
REMARK SMILES IDX 4 1 9 2 5 3 8 4 6 5 7 6 2 7 1 8 3 9 10 10 11 11 12 12
REMARK H PARENT
REMARK Flexibility Score: inf
ROOT
ATOM      1  C   UNL     1      -5.931  -9.166  20.875  1.00  0.00     0.006 A 
ATOM      2  C   UNL     1      -6.853  -9.118  21.958  1.00  0.00     0.006 A 
ATOM      3  C   UNL     1      -6.159  -8.357  19.747  1.00  0.00     0.010 A 
ATOM      4  C   UNL     1      -7.932  -8.217  21.900  1.00  0.00     0.010 A 
ATOM      5  C   UNL     1      -7.248  -7.485  19.702  1.00  0.00     0.001 A 
ATOM      6  C   UNL     1      -8.125  -7.406  20.781  1.00  0.00     0.001 A 
ENDROOT
BRANCH   1   7
ATOM      7  C   UNL     1      -4.695  -9.981  20.904  1.00  0.00     0.072 C 
ATOM      8  O   UNL     1      -3.595  -9.495  20.533  1.00  0.00    -0.545 OA
ATOM      9  O   UNL     1      -4.749 -11.319  21.279  1.00  0.00    -0.545 OA
ENDBRANCH   1   7
BRANCH   2  10
ATOM     10  C   UNL     1      -6.770 -10.034  23.120  1.00  0.00     0.072 C 
ATOM     11  O   UNL     1      -7.465 -11.084  23.151  1.00  0.00    -0.545 OA
ATOM     12  O   UNL     1      -5.880  -9.784  24.158  1.00  0.00    -0.545 OA
ENDBRANCH   2  10
TORSDOF 2
ENDMDL
MODEL 9
REMARK VINA RESULT:    -3.670      3.245      4.384
REMARK INTER + INTRA:          -4.294
REMARK INTER:                  -4.069
REMARK INTRA:                  -0.225
REMARK UNBOUND:                -0.195
REMARK SMILES O=C([O-])c1ccccc1C(=O)[O-]
REMARK SMILES IDX 4 1 9 2 5 3 8 4 6 5 7 6 2 7 1 8 3 9 10 10 11 11 12 12
REMARK H PARENT
REMARK Flexibility Score: inf
ROOT
ATOM      1  C   UNL     1      -3.220 -18.904   8.637  1.00  0.00     0.006 A 
ATOM      2  C   UNL     1      -3.192 -19.058   7.223  1.00  0.00     0.006 A 
ATOM      3  C   UNL     1      -3.981 -17.860   9.196  1.00  0.00     0.010 A 
ATOM      4  C   UNL     1      -3.976 -18.206   6.425  1.00  0.00     0.010 A 
ATOM      5  C   UNL     1      -4.734 -17.012   8.383  1.00  0.00     0.001 A 
ATOM      6  C   UNL     1      -4.742 -17.192   7.001  1.00  0.00     0.001 A 
ENDROOT
BRANCH   1   7
ATOM      7  C   UNL     1      -2.538 -19.835   9.564  1.00  0.00     0.072 C 
ATOM      8  O   UNL     1      -1.391 -19.573  10.012  1.00  0.00    -0.545 OA
ATOM      9  O   UNL     1      -3.132 -21.047   9.899  1.00  0.00    -0.545 OA
ENDBRANCH   1   7
BRANCH   2  10
ATOM     10  C   UNL     1      -2.312 -20.037   6.543  1.00  0.00     0.072 C 
ATOM     11  O   UNL     1      -2.785 -21.120   6.107  1.00  0.00    -0.545 OA
ATOM     12  O   UNL     1      -0.971 -19.750   6.319  1.00  0.00    -0.545 OA
ENDBRANCH   2  10
TORSDOF 2
ENDMDL
