MODEL 1
REMARK VINA RESULT:    -3.050      0.000      0.000
REMARK INTER + INTRA:         -10.948
REMARK INTER:                  -6.616
REMARK INTRA:                  -4.333
REMARK UNBOUND:                -4.333
REMARK SMILES CCCCCCCCCCCCCCCCCCCCCC(=O)[O-]
REMARK SMILES IDX 12 1 11 2 10 3 9 4 8 5 7 6 6 7 5 8 4 9 3 10 2 11 1 12 13 13
REMARK SMILES IDX 14 14 15 15 16 16 17 17 18 18 19 19 20 20 21 21 22 22 23 23
REMARK SMILES IDX 24 24
REMARK H PARENT
REMARK Flexibility Score: inf
ROOT
ATOM      1  C   UNL     1      -6.009   0.349  37.338  1.00  0.00     0.000 C 
ENDROOT
BRANCH   1   2
ATOM      2  C   UNL     1      -7.369   0.343  38.057  1.00  0.00     0.000 C 
BRANCH   2   3
ATOM      3  C   UNL     1      -7.274   0.821  39.514  1.00  0.00     0.000 C 
BRANCH   3   4
ATOM      4  C   UNL     1      -8.085   2.108  39.722  1.00  0.00    -0.000 C 
BRANCH   4   5
ATOM      5  C   UNL     1      -7.211   3.374  39.717  1.00  0.00    -0.000 C 
BRANCH   5   6
ATOM      6  C   UNL     1      -7.641   4.463  38.713  1.00  0.00    -0.000 C 
BRANCH   6   7
ATOM      7  C   UNL     1      -6.671   4.693  37.540  1.00  0.00    -0.000 C 
BRANCH   7   8
ATOM      8  C   UNL     1      -6.945   3.757  36.349  1.00  0.00    -0.000 C 
BRANCH   8   9
ATOM      9  C   UNL     1      -8.396   3.842  35.845  1.00  0.00    -0.000 C 
BRANCH   9  10
ATOM     10  C   UNL     1      -9.116   2.488  35.696  1.00  0.00    -0.000 C 
BRANCH  10  11
ATOM     11  C   UNL     1     -10.287   2.293  36.681  1.00  0.00    -0.003 C 
ATOM     12  C   UNL     1     -10.898   3.619  37.133  1.00  0.00     0.004 C 
ENDBRANCH  10  11
ENDBRANCH   9  10
ENDBRANCH   8   9
ENDBRANCH   7   8
ENDBRANCH   6   7
ENDBRANCH   5   6
ENDBRANCH   4   5
ENDBRANCH   3   4
ENDBRANCH   2   3
ENDBRANCH   1   2
BRANCH   1  13
ATOM     13  C   UNL     1      -4.853  -0.296  38.127  1.00  0.00     0.000 C 
BRANCH  13  14
ATOM     14  C   UNL     1      -3.601   0.589  38.295  1.00  0.00     0.000 C 
BRANCH  14  15
ATOM     15  C   UNL     1      -3.883   2.059  38.652  1.00  0.00     0.000 C 
BRANCH  15  16
ATOM     16  C   UNL     1      -3.367   3.041  37.584  1.00  0.00     0.000 C 
BRANCH  16  17
ATOM     17  C   UNL     1      -2.795   2.326  36.349  1.00  0.00     0.000 C 
BRANCH  17  18
ATOM     18  C   UNL     1      -3.652   2.543  35.091  1.00  0.00     0.000 C 
BRANCH  18  19
ATOM     19  C   UNL     1      -3.954   1.233  34.340  1.00  0.00     0.000 C 
BRANCH  19  20
ATOM     20  C   UNL     1      -3.047   0.044  34.708  1.00  0.00     0.006 C 
BRANCH  20  21
ATOM     21  C   UNL     1      -3.148  -1.117  33.712  1.00  0.00     0.053 C 
BRANCH  21  22
ATOM     22  C   UNL     1      -4.577  -1.506  33.504  1.00  0.00     0.041 C 
ATOM     23  O   UNL     1      -5.083  -1.468  32.351  1.00  0.00    -0.550 OA
ATOM     24  O   UNL     1      -5.338  -1.959  34.574  1.00  0.00    -0.550 OA
ENDBRANCH  21  22
ENDBRANCH  20  21
ENDBRANCH  19  20
ENDBRANCH  18  19
ENDBRANCH  17  18
ENDBRANCH  16  17
ENDBRANCH  15  16
ENDBRANCH  14  15
ENDBRANCH  13  14
ENDBRANCH   1  13
TORSDOF 20
ENDMDL
MODEL 2
REMARK VINA RESULT:    -2.930      3.098      5.820
REMARK INTER + INTRA:         -10.687
REMARK INTER:                  -6.477
REMARK INTRA:                  -4.211
REMARK UNBOUND:                -4.333
REMARK SMILES CCCCCCCCCCCCCCCCCCCCCC(=O)[O-]
REMARK SMILES IDX 12 1 11 2 10 3 9 4 8 5 7 6 6 7 5 8 4 9 3 10 2 11 1 12 13 13
REMARK SMILES IDX 14 14 15 15 16 16 17 17 18 18 19 19 20 20 21 21 22 22 23 23
REMARK SMILES IDX 24 24
REMARK H PARENT
REMARK Flexibility Score: inf
ROOT
ATOM      1  C   UNL     1      -7.260   0.515  37.114  1.00  0.00     0.000 C 
ENDROOT
BRANCH   1   2
ATOM      2  C   UNL     1      -6.079  -0.400  37.484  1.00  0.00     0.000 C 
BRANCH   2   3
ATOM      3  C   UNL     1      -4.829  -0.130  36.632  1.00  0.00     0.000 C 
BRANCH   3   4
ATOM      4  C   UNL     1      -3.647   0.297  37.514  1.00  0.00    -0.000 C 
BRANCH   4   5
ATOM      5  C   UNL     1      -3.487   1.825  37.599  1.00  0.00    -0.000 C 
BRANCH   5   6
ATOM      6  C   UNL     1      -2.833   2.484  36.367  1.00  0.00    -0.000 C 
BRANCH   6   7
ATOM      7  C   UNL     1      -3.591   3.693  35.790  1.00  0.00    -0.000 C 
BRANCH   7   8
ATOM      8  C   UNL     1      -4.935   3.945  36.496  1.00  0.00    -0.000 C 
BRANCH   8   9
ATOM      9  C   UNL     1      -6.146   3.617  35.606  1.00  0.00    -0.000 C 
BRANCH   9  10
ATOM     10  C   UNL     1      -5.810   3.296  34.137  1.00  0.00    -0.000 C 
BRANCH  10  11
ATOM     11  C   UNL     1      -6.092   1.833  33.738  1.00  0.00    -0.003 C 
ATOM     12  C   UNL     1      -4.859   1.139  33.159  1.00  0.00     0.004 C 
ENDBRANCH  10  11
ENDBRANCH   9  10
ENDBRANCH   8   9
ENDBRANCH   7   8
ENDBRANCH   6   7
ENDBRANCH   5   6
ENDBRANCH   4   5
ENDBRANCH   3   4
ENDBRANCH   2   3
ENDBRANCH   1   2
BRANCH   1  13
ATOM     13  C   UNL     1      -7.784   1.397  38.264  1.00  0.00     0.000 C 
BRANCH  13  14
ATOM     14  C   UNL     1      -6.697   1.979  39.190  1.00  0.00     0.000 C 
BRANCH  14  15
ATOM     15  C   UNL     1      -6.983   3.393  39.725  1.00  0.00     0.000 C 
BRANCH  15  16
ATOM     16  C   UNL     1      -8.247   4.019  39.109  1.00  0.00     0.000 C 
BRANCH  16  17
ATOM     17  C   UNL     1      -7.939   5.266  38.264  1.00  0.00     0.000 C 
BRANCH  17  18
ATOM     18  C   UNL     1      -8.945   5.465  37.118  1.00  0.00     0.000 C 
BRANCH  18  19
ATOM     19  C   UNL     1      -9.822   4.224  36.869  1.00  0.00     0.000 C 
BRANCH  19  20
ATOM     20  C   UNL     1      -9.773   3.665  35.435  1.00  0.00     0.006 C 
BRANCH  20  21
ATOM     21  C   UNL     1      -9.973   4.745  34.365  1.00  0.00     0.053 C 
BRANCH  21  22
ATOM     22  C   UNL     1     -11.369   4.698  33.828  1.00  0.00     0.041 C 
ATOM     23  O   UNL     1     -11.686   5.390  32.825  1.00  0.00    -0.550 OA
ATOM     24  O   UNL     1     -12.307   3.851  34.404  1.00  0.00    -0.550 OA
ENDBRANCH  21  22
ENDBRANCH  20  21
ENDBRANCH  19  20
ENDBRANCH  18  19
ENDBRANCH  17  18
ENDBRANCH  16  17
ENDBRANCH  15  16
ENDBRANCH  14  15
ENDBRANCH  13  14
ENDBRANCH   1  13
TORSDOF 20
ENDMDL
MODEL 3
REMARK VINA RESULT:    -2.928      3.000      6.499
REMARK INTER + INTRA:         -10.683
REMARK INTER:                  -7.177
REMARK INTRA:                  -3.506
REMARK UNBOUND:                -4.333
REMARK SMILES CCCCCCCCCCCCCCCCCCCCCC(=O)[O-]
REMARK SMILES IDX 12 1 11 2 10 3 9 4 8 5 7 6 6 7 5 8 4 9 3 10 2 11 1 12 13 13
REMARK SMILES IDX 14 14 15 15 16 16 17 17 18 18 19 19 20 20 21 21 22 22 23 23
REMARK SMILES IDX 24 24
REMARK H PARENT
REMARK Flexibility Score: inf
ROOT
ATOM      1  C   UNL     1      -6.306  -0.570  37.176  1.00  0.00     0.000 C 
ENDROOT
BRANCH   1   2
ATOM      2  C   UNL     1      -5.305  -0.550  38.345  1.00  0.00     0.000 C 
BRANCH   2   3
ATOM      3  C   UNL     1      -3.892  -0.133  37.910  1.00  0.00     0.000 C 
BRANCH   3   4
ATOM      4  C   UNL     1      -3.638   1.349  38.221  1.00  0.00    -0.000 C 
BRANCH   4   5
ATOM      5  C   UNL     1      -3.112   2.133  37.006  1.00  0.00    -0.000 C 
BRANCH   5   6
ATOM      6  C   UNL     1      -3.225   1.399  35.654  1.00  0.00    -0.000 C 
BRANCH   6   7
ATOM      7  C   UNL     1      -4.483   1.728  34.832  1.00  0.00    -0.000 C 
BRANCH   7   8
ATOM      8  C   UNL     1      -4.798   0.658  33.771  1.00  0.00    -0.000 C 
BRANCH   8   9
ATOM      9  C   UNL     1      -4.211  -0.719  34.121  1.00  0.00    -0.000 C 
BRANCH   9  10
ATOM     10  C   UNL     1      -5.200  -1.896  34.020  1.00  0.00    -0.000 C 
BRANCH  10  11
ATOM     11  C   UNL     1      -4.651  -3.108  33.239  1.00  0.00    -0.003 C 
ATOM     12  C   UNL     1      -3.130  -3.068  33.094  1.00  0.00     0.004 C 
ENDBRANCH  10  11
ENDBRANCH   9  10
ENDBRANCH   8   9
ENDBRANCH   7   8
ENDBRANCH   6   7
ENDBRANCH   5   6
ENDBRANCH   4   5
ENDBRANCH   3   4
ENDBRANCH   2   3
ENDBRANCH   1   2
BRANCH   1  13
ATOM     13  C   UNL     1      -7.230   0.661  37.091  1.00  0.00     0.000 C 
BRANCH  13  14
ATOM     14  C   UNL     1      -7.686   1.234  38.449  1.00  0.00     0.000 C 
BRANCH  14  15
ATOM     15  C   UNL     1      -7.253   2.685  38.724  1.00  0.00     0.000 C 
BRANCH  15  16
ATOM     16  C   UNL     1      -6.526   3.327  37.529  1.00  0.00     0.000 C 
BRANCH  16  17
ATOM     17  C   UNL     1      -7.013   4.755  37.237  1.00  0.00     0.000 C 
BRANCH  17  18
ATOM     18  C   UNL     1      -8.407   5.035  37.823  1.00  0.00     0.000 C 
BRANCH  18  19
ATOM     19  C   UNL     1      -9.511   5.072  36.751  1.00  0.00     0.000 C 
BRANCH  19  20
ATOM     20  C   UNL     1      -9.851   3.712  36.115  1.00  0.00     0.006 C 
BRANCH  20  21
ATOM     21  C   UNL     1     -10.764   2.851  36.995  1.00  0.00     0.053 C 
BRANCH  21  22
ATOM     22  C   UNL     1     -12.183   3.312  36.885  1.00  0.00     0.041 C 
ATOM     23  O   UNL     1     -12.741   3.383  35.758  1.00  0.00    -0.550 OA
ATOM     24  O   UNL     1     -12.907   3.614  38.031  1.00  0.00    -0.550 OA
ENDBRANCH  21  22
ENDBRANCH  20  21
ENDBRANCH  19  20
ENDBRANCH  18  19
ENDBRANCH  17  18
ENDBRANCH  16  17
ENDBRANCH  15  16
ENDBRANCH  14  15
ENDBRANCH  13  14
ENDBRANCH   1  13
TORSDOF 20
ENDMDL
MODEL 4
REMARK VINA RESULT:    -2.911      2.970      6.697
REMARK INTER + INTRA:         -10.646
REMARK INTER:                  -7.084
REMARK INTRA:                  -3.562
REMARK UNBOUND:                -4.333
REMARK SMILES CCCCCCCCCCCCCCCCCCCCCC(=O)[O-]
REMARK SMILES IDX 12 1 11 2 10 3 9 4 8 5 7 6 6 7 5 8 4 9 3 10 2 11 1 12 13 13
REMARK SMILES IDX 14 14 15 15 16 16 17 17 18 18 19 19 20 20 21 21 22 22 23 23
REMARK SMILES IDX 24 24
REMARK H PARENT
REMARK Flexibility Score: inf
ROOT
ATOM      1  C   UNL     1      -6.653   1.839  35.066  1.00  0.00     0.000 C 
ENDROOT
BRANCH   1   2
ATOM      2  C   UNL     1      -7.272   1.044  36.229  1.00  0.00     0.000 C 
BRANCH   2   3
ATOM      3  C   UNL     1      -7.038  -0.469  36.107  1.00  0.00     0.000 C 
BRANCH   3   4
ATOM      4  C   UNL     1      -5.788  -0.894  36.890  1.00  0.00    -0.000 C 
BRANCH   4   5
ATOM      5  C   UNL     1      -5.535  -0.023  38.133  1.00  0.00    -0.000 C 
BRANCH   5   6
ATOM      6  C   UNL     1      -4.160   0.674  38.175  1.00  0.00    -0.000 C 
BRANCH   6   7
ATOM      7  C   UNL     1      -3.205   0.310  37.024  1.00  0.00    -0.000 C 
BRANCH   7   8
ATOM      8  C   UNL     1      -2.986   1.473  36.041  1.00  0.00    -0.000 C 
BRANCH   8   9
ATOM      9  C   UNL     1      -3.066   1.033  34.569  1.00  0.00    -0.000 C 
BRANCH   9  10
ATOM     10  C   UNL     1      -2.936  -0.484  34.333  1.00  0.00    -0.000 C 
BRANCH  10  11
ATOM     11  C   UNL     1      -3.828  -1.017  33.192  1.00  0.00    -0.003 C 
ATOM     12  C   UNL     1      -4.648  -2.236  33.613  1.00  0.00     0.004 C 
ENDBRANCH  10  11
ENDBRANCH   9  10
ENDBRANCH   8   9
ENDBRANCH   7   8
ENDBRANCH   6   7
ENDBRANCH   5   6
ENDBRANCH   4   5
ENDBRANCH   3   4
ENDBRANCH   2   3
ENDBRANCH   1   2
BRANCH   1  13
ATOM     13  C   UNL     1      -6.530   3.356  35.308  1.00  0.00     0.000 C 
BRANCH  13  14
ATOM     14  C   UNL     1      -5.772   3.755  36.590  1.00  0.00     0.000 C 
BRANCH  14  15
ATOM     15  C   UNL     1      -6.608   4.518  37.632  1.00  0.00     0.000 C 
BRANCH  15  16
ATOM     16  C   UNL     1      -8.117   4.250  37.498  1.00  0.00     0.000 C 
BRANCH  16  17
ATOM     17  C   UNL     1      -8.918   5.519  37.163  1.00  0.00     0.000 C 
BRANCH  17  18
ATOM     18  C   UNL     1     -10.085   5.244  36.200  1.00  0.00     0.000 C 
BRANCH  18  19
ATOM     19  C   UNL     1     -10.155   3.773  35.750  1.00  0.00     0.000 C 
BRANCH  19  20
ATOM     20  C   UNL     1     -11.471   3.048  36.085  1.00  0.00     0.006 C 
BRANCH  20  21
ATOM     21  C   UNL     1     -12.095   3.520  37.404  1.00  0.00     0.053 C 
BRANCH  21  22
ATOM     22  C   UNL     1     -11.889   2.498  38.476  1.00  0.00     0.041 C 
ATOM     23  O   UNL     1     -12.818   1.704  38.782  1.00  0.00    -0.550 OA
ATOM     24  O   UNL     1     -10.655   2.387  39.103  1.00  0.00    -0.550 OA
ENDBRANCH  21  22
ENDBRANCH  20  21
ENDBRANCH  19  20
ENDBRANCH  18  19
ENDBRANCH  17  18
ENDBRANCH  16  17
ENDBRANCH  15  16
ENDBRANCH  14  15
ENDBRANCH  13  14
ENDBRANCH   1  13
TORSDOF 20
ENDMDL
MODEL 5
REMARK VINA RESULT:    -2.907      1.682      3.757
REMARK INTER + INTRA:         -10.637
REMARK INTER:                  -6.889
REMARK INTRA:                  -3.749
REMARK UNBOUND:                -4.333
REMARK SMILES CCCCCCCCCCCCCCCCCCCCCC(=O)[O-]
REMARK SMILES IDX 12 1 11 2 10 3 9 4 8 5 7 6 6 7 5 8 4 9 3 10 2 11 1 12 13 13
REMARK SMILES IDX 14 14 15 15 16 16 17 17 18 18 19 19 20 20 21 21 22 22 23 23
REMARK SMILES IDX 24 24
REMARK H PARENT
REMARK Flexibility Score: inf
ROOT
ATOM      1  C   UNL     1      -6.658   3.225  35.209  1.00  0.00     0.000 C 
ENDROOT
BRANCH   1   2
ATOM      2  C   UNL     1      -5.517   3.808  36.061  1.00  0.00     0.000 C 
BRANCH   2   3
ATOM      3  C   UNL     1      -6.021   4.746  37.168  1.00  0.00     0.000 C 
BRANCH   3   4
ATOM      4  C   UNL     1      -6.327   3.963  38.453  1.00  0.00    -0.000 C 
BRANCH   4   5
ATOM      5  C   UNL     1      -7.795   4.088  38.894  1.00  0.00    -0.000 C 
BRANCH   5   6
ATOM      6  C   UNL     1      -8.492   2.755  39.235  1.00  0.00    -0.000 C 
BRANCH   6   7
ATOM      7  C   UNL     1      -9.853   2.533  38.551  1.00  0.00    -0.000 C 
BRANCH   7   8
ATOM      8  C   UNL     1      -9.833   2.891  37.055  1.00  0.00    -0.000 C 
BRANCH   8   9
ATOM      9  C   UNL     1     -10.776   4.055  36.708  1.00  0.00    -0.000 C 
BRANCH   9  10
ATOM     10  C   UNL     1     -10.105   5.254  36.010  1.00  0.00    -0.000 C 
BRANCH  10  11
ATOM     11  C   UNL     1      -9.885   5.052  34.497  1.00  0.00    -0.003 C 
ATOM     12  C   UNL     1     -11.197   5.012  33.715  1.00  0.00     0.004 C 
ENDBRANCH  10  11
ENDBRANCH   9  10
ENDBRANCH   8   9
ENDBRANCH   7   8
ENDBRANCH   6   7
ENDBRANCH   5   6
ENDBRANCH   4   5
ENDBRANCH   3   4
ENDBRANCH   2   3
ENDBRANCH   1   2
BRANCH   1  13
ATOM     13  C   UNL     1      -6.248   2.067  34.278  1.00  0.00     0.000 C 
BRANCH  13  14
ATOM     14  C   UNL     1      -4.730   1.910  34.058  1.00  0.00     0.000 C 
BRANCH  14  15
ATOM     15  C   UNL     1      -4.250   0.466  33.824  1.00  0.00     0.000 C 
BRANCH  15  16
ATOM     16  C   UNL     1      -3.167   0.028  34.826  1.00  0.00     0.000 C 
BRANCH  16  17
ATOM     17  C   UNL     1      -3.045   0.985  36.023  1.00  0.00     0.000 C 
BRANCH  17  18
ATOM     18  C   UNL     1      -3.242   0.273  37.371  1.00  0.00     0.000 C 
BRANCH  18  19
ATOM     19  C   UNL     1      -4.357   0.904  38.224  1.00  0.00     0.000 C 
BRANCH  19  20
ATOM     20  C   UNL     1      -5.599   0.018  38.435  1.00  0.00     0.006 C 
BRANCH  20  21
ATOM     21  C   UNL     1      -6.612   0.124  37.289  1.00  0.00     0.053 C 
BRANCH  21  22
ATOM     22  C   UNL     1      -6.885  -1.225  36.704  1.00  0.00     0.041 C 
ATOM     23  O   UNL     1      -6.087  -1.728  35.869  1.00  0.00    -0.550 OA
ATOM     24  O   UNL     1      -7.994  -1.951  37.119  1.00  0.00    -0.550 OA
ENDBRANCH  21  22
ENDBRANCH  20  21
ENDBRANCH  19  20
ENDBRANCH  18  19
ENDBRANCH  17  18
ENDBRANCH  16  17
ENDBRANCH  15  16
ENDBRANCH  14  15
ENDBRANCH  13  14
ENDBRANCH   1  13
TORSDOF 20
ENDMDL
MODEL 6
REMARK VINA RESULT:    -2.878      3.116      6.664
REMARK INTER + INTRA:         -10.576
REMARK INTER:                  -7.247
REMARK INTRA:                  -3.329
REMARK UNBOUND:                -4.333
REMARK SMILES CCCCCCCCCCCCCCCCCCCCCC(=O)[O-]
REMARK SMILES IDX 12 1 11 2 10 3 9 4 8 5 7 6 6 7 5 8 4 9 3 10 2 11 1 12 13 13
REMARK SMILES IDX 14 14 15 15 16 16 17 17 18 18 19 19 20 20 21 21 22 22 23 23
REMARK SMILES IDX 24 24
REMARK H PARENT
REMARK Flexibility Score: inf
ROOT
ATOM      1  C   UNL     1      -8.300   2.972  39.988  1.00  0.00     0.000 C 
ENDROOT
BRANCH   1   2
ATOM      2  C   UNL     1      -6.869   2.470  39.729  1.00  0.00     0.000 C 
BRANCH   2   3
ATOM      3  C   UNL     1      -5.829   3.601  39.749  1.00  0.00     0.000 C 
BRANCH   3   4
ATOM      4  C   UNL     1      -5.310   3.893  38.334  1.00  0.00    -0.000 C 
BRANCH   4   5
ATOM      5  C   UNL     1      -4.808   2.631  37.610  1.00  0.00    -0.000 C 
BRANCH   5   6
ATOM      6  C   UNL     1      -3.647   1.894  38.308  1.00  0.00    -0.000 C 
BRANCH   6   7
ATOM      7  C   UNL     1      -3.606   0.372  38.082  1.00  0.00    -0.000 C 
BRANCH   7   8
ATOM      8  C   UNL     1      -4.950  -0.192  37.589  1.00  0.00    -0.000 C 
BRANCH   8   9
ATOM      9  C   UNL     1      -5.755  -0.879  38.706  1.00  0.00    -0.000 C 
BRANCH   9  10
ATOM     10  C   UNL     1      -7.284  -0.857  38.517  1.00  0.00    -0.000 C 
BRANCH  10  11
ATOM     11  C   UNL     1      -8.064  -1.527  39.668  1.00  0.00    -0.003 C 
ATOM     12  C   UNL     1      -9.296  -0.724  40.083  1.00  0.00     0.004 C 
ENDBRANCH  10  11
ENDBRANCH   9  10
ENDBRANCH   8   9
ENDBRANCH   7   8
ENDBRANCH   6   7
ENDBRANCH   5   6
ENDBRANCH   4   5
ENDBRANCH   3   4
ENDBRANCH   2   3
ENDBRANCH   1   2
BRANCH   1  13
ATOM     13  C   UNL     1      -9.276   2.789  38.809  1.00  0.00     0.000 C 
BRANCH  13  14
ATOM     14  C   UNL     1      -8.620   2.393  37.471  1.00  0.00     0.000 C 
BRANCH  14  15
ATOM     15  C   UNL     1      -8.413   3.549  36.477  1.00  0.00     0.000 C 
BRANCH  15  16
ATOM     16  C   UNL     1      -9.091   4.854  36.931  1.00  0.00     0.000 C 
BRANCH  16  17
ATOM     17  C   UNL     1     -10.287   5.240  36.046  1.00  0.00     0.000 C 
BRANCH  17  18
ATOM     18  C   UNL     1     -11.087   4.016  35.568  1.00  0.00     0.000 C 
BRANCH  18  19
ATOM     19  C   UNL     1     -12.150   3.562  36.585  1.00  0.00     0.000 C 
BRANCH  19  20
ATOM     20  C   UNL     1     -13.107   2.465  36.084  1.00  0.00     0.006 C 
BRANCH  20  21
ATOM     21  C   UNL     1     -13.671   1.599  37.217  1.00  0.00     0.053 C 
BRANCH  21  22
ATOM     22  C   UNL     1     -12.567   1.098  38.092  1.00  0.00     0.041 C 
ATOM     23  O   UNL     1     -11.697   0.314  37.628  1.00  0.00    -0.550 OA
ATOM     24  O   UNL     1     -12.469   1.534  39.407  1.00  0.00    -0.550 OA
ENDBRANCH  21  22
ENDBRANCH  20  21
ENDBRANCH  19  20
ENDBRANCH  18  19
ENDBRANCH  17  18
ENDBRANCH  16  17
ENDBRANCH  15  16
ENDBRANCH  14  15
ENDBRANCH  13  14
ENDBRANCH   1  13
TORSDOF 20
ENDMDL
MODEL 7
REMARK VINA RESULT:    -2.871      2.790      4.544
REMARK INTER + INTRA:         -10.561
REMARK INTER:                  -6.843
REMARK INTRA:                  -3.719
REMARK UNBOUND:                -4.333
REMARK SMILES CCCCCCCCCCCCCCCCCCCCCC(=O)[O-]
REMARK SMILES IDX 12 1 11 2 10 3 9 4 8 5 7 6 6 7 5 8 4 9 3 10 2 11 1 12 13 13
REMARK SMILES IDX 14 14 15 15 16 16 17 17 18 18 19 19 20 20 21 21 22 22 23 23
REMARK SMILES IDX 24 24
REMARK H PARENT
REMARK Flexibility Score: inf
ROOT
ATOM      1  C   UNL     1      -7.883   3.328  39.892  1.00  0.00     0.000 C 
ENDROOT
BRANCH   1   2
ATOM      2  C   UNL     1      -8.967   3.069  38.831  1.00  0.00     0.000 C 
BRANCH   2   3
ATOM      3  C   UNL     1      -8.405   2.436  37.549  1.00  0.00     0.000 C 
BRANCH   3   4
ATOM      4  C   UNL     1      -8.335   3.468  36.414  1.00  0.00    -0.000 C 
BRANCH   4   5
ATOM      5  C   UNL     1      -8.963   4.819  36.795  1.00  0.00    -0.000 C 
BRANCH   5   6
ATOM      6  C   UNL     1     -10.297   5.143  36.092  1.00  0.00    -0.000 C 
BRANCH   6   7
ATOM      7  C   UNL     1     -10.779   4.086  35.082  1.00  0.00    -0.000 C 
BRANCH   7   8
ATOM      8  C   UNL     1     -12.171   3.526  35.427  1.00  0.00    -0.000 C 
BRANCH   8   9
ATOM      9  C   UNL     1     -12.378   3.332  36.938  1.00  0.00    -0.000 C 
BRANCH   9  10
ATOM     10  C   UNL     1     -12.214   1.884  37.439  1.00  0.00    -0.000 C 
BRANCH  10  11
ATOM     11  C   UNL     1     -12.303   1.740  38.973  1.00  0.00    -0.003 C 
ATOM     12  C   UNL     1     -11.588   0.490  39.484  1.00  0.00     0.004 C 
ENDBRANCH  10  11
ENDBRANCH   9  10
ENDBRANCH   8   9
ENDBRANCH   7   8
ENDBRANCH   6   7
ENDBRANCH   5   6
ENDBRANCH   4   5
ENDBRANCH   3   4
ENDBRANCH   2   3
ENDBRANCH   1   2
BRANCH   1  13
ATOM     13  C   UNL     1      -6.599   2.491  39.728  1.00  0.00     0.000 C 
BRANCH  13  14
ATOM     14  C   UNL     1      -5.334   3.296  39.367  1.00  0.00     0.000 C 
BRANCH  14  15
ATOM     15  C   UNL     1      -4.704   2.947  38.007  1.00  0.00     0.000 C 
BRANCH  15  16
ATOM     16  C   UNL     1      -4.206   1.492  37.937  1.00  0.00     0.000 C 
BRANCH  16  17
ATOM     17  C   UNL     1      -4.823   0.711  36.765  1.00  0.00     0.000 C 
BRANCH  17  18
ATOM     18  C   UNL     1      -5.928  -0.258  37.217  1.00  0.00     0.000 C 
BRANCH  18  19
ATOM     19  C   UNL     1      -5.623  -0.923  38.572  1.00  0.00     0.000 C 
BRANCH  19  20
ATOM     20  C   UNL     1      -6.849  -1.166  39.472  1.00  0.00     0.006 C 
BRANCH  20  21
ATOM     21  C   UNL     1      -8.173  -1.138  38.700  1.00  0.00     0.053 C 
BRANCH  21  22
ATOM     22  C   UNL     1      -8.855  -2.467  38.781  1.00  0.00     0.041 C 
ATOM     23  O   UNL     1     -10.026  -2.606  38.339  1.00  0.00    -0.550 OA
ATOM     24  O   UNL     1      -8.179  -3.565  39.297  1.00  0.00    -0.550 OA
ENDBRANCH  21  22
ENDBRANCH  20  21
ENDBRANCH  19  20
ENDBRANCH  18  19
ENDBRANCH  17  18
ENDBRANCH  16  17
ENDBRANCH  15  16
ENDBRANCH  14  15
ENDBRANCH  13  14
ENDBRANCH   1  13
TORSDOF 20
ENDMDL
MODEL 8
REMARK VINA RESULT:    -2.862      2.930      6.478
REMARK INTER + INTRA:         -10.540
REMARK INTER:                  -6.630
REMARK INTRA:                  -3.911
REMARK UNBOUND:                -4.333
REMARK SMILES CCCCCCCCCCCCCCCCCCCCCC(=O)[O-]
REMARK SMILES IDX 12 1 11 2 10 3 9 4 8 5 7 6 6 7 5 8 4 9 3 10 2 11 1 12 13 13
REMARK SMILES IDX 14 14 15 15 16 16 17 17 18 18 19 19 20 20 21 21 22 22 23 23
REMARK SMILES IDX 24 24
REMARK H PARENT
REMARK Flexibility Score: inf
ROOT
ATOM      1  C   UNL     1      -6.719   0.644  36.496  1.00  0.00     0.000 C 
ENDROOT
BRANCH   1   2
ATOM      2  C   UNL     1      -6.848  -0.414  37.606  1.00  0.00     0.000 C 
BRANCH   2   3
ATOM      3  C   UNL     1      -5.637  -0.435  38.551  1.00  0.00     0.000 C 
BRANCH   3   4
ATOM      4  C   UNL     1      -4.339  -0.140  37.785  1.00  0.00    -0.000 C 
BRANCH   4   5
ATOM      5  C   UNL     1      -3.445   0.889  38.498  1.00  0.00    -0.000 C 
BRANCH   5   6
ATOM      6  C   UNL     1      -4.088   2.273  38.719  1.00  0.00    -0.000 C 
BRANCH   6   7
ATOM      7  C   UNL     1      -3.433   3.432  37.946  1.00  0.00    -0.000 C 
BRANCH   7   8
ATOM      8  C   UNL     1      -2.768   2.972  36.636  1.00  0.00    -0.000 C 
BRANCH   8   9
ATOM      9  C   UNL     1      -3.653   3.213  35.401  1.00  0.00    -0.000 C 
BRANCH   9  10
ATOM     10  C   UNL     1      -4.161   1.937  34.703  1.00  0.00    -0.000 C 
BRANCH  10  11
ATOM     11  C   UNL     1      -3.079   1.197  33.890  1.00  0.00    -0.003 C 
ATOM     12  C   UNL     1      -2.657  -0.119  34.542  1.00  0.00     0.004 C 
ENDBRANCH  10  11
ENDBRANCH   9  10
ENDBRANCH   8   9
ENDBRANCH   7   8
ENDBRANCH   6   7
ENDBRANCH   5   6
ENDBRANCH   4   5
ENDBRANCH   3   4
ENDBRANCH   2   3
ENDBRANCH   1   2
BRANCH   1  13
ATOM     13  C   UNL     1      -7.707   1.822  36.603  1.00  0.00     0.000 C 
BRANCH  13  14
ATOM     14  C   UNL     1      -7.092   3.152  37.083  1.00  0.00     0.000 C 
BRANCH  14  15
ATOM     15  C   UNL     1      -7.680   3.709  38.392  1.00  0.00     0.000 C 
BRANCH  15  16
ATOM     16  C   UNL     1      -7.606   2.703  39.554  1.00  0.00     0.000 C 
BRANCH  16  17
ATOM     17  C   UNL     1      -8.991   2.353  40.123  1.00  0.00     0.000 C 
BRANCH  17  18
ATOM     18  C   UNL     1      -9.498   0.983  39.641  1.00  0.00     0.000 C 
BRANCH  18  19
ATOM     19  C   UNL     1     -10.754   1.088  38.756  1.00  0.00     0.000 C 
BRANCH  19  20
ATOM     20  C   UNL     1     -11.334   2.507  38.609  1.00  0.00     0.006 C 
BRANCH  20  21
ATOM     21  C   UNL     1     -11.159   3.082  37.198  1.00  0.00     0.053 C 
BRANCH  21  22
ATOM     22  C   UNL     1     -12.451   3.031  36.448  1.00  0.00     0.041 C 
ATOM     23  O   UNL     1     -12.474   2.642  35.250  1.00  0.00    -0.550 OA
ATOM     24  O   UNL     1     -13.639   3.365  37.085  1.00  0.00    -0.550 OA
ENDBRANCH  21  22
ENDBRANCH  20  21
ENDBRANCH  19  20
ENDBRANCH  18  19
ENDBRANCH  17  18
ENDBRANCH  16  17
ENDBRANCH  15  16
ENDBRANCH  14  15
ENDBRANCH  13  14
ENDBRANCH   1  13
TORSDOF 20
ENDMDL
MODEL 9
REMARK VINA RESULT:    -2.845      2.849      5.989
REMARK INTER + INTRA:         -10.503
REMARK INTER:                  -6.560
REMARK INTRA:                  -3.943
REMARK UNBOUND:                -4.333
REMARK SMILES CCCCCCCCCCCCCCCCCCCCCC(=O)[O-]
REMARK SMILES IDX 12 1 11 2 10 3 9 4 8 5 7 6 6 7 5 8 4 9 3 10 2 11 1 12 13 13
REMARK SMILES IDX 14 14 15 15 16 16 17 17 18 18 19 19 20 20 21 21 22 22 23 23
REMARK SMILES IDX 24 24
REMARK H PARENT
REMARK Flexibility Score: inf
ROOT
ATOM      1  C   UNL     1      -6.019  -0.339  36.140  1.00  0.00     0.000 C 
ENDROOT
BRANCH   1   2
ATOM      2  C   UNL     1      -4.698   0.369  36.489  1.00  0.00     0.000 C 
BRANCH   2   3
ATOM      3  C   UNL     1      -4.300   0.193  37.962  1.00  0.00     0.000 C 
BRANCH   3   4
ATOM      4  C   UNL     1      -3.503   1.406  38.462  1.00  0.00    -0.000 C 
BRANCH   4   5
ATOM      5  C   UNL     1      -3.243   2.447  37.359  1.00  0.00    -0.000 C 
BRANCH   5   6
ATOM      6  C   UNL     1      -3.211   3.913  37.838  1.00  0.00    -0.000 C 
BRANCH   6   7
ATOM      7  C   UNL     1      -4.222   4.849  37.152  1.00  0.00    -0.000 C 
BRANCH   7   8
ATOM      8  C   UNL     1      -5.211   4.095  36.245  1.00  0.00    -0.000 C 
BRANCH   8   9
ATOM      9  C   UNL     1      -6.660   4.164  36.755  1.00  0.00    -0.000 C 
BRANCH   9  10
ATOM     10  C   UNL     1      -7.142   2.919  37.524  1.00  0.00    -0.000 C 
BRANCH  10  11
ATOM     11  C   UNL     1      -6.837   2.961  39.035  1.00  0.00    -0.003 C 
ATOM     12  C   UNL     1      -7.251   1.675  39.751  1.00  0.00     0.004 C 
ENDBRANCH  10  11
ENDBRANCH   9  10
ENDBRANCH   8   9
ENDBRANCH   7   8
ENDBRANCH   6   7
ENDBRANCH   5   6
ENDBRANCH   4   5
ENDBRANCH   3   4
ENDBRANCH   2   3
ENDBRANCH   1   2
BRANCH   1  13
ATOM     13  C   UNL     1      -6.536  -1.316  37.214  1.00  0.00     0.000 C 
BRANCH  13  14
ATOM     14  C   UNL     1      -8.041  -1.203  37.533  1.00  0.00     0.000 C 
BRANCH  14  15
ATOM     15  C   UNL     1      -8.881  -0.475  36.468  1.00  0.00     0.000 C 
BRANCH  15  16
ATOM     16  C   UNL     1      -9.818   0.586  37.072  1.00  0.00     0.000 C 
BRANCH  16  17
ATOM     17  C   UNL     1     -10.310   1.603  36.029  1.00  0.00     0.000 C 
BRANCH  17  18
ATOM     18  C   UNL     1     -11.739   2.096  36.314  1.00  0.00     0.000 C 
BRANCH  18  19
ATOM     19  C   UNL     1     -11.824   3.625  36.476  1.00  0.00     0.000 C 
BRANCH  19  20
ATOM     20  C   UNL     1     -10.484   4.327  36.760  1.00  0.00     0.006 C 
BRANCH  20  21
ATOM     21  C   UNL     1     -10.234   5.533  35.847  1.00  0.00     0.053 C 
BRANCH  21  22
ATOM     22  C   UNL     1     -10.249   5.115  34.411  1.00  0.00     0.041 C 
ATOM     23  O   UNL     1      -9.337   4.375  33.957  1.00  0.00    -0.550 OA
ATOM     24  O   UNL     1     -11.298   5.499  33.585  1.00  0.00    -0.550 OA
ENDBRANCH  21  22
ENDBRANCH  20  21
ENDBRANCH  19  20
ENDBRANCH  18  19
ENDBRANCH  17  18
ENDBRANCH  16  17
ENDBRANCH  15  16
ENDBRANCH  14  15
ENDBRANCH  13  14
ENDBRANCH   1  13
TORSDOF 20
ENDMDL
