MODEL 1
REMARK VINA RESULT:    -2.940      0.000      0.000
REMARK INTER + INTRA:          -4.404
REMARK INTER:                  -4.487
REMARK INTRA:                   0.083
REMARK UNBOUND:                 0.083
REMARK SMILES CC1=CCC[C@H](C)C(=O)C[C@H](C(C)C)C(=O)C1
REMARK SMILES IDX 8 1 9 2 6 3 7 4 5 5 4 6 3 7 2 8 1 9 10 11 11 12 15 13 16 14
REMARK SMILES IDX 17 15 12 17 13 18 14 19
REMARK H PARENT
REMARK Flexibility Score: 70.00
ROOT
ATOM      1  C   UNL     1      -1.151   5.797  -3.437  1.00  0.00     0.136 C 
ATOM      2  O   UNL     1      -2.127   6.507  -3.629  1.00  0.00    -0.299 OA
ENDROOT
BRANCH   1   3
ATOM      3  C   UNL     1      -1.249   4.731  -2.350  1.00  0.00     0.053 C 
ATOM      4  C   UNL     1      -1.275   3.282  -2.860  1.00  0.00     0.016 C 
BRANCH   3   5
ATOM      5  C   UNL     1      -0.181   4.939  -1.243  1.00  0.00     0.015 C 
BRANCH   5   6
ATOM      6  C   UNL     1       1.203   4.328  -1.532  1.00  0.00     0.028 C 
BRANCH   6   7
ATOM      7  C   UNL     1       2.329   5.224  -1.078  1.00  0.00    -0.028 C 
ATOM      8  C   UNL     1       2.993   6.108  -1.858  1.00  0.00    -0.070 CG0
ATOM      9  C   UNL     1       4.076   6.940  -1.219  1.00  0.00     0.039 C 
ATOM     10  G   UNL     1       2.742   6.258  -3.347  1.00  0.00     0.000 G0
ENDBRANCH   6   7
ENDBRANCH   5   6
ENDBRANCH   3   5
ENDBRANCH   1   3
BRANCH   1  11
ATOM     11  C   UNL     1       0.063   6.022  -4.315  1.00  0.00     0.087 C 
BRANCH  11  12
ATOM     12  C   UNL     1       0.579   7.484  -4.232  1.00  0.00     0.066 C 
BRANCH  12  13
ATOM     13  C   UNL     1       1.991   7.532  -3.670  1.00  0.00     0.140 C 
ATOM     14  O   UNL     1       2.515   8.612  -3.434  1.00  0.00    -0.299 OA
BRANCH  13  15
ATOM     15  C   UNL     1       2.763   6.274  -3.366  1.00  0.00     0.106 CG0
ATOM     16  G   UNL     1       2.981   6.130  -1.871  1.00  0.00     0.000 G0
ENDBRANCH  13  15
ENDBRANCH  12  13
BRANCH  12  17
ATOM     17  C   UNL     1       0.464   8.224  -5.600  1.00  0.00    -0.006 C 
ATOM     18  C   UNL     1       0.561   7.244  -6.779  1.00  0.00     0.008 C 
ATOM     19  C   UNL     1      -0.797   9.095  -5.738  1.00  0.00     0.008 C 
ENDBRANCH  12  17
ENDBRANCH  11  12
ENDBRANCH   1  11
TORSDOF 1
ENDMDL
MODEL 2
REMARK VINA RESULT:    -2.920      1.791      4.110
REMARK INTER + INTRA:          -4.374
REMARK INTER:                  -4.151
REMARK INTRA:                  -0.223
REMARK UNBOUND:                 0.083
REMARK SMILES CC1=CCC[C@H](C)C(=O)C[C@H](C(C)C)C(=O)C1
REMARK SMILES IDX 8 1 9 2 6 3 7 4 5 5 4 6 3 7 2 8 1 9 10 11 11 12 15 13 16 14
REMARK SMILES IDX 17 15 12 17 13 18 14 19
REMARK H PARENT
REMARK Flexibility Score: 70.00
ROOT
ATOM      1  C   UNL     1       2.099   8.688  -4.092  1.00  0.00     0.136 C 
ATOM      2  O   UNL     1       2.667   9.414  -3.288  1.00  0.00    -0.299 OA
ENDROOT
BRANCH   1   3
ATOM      3  C   UNL     1       2.925   7.611  -4.786  1.00  0.00     0.053 C 
ATOM      4  C   UNL     1       4.231   8.105  -5.428  1.00  0.00     0.016 C 
BRANCH   3   5
ATOM      5  C   UNL     1       3.158   6.382  -3.867  1.00  0.00     0.015 C 
BRANCH   5   6
ATOM      6  C   UNL     1       2.379   5.109  -4.249  1.00  0.00     0.028 C 
BRANCH   6   7
ATOM      7  C   UNL     1       1.285   4.792  -3.260  1.00  0.00    -0.028 C 
ATOM      8  C   UNL     1      -0.044   4.890  -3.499  1.00  0.00    -0.070 CG0
ATOM      9  C   UNL     1      -0.992   4.502  -2.393  1.00  0.00     0.039 C 
ATOM     10  G   UNL     1      -0.619   5.422  -4.798  1.00  0.00     0.000 G0
ENDBRANCH   6   7
ENDBRANCH   5   6
ENDBRANCH   3   5
ENDBRANCH   1   3
BRANCH   1  11
ATOM     11  C   UNL     1       0.615   8.908  -4.308  1.00  0.00     0.087 C 
BRANCH  11  12
ATOM     12  C   UNL     1       0.027   7.925  -5.355  1.00  0.00     0.066 C 
BRANCH  12  13
ATOM     13  C   UNL     1      -0.884   6.904  -4.691  1.00  0.00     0.140 C 
ATOM     14  O   UNL     1      -1.868   7.280  -4.070  1.00  0.00    -0.299 OA
BRANCH  13  15
ATOM     15  C   UNL     1      -0.622   5.424  -4.799  1.00  0.00     0.106 CG0
ATOM     16  G   UNL     1      -0.043   4.888  -3.503  1.00  0.00     0.000 G0
ENDBRANCH  13  15
ENDBRANCH  12  13
BRANCH  12  17
ATOM     17  C   UNL     1      -0.681   8.672  -6.527  1.00  0.00    -0.006 C 
ATOM     18  C   UNL     1       0.314   9.519  -7.335  1.00  0.00     0.008 C 
ATOM     19  C   UNL     1      -1.478   7.752  -7.467  1.00  0.00     0.008 C 
ENDBRANCH  12  17
ENDBRANCH  11  12
ENDBRANCH   1  11
TORSDOF 1
ENDMDL
MODEL 3
REMARK VINA RESULT:    -2.903     11.165     12.660
REMARK INTER + INTRA:          -4.348
REMARK INTER:                  -3.911
REMARK INTRA:                  -0.437
REMARK UNBOUND:                 0.083
REMARK SMILES CC1=CCC[C@H](C)C(=O)C[C@H](C(C)C)C(=O)C1
REMARK SMILES IDX 8 1 9 2 6 3 7 4 5 5 4 6 3 7 2 8 1 9 10 11 11 12 15 13 16 14
REMARK SMILES IDX 17 15 12 17 13 18 14 19
REMARK H PARENT
REMARK Flexibility Score: 70.00
ROOT
ATOM      1  C   UNL     1       0.554  14.442   5.558  1.00  0.00     0.136 C 
ATOM      2  O   UNL     1       1.728  14.123   5.434  1.00  0.00    -0.299 OA
ENDROOT
BRANCH   1   3
ATOM      3  C   UNL     1       0.200  15.919   5.432  1.00  0.00     0.053 C 
ATOM      4  C   UNL     1       0.949  16.853   6.398  1.00  0.00     0.016 C 
BRANCH   3   5
ATOM      5  C   UNL     1       0.291  16.410   3.962  1.00  0.00     0.015 C 
BRANCH   5   6
ATOM      6  C   UNL     1      -1.032  16.396   3.174  1.00  0.00     0.028 C 
BRANCH   6   7
ATOM      7  C   UNL     1      -1.152  15.184   2.284  1.00  0.00    -0.028 C 
ATOM      8  C   UNL     1      -2.099  14.221   2.389  1.00  0.00    -0.070 CG0
ATOM      9  C   UNL     1      -2.075  13.094   1.388  1.00  0.00     0.039 C 
ATOM     10  G   UNL     1      -3.138  14.193   3.494  1.00  0.00     0.000 G0
ENDBRANCH   6   7
ENDBRANCH   5   6
ENDBRANCH   3   5
ENDBRANCH   1   3
BRANCH   1  11
ATOM     11  C   UNL     1      -0.450  13.334   5.800  1.00  0.00     0.087 C 
BRANCH  11  12
ATOM     12  C   UNL     1      -1.910  13.864   5.820  1.00  0.00     0.066 C 
BRANCH  12  13
ATOM     13  C   UNL     1      -2.707  13.308   4.650  1.00  0.00     0.140 C 
ATOM     14  O   UNL     1      -3.021  12.126   4.636  1.00  0.00    -0.299 OA
BRANCH  13  15
ATOM     15  C   UNL     1      -3.149  14.185   3.508  1.00  0.00     0.106 CG0
ATOM     16  G   UNL     1      -2.094  14.216   2.418  1.00  0.00     0.000 G0
ENDBRANCH  13  15
ENDBRANCH  12  13
BRANCH  12  17
ATOM     17  C   UNL     1      -2.610  13.601   7.189  1.00  0.00    -0.006 C 
ATOM     18  C   UNL     1      -1.633  13.005   8.214  1.00  0.00     0.008 C 
ATOM     19  C   UNL     1      -3.312  14.834   7.781  1.00  0.00     0.008 C 
ENDBRANCH  12  17
ENDBRANCH  11  12
ENDBRANCH   1  11
TORSDOF 1
ENDMDL
MODEL 4
REMARK VINA RESULT:    -2.852      2.082      4.223
REMARK INTER + INTRA:          -4.270
REMARK INTER:                  -3.836
REMARK INTRA:                  -0.435
REMARK UNBOUND:                 0.083
REMARK SMILES CC1=CCC[C@H](C)C(=O)C[C@H](C(C)C)C(=O)C1
REMARK SMILES IDX 8 1 9 2 6 3 7 4 5 5 4 6 3 7 2 8 1 9 10 11 11 12 15 13 16 14
REMARK SMILES IDX 17 15 12 17 13 18 14 19
REMARK H PARENT
REMARK Flexibility Score: 70.00
ROOT
ATOM      1  C   UNL     1      -1.203   4.442  -2.680  1.00  0.00     0.136 C 
ATOM      2  O   UNL     1      -2.387   4.653  -2.901  1.00  0.00    -0.299 OA
ENDROOT
BRANCH   1   3
ATOM      3  C   UNL     1      -0.470   3.468  -3.596  1.00  0.00     0.053 C 
ATOM      4  C   UNL     1      -1.039   2.040  -3.616  1.00  0.00     0.016 C 
BRANCH   3   5
ATOM      5  C   UNL     1      -0.294   4.044  -5.026  1.00  0.00     0.015 C 
BRANCH   5   6
ATOM      6  C   UNL     1       0.731   5.185  -5.162  1.00  0.00     0.028 C 
BRANCH   6   7
ATOM      7  C   UNL     1       2.121   4.754  -4.761  1.00  0.00    -0.028 C 
ATOM      8  C   UNL     1       2.770   5.138  -3.637  1.00  0.00    -0.070 CG0
ATOM      9  C   UNL     1       4.149   4.581  -3.391  1.00  0.00     0.039 C 
ATOM     10  G   UNL     1       2.202   6.141  -2.650  1.00  0.00     0.000 G0
ENDBRANCH   6   7
ENDBRANCH   5   6
ENDBRANCH   3   5
ENDBRANCH   1   3
BRANCH   1  11
ATOM     11  C   UNL     1      -0.562   5.191  -1.529  1.00  0.00     0.087 C 
BRANCH  11  12
ATOM     12  C   UNL     1       0.772   4.537  -1.080  1.00  0.00     0.066 C 
BRANCH  12  13
ATOM     13  C   UNL     1       1.942   5.486  -1.291  1.00  0.00     0.140 C 
ATOM     14  O   UNL     1       2.711   5.717  -0.369  1.00  0.00    -0.299 OA
BRANCH  13  15
ATOM     15  C   UNL     1       2.199   6.137  -2.626  1.00  0.00     0.106 CG0
ATOM     16  G   UNL     1       2.781   5.135  -3.605  1.00  0.00     0.000 G0
ENDBRANCH  13  15
ENDBRANCH  12  13
BRANCH  12  17
ATOM     17  C   UNL     1       0.701   4.006   0.385  1.00  0.00    -0.006 C 
ATOM     18  C   UNL     1      -0.288   4.823   1.231  1.00  0.00     0.008 C 
ATOM     19  C   UNL     1       0.378   2.506   0.494  1.00  0.00     0.008 C 
ENDBRANCH  12  17
ENDBRANCH  11  12
ENDBRANCH   1  11
TORSDOF 1
ENDMDL
MODEL 5
REMARK VINA RESULT:    -2.844      2.200      3.384
REMARK INTER + INTRA:          -4.258
REMARK INTER:                  -4.112
REMARK INTRA:                  -0.146
REMARK UNBOUND:                 0.083
REMARK SMILES CC1=CCC[C@H](C)C(=O)C[C@H](C(C)C)C(=O)C1
REMARK SMILES IDX 8 1 9 2 6 3 7 4 5 5 4 6 3 7 2 8 1 9 10 11 11 12 15 13 16 14
REMARK SMILES IDX 17 15 12 17 13 18 14 19
REMARK H PARENT
REMARK Flexibility Score: 70.00
ROOT
ATOM      1  C   UNL     1      -1.276   5.828  -2.681  1.00  0.00     0.136 C 
ATOM      2  O   UNL     1      -2.495   5.740  -2.698  1.00  0.00    -0.299 OA
ENDROOT
BRANCH   1   3
ATOM      3  C   UNL     1      -0.505   4.862  -1.789  1.00  0.00     0.053 C 
ATOM      4  C   UNL     1      -0.294   5.338  -0.343  1.00  0.00     0.016 C 
BRANCH   3   5
ATOM      5  C   UNL     1      -1.096   3.428  -1.848  1.00  0.00     0.015 C 
BRANCH   5   6
ATOM      6  C   UNL     1      -1.041   2.743  -3.227  1.00  0.00     0.028 C 
BRANCH   6   7
ATOM      7  C   UNL     1       0.370   2.618  -3.746  1.00  0.00    -0.028 C 
ATOM      8  C   UNL     1       0.905   3.349  -4.753  1.00  0.00    -0.070 CG0
ATOM      9  C   UNL     1       2.347   3.100  -5.117  1.00  0.00     0.039 C 
ATOM     10  G   UNL     1       0.112   4.357  -5.563  1.00  0.00     0.000 G0
ENDBRANCH   6   7
ENDBRANCH   5   6
ENDBRANCH   3   5
ENDBRANCH   1   3
BRANCH   1  11
ATOM     11  C   UNL     1      -0.636   6.875  -3.570  1.00  0.00     0.087 C 
BRANCH  11  12
ATOM     12  C   UNL     1       0.773   6.444  -4.058  1.00  0.00     0.066 C 
BRANCH  12  13
ATOM     13  C   UNL     1       0.693   5.748  -5.408  1.00  0.00     0.140 C 
ATOM     14  O   UNL     1       1.128   6.306  -6.406  1.00  0.00    -0.299 OA
BRANCH  13  15
ATOM     15  C   UNL     1       0.110   4.366  -5.550  1.00  0.00     0.106 CG0
ATOM     16  G   UNL     1       0.920   3.360  -4.753  1.00  0.00     0.000 G0
ENDBRANCH  13  15
ENDBRANCH  12  13
BRANCH  12  17
ATOM     17  C   UNL     1       1.780   7.635  -4.068  1.00  0.00    -0.006 C 
ATOM     18  C   UNL     1       1.065   8.976  -3.838  1.00  0.00     0.008 C 
ATOM     19  C   UNL     1       2.946   7.480  -3.077  1.00  0.00     0.008 C 
ENDBRANCH  12  17
ENDBRANCH  11  12
ENDBRANCH   1  11
TORSDOF 1
ENDMDL
MODEL 6
REMARK VINA RESULT:    -2.824      2.431      3.280
REMARK INTER + INTRA:          -4.227
REMARK INTER:                  -4.168
REMARK INTRA:                  -0.059
REMARK UNBOUND:                 0.083
REMARK SMILES CC1=CCC[C@H](C)C(=O)C[C@H](C(C)C)C(=O)C1
REMARK SMILES IDX 8 1 9 2 6 3 7 4 5 5 4 6 3 7 2 8 1 9 10 11 11 12 15 13 16 14
REMARK SMILES IDX 17 15 12 17 13 18 14 19
REMARK H PARENT
REMARK Flexibility Score: 70.00
ROOT
ATOM      1  C   UNL     1      -1.041   5.370  -2.742  1.00  0.00     0.136 C 
ATOM      2  O   UNL     1      -1.995   4.624  -2.912  1.00  0.00    -0.299 OA
ENDROOT
BRANCH   1   3
ATOM      3  C   UNL     1       0.056   4.917  -1.785  1.00  0.00     0.053 C 
ATOM      4  C   UNL     1      -0.280   5.067  -0.292  1.00  0.00     0.016 C 
BRANCH   3   5
ATOM      5  C   UNL     1       0.564   3.491  -2.126  1.00  0.00     0.015 C 
BRANCH   5   6
ATOM      6  C   UNL     1       1.717   3.422  -3.144  1.00  0.00     0.028 C 
BRANCH   6   7
ATOM      7  C   UNL     1       1.255   2.940  -4.497  1.00  0.00    -0.028 C 
ATOM      8  C   UNL     1       1.246   3.676  -5.633  1.00  0.00    -0.070 CG0
ATOM      9  C   UNL     1       0.772   3.013  -6.901  1.00  0.00     0.039 C 
ATOM     10  G   UNL     1       1.632   5.143  -5.679  1.00  0.00     0.000 G0
ENDBRANCH   6   7
ENDBRANCH   5   6
ENDBRANCH   3   5
ENDBRANCH   1   3
BRANCH   1  11
ATOM     11  C   UNL     1      -1.023   6.671  -3.519  1.00  0.00     0.087 C 
BRANCH  11  12
ATOM     12  C   UNL     1       0.341   6.911  -4.221  1.00  0.00     0.066 C 
BRANCH  12  13
ATOM     13  C   UNL     1       0.465   6.058  -5.475  1.00  0.00     0.140 C 
ATOM     14  O   UNL     1      -0.399   6.119  -6.338  1.00  0.00    -0.299 OA
BRANCH  13  15
ATOM     15  C   UNL     1       1.647   5.151  -5.699  1.00  0.00     0.106 CG0
ATOM     16  G   UNL     1       1.223   3.696  -5.632  1.00  0.00     0.000 G0
ENDBRANCH  13  15
ENDBRANCH  12  13
BRANCH  12  17
ATOM     17  C   UNL     1       0.594   8.423  -4.509  1.00  0.00    -0.006 C 
ATOM     18  C   UNL     1       1.855   8.629  -5.363  1.00  0.00     0.008 C 
ATOM     19  C   UNL     1      -0.603   9.149  -5.148  1.00  0.00     0.008 C 
ENDBRANCH  12  17
ENDBRANCH  11  12
ENDBRANCH   1  11
TORSDOF 1
ENDMDL
MODEL 7
REMARK VINA RESULT:    -2.802     11.009     12.097
REMARK INTER + INTRA:          -4.194
REMARK INTER:                  -4.231
REMARK INTRA:                   0.037
REMARK UNBOUND:                 0.083
REMARK SMILES CC1=CCC[C@H](C)C(=O)C[C@H](C(C)C)C(=O)C1
REMARK SMILES IDX 8 1 9 2 6 3 7 4 5 5 4 6 3 7 2 8 1 9 10 11 11 12 15 13 16 14
REMARK SMILES IDX 17 15 12 17 13 18 14 19
REMARK H PARENT
REMARK Flexibility Score: 70.00
ROOT
ATOM      1  C   UNL     1      -0.721  13.191   2.523  1.00  0.00     0.136 C 
ATOM      2  O   UNL     1      -0.684  12.182   1.834  1.00  0.00    -0.299 OA
ENDROOT
BRANCH   1   3
ATOM      3  C   UNL     1      -1.828  14.202   2.246  1.00  0.00     0.053 C 
ATOM      4  C   UNL     1      -2.431  14.138   0.834  1.00  0.00     0.016 C 
BRANCH   3   5
ATOM      5  C   UNL     1      -2.922  14.174   3.347  1.00  0.00     0.015 C 
BRANCH   5   6
ATOM      6  C   UNL     1      -3.033  15.446   4.207  1.00  0.00     0.028 C 
BRANCH   6   7
ATOM      7  C   UNL     1      -2.906  15.150   5.682  1.00  0.00    -0.028 C 
ATOM      8  C   UNL     1      -1.849  15.477   6.461  1.00  0.00    -0.070 CG0
ATOM      9  C   UNL     1      -1.913  15.122   7.925  1.00  0.00     0.039 C 
ATOM     10  G   UNL     1      -0.587  16.127   5.924  1.00  0.00     0.000 G0
ENDBRANCH   6   7
ENDBRANCH   5   6
ENDBRANCH   3   5
ENDBRANCH   1   3
BRANCH   1  11
ATOM     11  C   UNL     1       0.324  13.335   3.611  1.00  0.00     0.087 C 
BRANCH  11  12
ATOM     12  C   UNL     1       0.593  14.821   3.968  1.00  0.00     0.066 C 
BRANCH  12  13
ATOM     13  C   UNL     1       0.383  15.071   5.453  1.00  0.00     0.140 C 
ATOM     14  O   UNL     1       1.018  14.425   6.274  1.00  0.00    -0.299 OA
BRANCH  13  15
ATOM     15  C   UNL     1      -0.576  16.123   5.949  1.00  0.00     0.106 CG0
ATOM     16  G   UNL     1      -1.857  15.484   6.451  1.00  0.00     0.000 G0
ENDBRANCH  13  15
ENDBRANCH  12  13
BRANCH  12  17
ATOM     17  C   UNL     1       1.998  15.295   3.483  1.00  0.00    -0.006 C 
ATOM     18  C   UNL     1       2.428  16.591   4.187  1.00  0.00     0.008 C 
ATOM     19  C   UNL     1       3.100  14.230   3.616  1.00  0.00     0.008 C 
ENDBRANCH  12  17
ENDBRANCH  11  12
ENDBRANCH   1  11
TORSDOF 1
ENDMDL
MODEL 8
REMARK VINA RESULT:    -2.551      1.935      4.166
REMARK INTER + INTRA:          -3.810
REMARK INTER:                  -3.757
REMARK INTRA:                  -0.053
REMARK UNBOUND:                 0.083
REMARK SMILES CC1=CCC[C@H](C)C(=O)C[C@H](C(C)C)C(=O)C1
REMARK SMILES IDX 8 1 9 2 6 3 7 4 5 5 4 6 3 7 2 8 1 9 10 11 11 12 15 13 16 14
REMARK SMILES IDX 17 15 12 17 13 18 14 19
REMARK H PARENT
REMARK Flexibility Score: 70.00
ROOT
ATOM      1  C   UNL     1      -0.185   8.766  -5.408  1.00  0.00     0.136 C 
ATOM      2  O   UNL     1      -0.548   9.929  -5.308  1.00  0.00    -0.299 OA
ENDROOT
BRANCH   1   3
ATOM      3  C   UNL     1       0.283   8.281  -6.776  1.00  0.00     0.053 C 
ATOM      4  C   UNL     1      -0.668   8.598  -7.940  1.00  0.00     0.016 C 
BRANCH   3   5
ATOM      5  C   UNL     1       1.739   8.727  -7.077  1.00  0.00     0.015 C 
BRANCH   5   6
ATOM      6  C   UNL     1       2.834   7.698  -6.737  1.00  0.00     0.028 C 
BRANCH   6   7
ATOM      7  C   UNL     1       3.601   8.071  -5.492  1.00  0.00    -0.028 C 
ATOM      8  C   UNL     1       3.687   7.322  -4.368  1.00  0.00    -0.070 CG0
ATOM      9  C   UNL     1       4.525   7.849  -3.231  1.00  0.00     0.039 C 
ATOM     10  G   UNL     1       2.939   6.016  -4.178  1.00  0.00     0.000 G0
ENDBRANCH   6   7
ENDBRANCH   5   6
ENDBRANCH   3   5
ENDBRANCH   1   3
BRANCH   1  11
ATOM     11  C   UNL     1      -0.209   7.915  -4.155  1.00  0.00     0.087 C 
BRANCH  11  12
ATOM     12  C   UNL     1       0.350   6.489  -4.408  1.00  0.00     0.066 C 
BRANCH  12  13
ATOM     13  C   UNL     1       1.583   6.228  -3.557  1.00  0.00     0.140 C 
ATOM     14  O   UNL     1       1.481   6.175  -2.340  1.00  0.00    -0.299 OA
BRANCH  13  15
ATOM     15  C   UNL     1       2.938   6.006  -4.178  1.00  0.00     0.106 CG0
ATOM     16  G   UNL     1       3.673   7.323  -4.344  1.00  0.00     0.000 G0
ENDBRANCH  13  15
ENDBRANCH  12  13
BRANCH  12  17
ATOM     17  C   UNL     1      -0.741   5.390  -4.217  1.00  0.00    -0.006 C 
ATOM     18  C   UNL     1      -0.156   3.980  -4.399  1.00  0.00     0.008 C 
ATOM     19  C   UNL     1      -1.497   5.481  -2.881  1.00  0.00     0.008 C 
ENDBRANCH  12  17
ENDBRANCH  11  12
ENDBRANCH   1  11
TORSDOF 1
ENDMDL
MODEL 9
REMARK VINA RESULT:    -2.509      2.726      3.523
REMARK INTER + INTRA:          -3.746
REMARK INTER:                  -3.600
REMARK INTRA:                  -0.147
REMARK UNBOUND:                 0.083
REMARK SMILES CC1=CCC[C@H](C)C(=O)C[C@H](C(C)C)C(=O)C1
REMARK SMILES IDX 8 1 9 2 6 3 7 4 5 5 4 6 3 7 2 8 1 9 10 11 11 12 15 13 16 14
REMARK SMILES IDX 17 15 12 17 13 18 14 19
REMARK H PARENT
REMARK Flexibility Score: 70.00
ROOT
ATOM      1  C   UNL     1      -0.739   7.190  -4.357  1.00  0.00     0.136 C 
ATOM      2  O   UNL     1      -0.701   8.408  -4.259  1.00  0.00    -0.299 OA
ENDROOT
BRANCH   1   3
ATOM      3  C   UNL     1      -0.645   6.369  -3.075  1.00  0.00     0.053 C 
ATOM      4  C   UNL     1      -1.837   5.435  -2.811  1.00  0.00     0.016 C 
BRANCH   3   5
ATOM      5  C   UNL     1       0.712   5.623  -2.969  1.00  0.00     0.015 C 
BRANCH   5   6
ATOM      6  C   UNL     1       0.650   4.098  -3.173  1.00  0.00     0.028 C 
BRANCH   6   7
ATOM      7  C   UNL     1       1.751   3.598  -4.076  1.00  0.00    -0.028 C 
ATOM      8  C   UNL     1       1.715   3.591  -5.429  1.00  0.00    -0.070 CG0
ATOM      9  C   UNL     1       2.925   3.075  -6.166  1.00  0.00     0.039 C 
ATOM     10  G   UNL     1       0.501   4.020  -6.232  1.00  0.00     0.000 G0
ENDBRANCH   6   7
ENDBRANCH   5   6
ENDBRANCH   3   5
ENDBRANCH   1   3
BRANCH   1  11
ATOM     11  C   UNL     1      -0.903   6.604  -5.745  1.00  0.00     0.087 C 
BRANCH  11  12
ATOM     12  C   UNL     1       0.419   6.650  -6.557  1.00  0.00     0.066 C 
BRANCH  12  13
ATOM     13  C   UNL     1       0.802   5.264  -7.053  1.00  0.00     0.140 C 
ATOM     14  O   UNL     1       1.383   5.141  -8.122  1.00  0.00    -0.299 OA
BRANCH  13  15
ATOM     15  C   UNL     1       0.506   4.026  -6.246  1.00  0.00     0.106 CG0
ATOM     16  G   UNL     1       1.725   3.605  -5.448  1.00  0.00     0.000 G0
ENDBRANCH  13  15
ENDBRANCH  12  13
BRANCH  12  17
ATOM     17  C   UNL     1       0.361   7.695  -7.712  1.00  0.00    -0.006 C 
ATOM     18  C   UNL     1      -1.079   8.162  -7.975  1.00  0.00     0.008 C 
ATOM     19  C   UNL     1       1.283   8.910  -7.507  1.00  0.00     0.008 C 
ENDBRANCH  12  17
ENDBRANCH  11  12
ENDBRANCH   1  11
TORSDOF 1
ENDMDL
