MODEL 1
REMARK VINA RESULT:    -5.481      0.000      0.000
REMARK INTER + INTRA:          -8.537
REMARK INTER:                  -7.885
REMARK INTRA:                  -0.653
REMARK UNBOUND:                -0.653
REMARK SMILES CC(C)=CCCC(C)=CCCC(C)=CCO
REMARK SMILES IDX 10 1 9 2 7 3 8 4 6 5 5 6 4 7 1 8 2 9 3 10 11 11 12 12 14 13
REMARK SMILES IDX 13 14 15 15 16 16
REMARK H PARENT 16 17
REMARK Flexibility Score: inf
ROOT
ATOM      1  C   UNL     1       4.542   4.162  -0.101  1.00  0.00     0.032 C 
ENDROOT
BRANCH   1   2
ATOM      2  C   UNL     1       3.399   5.141  -0.017  1.00  0.00    -0.028 C 
ATOM      3  C   UNL     1       3.237   6.200  -0.843  1.00  0.00    -0.077 C 
ATOM      4  C   UNL     1       4.256   6.554  -1.899  1.00  0.00     0.039 C 
BRANCH   3   5
ATOM      5  C   UNL     1       2.036   7.104  -0.659  1.00  0.00     0.034 C 
BRANCH   5   6
ATOM      6  C   UNL     1       1.065   7.008  -1.844  1.00  0.00     0.032 C 
BRANCH   6   7
ATOM      7  C   UNL     1       0.205   8.242  -1.974  1.00  0.00    -0.028 C 
ATOM      8  C   UNL     1      -0.470  10.456  -2.798  1.00  0.00     0.039 C 
ATOM      9  C   UNL     1       0.515   9.317  -2.732  1.00  0.00    -0.080 C 
ATOM     10  C   UNL     1       1.818   9.417  -3.489  1.00  0.00     0.039 C 
ENDBRANCH   6   7
ENDBRANCH   5   6
ENDBRANCH   3   5
ENDBRANCH   1   2
BRANCH   1  11
ATOM     11  C   UNL     1       4.898   3.620   1.289  1.00  0.00     0.034 C 
BRANCH  11  12
ATOM     12  C   UNL     1       4.811   2.110   1.313  1.00  0.00    -0.075 C 
ATOM     13  C   UNL     1       4.184   1.470   0.301  1.00  0.00    -0.000 C 
ATOM     14  C   UNL     1       5.437   1.353   2.461  1.00  0.00     0.039 C 
BRANCH  13  15
ATOM     15  C   UNL     1       4.042  -0.025   0.215  1.00  0.00     0.183 C 
BRANCH  15  16
ATOM     16  O   UNL     1       2.739  -0.358  -0.173  1.00  0.00    -0.392 OA
ATOM     17  H   UNL     1       2.270   0.503  -0.329  1.00  0.00     0.210 HD
ENDBRANCH  15  16
ENDBRANCH  13  15
ENDBRANCH  11  12
ENDBRANCH   1  11
TORSDOF 8
ENDMDL
MODEL 2
REMARK VINA RESULT:    -5.437      1.175      1.772
REMARK INTER + INTRA:          -8.473
REMARK INTER:                  -7.832
REMARK INTRA:                  -0.642
REMARK UNBOUND:                -0.653
REMARK SMILES CC(C)=CCCC(C)=CCCC(C)=CCO
REMARK SMILES IDX 10 1 9 2 7 3 8 4 6 5 5 6 4 7 1 8 2 9 3 10 11 11 12 12 14 13
REMARK SMILES IDX 13 14 15 15 16 16
REMARK H PARENT 16 17
REMARK Flexibility Score: inf
ROOT
ATOM      1  C   UNL     1       4.424   4.195  -0.032  1.00  0.00     0.032 C 
ENDROOT
BRANCH   1   2
ATOM      2  C   UNL     1       3.391   5.292   0.006  1.00  0.00    -0.028 C 
ATOM      3  C   UNL     1       3.319   6.307  -0.884  1.00  0.00    -0.077 C 
ATOM      4  C   UNL     1       4.344   6.484  -1.980  1.00  0.00     0.039 C 
BRANCH   3   5
ATOM      5  C   UNL     1       2.224   7.342  -0.740  1.00  0.00     0.034 C 
BRANCH   5   6
ATOM      6  C   UNL     1       1.434   7.521  -2.045  1.00  0.00     0.032 C 
BRANCH   6   7
ATOM      7  C   UNL     1      -0.057   7.495  -1.813  1.00  0.00    -0.028 C 
ATOM      8  C   UNL     1      -2.362   6.665  -1.988  1.00  0.00     0.039 C 
ATOM      9  C   UNL     1      -0.902   6.590  -2.354  1.00  0.00    -0.080 C 
ATOM     10  C   UNL     1      -0.431   5.530  -3.321  1.00  0.00     0.039 C 
ENDBRANCH   6   7
ENDBRANCH   5   6
ENDBRANCH   3   5
ENDBRANCH   1   2
BRANCH   1  11
ATOM     11  C   UNL     1       4.674   3.633   1.373  1.00  0.00     0.034 C 
BRANCH  11  12
ATOM     12  C   UNL     1       4.697   2.120   1.348  1.00  0.00    -0.075 C 
ATOM     13  C   UNL     1       4.067   1.468   0.345  1.00  0.00    -0.000 C 
ATOM     14  C   UNL     1       5.434   1.376   2.436  1.00  0.00     0.039 C 
BRANCH  13  15
ATOM     15  C   UNL     1       4.030  -0.030   0.213  1.00  0.00     0.183 C 
BRANCH  15  16
ATOM     16  O   UNL     1       2.749  -0.503   0.523  1.00  0.00    -0.392 OA
ATOM     17  H   UNL     1       2.832  -0.972   1.393  1.00  0.00     0.210 HD
ENDBRANCH  15  16
ENDBRANCH  13  15
ENDBRANCH  11  12
ENDBRANCH   1  11
TORSDOF 8
ENDMDL
MODEL 3
REMARK VINA RESULT:    -5.422      4.136      5.144
REMARK INTER + INTRA:          -8.452
REMARK INTER:                  -7.209
REMARK INTRA:                  -1.244
REMARK UNBOUND:                -0.653
REMARK SMILES CC(C)=CCCC(C)=CCCC(C)=CCO
REMARK SMILES IDX 10 1 9 2 7 3 8 4 6 5 5 6 4 7 1 8 2 9 3 10 11 11 12 12 14 13
REMARK SMILES IDX 13 14 15 15 16 16
REMARK H PARENT 16 17
REMARK Flexibility Score: inf
ROOT
ATOM      1  C   UNL     1       3.792   6.303  -1.591  1.00  0.00     0.032 C 
ENDROOT
BRANCH   1   2
ATOM      2  C   UNL     1       2.358   6.610  -1.944  1.00  0.00    -0.028 C 
ATOM      3  C   UNL     1       1.466   7.173  -1.098  1.00  0.00    -0.077 C 
ATOM      4  C   UNL     1       1.811   7.480   0.340  1.00  0.00     0.039 C 
BRANCH   3   5
ATOM      5  C   UNL     1       0.055   7.440  -1.579  1.00  0.00     0.034 C 
BRANCH   5   6
ATOM      6  C   UNL     1      -0.177   8.930  -1.862  1.00  0.00     0.032 C 
BRANCH   6   7
ATOM      7  C   UNL     1       0.737   9.452  -2.944  1.00  0.00    -0.028 C 
ATOM      8  C   UNL     1       2.662  10.636  -3.906  1.00  0.00     0.039 C 
ATOM      9  C   UNL     1       1.816  10.236  -2.725  1.00  0.00    -0.080 C 
ATOM     10  C   UNL     1       2.181  10.733  -1.346  1.00  0.00     0.039 C 
ENDBRANCH   6   7
ENDBRANCH   5   6
ENDBRANCH   3   5
ENDBRANCH   1   2
BRANCH   1  11
ATOM     11  C   UNL     1       4.745   7.283  -2.286  1.00  0.00     0.034 C 
BRANCH  11  12
ATOM     12  C   UNL     1       5.214   6.724  -3.612  1.00  0.00    -0.075 C 
ATOM     13  C   UNL     1       6.348   5.990  -3.653  1.00  0.00    -0.000 C 
ATOM     14  C   UNL     1       4.397   6.990  -4.854  1.00  0.00     0.039 C 
BRANCH  13  15
ATOM     15  C   UNL     1       6.905   5.380  -4.910  1.00  0.00     0.183 C 
BRANCH  15  16
ATOM     16  O   UNL     1       7.917   6.198  -5.428  1.00  0.00    -0.392 OA
ATOM     17  H   UNL     1       7.518   7.101  -5.524  1.00  0.00     0.210 HD
ENDBRANCH  15  16
ENDBRANCH  13  15
ENDBRANCH  11  12
ENDBRANCH   1  11
TORSDOF 8
ENDMDL
MODEL 4
REMARK VINA RESULT:    -5.389      3.187      8.132
REMARK INTER + INTRA:          -8.404
REMARK INTER:                  -7.628
REMARK INTRA:                  -0.777
REMARK UNBOUND:                -0.653
REMARK SMILES CC(C)=CCCC(C)=CCCC(C)=CCO
REMARK SMILES IDX 10 1 9 2 7 3 8 4 6 5 5 6 4 7 1 8 2 9 3 10 11 11 12 12 14 13
REMARK SMILES IDX 13 14 15 15 16 16
REMARK H PARENT 16 17
REMARK Flexibility Score: inf
ROOT
ATOM      1  C   UNL     1       3.824   7.875  -2.389  1.00  0.00     0.032 C 
ENDROOT
BRANCH   1   2
ATOM      2  C   UNL     1       3.836   6.542  -1.684  1.00  0.00    -0.028 C 
ATOM      3  C   UNL     1       3.163   6.275  -0.542  1.00  0.00    -0.077 C 
ATOM      4  C   UNL     1       2.382   7.337   0.194  1.00  0.00     0.039 C 
BRANCH   3   5
ATOM      5  C   UNL     1       3.249   4.889   0.062  1.00  0.00     0.034 C 
BRANCH   5   6
ATOM      6  C   UNL     1       4.679   4.332   0.008  1.00  0.00     0.032 C 
BRANCH   6   7
ATOM      7  C   UNL     1       4.997   3.470   1.205  1.00  0.00    -0.028 C 
ATOM      8  C   UNL     1       5.614   1.431   2.429  1.00  0.00     0.039 C 
ATOM      9  C   UNL     1       5.265   2.147   1.149  1.00  0.00    -0.080 C 
ATOM     10  C   UNL     1       5.204   1.370  -0.144  1.00  0.00     0.039 C 
ENDBRANCH   6   7
ENDBRANCH   5   6
ENDBRANCH   3   5
ENDBRANCH   1   2
BRANCH   1  11
ATOM     11  C   UNL     1       2.620   7.981  -3.332  1.00  0.00     0.034 C 
BRANCH  11  12
ATOM     12  C   UNL     1       1.862   9.268  -3.089  1.00  0.00    -0.075 C 
ATOM     13  C   UNL     1       0.593   9.207  -2.627  1.00  0.00    -0.000 C 
ATOM     14  C   UNL     1       2.546  10.588  -3.357  1.00  0.00     0.039 C 
BRANCH  13  15
ATOM     15  C   UNL     1      -0.253  10.418  -2.344  1.00  0.00     0.183 C 
BRANCH  15  16
ATOM     16  O   UNL     1      -0.982  10.767  -3.487  1.00  0.00    -0.392 OA
ATOM     17  H   UNL     1      -1.683  11.402  -3.183  1.00  0.00     0.210 HD
ENDBRANCH  15  16
ENDBRANCH  13  15
ENDBRANCH  11  12
ENDBRANCH   1  11
TORSDOF 8
ENDMDL
MODEL 5
REMARK VINA RESULT:    -5.329      4.407      5.537
REMARK INTER + INTRA:          -8.318
REMARK INTER:                  -7.370
REMARK INTRA:                  -0.949
REMARK UNBOUND:                -0.653
REMARK SMILES CC(C)=CCCC(C)=CCCC(C)=CCO
REMARK SMILES IDX 10 1 9 2 7 3 8 4 6 5 5 6 4 7 1 8 2 9 3 10 11 11 12 12 14 13
REMARK SMILES IDX 13 14 15 15 16 16
REMARK H PARENT 16 17
REMARK Flexibility Score: inf
ROOT
ATOM      1  C   UNL     1       3.452   8.892  -0.894  1.00  0.00     0.032 C 
ENDROOT
BRANCH   1   2
ATOM      2  C   UNL     1       2.026   9.381  -0.864  1.00  0.00    -0.028 C 
ATOM      3  C   UNL     1       1.497  10.250  -1.754  1.00  0.00    -0.077 C 
ATOM      4  C   UNL     1       2.329  10.889  -2.840  1.00  0.00     0.039 C 
BRANCH   3   5
ATOM      5  C   UNL     1       0.044  10.655  -1.619  1.00  0.00     0.034 C 
BRANCH   5   6
ATOM      6  C   UNL     1      -0.896   9.625  -2.260  1.00  0.00     0.032 C 
BRANCH   6   7
ATOM      7  C   UNL     1      -0.190   8.327  -2.568  1.00  0.00    -0.028 C 
ATOM      8  C   UNL     1       0.097   5.895  -2.767  1.00  0.00     0.039 C 
ATOM      9  C   UNL     1      -0.715   7.099  -2.363  1.00  0.00    -0.080 C 
ATOM     10  C   UNL     1      -2.070   6.902  -1.725  1.00  0.00     0.039 C 
ENDBRANCH   6   7
ENDBRANCH   5   6
ENDBRANCH   3   5
ENDBRANCH   1   2
BRANCH   1  11
ATOM     11  C   UNL     1       3.508   7.396  -1.225  1.00  0.00     0.034 C 
BRANCH  11  12
ATOM     12  C   UNL     1       4.047   7.177  -2.622  1.00  0.00    -0.075 C 
ATOM     13  C   UNL     1       5.225   6.533  -2.779  1.00  0.00    -0.000 C 
ATOM     14  C   UNL     1       3.250   7.671  -3.806  1.00  0.00     0.039 C 
BRANCH  13  15
ATOM     15  C   UNL     1       5.854   6.253  -4.117  1.00  0.00     0.183 C 
BRANCH  15  16
ATOM     16  O   UNL     1       7.225   6.019  -3.958  1.00  0.00    -0.392 OA
ATOM     17  H   UNL     1       7.346   5.714  -3.021  1.00  0.00     0.210 HD
ENDBRANCH  15  16
ENDBRANCH  13  15
ENDBRANCH  11  12
ENDBRANCH   1  11
TORSDOF 8
ENDMDL
MODEL 6
REMARK VINA RESULT:    -5.254      0.897      1.494
REMARK INTER + INTRA:          -8.210
REMARK INTER:                  -7.464
REMARK INTRA:                  -0.746
REMARK UNBOUND:                -0.653
REMARK SMILES CC(C)=CCCC(C)=CCCC(C)=CCO
REMARK SMILES IDX 10 1 9 2 7 3 8 4 6 5 5 6 4 7 1 8 2 9 3 10 11 11 12 12 14 13
REMARK SMILES IDX 13 14 15 15 16 16
REMARK H PARENT 16 17
REMARK Flexibility Score: inf
ROOT
ATOM      1  C   UNL     1       3.792   4.453   0.607  1.00  0.00     0.032 C 
ENDROOT
BRANCH   1   2
ATOM      2  C   UNL     1       3.833   5.367  -0.591  1.00  0.00    -0.028 C 
ATOM      3  C   UNL     1       3.200   6.561  -0.664  1.00  0.00    -0.077 C 
ATOM      4  C   UNL     1       2.307   7.062   0.445  1.00  0.00     0.039 C 
BRANCH   3   5
ATOM      5  C   UNL     1       3.330   7.391  -1.923  1.00  0.00     0.034 C 
BRANCH   5   6
ATOM      6  C   UNL     1       2.075   7.295  -2.802  1.00  0.00     0.032 C 
BRANCH   6   7
ATOM      7  C   UNL     1       1.281   8.579  -2.799  1.00  0.00    -0.028 C 
ATOM      8  C   UNL     1      -0.638  10.054  -2.382  1.00  0.00     0.039 C 
ATOM      9  C   UNL     1       0.006   8.692  -2.367  1.00  0.00    -0.080 C 
ATOM     10  C   UNL     1      -0.791   7.498  -1.895  1.00  0.00     0.039 C 
ENDBRANCH   6   7
ENDBRANCH   5   6
ENDBRANCH   3   5
ENDBRANCH   1   2
BRANCH   1  11
ATOM     11  C   UNL     1       4.950   3.449   0.565  1.00  0.00     0.034 C 
BRANCH  11  12
ATOM     12  C   UNL     1       4.481   2.072   0.982  1.00  0.00    -0.075 C 
ATOM     13  C   UNL     1       4.310   1.120   0.038  1.00  0.00    -0.000 C 
ATOM     14  C   UNL     1       4.226   1.792   2.445  1.00  0.00     0.039 C 
BRANCH  13  15
ATOM     15  C   UNL     1       3.855  -0.283   0.335  1.00  0.00     0.183 C 
BRANCH  15  16
ATOM     16  O   UNL     1       2.579  -0.492  -0.200  1.00  0.00    -0.392 OA
ATOM     17  H   UNL     1       2.655  -1.288  -0.789  1.00  0.00     0.210 HD
ENDBRANCH  15  16
ENDBRANCH  13  15
ENDBRANCH  11  12
ENDBRANCH   1  11
TORSDOF 8
ENDMDL
MODEL 7
REMARK VINA RESULT:    -5.147      1.851      4.209
REMARK INTER + INTRA:          -8.057
REMARK INTER:                  -7.198
REMARK INTRA:                  -0.859
REMARK UNBOUND:                -0.653
REMARK SMILES CC(C)=CCCC(C)=CCCC(C)=CCO
REMARK SMILES IDX 10 1 9 2 7 3 8 4 6 5 5 6 4 7 1 8 2 9 3 10 11 11 12 12 14 13
REMARK SMILES IDX 13 14 15 15 16 16
REMARK H PARENT 16 17
REMARK Flexibility Score: inf
ROOT
ATOM      1  C   UNL     1       5.395   0.550   0.112  1.00  0.00     0.032 C 
ENDROOT
BRANCH   1   2
ATOM      2  C   UNL     1       5.056   2.014   0.240  1.00  0.00    -0.028 C 
ATOM      3  C   UNL     1       4.504   2.578   1.339  1.00  0.00    -0.077 C 
ATOM      4  C   UNL     1       4.094   1.758   2.539  1.00  0.00     0.039 C 
BRANCH   3   5
ATOM      5  C   UNL     1       4.221   4.066   1.344  1.00  0.00     0.034 C 
BRANCH   5   6
ATOM      6  C   UNL     1       4.216   4.650  -0.075  1.00  0.00     0.032 C 
BRANCH   6   7
ATOM      7  C   UNL     1       3.046   5.576  -0.302  1.00  0.00    -0.028 C 
ATOM      8  C   UNL     1       1.761   7.386  -1.355  1.00  0.00     0.039 C 
ATOM      9  C   UNL     1       3.024   6.576  -1.211  1.00  0.00    -0.080 C 
ATOM     10  C   UNL     1       4.224   6.913  -2.064  1.00  0.00     0.039 C 
ENDBRANCH   6   7
ENDBRANCH   5   6
ENDBRANCH   3   5
ENDBRANCH   1   2
BRANCH   1  11
ATOM     11  C   UNL     1       4.866  -0.017  -1.211  1.00  0.00     0.034 C 
BRANCH  11  12
ATOM     12  C   UNL     1       3.465  -0.562  -1.038  1.00  0.00    -0.075 C 
ATOM     13  C   UNL     1       3.205  -1.395  -0.006  1.00  0.00    -0.000 C 
ATOM     14  C   UNL     1       2.389  -0.151  -2.014  1.00  0.00     0.039 C 
BRANCH  13  15
ATOM     15  C   UNL     1       1.852  -1.992   0.269  1.00  0.00     0.183 C 
BRANCH  15  16
ATOM     16  O   UNL     1       1.939  -3.389   0.268  1.00  0.00    -0.392 OA
ATOM     17  H   UNL     1       2.154  -3.650  -0.665  1.00  0.00     0.210 HD
ENDBRANCH  15  16
ENDBRANCH  13  15
ENDBRANCH  11  12
ENDBRANCH   1  11
TORSDOF 8
ENDMDL
MODEL 8
REMARK VINA RESULT:    -5.077      2.507      7.460
REMARK INTER + INTRA:          -7.956
REMARK INTER:                  -7.047
REMARK INTRA:                  -0.909
REMARK UNBOUND:                -0.653
REMARK SMILES CC(C)=CCCC(C)=CCCC(C)=CCO
REMARK SMILES IDX 10 1 9 2 7 3 8 4 6 5 5 6 4 7 1 8 2 9 3 10 11 11 12 12 14 13
REMARK SMILES IDX 13 14 15 15 16 16
REMARK H PARENT 16 17
REMARK Flexibility Score: inf
ROOT
ATOM      1  C   UNL     1       2.789   8.197  -2.577  1.00  0.00     0.032 C 
ENDROOT
BRANCH   1   2
ATOM      2  C   UNL     1       3.576   7.007  -2.089  1.00  0.00    -0.028 C 
ATOM      3  C   UNL     1       3.408   6.422  -0.881  1.00  0.00    -0.077 C 
ATOM      4  C   UNL     1       2.449   6.971   0.148  1.00  0.00     0.039 C 
BRANCH   3   5
ATOM      5  C   UNL     1       4.258   5.223  -0.515  1.00  0.00     0.034 C 
BRANCH   5   6
ATOM      6  C   UNL     1       3.574   4.341   0.539  1.00  0.00     0.032 C 
BRANCH   6   7
ATOM      7  C   UNL     1       4.573   3.583   1.379  1.00  0.00    -0.028 C 
ATOM      8  C   UNL     1       5.853   1.645   2.177  1.00  0.00     0.039 C 
ATOM      9  C   UNL     1       4.784   2.250   1.306  1.00  0.00    -0.080 C 
ATOM     10  C   UNL     1       3.970   1.358   0.399  1.00  0.00     0.039 C 
ENDBRANCH   6   7
ENDBRANCH   5   6
ENDBRANCH   3   5
ENDBRANCH   1   2
BRANCH   1  11
ATOM     11  C   UNL     1       1.612   7.750  -3.451  1.00  0.00     0.034 C 
BRANCH  11  12
ATOM     12  C   UNL     1       0.304   7.898  -2.705  1.00  0.00    -0.075 C 
ATOM     13  C   UNL     1      -0.465   6.805  -2.500  1.00  0.00    -0.000 C 
ATOM     14  C   UNL     1      -0.105   9.260  -2.197  1.00  0.00     0.039 C 
BRANCH  13  15
ATOM     15  C   UNL     1      -1.778   6.830  -1.767  1.00  0.00     0.183 C 
BRANCH  15  16
ATOM     16  O   UNL     1      -2.782   6.277  -2.571  1.00  0.00    -0.392 OA
ATOM     17  H   UNL     1      -2.430   5.406  -2.890  1.00  0.00     0.210 HD
ENDBRANCH  15  16
ENDBRANCH  13  15
ENDBRANCH  11  12
ENDBRANCH   1  11
TORSDOF 8
ENDMDL
MODEL 9
REMARK VINA RESULT:    -4.945      4.066      5.630
REMARK INTER + INTRA:          -7.766
REMARK INTER:                  -6.672
REMARK INTRA:                  -1.094
REMARK UNBOUND:                -0.653
REMARK SMILES CC(C)=CCCC(C)=CCCC(C)=CCO
REMARK SMILES IDX 10 1 9 2 7 3 8 4 6 5 5 6 4 7 1 8 2 9 3 10 11 11 12 12 14 13
REMARK SMILES IDX 13 14 15 15 16 16
REMARK H PARENT 16 17
REMARK Flexibility Score: inf
ROOT
ATOM      1  C   UNL     1       3.052   7.788  -3.951  1.00  0.00     0.032 C 
ENDROOT
BRANCH   1   2
ATOM      2  C   UNL     1       1.773   8.456  -3.515  1.00  0.00    -0.028 C 
ATOM      3  C   UNL     1       1.585   9.794  -3.470  1.00  0.00    -0.077 C 
ATOM      4  C   UNL     1       2.694  10.769  -3.785  1.00  0.00     0.039 C 
BRANCH   3   5
ATOM      5  C   UNL     1       0.245  10.339  -3.022  1.00  0.00     0.034 C 
BRANCH   5   6
ATOM      6  C   UNL     1      -0.060   9.972  -1.563  1.00  0.00     0.032 C 
BRANCH   6   7
ATOM      7  C   UNL     1       1.099  10.280  -0.646  1.00  0.00    -0.028 C 
ATOM      8  C   UNL     1       2.938   9.816   0.915  1.00  0.00     0.039 C 
ATOM      9  C   UNL     1       1.768   9.359   0.082  1.00  0.00    -0.080 C 
ATOM     10  C   UNL     1       1.365   7.904   0.101  1.00  0.00     0.039 C 
ENDBRANCH   6   7
ENDBRANCH   5   6
ENDBRANCH   3   5
ENDBRANCH   1   2
BRANCH   1  11
ATOM     11  C   UNL     1       4.012   7.624  -2.767  1.00  0.00     0.034 C 
BRANCH  11  12
ATOM     12  C   UNL     1       5.049   6.562  -3.062  1.00  0.00    -0.075 C 
ATOM     13  C   UNL     1       5.732   6.613  -4.228  1.00  0.00    -0.000 C 
ATOM     14  C   UNL     1       5.305   5.479  -2.041  1.00  0.00     0.039 C 
BRANCH  13  15
ATOM     15  C   UNL     1       6.787   5.618  -4.624  1.00  0.00     0.183 C 
BRANCH  15  16
ATOM     16  O   UNL     1       7.772   6.250  -5.393  1.00  0.00    -0.392 OA
ATOM     17  H   UNL     1       7.307   6.962  -5.904  1.00  0.00     0.210 HD
ENDBRANCH  15  16
ENDBRANCH  13  15
ENDBRANCH  11  12
ENDBRANCH   1  11
TORSDOF 8
ENDMDL
