MODEL 1
REMARK VINA RESULT:    -4.460      0.000      0.000
REMARK INTER + INTRA:          -9.607
REMARK INTER:                  -8.370
REMARK INTRA:                  -1.237
REMARK UNBOUND:                -1.237
REMARK SMILES O=C([O-])CCCCCCCCCCCCCCC(=O)[O-]
REMARK SMILES IDX 10 1 9 2 8 3 7 4 6 5 5 6 4 7 2 8 1 9 3 10 11 11 12 12 13 13
REMARK SMILES IDX 14 14 15 15 16 16 17 17 18 18 19 19 20 20
REMARK H PARENT
REMARK Flexibility Score: inf
ROOT
ATOM      1  C   UNL     1      10.753 -15.190  32.053  1.00  0.00     0.000 C 
ENDROOT
BRANCH   1   2
ATOM      2  C   UNL     1      11.163 -15.168  33.539  1.00  0.00     0.000 C 
BRANCH   2   3
ATOM      3  C   UNL     1      10.017 -14.885  34.526  1.00  0.00     0.000 C 
BRANCH   3   4
ATOM      4  C   UNL     1       9.900 -15.950  35.629  1.00  0.00     0.000 C 
BRANCH   4   5
ATOM      5  C   UNL     1       9.141 -17.208  35.153  1.00  0.00     0.000 C 
BRANCH   5   6
ATOM      6  C   UNL     1       7.690 -17.288  35.667  1.00  0.00     0.006 C 
BRANCH   6   7
ATOM      7  C   UNL     1       7.083 -15.930  36.049  1.00  0.00     0.053 C 
BRANCH   7   8
ATOM      8  C   UNL     1       5.972 -16.073  37.044  1.00  0.00     0.041 C 
ATOM      9  O   UNL     1       4.939 -16.731  36.749  1.00  0.00    -0.550 OA
ATOM     10  O   UNL     1       6.083 -15.499  38.304  1.00  0.00    -0.550 OA
ENDBRANCH   7   8
ENDBRANCH   6   7
ENDBRANCH   5   6
ENDBRANCH   4   5
ENDBRANCH   3   4
ENDBRANCH   2   3
ENDBRANCH   1   2
BRANCH   1  11
ATOM     11  C   UNL     1      10.024 -16.467  31.589  1.00  0.00     0.000 C 
BRANCH  11  12
ATOM     12  C   UNL     1      10.939 -17.667  31.280  1.00  0.00     0.000 C 
BRANCH  12  13
ATOM     13  C   UNL     1      10.332 -19.008  31.725  1.00  0.00     0.000 C 
BRANCH  13  14
ATOM     14  C   UNL     1       8.795 -18.993  31.712  1.00  0.00     0.000 C 
BRANCH  14  15
ATOM     15  C   UNL     1       8.199 -20.000  30.717  1.00  0.00     0.000 C 
BRANCH  15  16
ATOM     16  C   UNL     1       9.308 -20.757  29.971  1.00  0.00     0.006 C 
BRANCH  16  17
ATOM     17  C   UNL     1       8.866 -21.210  28.574  1.00  0.00     0.053 C 
BRANCH  17  18
ATOM     18  C   UNL     1       9.650 -20.529  27.494  1.00  0.00     0.041 C 
ATOM     19  O   UNL     1       9.627 -19.274  27.390  1.00  0.00    -0.550 OA
ATOM     20  O   UNL     1      10.377 -21.282  26.580  1.00  0.00    -0.550 OA
ENDBRANCH  17  18
ENDBRANCH  16  17
ENDBRANCH  15  16
ENDBRANCH  14  15
ENDBRANCH  13  14
ENDBRANCH  12  13
ENDBRANCH  11  12
ENDBRANCH   1  11
TORSDOF 15
ENDMDL
MODEL 2
REMARK VINA RESULT:    -4.450      3.031      4.110
REMARK INTER + INTRA:          -9.588
REMARK INTER:                  -7.960
REMARK INTRA:                  -1.628
REMARK UNBOUND:                -1.237
REMARK SMILES O=C([O-])CCCCCCCCCCCCCCC(=O)[O-]
REMARK SMILES IDX 10 1 9 2 8 3 7 4 6 5 5 6 4 7 2 8 1 9 3 10 11 11 12 12 13 13
REMARK SMILES IDX 14 14 15 15 16 16 17 17 18 18 19 19 20 20
REMARK H PARENT
REMARK Flexibility Score: inf
ROOT
ATOM      1  C   UNL     1       8.154 -17.445  33.053  1.00  0.00     0.000 C 
ENDROOT
BRANCH   1   2
ATOM      2  C   UNL     1       7.904 -16.846  34.451  1.00  0.00     0.000 C 
BRANCH   2   3
ATOM      3  C   UNL     1       9.016 -17.111  35.481  1.00  0.00     0.000 C 
BRANCH   3   4
ATOM      4  C   UNL     1       9.881 -15.871  35.762  1.00  0.00     0.000 C 
BRANCH   4   5
ATOM      5  C   UNL     1       9.314 -14.596  35.098  1.00  0.00     0.000 C 
BRANCH   5   6
ATOM      6  C   UNL     1      10.187 -14.055  33.950  1.00  0.00     0.006 C 
BRANCH   6   7
ATOM      7  C   UNL     1      11.623 -14.601  33.941  1.00  0.00     0.053 C 
BRANCH   7   8
ATOM      8  C   UNL     1      12.601 -13.614  34.502  1.00  0.00     0.041 C 
ATOM      9  O   UNL     1      13.395 -13.005  33.737  1.00  0.00    -0.550 OA
ATOM     10  O   UNL     1      12.623 -13.350  35.865  1.00  0.00    -0.550 OA
ENDBRANCH   7   8
ENDBRANCH   6   7
ENDBRANCH   5   6
ENDBRANCH   4   5
ENDBRANCH   3   4
ENDBRANCH   2   3
ENDBRANCH   1   2
BRANCH   1  11
ATOM     11  C   UNL     1       9.560 -18.039  32.833  1.00  0.00     0.000 C 
BRANCH  11  12
ATOM     12  C   UNL     1      10.395 -17.353  31.735  1.00  0.00     0.000 C 
BRANCH  12  13
ATOM     13  C   UNL     1      11.152 -18.357  30.849  1.00  0.00     0.000 C 
BRANCH  13  14
ATOM     14  C   UNL     1      10.767 -19.815  31.149  1.00  0.00     0.000 C 
BRANCH  14  15
ATOM     15  C   UNL     1      10.052 -20.495  29.971  1.00  0.00     0.000 C 
BRANCH  15  16
ATOM     16  C   UNL     1       8.526 -20.402  30.127  1.00  0.00     0.006 C 
BRANCH  16  17
ATOM     17  C   UNL     1       7.797 -21.543  29.408  1.00  0.00     0.053 C 
BRANCH  17  18
ATOM     18  C   UNL     1       7.164 -21.082  28.130  1.00  0.00     0.041 C 
ATOM     19  O   UNL     1       6.498 -20.013  28.104  1.00  0.00    -0.550 OA
ATOM     20  O   UNL     1       7.280 -21.849  26.978  1.00  0.00    -0.550 OA
ENDBRANCH  17  18
ENDBRANCH  16  17
ENDBRANCH  15  16
ENDBRANCH  14  15
ENDBRANCH  13  14
ENDBRANCH  12  13
ENDBRANCH  11  12
ENDBRANCH   1  11
TORSDOF 15
ENDMDL
MODEL 3
REMARK VINA RESULT:    -4.446      1.011      7.816
REMARK INTER + INTRA:          -9.581
REMARK INTER:                  -7.745
REMARK INTRA:                  -1.836
REMARK UNBOUND:                -1.237
REMARK SMILES O=C([O-])CCCCCCCCCCCCCCC(=O)[O-]
REMARK SMILES IDX 10 1 9 2 8 3 7 4 6 5 5 6 4 7 2 8 1 9 3 10 11 11 12 12 13 13
REMARK SMILES IDX 14 14 15 15 16 16 17 17 18 18 19 19 20 20
REMARK H PARENT
REMARK Flexibility Score: inf
ROOT
ATOM      1  C   UNL     1       9.827 -16.214  31.348  1.00  0.00     0.000 C 
ENDROOT
BRANCH   1   2
ATOM      2  C   UNL     1      10.813 -17.396  31.444  1.00  0.00     0.000 C 
BRANCH   2   3
ATOM      3  C   UNL     1      10.217 -18.695  32.015  1.00  0.00     0.000 C 
BRANCH   3   4
ATOM      4  C   UNL     1       8.685 -18.756  31.890  1.00  0.00     0.000 C 
BRANCH   4   5
ATOM      5  C   UNL     1       8.226 -19.646  30.715  1.00  0.00     0.000 C 
BRANCH   5   6
ATOM      6  C   UNL     1       9.299 -20.642  30.235  1.00  0.00     0.006 C 
BRANCH   6   7
ATOM      7  C   UNL     1       9.648 -20.520  28.745  1.00  0.00     0.053 C 
BRANCH   7   8
ATOM      8  C   UNL     1       8.744 -21.352  27.887  1.00  0.00     0.041 C 
ATOM      9  O   UNL     1       8.067 -22.283  28.399  1.00  0.00    -0.550 OA
ATOM     10  O   UNL     1       8.631 -21.089  26.528  1.00  0.00    -0.550 OA
ENDBRANCH   7   8
ENDBRANCH   6   7
ENDBRANCH   5   6
ENDBRANCH   4   5
ENDBRANCH   3   4
ENDBRANCH   2   3
ENDBRANCH   1   2
BRANCH   1  11
ATOM     11  C   UNL     1      10.357 -14.868  31.882  1.00  0.00     0.000 C 
BRANCH  11  12
ATOM     12  C   UNL     1      10.854 -14.892  33.339  1.00  0.00     0.000 C 
BRANCH  12  13
ATOM     13  C   UNL     1       9.710 -15.050  34.355  1.00  0.00     0.000 C 
BRANCH  13  14
ATOM     14  C   UNL     1      10.043 -16.059  35.465  1.00  0.00     0.000 C 
BRANCH  14  15
ATOM     15  C   UNL     1       9.220 -17.352  35.360  1.00  0.00     0.000 C 
BRANCH  15  16
ATOM     16  C   UNL     1       7.759 -17.045  34.996  1.00  0.00     0.006 C 
BRANCH  16  17
ATOM     17  C   UNL     1       6.786 -17.438  36.115  1.00  0.00     0.053 C 
BRANCH  17  18
ATOM     18  C   UNL     1       6.179 -16.236  36.772  1.00  0.00     0.041 C 
ATOM     19  O   UNL     1       4.948 -16.212  37.034  1.00  0.00    -0.550 OA
ATOM     20  O   UNL     1       6.967 -15.129  37.064  1.00  0.00    -0.550 OA
ENDBRANCH  17  18
ENDBRANCH  16  17
ENDBRANCH  15  16
ENDBRANCH  14  15
ENDBRANCH  13  14
ENDBRANCH  12  13
ENDBRANCH  11  12
ENDBRANCH   1  11
TORSDOF 15
ENDMDL
MODEL 4
REMARK VINA RESULT:    -4.416      2.772      7.801
REMARK INTER + INTRA:          -9.525
REMARK INTER:                  -7.657
REMARK INTRA:                  -1.868
REMARK UNBOUND:                -1.237
REMARK SMILES O=C([O-])CCCCCCCCCCCCCCC(=O)[O-]
REMARK SMILES IDX 10 1 9 2 8 3 7 4 6 5 5 6 4 7 2 8 1 9 3 10 11 11 12 12 13 13
REMARK SMILES IDX 14 14 15 15 16 16 17 17 18 18 19 19 20 20
REMARK H PARENT
REMARK Flexibility Score: inf
ROOT
ATOM      1  C   UNL     1       7.745 -17.078  31.615  1.00  0.00     0.000 C 
ENDROOT
BRANCH   1   2
ATOM      2  C   UNL     1       9.038 -16.304  31.289  1.00  0.00     0.000 C 
BRANCH   2   3
ATOM      3  C   UNL     1      10.340 -17.003  31.717  1.00  0.00     0.000 C 
BRANCH   3   4
ATOM      4  C   UNL     1      10.777 -18.106  30.738  1.00  0.00     0.000 C 
BRANCH   4   5
ATOM      5  C   UNL     1      10.839 -19.497  31.407  1.00  0.00     0.000 C 
BRANCH   5   6
ATOM      6  C   UNL     1      10.370 -20.645  30.493  1.00  0.00     0.006 C 
BRANCH   6   7
ATOM      7  C   UNL     1       9.041 -20.373  29.774  1.00  0.00     0.053 C 
BRANCH   7   8
ATOM      8  C   UNL     1       9.062 -20.853  28.354  1.00  0.00     0.041 C 
ATOM      9  O   UNL     1      10.147 -20.891  27.716  1.00  0.00    -0.550 OA
ATOM     10  O   UNL     1       7.891 -21.279  27.742  1.00  0.00    -0.550 OA
ENDBRANCH   7   8
ENDBRANCH   6   7
ENDBRANCH   5   6
ENDBRANCH   4   5
ENDBRANCH   3   4
ENDBRANCH   2   3
ENDBRANCH   1   2
BRANCH   1  11
ATOM     11  C   UNL     1       7.793 -17.931  32.899  1.00  0.00     0.000 C 
BRANCH  11  12
ATOM     12  C   UNL     1       6.844 -17.475  34.023  1.00  0.00     0.000 C 
BRANCH  12  13
ATOM     13  C   UNL     1       7.589 -16.856  35.217  1.00  0.00     0.000 C 
BRANCH  13  14
ATOM     14  C   UNL     1       9.064 -17.284  35.277  1.00  0.00     0.000 C 
BRANCH  14  15
ATOM     15  C   UNL     1       9.998 -16.141  35.705  1.00  0.00     0.000 C 
BRANCH  15  16
ATOM     16  C   UNL     1       9.829 -14.922  34.786  1.00  0.00     0.006 C 
BRANCH  16  17
ATOM     17  C   UNL     1      10.428 -13.648  35.396  1.00  0.00     0.053 C 
BRANCH  17  18
ATOM     18  C   UNL     1      11.912 -13.580  35.195  1.00  0.00     0.041 C 
ATOM     19  O   UNL     1      12.431 -14.042  34.145  1.00  0.00    -0.550 OA
ATOM     20  O   UNL     1      12.724 -13.038  36.184  1.00  0.00    -0.550 OA
ENDBRANCH  17  18
ENDBRANCH  16  17
ENDBRANCH  15  16
ENDBRANCH  14  15
ENDBRANCH  13  14
ENDBRANCH  12  13
ENDBRANCH  11  12
ENDBRANCH   1  11
TORSDOF 15
ENDMDL
MODEL 5
REMARK VINA RESULT:    -4.405      1.959      3.073
REMARK INTER + INTRA:          -9.505
REMARK INTER:                  -7.480
REMARK INTRA:                  -2.025
REMARK UNBOUND:                -1.237
REMARK SMILES O=C([O-])CCCCCCCCCCCCCCC(=O)[O-]
REMARK SMILES IDX 10 1 9 2 8 3 7 4 6 5 5 6 4 7 2 8 1 9 3 10 11 11 12 12 13 13
REMARK SMILES IDX 14 14 15 15 16 16 17 17 18 18 19 19 20 20
REMARK H PARENT
REMARK Flexibility Score: inf
ROOT
ATOM      1  C   UNL     1       8.371 -16.545  30.699  1.00  0.00     0.000 C 
ENDROOT
BRANCH   1   2
ATOM      2  C   UNL     1       7.088 -17.163  31.290  1.00  0.00     0.000 C 
BRANCH   2   3
ATOM      3  C   UNL     1       7.318 -18.179  32.422  1.00  0.00     0.000 C 
BRANCH   3   4
ATOM      4  C   UNL     1       6.467 -17.888  33.670  1.00  0.00     0.000 C 
BRANCH   4   5
ATOM      5  C   UNL     1       6.997 -16.682  34.475  1.00  0.00     0.000 C 
BRANCH   5   6
ATOM      6  C   UNL     1       7.992 -17.069  35.587  1.00  0.00     0.006 C 
BRANCH   6   7
ATOM      7  C   UNL     1       9.467 -16.889  35.201  1.00  0.00     0.053 C 
BRANCH   7   8
ATOM      8  C   UNL     1       9.974 -15.522  35.545  1.00  0.00     0.041 C 
ATOM      9  O   UNL     1      10.932 -15.021  34.899  1.00  0.00    -0.550 OA
ATOM     10  O   UNL     1       9.377 -14.791  36.564  1.00  0.00    -0.550 OA
ENDBRANCH   7   8
ENDBRANCH   6   7
ENDBRANCH   5   6
ENDBRANCH   4   5
ENDBRANCH   3   4
ENDBRANCH   2   3
ENDBRANCH   1   2
BRANCH   1  11
ATOM     11  C   UNL     1       9.411 -16.071  31.734  1.00  0.00     0.000 C 
BRANCH  11  12
ATOM     12  C   UNL     1      10.749 -16.834  31.713  1.00  0.00     0.000 C 
BRANCH  12  13
ATOM     13  C   UNL     1      10.729 -18.044  30.763  1.00  0.00     0.000 C 
BRANCH  13  14
ATOM     14  C   UNL     1      10.771 -19.384  31.515  1.00  0.00     0.000 C 
BRANCH  14  15
ATOM     15  C   UNL     1      10.417 -20.580  30.617  1.00  0.00     0.000 C 
BRANCH  15  16
ATOM     16  C   UNL     1       8.964 -20.486  30.127  1.00  0.00     0.006 C 
BRANCH  16  17
ATOM     17  C   UNL     1       8.727 -21.306  28.852  1.00  0.00     0.053 C 
BRANCH  17  18
ATOM     18  C   UNL     1       9.309 -20.637  27.644  1.00  0.00     0.041 C 
ATOM     19  O   UNL     1      10.239 -21.190  27.001  1.00  0.00    -0.550 OA
ATOM     20  O   UNL     1       8.847 -19.387  27.250  1.00  0.00    -0.550 OA
ENDBRANCH  17  18
ENDBRANCH  16  17
ENDBRANCH  15  16
ENDBRANCH  14  15
ENDBRANCH  13  14
ENDBRANCH  12  13
ENDBRANCH  11  12
ENDBRANCH   1  11
TORSDOF 15
ENDMDL
MODEL 6
REMARK VINA RESULT:    -4.336      1.476      2.400
REMARK INTER + INTRA:          -9.375
REMARK INTER:                  -7.879
REMARK INTRA:                  -1.495
REMARK UNBOUND:                -1.237
REMARK SMILES O=C([O-])CCCCCCCCCCCCCCC(=O)[O-]
REMARK SMILES IDX 10 1 9 2 8 3 7 4 6 5 5 6 4 7 2 8 1 9 3 10 11 11 12 12 13 13
REMARK SMILES IDX 14 14 15 15 16 16 17 17 18 18 19 19 20 20
REMARK H PARENT
REMARK Flexibility Score: inf
ROOT
ATOM      1  C   UNL     1       9.718 -15.290  33.846  1.00  0.00     0.000 C 
ENDROOT
BRANCH   1   2
ATOM      2  C   UNL     1       9.863 -15.928  35.242  1.00  0.00     0.000 C 
BRANCH   2   3
ATOM      3  C   UNL     1       9.067 -17.228  35.448  1.00  0.00     0.000 C 
BRANCH   3   4
ATOM      4  C   UNL     1       7.586 -17.093  35.054  1.00  0.00     0.000 C 
BRANCH   4   5
ATOM      5  C   UNL     1       6.685 -16.752  36.261  1.00  0.00     0.000 C 
BRANCH   5   6
ATOM      6  C   UNL     1       6.137 -15.312  36.237  1.00  0.00     0.006 C 
BRANCH   6   7
ATOM      7  C   UNL     1       6.512 -14.477  37.469  1.00  0.00     0.053 C 
BRANCH   7   8
ATOM      8  C   UNL     1       5.642 -14.793  38.648  1.00  0.00     0.041 C 
ATOM      9  O   UNL     1       6.138 -14.850  39.804  1.00  0.00    -0.550 OA
ATOM     10  O   UNL     1       4.280 -15.003  38.474  1.00  0.00    -0.550 OA
ENDBRANCH   7   8
ENDBRANCH   6   7
ENDBRANCH   5   6
ENDBRANCH   4   5
ENDBRANCH   3   4
ENDBRANCH   2   3
ENDBRANCH   1   2
BRANCH   1  11
ATOM     11  C   UNL     1      10.842 -15.631  32.846  1.00  0.00     0.000 C 
BRANCH  11  12
ATOM     12  C   UNL     1      10.368 -16.238  31.512  1.00  0.00     0.000 C 
BRANCH  12  13
ATOM     13  C   UNL     1       9.188 -17.208  31.685  1.00  0.00     0.000 C 
BRANCH  13  14
ATOM     14  C   UNL     1       9.643 -18.627  32.063  1.00  0.00     0.000 C 
BRANCH  14  15
ATOM     15  C   UNL     1      10.762 -19.155  31.152  1.00  0.00     0.000 C 
BRANCH  15  16
ATOM     16  C   UNL     1      10.415 -20.549  30.608  1.00  0.00     0.006 C 
BRANCH  16  17
ATOM     17  C   UNL     1      10.002 -20.510  29.131  1.00  0.00     0.053 C 
BRANCH  17  18
ATOM     18  C   UNL     1       8.619 -21.051  28.926  1.00  0.00     0.041 C 
ATOM     19  O   UNL     1       8.237 -21.392  27.776  1.00  0.00    -0.550 OA
ATOM     20  O   UNL     1       7.742 -21.144  29.998  1.00  0.00    -0.550 OA
ENDBRANCH  17  18
ENDBRANCH  16  17
ENDBRANCH  15  16
ENDBRANCH  14  15
ENDBRANCH  13  14
ENDBRANCH  12  13
ENDBRANCH  11  12
ENDBRANCH   1  11
TORSDOF 15
ENDMDL
MODEL 7
REMARK VINA RESULT:    -4.299      2.900      7.295
REMARK INTER + INTRA:          -9.306
REMARK INTER:                  -7.149
REMARK INTRA:                  -2.156
REMARK UNBOUND:                -1.237
REMARK SMILES O=C([O-])CCCCCCCCCCCCCCC(=O)[O-]
REMARK SMILES IDX 10 1 9 2 8 3 7 4 6 5 5 6 4 7 2 8 1 9 3 10 11 11 12 12 13 13
REMARK SMILES IDX 14 14 15 15 16 16 17 17 18 18 19 19 20 20
REMARK H PARENT
REMARK Flexibility Score: inf
ROOT
ATOM      1  C   UNL     1      10.510 -17.197  31.877  1.00  0.00     0.000 C 
ENDROOT
BRANCH   1   2
ATOM      2  C   UNL     1      11.119 -18.184  30.862  1.00  0.00     0.000 C 
BRANCH   2   3
ATOM      3  C   UNL     1      11.064 -19.664  31.280  1.00  0.00     0.000 C 
BRANCH   3   4
ATOM      4  C   UNL     1      10.087 -20.491  30.428  1.00  0.00     0.000 C 
BRANCH   4   5
ATOM      5  C   UNL     1       9.589 -19.718  29.187  1.00  0.00     0.000 C 
BRANCH   5   6
ATOM      6  C   UNL     1       8.061 -19.770  28.997  1.00  0.00     0.006 C 
BRANCH   6   7
ATOM      7  C   UNL     1       7.326 -20.621  30.043  1.00  0.00     0.053 C 
BRANCH   7   8
ATOM      8  C   UNL     1       6.807 -21.901  29.460  1.00  0.00     0.041 C 
ATOM      9  O   UNL     1       6.060 -22.650  30.144  1.00  0.00    -0.550 OA
ATOM     10  O   UNL     1       7.128 -22.257  28.157  1.00  0.00    -0.550 OA
ENDBRANCH   7   8
ENDBRANCH   6   7
ENDBRANCH   5   6
ENDBRANCH   4   5
ENDBRANCH   3   4
ENDBRANCH   2   3
ENDBRANCH   1   2
BRANCH   1  11
ATOM     11  C   UNL     1       9.271 -16.422  31.382  1.00  0.00     0.000 C 
BRANCH  11  12
ATOM     12  C   UNL     1       7.922 -17.128  31.616  1.00  0.00     0.000 C 
BRANCH  12  13
ATOM     13  C   UNL     1       7.854 -17.848  32.973  1.00  0.00     0.000 C 
BRANCH  13  14
ATOM     14  C   UNL     1       7.830 -16.870  34.158  1.00  0.00     0.000 C 
BRANCH  14  15
ATOM     15  C   UNL     1       8.672 -17.357  35.348  1.00  0.00     0.000 C 
BRANCH  15  16
ATOM     16  C   UNL     1       9.867 -16.424  35.593  1.00  0.00     0.006 C 
BRANCH  16  17
ATOM     17  C   UNL     1       9.732 -15.095  34.839  1.00  0.00     0.053 C 
BRANCH  17  18
ATOM     18  C   UNL     1      11.050 -14.394  34.706  1.00  0.00     0.041 C 
ATOM     19  O   UNL     1      11.702 -14.471  33.632  1.00  0.00    -0.550 OA
ATOM     20  O   UNL     1      11.573 -13.686  35.781  1.00  0.00    -0.550 OA
ENDBRANCH  17  18
ENDBRANCH  16  17
ENDBRANCH  15  16
ENDBRANCH  14  15
ENDBRANCH  13  14
ENDBRANCH  12  13
ENDBRANCH  11  12
ENDBRANCH   1  11
TORSDOF 15
ENDMDL
MODEL 8
REMARK VINA RESULT:    -4.253      2.398      3.435
REMARK INTER + INTRA:          -9.219
REMARK INTER:                  -7.049
REMARK INTRA:                  -2.170
REMARK UNBOUND:                -1.237
REMARK SMILES O=C([O-])CCCCCCCCCCCCCCC(=O)[O-]
REMARK SMILES IDX 10 1 9 2 8 3 7 4 6 5 5 6 4 7 2 8 1 9 3 10 11 11 12 12 13 13
REMARK SMILES IDX 14 14 15 15 16 16 17 17 18 18 19 19 20 20
REMARK H PARENT
REMARK Flexibility Score: inf
ROOT
ATOM      1  C   UNL     1       7.293 -15.793  32.327  1.00  0.00     0.000 C 
ENDROOT
BRANCH   1   2
ATOM      2  C   UNL     1       6.328 -16.769  33.027  1.00  0.00     0.000 C 
BRANCH   2   3
ATOM      3  C   UNL     1       6.956 -17.609  34.153  1.00  0.00     0.000 C 
BRANCH   3   4
ATOM      4  C   UNL     1       7.729 -16.759  35.175  1.00  0.00     0.000 C 
BRANCH   4   5
ATOM      5  C   UNL     1       9.224 -17.139  35.248  1.00  0.00     0.000 C 
BRANCH   5   6
ATOM      6  C   UNL     1      10.143 -15.966  35.636  1.00  0.00     0.006 C 
BRANCH   6   7
ATOM      7  C   UNL     1       9.767 -14.629  34.982  1.00  0.00     0.053 C 
BRANCH   7   8
ATOM      8  C   UNL     1       9.520 -13.557  35.999  1.00  0.00     0.041 C 
ATOM      9  O   UNL     1       8.633 -13.713  36.880  1.00  0.00    -0.550 OA
ATOM     10  O   UNL     1      10.281 -12.395  35.989  1.00  0.00    -0.550 OA
ENDBRANCH   7   8
ENDBRANCH   6   7
ENDBRANCH   5   6
ENDBRANCH   4   5
ENDBRANCH   3   4
ENDBRANCH   2   3
ENDBRANCH   1   2
BRANCH   1  11
ATOM     11  C   UNL     1       8.308 -16.445  31.366  1.00  0.00     0.000 C 
BRANCH  11  12
ATOM     12  C   UNL     1       9.778 -16.046  31.598  1.00  0.00     0.000 C 
BRANCH  12  13
ATOM     13  C   UNL     1      10.740 -17.243  31.516  1.00  0.00     0.000 C 
BRANCH  13  14
ATOM     14  C   UNL     1      10.078 -18.561  31.948  1.00  0.00     0.000 C 
BRANCH  14  15
ATOM     15  C   UNL     1      10.745 -19.795  31.321  1.00  0.00     0.000 C 
BRANCH  15  16
ATOM     16  C   UNL     1       9.811 -20.466  30.303  1.00  0.00     0.006 C 
BRANCH  16  17
ATOM     17  C   UNL     1       8.345 -20.061  30.504  1.00  0.00     0.053 C 
BRANCH  17  18
ATOM     18  C   UNL     1       7.404 -21.071  29.921  1.00  0.00     0.041 C 
ATOM     19  O   UNL     1       7.826 -21.936  29.110  1.00  0.00    -0.550 OA
ATOM     20  O   UNL     1       6.053 -21.034  30.247  1.00  0.00    -0.550 OA
ENDBRANCH  17  18
ENDBRANCH  16  17
ENDBRANCH  15  16
ENDBRANCH  14  15
ENDBRANCH  13  14
ENDBRANCH  12  13
ENDBRANCH  11  12
ENDBRANCH   1  11
TORSDOF 15
ENDMDL
MODEL 9
REMARK VINA RESULT:    -4.240      1.733      7.735
REMARK INTER + INTRA:          -9.195
REMARK INTER:                  -7.592
REMARK INTRA:                  -1.603
REMARK UNBOUND:                -1.237
REMARK SMILES O=C([O-])CCCCCCCCCCCCCCC(=O)[O-]
REMARK SMILES IDX 10 1 9 2 8 3 7 4 6 5 5 6 4 7 2 8 1 9 3 10 11 11 12 12 13 13
REMARK SMILES IDX 14 14 15 15 16 16 17 17 18 18 19 19 20 20
REMARK H PARENT
REMARK Flexibility Score: inf
ROOT
ATOM      1  C   UNL     1      10.924 -14.903  33.525  1.00  0.00     0.000 C 
ENDROOT
BRANCH   1   2
ATOM      2  C   UNL     1      10.301 -14.737  32.124  1.00  0.00     0.000 C 
BRANCH   2   3
ATOM      3  C   UNL     1       9.970 -16.054  31.400  1.00  0.00     0.000 C 
BRANCH   3   4
ATOM      4  C   UNL     1      10.755 -17.256  31.954  1.00  0.00     0.000 C 
BRANCH   4   5
ATOM      5  C   UNL     1      11.104 -18.286  30.857  1.00  0.00     0.000 C 
BRANCH   5   6
ATOM      6  C   UNL     1      10.765 -19.739  31.242  1.00  0.00     0.006 C 
BRANCH   6   7
ATOM      7  C   UNL     1       9.723 -20.404  30.332  1.00  0.00     0.053 C 
BRANCH   7   8
ATOM      8  C   UNL     1       8.376 -19.759  30.457  1.00  0.00     0.041 C 
ATOM      9  O   UNL     1       7.662 -19.582  29.434  1.00  0.00    -0.550 OA
ATOM     10  O   UNL     1       7.900 -19.371  31.702  1.00  0.00    -0.550 OA
ENDBRANCH   7   8
ENDBRANCH   6   7
ENDBRANCH   5   6
ENDBRANCH   4   5
ENDBRANCH   3   4
ENDBRANCH   2   3
ENDBRANCH   1   2
BRANCH   1  11
ATOM     11  C   UNL     1       9.941 -14.756  34.705  1.00  0.00     0.000 C 
BRANCH  11  12
ATOM     12  C   UNL     1      10.038 -15.857  35.778  1.00  0.00     0.000 C 
BRANCH  12  13
ATOM     13  C   UNL     1       9.389 -17.178  35.334  1.00  0.00     0.000 C 
BRANCH  13  14
ATOM     14  C   UNL     1       7.965 -16.981  34.789  1.00  0.00     0.000 C 
BRANCH  14  15
ATOM     15  C   UNL     1       6.886 -17.158  35.868  1.00  0.00     0.000 C 
BRANCH  15  16
ATOM     16  C   UNL     1       6.147 -15.836  36.126  1.00  0.00     0.006 C 
BRANCH  16  17
ATOM     17  C   UNL     1       6.755 -15.048  37.294  1.00  0.00     0.053 C 
BRANCH  17  18
ATOM     18  C   UNL     1       5.721 -14.242  38.020  1.00  0.00     0.041 C 
ATOM     19  O   UNL     1       4.800 -13.670  37.379  1.00  0.00    -0.550 OA
ATOM     20  O   UNL     1       5.794 -14.094  39.399  1.00  0.00    -0.550 OA
ENDBRANCH  17  18
ENDBRANCH  16  17
ENDBRANCH  15  16
ENDBRANCH  14  15
ENDBRANCH  13  14
ENDBRANCH  12  13
ENDBRANCH  11  12
ENDBRANCH   1  11
TORSDOF 15
ENDMDL
