MODEL 1
REMARK VINA RESULT:     4.240      0.000      0.000
REMARK INTER + INTRA:           4.993
REMARK INTER:                   5.727
REMARK INTRA:                  -0.735
REMARK UNBOUND:                -0.735
REMARK SMILES C=CC(C)=CCC=C(C)CCC=C(C)C
REMARK SMILES IDX 8 1 7 2 9 3 10 4 11 5 12 6 14 7 13 8 15 9 6 10 5 11 3 12
REMARK SMILES IDX 4 13 2 14 1 15
REMARK H PARENT
REMARK Flexibility Score: inf
ROOT
ATOM      1  C   UNL     1      11.397   7.515  -6.674  1.00  0.00    -0.077 C 
ATOM      2  C   UNL     1      10.337   7.256  -5.875  1.00  0.00    -0.024 C 
ATOM      3  C   UNL     1      12.620   8.144  -6.057  1.00  0.00     0.039 C 
ENDROOT
BRANCH   1   4
ATOM      4  C   UNL     1      11.442   7.132  -8.140  1.00  0.00     0.034 C 
BRANCH   4   5
ATOM      5  C   UNL     1      11.994   8.286  -8.983  1.00  0.00     0.032 C 
BRANCH   5   6
ATOM      6  C   UNL     1      13.225   7.854  -9.739  1.00  0.00    -0.028 C 
ATOM      7  C   UNL     1      13.226   9.877 -11.215  1.00  0.00     0.039 C 
ATOM      8  C   UNL     1      13.777   8.545 -10.761  1.00  0.00    -0.080 C 
ATOM      9  C   UNL     1      14.986   7.967 -11.450  1.00  0.00     0.039 C 
ENDBRANCH   5   6
ENDBRANCH   4   5
ENDBRANCH   1   4
BRANCH   2  10
ATOM     10  C   UNL     1       9.043   6.626  -6.332  1.00  0.00     0.055 C 
BRANCH  10  11
ATOM     11  C   UNL     1       7.852   7.434  -5.888  1.00  0.00    -0.020 C 
ATOM     12  C   UNL     1       7.414   8.562  -6.486  1.00  0.00    -0.055 C 
ATOM     13  C   UNL     1       8.118   9.163  -7.682  1.00  0.00     0.044 C 
BRANCH  12  14
ATOM     14  C   UNL     1       6.250   9.259  -5.878  1.00  0.00    -0.005 C 
ATOM     15  C   UNL     1       5.995  10.557  -6.047  1.00  0.00     0.009 C 
ENDBRANCH  12  14
ENDBRANCH  10  11
ENDBRANCH   2  10
TORSDOF 6
ENDMDL
MODEL 2
REMARK VINA RESULT:     4.958      9.909     12.663
REMARK INTER + INTRA:           5.962
REMARK INTER:                   6.845
REMARK INTRA:                  -0.883
REMARK UNBOUND:                -0.735
REMARK SMILES C=CC(C)=CCC=C(C)CCC=C(C)C
REMARK SMILES IDX 8 1 7 2 9 3 10 4 11 5 12 6 14 7 13 8 15 9 6 10 5 11 3 12
REMARK SMILES IDX 4 13 2 14 1 15
REMARK H PARENT
REMARK Flexibility Score: inf
ROOT
ATOM      1  C   UNL     1       1.243   4.618  -9.774  1.00  0.00    -0.077 C 
ATOM      2  C   UNL     1       0.432   4.809 -10.839  1.00  0.00    -0.024 C 
ATOM      3  C   UNL     1       1.809   3.241  -9.543  1.00  0.00     0.039 C 
ENDROOT
BRANCH   1   4
ATOM      4  C   UNL     1       1.672   5.740  -8.849  1.00  0.00     0.034 C 
BRANCH   4   5
ATOM      5  C   UNL     1       0.899   5.677  -7.528  1.00  0.00     0.032 C 
BRANCH   5   6
ATOM      6  C   UNL     1       0.410   7.047  -7.130  1.00  0.00    -0.028 C 
ATOM      7  C   UNL     1      -1.836   6.730  -8.192  1.00  0.00     0.039 C 
ATOM      8  C   UNL     1      -0.807   7.545  -7.442  1.00  0.00    -0.080 C 
ATOM      9  C   UNL     1      -1.142   8.949  -7.010  1.00  0.00     0.039 C 
ENDBRANCH   5   6
ENDBRANCH   4   5
ENDBRANCH   1   4
BRANCH   2  10
ATOM     10  C   UNL     1      -0.210   6.123 -11.214  1.00  0.00     0.055 C 
BRANCH  10  11
ATOM     11  C   UNL     1      -1.606   5.922 -11.743  1.00  0.00    -0.020 C 
ATOM     12  C   UNL     1      -1.909   5.411 -12.955  1.00  0.00    -0.055 C 
ATOM     13  C   UNL     1      -0.841   5.004 -13.945  1.00  0.00     0.044 C 
BRANCH  12  14
ATOM     14  C   UNL     1      -3.345   5.334 -13.333  1.00  0.00    -0.005 C 
ATOM     15  C   UNL     1      -4.125   6.402 -13.496  1.00  0.00     0.009 C 
ENDBRANCH  12  14
ENDBRANCH  10  11
ENDBRANCH   2  10
TORSDOF 6
ENDMDL
