MODEL 1
REMARK VINA RESULT:    -4.903      0.000      0.000
REMARK INTER + INTRA:          -7.575
REMARK INTER:                  -6.910
REMARK INTRA:                  -0.665
REMARK UNBOUND:                -0.665
REMARK SMILES C=CCCCCCCC(=O)[O-]
REMARK SMILES IDX 6 1 7 2 8 3 9 4 10 5 11 6 5 7 4 8 3 9 2 10 1 11
REMARK H PARENT
REMARK Flexibility Score: inf
ROOT
ATOM      1  C   UNL     1     -14.952  -8.425  -0.932  1.00  0.00     0.000 C 
ENDROOT
BRANCH   1   2
ATOM      2  C   UNL     1     -15.825  -7.600  -1.891  1.00  0.00     0.006 C 
BRANCH   2   3
ATOM      3  C   UNL     1     -16.736  -8.470  -2.767  1.00  0.00     0.053 C 
BRANCH   3   4
ATOM      4  C   UNL     1     -16.172  -8.593  -4.146  1.00  0.00     0.041 C 
ATOM      5  O   UNL     1     -15.221  -9.386  -4.374  1.00  0.00    -0.550 OA
ATOM      6  O   UNL     1     -16.730  -7.869  -5.193  1.00  0.00    -0.550 OA
ENDBRANCH   3   4
ENDBRANCH   2   3
ENDBRANCH   1   2
BRANCH   1   7
ATOM      7  C   UNL     1     -15.683  -8.969   0.313  1.00  0.00     0.000 C 
BRANCH   7   8
ATOM      8  C   UNL     1     -16.512  -7.928   1.093  1.00  0.00     0.004 C 
BRANCH   8   9
ATOM      9  C   UNL     1     -18.016  -8.232   1.146  1.00  0.00     0.027 C 
BRANCH   9  10
ATOM     10  C   UNL     1     -18.354  -9.498   0.405  1.00  0.00    -0.035 C 
ATOM     11  C   UNL     1     -19.281  -9.529  -0.557  1.00  0.00     0.004 C 
ENDBRANCH   9  10
ENDBRANCH   8   9
ENDBRANCH   7   8
ENDBRANCH   1   7
TORSDOF 7
ENDMDL
MODEL 2
REMARK VINA RESULT:    -4.781      2.987      4.405
REMARK INTER + INTRA:          -7.402
REMARK INTER:                  -6.684
REMARK INTRA:                  -0.718
REMARK UNBOUND:                -0.665
REMARK SMILES C=CCCCCCCC(=O)[O-]
REMARK SMILES IDX 6 1 7 2 8 3 9 4 10 5 11 6 5 7 4 8 3 9 2 10 1 11
REMARK H PARENT
REMARK Flexibility Score: inf
ROOT
ATOM      1  C   UNL     1     -17.314 -10.052  -2.039  1.00  0.00     0.000 C 
ENDROOT
BRANCH   1   2
ATOM      2  C   UNL     1     -18.700 -10.333  -1.436  1.00  0.00     0.006 C 
BRANCH   2   3
ATOM      3  C   UNL     1     -18.641 -11.244  -0.203  1.00  0.00     0.053 C 
BRANCH   3   4
ATOM      4  C   UNL     1     -18.399 -12.662  -0.611  1.00  0.00     0.041 C 
ATOM      5  O   UNL     1     -19.154 -13.217  -1.452  1.00  0.00    -0.550 OA
ATOM      6  O   UNL     1     -17.309 -13.356  -0.100  1.00  0.00    -0.550 OA
ENDBRANCH   3   4
ENDBRANCH   2   3
ENDBRANCH   1   2
BRANCH   1   7
ATOM      7  C   UNL     1     -17.088  -8.599  -2.507  1.00  0.00     0.000 C 
BRANCH   7   8
ATOM      8  C   UNL     1     -16.031  -7.810  -1.708  1.00  0.00     0.004 C 
BRANCH   8   9
ATOM      9  C   UNL     1     -15.739  -8.380  -0.313  1.00  0.00     0.027 C 
BRANCH   9  10
ATOM     10  C   UNL     1     -16.452  -7.606   0.763  1.00  0.00    -0.035 C 
ATOM     11  C   UNL     1     -17.655  -7.970   1.218  1.00  0.00     0.004 C 
ENDBRANCH   9  10
ENDBRANCH   8   9
ENDBRANCH   7   8
ENDBRANCH   1   7
TORSDOF 7
ENDMDL
MODEL 3
REMARK VINA RESULT:    -4.758      1.021      2.502
REMARK INTER + INTRA:          -7.371
REMARK INTER:                  -6.769
REMARK INTRA:                  -0.601
REMARK UNBOUND:                -0.665
REMARK SMILES C=CCCCCCCC(=O)[O-]
REMARK SMILES IDX 6 1 7 2 8 3 9 4 10 5 11 6 5 7 4 8 3 9 2 10 1 11
REMARK H PARENT
REMARK Flexibility Score: inf
ROOT
ATOM      1  C   UNL     1     -18.174 -10.992  -1.770  1.00  0.00     0.000 C 
ENDROOT
BRANCH   1   2
ATOM      2  C   UNL     1     -16.952 -10.615  -2.626  1.00  0.00     0.006 C 
BRANCH   2   3
ATOM      3  C   UNL     1     -16.821  -9.104  -2.847  1.00  0.00     0.053 C 
BRANCH   3   4
ATOM      4  C   UNL     1     -16.124  -8.822  -4.139  1.00  0.00     0.041 C 
ATOM      5  O   UNL     1     -15.026  -9.381  -4.402  1.00  0.00    -0.550 OA
ATOM      6  O   UNL     1     -16.710  -7.981  -5.077  1.00  0.00    -0.550 OA
ENDBRANCH   3   4
ENDBRANCH   2   3
ENDBRANCH   1   2
BRANCH   1   7
ATOM      7  C   UNL     1     -18.768  -9.837  -0.937  1.00  0.00     0.000 C 
BRANCH   7   8
ATOM      8  C   UNL     1     -18.283  -9.767   0.525  1.00  0.00     0.004 C 
BRANCH   8   9
ATOM      9  C   UNL     1     -18.228  -8.346   1.104  1.00  0.00     0.027 C 
BRANCH   9  10
ATOM     10  C   UNL     1     -16.887  -7.703   0.873  1.00  0.00    -0.035 C 
ATOM     11  C   UNL     1     -15.763  -8.422   0.792  1.00  0.00     0.004 C 
ENDBRANCH   9  10
ENDBRANCH   8   9
ENDBRANCH   7   8
ENDBRANCH   1   7
TORSDOF 7
ENDMDL
MODEL 4
REMARK VINA RESULT:    -4.744      3.146      4.990
REMARK INTER + INTRA:          -7.350
REMARK INTER:                  -6.808
REMARK INTRA:                  -0.542
REMARK UNBOUND:                -0.665
REMARK SMILES C=CCCCCCCC(=O)[O-]
REMARK SMILES IDX 6 1 7 2 8 3 9 4 10 5 11 6 5 7 4 8 3 9 2 10 1 11
REMARK H PARENT
REMARK Flexibility Score: inf
ROOT
ATOM      1  C   UNL     1     -19.004 -10.041  -1.370  1.00  0.00     0.000 C 
ENDROOT
BRANCH   1   2
ATOM      2  C   UNL     1     -18.396 -11.402  -1.750  1.00  0.00     0.006 C 
BRANCH   2   3
ATOM      3  C   UNL     1     -18.524 -12.445  -0.634  1.00  0.00     0.053 C 
BRANCH   3   4
ATOM      4  C   UNL     1     -17.179 -12.984  -0.265  1.00  0.00     0.041 C 
ATOM      5  O   UNL     1     -16.381 -12.286   0.417  1.00  0.00    -0.550 OA
ATOM      6  O   UNL     1     -16.823 -14.276  -0.630  1.00  0.00    -0.550 OA
ENDBRANCH   3   4
ENDBRANCH   2   3
ENDBRANCH   1   2
BRANCH   1   7
ATOM      7  C   UNL     1     -18.012  -9.032  -0.754  1.00  0.00     0.000 C 
BRANCH   7   8
ATOM      8  C   UNL     1     -16.590  -9.065  -1.348  1.00  0.00     0.004 C 
BRANCH   8   9
ATOM      9  C   UNL     1     -16.323  -7.984  -2.406  1.00  0.00     0.027 C 
BRANCH   9  10
ATOM     10  C   UNL     1     -16.178  -8.578  -3.782  1.00  0.00    -0.035 C 
ATOM     11  C   UNL     1     -16.698  -7.991  -4.864  1.00  0.00     0.004 C 
ENDBRANCH   9  10
ENDBRANCH   8   9
ENDBRANCH   7   8
ENDBRANCH   1   7
TORSDOF 7
ENDMDL
MODEL 5
REMARK VINA RESULT:    -4.739      4.151      5.240
REMARK INTER + INTRA:          -7.343
REMARK INTER:                  -6.941
REMARK INTRA:                  -0.402
REMARK UNBOUND:                -0.665
REMARK SMILES C=CCCCCCCC(=O)[O-]
REMARK SMILES IDX 6 1 7 2 8 3 9 4 10 5 11 6 5 7 4 8 3 9 2 10 1 11
REMARK H PARENT
REMARK Flexibility Score: inf
ROOT
ATOM      1  C   UNL     1     -19.214 -10.351  -0.997  1.00  0.00     0.000 C 
ENDROOT
BRANCH   1   2
ATOM      2  C   UNL     1     -17.951  -9.492  -1.186  1.00  0.00     0.006 C 
BRANCH   2   3
ATOM      3  C   UNL     1     -17.063  -9.455   0.064  1.00  0.00     0.053 C 
BRANCH   3   4
ATOM      4  C   UNL     1     -17.357  -8.237   0.879  1.00  0.00     0.041 C 
ATOM      5  O   UNL     1     -18.391  -8.188   1.596  1.00  0.00    -0.550 OA
ATOM      6  O   UNL     1     -16.463  -7.173   0.887  1.00  0.00    -0.550 OA
ENDBRANCH   3   4
ENDBRANCH   2   3
ENDBRANCH   1   2
BRANCH   1   7
ATOM      7  C   UNL     1     -18.998 -11.667  -0.222  1.00  0.00     0.000 C 
BRANCH   7   8
ATOM      8  C   UNL     1     -18.516 -12.858  -1.075  1.00  0.00     0.004 C 
BRANCH   8   9
ATOM      9  C   UNL     1     -17.257 -13.552  -0.535  1.00  0.00     0.027 C 
BRANCH   9  10
ATOM     10  C   UNL     1     -16.668 -14.499  -1.545  1.00  0.00    -0.035 C 
ATOM     11  C   UNL     1     -17.283 -14.774  -2.699  1.00  0.00     0.004 C 
ENDBRANCH   9  10
ENDBRANCH   8   9
ENDBRANCH   7   8
ENDBRANCH   1   7
TORSDOF 7
ENDMDL
MODEL 6
REMARK VINA RESULT:    -4.739      2.677      3.675
REMARK INTER + INTRA:          -7.343
REMARK INTER:                  -6.993
REMARK INTRA:                  -0.349
REMARK UNBOUND:                -0.665
REMARK SMILES C=CCCCCCCC(=O)[O-]
REMARK SMILES IDX 6 1 7 2 8 3 9 4 10 5 11 6 5 7 4 8 3 9 2 10 1 11
REMARK H PARENT
REMARK Flexibility Score: inf
ROOT
ATOM      1  C   UNL     1     -18.235  -9.874  -1.400  1.00  0.00     0.000 C 
ENDROOT
BRANCH   1   2
ATOM      2  C   UNL     1     -16.830  -9.662  -1.989  1.00  0.00     0.006 C 
BRANCH   2   3
ATOM      3  C   UNL     1     -16.694  -8.337  -2.748  1.00  0.00     0.053 C 
BRANCH   3   4
ATOM      4  C   UNL     1     -16.215  -8.581  -4.144  1.00  0.00     0.041 C 
ATOM      5  O   UNL     1     -16.733  -7.959  -5.109  1.00  0.00    -0.550 OA
ATOM      6  O   UNL     1     -15.162  -9.457  -4.375  1.00  0.00    -0.550 OA
ENDBRANCH   3   4
ENDBRANCH   2   3
ENDBRANCH   1   2
BRANCH   1   7
ATOM      7  C   UNL     1     -18.287 -10.758  -0.137  1.00  0.00     0.000 C 
BRANCH   7   8
ATOM      8  C   UNL     1     -19.065 -12.080  -0.295  1.00  0.00     0.004 C 
BRANCH   8   9
ATOM      9  C   UNL     1     -18.384 -13.108  -1.211  1.00  0.00     0.027 C 
BRANCH   9  10
ATOM     10  C   UNL     1     -17.113 -13.637  -0.602  1.00  0.00    -0.035 C 
ATOM     11  C   UNL     1     -16.431 -14.646  -1.153  1.00  0.00     0.004 C 
ENDBRANCH   9  10
ENDBRANCH   8   9
ENDBRANCH   7   8
ENDBRANCH   1   7
TORSDOF 7
ENDMDL
MODEL 7
REMARK VINA RESULT:    -4.705      2.375      4.021
REMARK INTER + INTRA:          -7.295
REMARK INTER:                  -6.463
REMARK INTRA:                  -0.832
REMARK UNBOUND:                -0.665
REMARK SMILES C=CCCCCCCC(=O)[O-]
REMARK SMILES IDX 6 1 7 2 8 3 9 4 10 5 11 6 5 7 4 8 3 9 2 10 1 11
REMARK H PARENT
REMARK Flexibility Score: inf
ROOT
ATOM      1  C   UNL     1     -16.841  -9.175   0.142  1.00  0.00     0.000 C 
ENDROOT
BRANCH   1   2
ATOM      2  C   UNL     1     -18.379  -9.210   0.135  1.00  0.00     0.006 C 
BRANCH   2   3
ATOM      3  C   UNL     1     -18.957  -9.783  -1.165  1.00  0.00     0.053 C 
BRANCH   3   4
ATOM      4  C   UNL     1     -18.551 -11.212  -1.332  1.00  0.00     0.041 C 
ATOM      5  O   UNL     1     -18.966 -12.087  -0.528  1.00  0.00    -0.550 OA
ATOM      6  O   UNL     1     -17.754 -11.588  -2.407  1.00  0.00    -0.550 OA
ENDBRANCH   3   4
ENDBRANCH   2   3
ENDBRANCH   1   2
BRANCH   1   7
ATOM      7  C   UNL     1     -16.218  -7.776  -0.045  1.00  0.00     0.000 C 
BRANCH   7   8
ATOM      8  C   UNL     1     -15.426  -7.580  -1.353  1.00  0.00     0.004 C 
BRANCH   8   9
ATOM      9  C   UNL     1     -14.981  -8.888  -2.023  1.00  0.00     0.027 C 
BRANCH   9  10
ATOM     10  C   UNL     1     -15.488  -8.988  -3.437  1.00  0.00    -0.035 C 
ATOM     11  C   UNL     1     -16.633  -8.415  -3.820  1.00  0.00     0.004 C 
ENDBRANCH   9  10
ENDBRANCH   8   9
ENDBRANCH   7   8
ENDBRANCH   1   7
TORSDOF 7
ENDMDL
MODEL 8
REMARK VINA RESULT:    -4.681      4.757      5.975
REMARK INTER + INTRA:          -7.262
REMARK INTER:                  -6.581
REMARK INTRA:                  -0.681
REMARK UNBOUND:                -0.665
REMARK SMILES C=CCCCCCCC(=O)[O-]
REMARK SMILES IDX 6 1 7 2 8 3 9 4 10 5 11 6 5 7 4 8 3 9 2 10 1 11
REMARK H PARENT
REMARK Flexibility Score: inf
ROOT
ATOM      1  C   UNL     1     -18.938 -13.793  -2.567  1.00  0.00     0.000 C 
ENDROOT
BRANCH   1   2
ATOM      2  C   UNL     1     -18.627 -12.352  -2.129  1.00  0.00     0.006 C 
BRANCH   2   3
ATOM      3  C   UNL     1     -18.962 -12.091  -0.656  1.00  0.00     0.053 C 
BRANCH   3   4
ATOM      4  C   UNL     1     -18.527 -10.718  -0.256  1.00  0.00     0.041 C 
ATOM      5  O   UNL     1     -17.456 -10.554   0.386  1.00  0.00    -0.550 OA
ATOM      6  O   UNL     1     -19.278  -9.612  -0.636  1.00  0.00    -0.550 OA
ENDBRANCH   3   4
ENDBRANCH   2   3
ENDBRANCH   1   2
BRANCH   1   7
ATOM      7  C   UNL     1     -17.724 -14.597  -3.078  1.00  0.00     0.000 C 
BRANCH   7   8
ATOM      8  C   UNL     1     -16.369 -14.200  -2.461  1.00  0.00     0.004 C 
BRANCH   8   9
ATOM      9  C   UNL     1     -16.124 -14.768  -1.055  1.00  0.00     0.027 C 
BRANCH   9  10
ATOM     10  C   UNL     1     -15.530 -13.736  -0.135  1.00  0.00    -0.035 C 
ATOM     11  C   UNL     1     -15.904 -13.628   1.143  1.00  0.00     0.004 C 
ENDBRANCH   9  10
ENDBRANCH   8   9
ENDBRANCH   7   8
ENDBRANCH   1   7
TORSDOF 7
ENDMDL
MODEL 9
REMARK VINA RESULT:    -4.610      3.411      4.428
REMARK INTER + INTRA:          -7.162
REMARK INTER:                  -6.531
REMARK INTRA:                  -0.631
REMARK UNBOUND:                -0.665
REMARK SMILES C=CCCCCCCC(=O)[O-]
REMARK SMILES IDX 6 1 7 2 8 3 9 4 10 5 11 6 5 7 4 8 3 9 2 10 1 11
REMARK H PARENT
REMARK Flexibility Score: inf
ROOT
ATOM      1  C   UNL     1     -19.030 -10.329  -1.118  1.00  0.00     0.000 C 
ENDROOT
BRANCH   1   2
ATOM      2  C   UNL     1     -17.968  -9.254  -0.831  1.00  0.00     0.006 C 
BRANCH   2   3
ATOM      3  C   UNL     1     -16.939  -9.115  -1.960  1.00  0.00     0.053 C 
BRANCH   3   4
ATOM      4  C   UNL     1     -16.030 -10.301  -1.988  1.00  0.00     0.041 C 
ATOM      5  O   UNL     1     -15.268 -10.540  -1.015  1.00  0.00    -0.550 OA
ATOM      6  O   UNL     1     -16.060 -11.175  -3.069  1.00  0.00    -0.550 OA
ENDBRANCH   3   4
ENDBRANCH   2   3
ENDBRANCH   1   2
BRANCH   1   7
ATOM      7  C   UNL     1     -18.936 -11.591  -0.236  1.00  0.00     0.000 C 
BRANCH   7   8
ATOM      8  C   UNL     1     -18.634 -12.899  -0.994  1.00  0.00     0.004 C 
BRANCH   8   9
ATOM      9  C   UNL     1     -17.301 -13.557  -0.611  1.00  0.00     0.027 C 
BRANCH   9  10
ATOM     10  C   UNL     1     -16.781 -14.440  -1.714  1.00  0.00    -0.035 C 
ATOM     11  C   UNL     1     -17.500 -14.702  -2.809  1.00  0.00     0.004 C 
ENDBRANCH   9  10
ENDBRANCH   8   9
ENDBRANCH   7   8
ENDBRANCH   1   7
TORSDOF 7
ENDMDL
