MODEL 1
REMARK VINA RESULT:    -3.855      0.000      0.000
REMARK INTER + INTRA:          -4.920
REMARK INTER:                  -4.756
REMARK INTRA:                  -0.163
REMARK UNBOUND:                -0.163
REMARK SMILES CCCCCC(=O)[O-]
REMARK SMILES IDX 4 1 5 2 6 3 7 4 8 5 3 6 2 7 1 8
REMARK H PARENT
REMARK Flexibility Score: inf
ROOT
ATOM      1  C   UNL     1      16.905  23.113  27.473  1.00  0.00     0.006 C 
ENDROOT
BRANCH   1   2
ATOM      2  C   UNL     1      15.549  23.800  27.663  1.00  0.00     0.053 C 
BRANCH   2   3
ATOM      3  C   UNL     1      15.088  23.667  29.080  1.00  0.00     0.041 C 
ATOM      4  O   UNL     1      15.727  22.944  29.889  1.00  0.00    -0.550 OA
ATOM      5  O   UNL     1      13.926  24.304  29.496  1.00  0.00    -0.550 OA
ENDBRANCH   2   3
ENDBRANCH   1   2
BRANCH   1   6
ATOM      6  C   UNL     1      16.766  21.860  26.595  1.00  0.00     0.000 C 
BRANCH   6   7
ATOM      7  C   UNL     1      15.566  21.939  25.639  1.00  0.00    -0.003 C 
ATOM      8  C   UNL     1      15.981  22.167  24.186  1.00  0.00     0.004 C 
ENDBRANCH   6   7
ENDBRANCH   1   6
TORSDOF 4
ENDMDL
MODEL 2
REMARK VINA RESULT:    -3.759      1.405      1.537
REMARK INTER + INTRA:          -4.802
REMARK INTER:                  -4.628
REMARK INTRA:                  -0.174
REMARK UNBOUND:                -0.163
REMARK SMILES CCCCCC(=O)[O-]
REMARK SMILES IDX 4 1 5 2 6 3 7 4 8 5 3 6 2 7 1 8
REMARK H PARENT
REMARK Flexibility Score: inf
ROOT
ATOM      1  C   UNL     1      16.434  21.504  27.806  1.00  0.00     0.006 C 
ENDROOT
BRANCH   1   2
ATOM      2  C   UNL     1      14.904  21.496  27.838  1.00  0.00     0.053 C 
BRANCH   2   3
ATOM      3  C   UNL     1      14.394  22.523  28.800  1.00  0.00     0.041 C 
ATOM      4  O   UNL     1      13.454  22.242  29.588  1.00  0.00    -0.550 OA
ATOM      5  O   UNL     1      14.927  23.807  28.792  1.00  0.00    -0.550 OA
ENDBRANCH   2   3
ENDBRANCH   1   2
BRANCH   1   6
ATOM      6  C   UNL     1      16.952  21.642  26.366  1.00  0.00     0.000 C 
BRANCH   6   7
ATOM      7  C   UNL     1      16.085  22.582  25.515  1.00  0.00    -0.003 C 
ATOM      8  C   UNL     1      15.899  22.081  24.083  1.00  0.00     0.004 C 
ENDBRANCH   6   7
ENDBRANCH   1   6
TORSDOF 4
ENDMDL
MODEL 3
REMARK VINA RESULT:    -3.701      1.656      1.972
REMARK INTER + INTRA:          -4.729
REMARK INTER:                  -4.592
REMARK INTRA:                  -0.137
REMARK UNBOUND:                -0.163
REMARK SMILES CCCCCC(=O)[O-]
REMARK SMILES IDX 4 1 5 2 6 3 7 4 8 5 3 6 2 7 1 8
REMARK H PARENT
REMARK Flexibility Score: inf
ROOT
ATOM      1  C   UNL     1      16.878  23.762  27.664  1.00  0.00     0.006 C 
ENDROOT
BRANCH   1   2
ATOM      2  C   UNL     1      16.079  23.425  28.926  1.00  0.00     0.053 C 
BRANCH   2   3
ATOM      3  C   UNL     1      16.791  22.387  29.735  1.00  0.00     0.041 C 
ATOM      4  O   UNL     1      17.373  21.428  29.163  1.00  0.00    -0.550 OA
ATOM      5  O   UNL     1      16.771  22.451  31.123  1.00  0.00    -0.550 OA
ENDBRANCH   2   3
ENDBRANCH   1   2
BRANCH   1   6
ATOM      6  C   UNL     1      16.035  23.526  26.402  1.00  0.00     0.000 C 
BRANCH   6   7
ATOM      7  C   UNL     1      16.301  22.154  25.762  1.00  0.00    -0.003 C 
ATOM      8  C   UNL     1      15.949  22.116  24.276  1.00  0.00     0.004 C 
ENDBRANCH   6   7
ENDBRANCH   1   6
TORSDOF 4
ENDMDL
MODEL 4
REMARK VINA RESULT:    -3.698      2.630      4.096
REMARK INTER + INTRA:          -4.727
REMARK INTER:                  -4.583
REMARK INTRA:                  -0.144
REMARK UNBOUND:                -0.163
REMARK SMILES CCCCCC(=O)[O-]
REMARK SMILES IDX 4 1 5 2 6 3 7 4 8 5 3 6 2 7 1 8
REMARK H PARENT
REMARK Flexibility Score: inf
ROOT
ATOM      1  C   UNL     1      16.876  23.815  27.654  1.00  0.00     0.006 C 
ENDROOT
BRANCH   1   2
ATOM      2  C   UNL     1      15.933  23.609  26.465  1.00  0.00     0.053 C 
BRANCH   2   3
ATOM      3  C   UNL     1      16.330  22.394  25.687  1.00  0.00     0.041 C 
ATOM      4  O   UNL     1      17.055  21.511  26.217  1.00  0.00    -0.550 OA
ATOM      5  O   UNL     1      15.940  22.259  24.360  1.00  0.00    -0.550 OA
ENDBRANCH   2   3
ENDBRANCH   1   2
BRANCH   1   6
ATOM      6  C   UNL     1      16.177  23.458  28.975  1.00  0.00     0.000 C 
BRANCH   6   7
ATOM      7  C   UNL     1      14.646  23.526  28.871  1.00  0.00    -0.003 C 
ATOM      8  C   UNL     1      13.980  23.932  30.185  1.00  0.00     0.004 C 
ENDBRANCH   6   7
ENDBRANCH   1   6
TORSDOF 4
ENDMDL
MODEL 5
REMARK VINA RESULT:    -3.637      2.766      4.076
REMARK INTER + INTRA:          -4.650
REMARK INTER:                  -4.463
REMARK INTRA:                  -0.187
REMARK UNBOUND:                -0.163
REMARK SMILES CCCCCC(=O)[O-]
REMARK SMILES IDX 4 1 5 2 6 3 7 4 8 5 3 6 2 7 1 8
REMARK H PARENT
REMARK Flexibility Score: inf
ROOT
ATOM      1  C   UNL     1      16.652  23.786  27.626  1.00  0.00     0.006 C 
ENDROOT
BRANCH   1   2
ATOM      2  C   UNL     1      16.039  23.689  26.227  1.00  0.00     0.053 C 
BRANCH   2   3
ATOM      3  C   UNL     1      16.338  22.356  25.615  1.00  0.00     0.041 C 
ATOM      4  O   UNL     1      17.048  21.520  26.233  1.00  0.00    -0.550 OA
ATOM      5  O   UNL     1      15.873  22.055  24.341  1.00  0.00    -0.550 OA
ENDBRANCH   2   3
ENDBRANCH   1   2
BRANCH   1   6
ATOM      6  C   UNL     1      15.561  23.738  28.707  1.00  0.00     0.000 C 
BRANCH   6   7
ATOM      7  C   UNL     1      15.923  22.802  29.870  1.00  0.00    -0.003 C 
ATOM      8  C   UNL     1      17.386  22.361  29.842  1.00  0.00     0.004 C 
ENDBRANCH   6   7
ENDBRANCH   1   6
TORSDOF 4
ENDMDL
MODEL 6
REMARK VINA RESULT:    -3.633      1.176      1.461
REMARK INTER + INTRA:          -4.646
REMARK INTER:                  -4.480
REMARK INTRA:                  -0.166
REMARK UNBOUND:                -0.163
REMARK SMILES CCCCCC(=O)[O-]
REMARK SMILES IDX 4 1 5 2 6 3 7 4 8 5 3 6 2 7 1 8
REMARK H PARENT
REMARK Flexibility Score: inf
ROOT
ATOM      1  C   UNL     1      16.685  23.832  27.830  1.00  0.00     0.006 C 
ENDROOT
BRANCH   1   2
ATOM      2  C   UNL     1      16.079  22.790  28.774  1.00  0.00     0.053 C 
BRANCH   2   3
ATOM      3  C   UNL     1      14.641  23.104  29.047  1.00  0.00     0.041 C 
ATOM      4  O   UNL     1      14.320  24.209  29.557  1.00  0.00    -0.550 OA
ATOM      5  O   UNL     1      13.660  22.156  28.781  1.00  0.00    -0.550 OA
ENDBRANCH   2   3
ENDBRANCH   1   2
BRANCH   1   6
ATOM      6  C   UNL     1      16.129  23.672  26.407  1.00  0.00     0.000 C 
BRANCH   6   7
ATOM      7  C   UNL     1      16.297  22.244  25.865  1.00  0.00    -0.003 C 
ATOM      8  C   UNL     1      15.995  22.139  24.371  1.00  0.00     0.004 C 
ENDBRANCH   6   7
ENDBRANCH   1   6
TORSDOF 4
ENDMDL
MODEL 7
REMARK VINA RESULT:    -3.519      1.927      2.724
REMARK INTER + INTRA:          -4.505
REMARK INTER:                  -4.268
REMARK INTRA:                  -0.237
REMARK UNBOUND:                -0.163
REMARK SMILES CCCCCC(=O)[O-]
REMARK SMILES IDX 4 1 5 2 6 3 7 4 8 5 3 6 2 7 1 8
REMARK H PARENT
REMARK Flexibility Score: inf
ROOT
ATOM      1  C   UNL     1      14.718  21.740  26.471  1.00  0.00     0.006 C 
ENDROOT
BRANCH   1   2
ATOM      2  C   UNL     1      14.660  21.129  27.873  1.00  0.00     0.053 C 
BRANCH   2   3
ATOM      3  C   UNL     1      13.672  21.864  28.724  1.00  0.00     0.041 C 
ATOM      4  O   UNL     1      14.039  22.852  29.411  1.00  0.00    -0.550 OA
ATOM      5  O   UNL     1      12.355  21.427  28.795  1.00  0.00    -0.550 OA
ENDBRANCH   2   3
ENDBRANCH   1   2
BRANCH   1   6
ATOM      6  C   UNL     1      16.105  22.340  26.190  1.00  0.00     0.000 C 
BRANCH   6   7
ATOM      7  C   UNL     1      16.236  23.785  26.696  1.00  0.00    -0.003 C 
ATOM      8  C   UNL     1      17.173  23.909  27.897  1.00  0.00     0.004 C 
ENDBRANCH   6   7
ENDBRANCH   1   6
TORSDOF 4
ENDMDL
MODEL 8
REMARK VINA RESULT:    -3.445     21.061     21.884
REMARK INTER + INTRA:          -4.413
REMARK INTER:                  -4.323
REMARK INTRA:                  -0.090
REMARK UNBOUND:                -0.163
REMARK SMILES CCCCCC(=O)[O-]
REMARK SMILES IDX 4 1 5 2 6 3 7 4 8 5 3 6 2 7 1 8
REMARK H PARENT
REMARK Flexibility Score: inf
ROOT
ATOM      1  C   UNL     1       4.338  35.775  15.614  1.00  0.00     0.006 C 
ENDROOT
BRANCH   1   2
ATOM      2  C   UNL     1       3.085  35.473  14.787  1.00  0.00     0.053 C 
BRANCH   2   3
ATOM      3  C   UNL     1       1.858  35.584  15.636  1.00  0.00     0.041 C 
ATOM      4  O   UNL     1       1.544  34.652  16.422  1.00  0.00    -0.550 OA
ATOM      5  O   UNL     1       1.034  36.698  15.525  1.00  0.00    -0.550 OA
ENDBRANCH   2   3
ENDBRANCH   1   2
BRANCH   1   6
ATOM      6  C   UNL     1       4.662  37.277  15.589  1.00  0.00     0.000 C 
BRANCH   6   7
ATOM      7  C   UNL     1       6.164  37.559  15.750  1.00  0.00    -0.003 C 
ATOM      8  C   UNL     1       6.654  38.688  14.844  1.00  0.00     0.004 C 
ENDBRANCH   6   7
ENDBRANCH   1   6
TORSDOF 4
ENDMDL
MODEL 9
REMARK VINA RESULT:    -3.362      2.870      3.670
REMARK INTER + INTRA:          -4.312
REMARK INTER:                  -4.157
REMARK INTRA:                  -0.155
REMARK UNBOUND:                -0.163
REMARK SMILES CCCCCC(=O)[O-]
REMARK SMILES IDX 4 1 5 2 6 3 7 4 8 5 3 6 2 7 1 8
REMARK H PARENT
REMARK Flexibility Score: inf
ROOT
ATOM      1  C   UNL     1      14.602  21.501  26.501  1.00  0.00     0.006 C 
ENDROOT
BRANCH   1   2
ATOM      2  C   UNL     1      16.082  21.892  26.546  1.00  0.00     0.053 C 
BRANCH   2   3
ATOM      3  C   UNL     1      16.229  23.348  26.861  1.00  0.00     0.041 C 
ATOM      4  O   UNL     1      15.875  24.217  26.022  1.00  0.00    -0.550 OA
ATOM      5  O   UNL     1      16.801  23.745  28.064  1.00  0.00    -0.550 OA
ENDBRANCH   2   3
ENDBRANCH   1   2
BRANCH   1   6
ATOM      6  C   UNL     1      13.987  21.520  27.909  1.00  0.00     0.000 C 
BRANCH   6   7
ATOM      7  C   UNL     1      14.367  20.281  28.736  1.00  0.00    -0.003 C 
ATOM      8  C   UNL     1      13.269  19.218  28.748  1.00  0.00     0.004 C 
ENDBRANCH   6   7
ENDBRANCH   1   6
TORSDOF 4
ENDMDL
