MODEL 1
REMARK VINA RESULT:    -4.673      0.000      0.000
REMARK INTER + INTRA:         -11.095
REMARK INTER:                  -8.772
REMARK INTRA:                  -2.323
REMARK UNBOUND:                -2.323
REMARK SMILES CCCCCCCCC=CCCCCCCCC(=O)[O-]
REMARK SMILES IDX 10 1 9 2 11 3 12 4 13 5 14 6 15 7 16 8 17 9 18 10 19 11
REMARK SMILES IDX 20 12 8 13 7 14 6 15 5 16 4 17 3 18 2 19 1 20
REMARK H PARENT
REMARK Flexibility Score: inf
ROOT
ATOM      1  C   UNL     1      31.646   9.633  48.537  1.00  0.00    -0.031 C 
ATOM      2  C   UNL     1      32.837   9.795  47.933  1.00  0.00    -0.031 C 
ENDROOT
BRANCH   1   3
ATOM      3  C   UNL     1      31.472   8.938  49.867  1.00  0.00     0.027 C 
BRANCH   3   4
ATOM      4  C   UNL     1      30.187   8.103  49.889  1.00  0.00     0.004 C 
BRANCH   4   5
ATOM      5  C   UNL     1      30.500   6.607  49.773  1.00  0.00     0.000 C 
BRANCH   5   6
ATOM      6  C   UNL     1      30.170   6.083  48.367  1.00  0.00     0.000 C 
BRANCH   6   7
ATOM      7  C   UNL     1      31.346   6.223  47.384  1.00  0.00     0.000 C 
BRANCH   7   8
ATOM      8  C   UNL     1      32.721   5.803  47.946  1.00  0.00     0.006 C 
BRANCH   8   9
ATOM      9  C   UNL     1      33.892   5.978  46.967  1.00  0.00     0.053 C 
BRANCH   9  10
ATOM     10  C   UNL     1      34.920   4.899  47.121  1.00  0.00     0.041 C 
ATOM     11  O   UNL     1      35.256   4.505  48.269  1.00  0.00    -0.550 OA
ATOM     12  O   UNL     1      35.534   4.356  46.000  1.00  0.00    -0.550 OA
ENDBRANCH   9  10
ENDBRANCH   8   9
ENDBRANCH   7   8
ENDBRANCH   6   7
ENDBRANCH   5   6
ENDBRANCH   4   5
ENDBRANCH   3   4
ENDBRANCH   1   3
BRANCH   2  13
ATOM     13  C   UNL     1      34.145   9.270  48.476  1.00  0.00     0.027 C 
BRANCH  13  14
ATOM     14  C   UNL     1      35.217  10.373  48.591  1.00  0.00     0.004 C 
BRANCH  14  15
ATOM     15  C   UNL     1      35.009  11.545  47.616  1.00  0.00     0.000 C 
BRANCH  15  16
ATOM     16  C   UNL     1      35.828  11.399  46.325  1.00  0.00     0.000 C 
BRANCH  16  17
ATOM     17  C   UNL     1      35.025  11.881  45.108  1.00  0.00    -0.000 C 
BRANCH  17  18
ATOM     18  C   UNL     1      34.184  10.763  44.473  1.00  0.00    -0.000 C 
BRANCH  18  19
ATOM     19  C   UNL     1      35.032   9.560  44.033  1.00  0.00    -0.003 C 
ATOM     20  C   UNL     1      34.265   8.253  44.209  1.00  0.00     0.004 C 
ENDBRANCH  18  19
ENDBRANCH  17  18
ENDBRANCH  16  17
ENDBRANCH  15  16
ENDBRANCH  14  15
ENDBRANCH  13  14
ENDBRANCH   2  13
TORSDOF 15
ENDMDL
MODEL 2
REMARK VINA RESULT:    -4.278      0.863      1.042
REMARK INTER + INTRA:         -10.352
REMARK INTER:                  -8.313
REMARK INTRA:                  -2.039
REMARK UNBOUND:                -2.323
REMARK SMILES CCCCCCCCC=CCCCCCCCC(=O)[O-]
REMARK SMILES IDX 10 1 9 2 11 3 12 4 13 5 14 6 15 7 16 8 17 9 18 10 19 11
REMARK SMILES IDX 20 12 8 13 7 14 6 15 5 16 4 17 3 18 2 19 1 20
REMARK H PARENT
REMARK Flexibility Score: inf
ROOT
ATOM      1  C   UNL     1      32.623   9.272  47.908  1.00  0.00    -0.031 C 
ATOM      2  C   UNL     1      33.930   9.488  48.140  1.00  0.00    -0.031 C 
ENDROOT
BRANCH   1   3
ATOM      3  C   UNL     1      31.529   9.665  48.872  1.00  0.00     0.027 C 
BRANCH   3   4
ATOM      4  C   UNL     1      30.517   8.528  49.051  1.00  0.00     0.004 C 
BRANCH   4   5
ATOM      5  C   UNL     1      31.226   7.202  49.351  1.00  0.00     0.000 C 
BRANCH   5   6
ATOM      6  C   UNL     1      30.807   6.116  48.349  1.00  0.00     0.000 C 
BRANCH   6   7
ATOM      7  C   UNL     1      31.946   5.134  48.020  1.00  0.00     0.000 C 
BRANCH   7   8
ATOM      8  C   UNL     1      33.368   5.723  48.124  1.00  0.00     0.006 C 
BRANCH   8   9
ATOM      9  C   UNL     1      34.115   5.832  46.786  1.00  0.00     0.053 C 
BRANCH   9  10
ATOM     10  C   UNL     1      35.247   4.854  46.693  1.00  0.00     0.041 C 
ATOM     11  O   UNL     1      36.022   4.688  47.671  1.00  0.00    -0.550 OA
ATOM     12  O   UNL     1      35.469   4.155  45.513  1.00  0.00    -0.550 OA
ENDBRANCH   9  10
ENDBRANCH   8   9
ENDBRANCH   7   8
ENDBRANCH   6   7
ENDBRANCH   5   6
ENDBRANCH   4   5
ENDBRANCH   3   4
ENDBRANCH   1   3
BRANCH   2  13
ATOM     13  C   UNL     1      34.480  10.105  49.403  1.00  0.00     0.027 C 
BRANCH  13  14
ATOM     14  C   UNL     1      35.194  11.447  49.139  1.00  0.00     0.004 C 
BRANCH  14  15
ATOM     15  C   UNL     1      36.030  11.461  47.847  1.00  0.00     0.000 C 
BRANCH  15  16
ATOM     16  C   UNL     1      35.799  12.720  47.000  1.00  0.00     0.000 C 
BRANCH  16  17
ATOM     17  C   UNL     1      35.342  12.352  45.581  1.00  0.00    -0.000 C 
BRANCH  17  18
ATOM     18  C   UNL     1      35.338  10.835  45.335  1.00  0.00    -0.000 C 
BRANCH  18  19
ATOM     19  C   UNL     1      34.357  10.417  44.229  1.00  0.00    -0.003 C 
ATOM     20  C   UNL     1      34.485   8.930  43.914  1.00  0.00     0.004 C 
ENDBRANCH  18  19
ENDBRANCH  17  18
ENDBRANCH  16  17
ENDBRANCH  15  16
ENDBRANCH  14  15
ENDBRANCH  13  14
ENDBRANCH   2  13
TORSDOF 15
ENDMDL
MODEL 3
REMARK VINA RESULT:    -4.198      2.242      5.888
REMARK INTER + INTRA:         -10.202
REMARK INTER:                  -8.106
REMARK INTRA:                  -2.096
REMARK UNBOUND:                -2.323
REMARK SMILES CCCCCCCCC=CCCCCCCCC(=O)[O-]
REMARK SMILES IDX 10 1 9 2 11 3 12 4 13 5 14 6 15 7 16 8 17 9 18 10 19 11
REMARK SMILES IDX 20 12 8 13 7 14 6 15 5 16 4 17 3 18 2 19 1 20
REMARK H PARENT
REMARK Flexibility Score: inf
ROOT
ATOM      1  C   UNL     1      32.881  10.296  48.365  1.00  0.00    -0.031 C 
ATOM      2  C   UNL     1      31.633   9.825  48.535  1.00  0.00    -0.031 C 
ENDROOT
BRANCH   1   3
ATOM      3  C   UNL     1      34.084   9.759  49.103  1.00  0.00     0.027 C 
BRANCH   3   4
ATOM      4  C   UNL     1      34.722  10.842  49.981  1.00  0.00     0.004 C 
BRANCH   4   5
ATOM      5  C   UNL     1      34.954  12.132  49.185  1.00  0.00     0.000 C 
BRANCH   5   6
ATOM      6  C   UNL     1      36.091  11.953  48.168  1.00  0.00     0.000 C 
BRANCH   6   7
ATOM      7  C   UNL     1      36.009  12.950  46.997  1.00  0.00     0.000 C 
BRANCH   7   8
ATOM      8  C   UNL     1      35.474  12.362  45.675  1.00  0.00     0.006 C 
BRANCH   8   9
ATOM      9  C   UNL     1      35.153  10.860  45.726  1.00  0.00     0.053 C 
BRANCH   9  10
ATOM     10  C   UNL     1      34.604  10.358  44.425  1.00  0.00     0.041 C 
ATOM     11  O   UNL     1      33.567  10.875  43.934  1.00  0.00    -0.550 OA
ATOM     12  O   UNL     1      35.218   9.295  43.775  1.00  0.00    -0.550 OA
ENDBRANCH   9  10
ENDBRANCH   8   9
ENDBRANCH   7   8
ENDBRANCH   6   7
ENDBRANCH   5   6
ENDBRANCH   4   5
ENDBRANCH   3   4
ENDBRANCH   1   3
BRANCH   2  13
ATOM     13  C   UNL     1      31.261   8.734  49.511  1.00  0.00     0.027 C 
BRANCH  13  14
ATOM     14  C   UNL     1      29.938   8.036  49.135  1.00  0.00     0.004 C 
BRANCH  14  15
ATOM     15  C   UNL     1      30.099   6.543  48.798  1.00  0.00     0.000 C 
BRANCH  15  16
ATOM     16  C   UNL     1      31.080   6.295  47.644  1.00  0.00     0.000 C 
BRANCH  16  17
ATOM     17  C   UNL     1      32.259   5.424  48.102  1.00  0.00    -0.000 C 
BRANCH  17  18
ATOM     18  C   UNL     1      33.611   5.931  47.575  1.00  0.00    -0.000 C 
BRANCH  18  19
ATOM     19  C   UNL     1      33.459   7.066  46.550  1.00  0.00    -0.003 C 
ATOM     20  C   UNL     1      33.922   6.622  45.166  1.00  0.00     0.004 C 
ENDBRANCH  18  19
ENDBRANCH  17  18
ENDBRANCH  16  17
ENDBRANCH  15  16
ENDBRANCH  14  15
ENDBRANCH  13  14
ENDBRANCH   2  13
TORSDOF 15
ENDMDL
MODEL 4
REMARK VINA RESULT:    -4.118      3.615      5.987
REMARK INTER + INTRA:         -10.053
REMARK INTER:                  -8.226
REMARK INTRA:                  -1.827
REMARK UNBOUND:                -2.323
REMARK SMILES CCCCCCCCC=CCCCCCCCC(=O)[O-]
REMARK SMILES IDX 10 1 9 2 11 3 12 4 13 5 14 6 15 7 16 8 17 9 18 10 19 11
REMARK SMILES IDX 20 12 8 13 7 14 6 15 5 16 4 17 3 18 2 19 1 20
REMARK H PARENT
REMARK Flexibility Score: inf
ROOT
ATOM      1  C   UNL     1      30.175   8.139  49.051  1.00  0.00    -0.031 C 
ATOM      2  C   UNL     1      30.211   6.892  48.550  1.00  0.00    -0.031 C 
ENDROOT
BRANCH   1   3
ATOM      3  C   UNL     1      31.407   8.914  49.452  1.00  0.00     0.027 C 
BRANCH   3   4
ATOM      4  C   UNL     1      31.894   9.809  48.307  1.00  0.00     0.004 C 
BRANCH   4   5
ATOM      5  C   UNL     1      33.418   9.736  48.160  1.00  0.00     0.000 C 
BRANCH   5   6
ATOM      6  C   UNL     1      34.069  11.083  48.507  1.00  0.00     0.000 C 
BRANCH   6   7
ATOM      7  C   UNL     1      35.526  11.187  48.022  1.00  0.00     0.000 C 
BRANCH   7   8
ATOM      8  C   UNL     1      36.036  12.624  47.787  1.00  0.00     0.006 C 
BRANCH   8   9
ATOM      9  C   UNL     1      36.288  12.980  46.313  1.00  0.00     0.053 C 
BRANCH   9  10
ATOM     10  C   UNL     1      36.369  14.461  46.099  1.00  0.00     0.041 C 
ATOM     11  O   UNL     1      35.410  15.203  46.436  1.00  0.00    -0.550 OA
ATOM     12  O   UNL     1      37.488  15.016  45.493  1.00  0.00    -0.550 OA
ENDBRANCH   9  10
ENDBRANCH   8   9
ENDBRANCH   7   8
ENDBRANCH   6   7
ENDBRANCH   5   6
ENDBRANCH   4   5
ENDBRANCH   3   4
ENDBRANCH   1   3
BRANCH   2  13
ATOM     13  C   UNL     1      31.475   6.086  48.365  1.00  0.00     0.027 C 
BRANCH  13  14
ATOM     14  C   UNL     1      32.108   6.299  46.974  1.00  0.00     0.004 C 
BRANCH  14  15
ATOM     15  C   UNL     1      33.645   6.229  46.975  1.00  0.00     0.000 C 
BRANCH  15  16
ATOM     16  C   UNL     1      34.247   6.320  45.566  1.00  0.00     0.000 C 
BRANCH  16  17
ATOM     17  C   UNL     1      33.551   7.413  44.741  1.00  0.00    -0.000 C 
BRANCH  17  18
ATOM     18  C   UNL     1      34.546   8.392  44.096  1.00  0.00    -0.000 C 
BRANCH  18  19
ATOM     19  C   UNL     1      34.615   9.738  44.833  1.00  0.00    -0.003 C 
ATOM     20  C   UNL     1      34.230  10.890  43.910  1.00  0.00     0.004 C 
ENDBRANCH  18  19
ENDBRANCH  17  18
ENDBRANCH  16  17
ENDBRANCH  15  16
ENDBRANCH  14  15
ENDBRANCH  13  14
ENDBRANCH   2  13
TORSDOF 15
ENDMDL
MODEL 5
REMARK VINA RESULT:    -4.096      2.305      5.633
REMARK INTER + INTRA:         -10.012
REMARK INTER:                  -7.998
REMARK INTRA:                  -2.014
REMARK UNBOUND:                -2.323
REMARK SMILES CCCCCCCCC=CCCCCCCCC(=O)[O-]
REMARK SMILES IDX 10 1 9 2 11 3 12 4 13 5 14 6 15 7 16 8 17 9 18 10 19 11
REMARK SMILES IDX 20 12 8 13 7 14 6 15 5 16 4 17 3 18 2 19 1 20
REMARK H PARENT
REMARK Flexibility Score: inf
ROOT
ATOM      1  C   UNL     1      32.509  10.167  48.990  1.00  0.00    -0.031 C 
ATOM      2  C   UNL     1      31.351   9.498  48.846  1.00  0.00    -0.031 C 
ENDROOT
BRANCH   1   3
ATOM      3  C   UNL     1      33.718   9.600  49.694  1.00  0.00     0.027 C 
BRANCH   3   4
ATOM      4  C   UNL     1      34.902  10.572  49.626  1.00  0.00     0.004 C 
BRANCH   4   5
ATOM      5  C   UNL     1      34.421  12.017  49.450  1.00  0.00     0.000 C 
BRANCH   5   6
ATOM      6  C   UNL     1      35.365  12.803  48.528  1.00  0.00     0.000 C 
BRANCH   6   7
ATOM      7  C   UNL     1      36.234  11.891  47.643  1.00  0.00     0.000 C 
BRANCH   7   8
ATOM      8  C   UNL     1      35.753  11.743  46.185  1.00  0.00     0.006 C 
BRANCH   8   9
ATOM      9  C   UNL     1      34.897  10.494  45.919  1.00  0.00     0.053 C 
BRANCH   9  10
ATOM     10  C   UNL     1      34.625  10.301  44.458  1.00  0.00     0.041 C 
ATOM     11  O   UNL     1      34.251  11.272  43.750  1.00  0.00    -0.550 OA
ATOM     12  O   UNL     1      34.749   9.041  43.887  1.00  0.00    -0.550 OA
ENDBRANCH   9  10
ENDBRANCH   8   9
ENDBRANCH   7   8
ENDBRANCH   6   7
ENDBRANCH   5   6
ENDBRANCH   4   5
ENDBRANCH   3   4
ENDBRANCH   1   3
BRANCH   2  13
ATOM     13  C   UNL     1      31.090   8.119  49.405  1.00  0.00     0.027 C 
BRANCH  13  14
ATOM     14  C   UNL     1      30.289   7.233  48.429  1.00  0.00     0.004 C 
BRANCH  14  15
ATOM     15  C   UNL     1      31.172   6.380  47.500  1.00  0.00     0.000 C 
BRANCH  15  16
ATOM     16  C   UNL     1      32.653   6.398  47.903  1.00  0.00     0.000 C 
BRANCH  16  17
ATOM     17  C   UNL     1      33.500   7.129  46.852  1.00  0.00    -0.000 C 
BRANCH  17  18
ATOM     18  C   UNL     1      34.133   6.172  45.830  1.00  0.00    -0.000 C 
BRANCH  18  19
ATOM     19  C   UNL     1      34.991   5.082  46.491  1.00  0.00    -0.003 C 
ATOM     20  C   UNL     1      35.375   4.000  45.487  1.00  0.00     0.004 C 
ENDBRANCH  18  19
ENDBRANCH  17  18
ENDBRANCH  16  17
ENDBRANCH  15  16
ENDBRANCH  14  15
ENDBRANCH  13  14
ENDBRANCH   2  13
TORSDOF 15
ENDMDL
MODEL 6
REMARK VINA RESULT:    -4.072      1.170      2.255
REMARK INTER + INTRA:          -9.965
REMARK INTER:                  -8.188
REMARK INTRA:                  -1.777
REMARK UNBOUND:                -2.323
REMARK SMILES CCCCCCCCC=CCCCCCCCC(=O)[O-]
REMARK SMILES IDX 10 1 9 2 11 3 12 4 13 5 14 6 15 7 16 8 17 9 18 10 19 11
REMARK SMILES IDX 20 12 8 13 7 14 6 15 5 16 4 17 3 18 2 19 1 20
REMARK H PARENT
REMARK Flexibility Score: inf
ROOT
ATOM      1  C   UNL     1      29.775   7.864  49.439  1.00  0.00    -0.031 C 
ATOM      2  C   UNL     1      30.604   8.907  49.620  1.00  0.00    -0.031 C 
ENDROOT
BRANCH   1   3
ATOM      3  C   UNL     1      29.752   7.024  48.184  1.00  0.00     0.027 C 
BRANCH   3   4
ATOM      4  C   UNL     1      29.721   5.529  48.521  1.00  0.00     0.004 C 
BRANCH   4   5
ATOM      5  C   UNL     1      31.087   4.880  48.275  1.00  0.00     0.000 C 
BRANCH   5   6
ATOM      6  C   UNL     1      32.101   5.912  47.759  1.00  0.00     0.000 C 
BRANCH   6   7
ATOM      7  C   UNL     1      33.300   6.100  48.707  1.00  0.00     0.000 C 
BRANCH   7   8
ATOM      8  C   UNL     1      34.684   6.055  48.027  1.00  0.00     0.006 C 
BRANCH   8   9
ATOM      9  C   UNL     1      35.041   4.701  47.394  1.00  0.00     0.053 C 
BRANCH   9  10
ATOM     10  C   UNL     1      35.024   4.759  45.897  1.00  0.00     0.041 C 
ATOM     11  O   UNL     1      34.630   5.799  45.308  1.00  0.00    -0.550 OA
ATOM     12  O   UNL     1      35.410   3.651  45.153  1.00  0.00    -0.550 OA
ENDBRANCH   9  10
ENDBRANCH   8   9
ENDBRANCH   7   8
ENDBRANCH   6   7
ENDBRANCH   5   6
ENDBRANCH   4   5
ENDBRANCH   3   4
ENDBRANCH   1   3
BRANCH   2  13
ATOM     13  C   UNL     1      31.585   9.405  48.585  1.00  0.00     0.027 C 
BRANCH  13  14
ATOM     14  C   UNL     1      32.784  10.141  49.218  1.00  0.00     0.004 C 
BRANCH  14  15
ATOM     15  C   UNL     1      34.148   9.695  48.661  1.00  0.00     0.000 C 
BRANCH  15  16
ATOM     16  C   UNL     1      35.084  10.875  48.362  1.00  0.00     0.000 C 
BRANCH  16  17
ATOM     17  C   UNL     1      35.088  11.206  46.863  1.00  0.00    -0.000 C 
BRANCH  17  18
ATOM     18  C   UNL     1      34.354  10.150  46.021  1.00  0.00    -0.000 C 
BRANCH  18  19
ATOM     19  C   UNL     1      34.539  10.364  44.511  1.00  0.00    -0.003 C 
ATOM     20  C   UNL     1      34.605   9.032  43.771  1.00  0.00     0.004 C 
ENDBRANCH  18  19
ENDBRANCH  17  18
ENDBRANCH  16  17
ENDBRANCH  15  16
ENDBRANCH  14  15
ENDBRANCH  13  14
ENDBRANCH   2  13
TORSDOF 15
ENDMDL
MODEL 7
REMARK VINA RESULT:    -4.070     18.195     20.361
REMARK INTER + INTRA:          -9.962
REMARK INTER:                  -7.951
REMARK INTRA:                  -2.012
REMARK UNBOUND:                -2.323
REMARK SMILES CCCCCCCCC=CCCCCCCCC(=O)[O-]
REMARK SMILES IDX 10 1 9 2 11 3 12 4 13 5 14 6 15 7 16 8 17 9 18 10 19 11
REMARK SMILES IDX 20 12 8 13 7 14 6 15 5 16 4 17 3 18 2 19 1 20
REMARK H PARENT
REMARK Flexibility Score: inf
ROOT
ATOM      1  C   UNL     1      20.826  14.495  33.965  1.00  0.00    -0.031 C 
ATOM      2  C   UNL     1      20.422  14.007  35.151  1.00  0.00    -0.031 C 
ENDROOT
BRANCH   1   3
ATOM      3  C   UNL     1      20.083  14.266  32.671  1.00  0.00     0.027 C 
BRANCH   3   4
ATOM      4  C   UNL     1      20.734  13.147  31.851  1.00  0.00     0.004 C 
BRANCH   4   5
ATOM      5  C   UNL     1      20.966  13.589  30.401  1.00  0.00     0.000 C 
BRANCH   5   6
ATOM      6  C   UNL     1      21.616  14.979  30.347  1.00  0.00     0.000 C 
BRANCH   6   7
ATOM      7  C   UNL     1      23.154  14.924  30.381  1.00  0.00     0.000 C 
BRANCH   7   8
ATOM      8  C   UNL     1      23.856  16.294  30.480  1.00  0.00     0.006 C 
BRANCH   8   9
ATOM      9  C   UNL     1      22.977  17.423  31.040  1.00  0.00     0.053 C 
BRANCH   9  10
ATOM     10  C   UNL     1      23.705  18.732  31.087  1.00  0.00     0.041 C 
ATOM     11  O   UNL     1      24.826  18.813  31.654  1.00  0.00    -0.550 OA
ATOM     12  O   UNL     1      23.129  19.870  30.536  1.00  0.00    -0.550 OA
ENDBRANCH   9  10
ENDBRANCH   8   9
ENDBRANCH   7   8
ENDBRANCH   6   7
ENDBRANCH   5   6
ENDBRANCH   4   5
ENDBRANCH   3   4
ENDBRANCH   1   3
BRANCH   2  13
ATOM     13  C   UNL     1      19.206  13.133  35.342  1.00  0.00     0.027 C 
BRANCH  13  14
ATOM     14  C   UNL     1      19.454  11.993  36.351  1.00  0.00     0.004 C 
BRANCH  14  15
ATOM     15  C   UNL     1      19.281  10.587  35.752  1.00  0.00     0.000 C 
BRANCH  15  16
ATOM     16  C   UNL     1      20.620   9.888  35.474  1.00  0.00     0.000 C 
BRANCH  16  17
ATOM     17  C   UNL     1      21.209  10.342  34.131  1.00  0.00    -0.000 C 
BRANCH  17  18
ATOM     18  C   UNL     1      22.570  11.038  34.286  1.00  0.00    -0.000 C 
BRANCH  18  19
ATOM     19  C   UNL     1      23.056  11.072  35.743  1.00  0.00    -0.003 C 
ATOM     20  C   UNL     1      24.575  10.959  35.819  1.00  0.00     0.004 C 
ENDBRANCH  18  19
ENDBRANCH  17  18
ENDBRANCH  16  17
ENDBRANCH  15  16
ENDBRANCH  14  15
ENDBRANCH  13  14
ENDBRANCH   2  13
TORSDOF 15
ENDMDL
MODEL 8
REMARK VINA RESULT:    -3.885      2.592      3.720
REMARK INTER + INTRA:          -9.614
REMARK INTER:                  -7.735
REMARK INTRA:                  -1.880
REMARK UNBOUND:                -2.323
REMARK SMILES CCCCCCCCC=CCCCCCCCC(=O)[O-]
REMARK SMILES IDX 10 1 9 2 11 3 12 4 13 5 14 6 15 7 16 8 17 9 18 10 19 11
REMARK SMILES IDX 20 12 8 13 7 14 6 15 5 16 4 17 3 18 2 19 1 20
REMARK H PARENT
REMARK Flexibility Score: inf
ROOT
ATOM      1  C   UNL     1      35.027  10.336  49.342  1.00  0.00    -0.031 C 
ATOM      2  C   UNL     1      36.204  10.940  49.589  1.00  0.00    -0.031 C 
ENDROOT
BRANCH   1   3
ATOM      3  C   UNL     1      33.898  10.989  48.582  1.00  0.00     0.027 C 
BRANCH   3   4
ATOM      4  C   UNL     1      32.938   9.939  48.010  1.00  0.00     0.004 C 
BRANCH   4   5
ATOM      5  C   UNL     1      31.610   9.931  48.776  1.00  0.00     0.000 C 
BRANCH   5   6
ATOM      6  C   UNL     1      31.453   8.639  49.592  1.00  0.00     0.000 C 
BRANCH   6   7
ATOM      7  C   UNL     1      32.413   7.524  49.138  1.00  0.00     0.000 C 
BRANCH   7   8
ATOM      8  C   UNL     1      31.729   6.252  48.596  1.00  0.00     0.006 C 
BRANCH   8   9
ATOM      9  C   UNL     1      30.410   6.505  47.849  1.00  0.00     0.053 C 
BRANCH   9  10
ATOM     10  C   UNL     1      29.233   5.922  48.572  1.00  0.00     0.041 C 
ATOM     11  O   UNL     1      29.271   5.767  49.820  1.00  0.00    -0.550 OA
ATOM     12  O   UNL     1      28.111   5.517  47.862  1.00  0.00    -0.550 OA
ENDBRANCH   9  10
ENDBRANCH   8   9
ENDBRANCH   7   8
ENDBRANCH   6   7
ENDBRANCH   5   6
ENDBRANCH   4   5
ENDBRANCH   3   4
ENDBRANCH   1   3
BRANCH   2  13
ATOM     13  C   UNL     1      36.535  12.356  49.183  1.00  0.00     0.027 C 
BRANCH  13  14
ATOM     14  C   UNL     1      37.735  12.424  48.215  1.00  0.00     0.004 C 
BRANCH  14  15
ATOM     15  C   UNL     1      37.359  12.176  46.744  1.00  0.00     0.000 C 
BRANCH  15  16
ATOM     16  C   UNL     1      36.567  13.337  46.126  1.00  0.00     0.000 C 
BRANCH  16  17
ATOM     17  C   UNL     1      35.305  12.826  45.417  1.00  0.00    -0.000 C 
BRANCH  17  18
ATOM     18  C   UNL     1      35.223  11.292  45.385  1.00  0.00    -0.000 C 
BRANCH  18  19
ATOM     19  C   UNL     1      34.447  10.765  44.168  1.00  0.00    -0.003 C 
ATOM     20  C   UNL     1      34.603   9.254  44.029  1.00  0.00     0.004 C 
ENDBRANCH  18  19
ENDBRANCH  17  18
ENDBRANCH  16  17
ENDBRANCH  15  16
ENDBRANCH  14  15
ENDBRANCH  13  14
ENDBRANCH   2  13
TORSDOF 15
ENDMDL
MODEL 9
REMARK VINA RESULT:    -3.877      3.938      7.537
REMARK INTER + INTRA:          -9.600
REMARK INTER:                  -8.209
REMARK INTRA:                  -1.391
REMARK UNBOUND:                -2.323
REMARK SMILES CCCCCCCCC=CCCCCCCCC(=O)[O-]
REMARK SMILES IDX 10 1 9 2 11 3 12 4 13 5 14 6 15 7 16 8 17 9 18 10 19 11
REMARK SMILES IDX 20 12 8 13 7 14 6 15 5 16 4 17 3 18 2 19 1 20
REMARK H PARENT
REMARK Flexibility Score: inf
ROOT
ATOM      1  C   UNL     1      34.029   8.198  44.121  1.00  0.00    -0.031 C 
ATOM      2  C   UNL     1      33.859   6.978  44.661  1.00  0.00    -0.031 C 
ENDROOT
BRANCH   1   3
ATOM      3  C   UNL     1      34.588   9.377  44.882  1.00  0.00     0.027 C 
BRANCH   3   4
ATOM      4  C   UNL     1      34.378  10.683  44.108  1.00  0.00     0.004 C 
BRANCH   4   5
ATOM      5  C   UNL     1      34.868  11.889  44.918  1.00  0.00     0.000 C 
BRANCH   5   6
ATOM      6  C   UNL     1      35.369  11.454  46.303  1.00  0.00     0.000 C 
BRANCH   6   7
ATOM      7  C   UNL     1      36.611  12.239  46.764  1.00  0.00     0.000 C 
BRANCH   7   8
ATOM      8  C   UNL     1      36.330  13.374  47.770  1.00  0.00     0.006 C 
BRANCH   8   9
ATOM      9  C   UNL     1      36.893  14.744  47.361  1.00  0.00     0.053 C 
BRANCH   9  10
ATOM     10  C   UNL     1      35.943  15.505  46.486  1.00  0.00     0.041 C 
ATOM     11  O   UNL     1      34.986  16.143  46.997  1.00  0.00    -0.550 OA
ATOM     12  O   UNL     1      36.092  15.477  45.106  1.00  0.00    -0.550 OA
ENDBRANCH   9  10
ENDBRANCH   8   9
ENDBRANCH   7   8
ENDBRANCH   6   7
ENDBRANCH   5   6
ENDBRANCH   4   5
ENDBRANCH   3   4
ENDBRANCH   1   3
BRANCH   2  13
ATOM     13  C   UNL     1      34.157   6.635  46.101  1.00  0.00     0.027 C 
BRANCH  13  14
ATOM     14  C   UNL     1      32.989   6.993  47.043  1.00  0.00     0.004 C 
BRANCH  14  15
ATOM     15  C   UNL     1      33.339   8.073  48.082  1.00  0.00     0.000 C 
BRANCH  15  16
ATOM     16  C   UNL     1      32.237   9.132  48.236  1.00  0.00     0.000 C 
BRANCH  16  17
ATOM     17  C   UNL     1      31.319   8.800  49.421  1.00  0.00    -0.000 C 
BRANCH  17  18
ATOM     18  C   UNL     1      30.055   8.035  48.996  1.00  0.00    -0.000 C 
BRANCH  18  19
ATOM     19  C   UNL     1      30.101   6.551  49.390  1.00  0.00    -0.003 C 
ATOM     20  C   UNL     1      29.064   5.745  48.614  1.00  0.00     0.004 C 
ENDBRANCH  18  19
ENDBRANCH  17  18
ENDBRANCH  16  17
ENDBRANCH  15  16
ENDBRANCH  14  15
ENDBRANCH  13  14
ENDBRANCH   2  13
TORSDOF 15
ENDMDL
