MODEL 1
REMARK VINA RESULT:    -4.799      0.000      0.000
REMARK INTER + INTRA:          -5.575
REMARK INTER:                  -5.500
REMARK INTRA:                  -0.075
REMARK UNBOUND:                -0.075
REMARK SMILES CC(C)[C@@H]([NH3+])C(=O)[O-]
REMARK SMILES IDX 4 1 5 2 6 6 7 7 8 8 2 9 1 10 3 11
REMARK H PARENT 5 3 5 4 5 5
REMARK Flexibility Score: inf
ROOT
ATOM      1  C   UNL     1     -21.720  68.689  -0.672  1.00  0.00     0.230 C 
ENDROOT
BRANCH   1   2
ATOM      2  N   UNL     1     -22.982  67.934  -0.684  1.00  0.00    -0.350 N 
ATOM      3  H   UNL     1     -22.974  67.201   0.060  1.00  0.00     0.345 HD
ATOM      4  H   UNL     1     -23.798  68.574  -0.540  1.00  0.00     0.345 HD
ATOM      5  H   UNL     1     -23.097  67.439  -1.600  1.00  0.00     0.345 HD
ENDBRANCH   1   2
BRANCH   1   6
ATOM      6  C   UNL     1     -21.511  69.297   0.692  1.00  0.00     0.099 C 
ATOM      7  O   UNL     1     -21.650  70.537   0.867  1.00  0.00    -0.544 OA
ATOM      8  O   UNL     1     -21.171  68.487   1.769  1.00  0.00    -0.544 OA
ENDBRANCH   1   6
BRANCH   1   9
ATOM      9  C   UNL     1     -20.506  67.797  -1.075  1.00  0.00     0.047 C 
ATOM     10  C   UNL     1     -19.251  68.648  -1.335  1.00  0.00     0.014 C 
ATOM     11  C   UNL     1     -20.806  66.949  -2.323  1.00  0.00     0.014 C 
ENDBRANCH   1   9
TORSDOF 3
ENDMDL
MODEL 2
REMARK VINA RESULT:    -4.633      2.770      3.670
REMARK INTER + INTRA:          -5.386
REMARK INTER:                  -5.314
REMARK INTRA:                  -0.072
REMARK UNBOUND:                -0.075
REMARK SMILES CC(C)[C@@H]([NH3+])C(=O)[O-]
REMARK SMILES IDX 4 1 5 2 6 6 7 7 8 8 2 9 1 10 3 11
REMARK H PARENT 5 3 5 4 5 5
REMARK Flexibility Score: inf
ROOT
ATOM      1  C   UNL     1     -19.687  68.744  -0.968  1.00  0.00     0.230 C 
ENDROOT
BRANCH   1   2
ATOM      2  N   UNL     1     -18.496  69.605  -0.892  1.00  0.00    -0.350 N 
ATOM      3  H   UNL     1     -17.660  69.100  -1.264  1.00  0.00     0.345 HD
ATOM      4  H   UNL     1     -18.643  70.489  -1.433  1.00  0.00     0.345 HD
ATOM      5  H   UNL     1     -18.290  69.847   0.106  1.00  0.00     0.345 HD
ENDBRANCH   1   2
BRANCH   1   6
ATOM      6  C   UNL     1     -19.293  67.315  -0.688  1.00  0.00     0.099 C 
ATOM      7  O   UNL     1     -19.375  66.441  -1.592  1.00  0.00    -0.544 OA
ATOM      8  O   UNL     1     -18.830  66.957   0.571  1.00  0.00    -0.544 OA
ENDBRANCH   1   6
BRANCH   1   9
ATOM      9  C   UNL     1     -20.807  69.214   0.010  1.00  0.00     0.047 C 
ATOM     10  C   UNL     1     -22.159  68.568  -0.339  1.00  0.00     0.014 C 
ATOM     11  C   UNL     1     -20.966  70.744   0.007  1.00  0.00     0.014 C 
ENDBRANCH   1   9
TORSDOF 3
ENDMDL
MODEL 3
REMARK VINA RESULT:    -4.579      2.871      3.564
REMARK INTER + INTRA:          -5.324
REMARK INTER:                  -5.269
REMARK INTRA:                  -0.055
REMARK UNBOUND:                -0.075
REMARK SMILES CC(C)[C@@H]([NH3+])C(=O)[O-]
REMARK SMILES IDX 4 1 5 2 6 6 7 7 8 8 2 9 1 10 3 11
REMARK H PARENT 5 3 5 4 5 5
REMARK Flexibility Score: inf
ROOT
ATOM      1  C   UNL     1     -19.976  68.881  -1.331  1.00  0.00     0.230 C 
ENDROOT
BRANCH   1   2
ATOM      2  N   UNL     1     -18.639  69.254  -0.844  1.00  0.00    -0.350 N 
ATOM      3  H   UNL     1     -17.906  68.922  -1.509  1.00  0.00     0.345 HD
ATOM      4  H   UNL     1     -18.565  70.291  -0.725  1.00  0.00     0.345 HD
ATOM      5  H   UNL     1     -18.450  68.792   0.077  1.00  0.00     0.345 HD
ENDBRANCH   1   2
BRANCH   1   6
ATOM      6  C   UNL     1     -20.007  67.403  -1.633  1.00  0.00     0.099 C 
ATOM      7  O   UNL     1     -20.936  66.912  -2.328  1.00  0.00    -0.544 OA
ATOM      8  O   UNL     1     -19.002  66.575  -1.151  1.00  0.00    -0.544 OA
ENDBRANCH   1   6
BRANCH   1   9
ATOM      9  C   UNL     1     -21.093  69.263  -0.312  1.00  0.00     0.047 C 
ATOM     10  C   UNL     1     -21.001  70.747   0.085  1.00  0.00     0.014 C 
ATOM     11  C   UNL     1     -21.032  68.398   0.958  1.00  0.00     0.014 C 
ENDBRANCH   1   9
TORSDOF 3
ENDMDL
MODEL 4
REMARK VINA RESULT:    -4.470      0.797      1.773
REMARK INTER + INTRA:          -5.199
REMARK INTER:                  -5.310
REMARK INTRA:                   0.111
REMARK UNBOUND:                -0.075
REMARK SMILES CC(C)[C@@H]([NH3+])C(=O)[O-]
REMARK SMILES IDX 4 1 5 2 6 6 7 7 8 8 2 9 1 10 3 11
REMARK H PARENT 5 3 5 4 5 5
REMARK Flexibility Score: inf
ROOT
ATOM      1  C   UNL     1     -21.743  68.853  -0.992  1.00  0.00     0.230 C 
ENDROOT
BRANCH   1   2
ATOM      2  N   UNL     1     -22.757  67.875  -0.568  1.00  0.00    -0.350 N 
ATOM      3  H   UNL     1     -23.706  68.179  -0.879  1.00  0.00     0.345 HD
ATOM      4  H   UNL     1     -22.544  66.928  -0.960  1.00  0.00     0.345 HD
ATOM      5  H   UNL     1     -22.781  67.812   0.477  1.00  0.00     0.345 HD
ENDBRANCH   1   2
BRANCH   1   6
ATOM      6  C   UNL     1     -21.360  69.721   0.180  1.00  0.00     0.099 C 
ATOM      7  O   UNL     1     -21.495  69.298   1.359  1.00  0.00    -0.544 OA
ATOM      8  O   UNL     1     -20.847  70.993  -0.036  1.00  0.00    -0.544 OA
ENDBRANCH   1   6
BRANCH   1   9
ATOM      9  C   UNL     1     -20.488  68.160  -1.605  1.00  0.00     0.047 C 
ATOM     10  C   UNL     1     -20.874  66.882  -2.369  1.00  0.00     0.014 C 
ATOM     11  C   UNL     1     -19.446  67.807  -0.530  1.00  0.00     0.014 C 
ENDBRANCH   1   9
TORSDOF 3
ENDMDL
MODEL 5
REMARK VINA RESULT:    -4.059      1.776      2.366
REMARK INTER + INTRA:          -4.728
REMARK INTER:                  -4.814
REMARK INTRA:                   0.086
REMARK UNBOUND:                -0.075
REMARK SMILES CC(C)[C@@H]([NH3+])C(=O)[O-]
REMARK SMILES IDX 4 1 5 2 6 6 7 7 8 8 2 9 1 10 3 11
REMARK H PARENT 5 3 5 4 5 5
REMARK Flexibility Score: inf
ROOT
ATOM      1  C   UNL     1     -20.152  68.616  -0.415  1.00  0.00     0.230 C 
ENDROOT
BRANCH   1   2
ATOM      2  N   UNL     1     -18.875  69.175  -0.885  1.00  0.00    -0.350 N 
ATOM      3  H   UNL     1     -19.043  69.876  -1.641  1.00  0.00     0.345 HD
ATOM      4  H   UNL     1     -18.356  69.626  -0.096  1.00  0.00     0.345 HD
ATOM      5  H   UNL     1     -18.280  68.417  -1.295  1.00  0.00     0.345 HD
ENDBRANCH   1   2
BRANCH   1   6
ATOM      6  C   UNL     1     -20.876  69.645   0.416  1.00  0.00     0.099 C 
ATOM      7  O   UNL     1     -21.428  69.318   1.501  1.00  0.00    -0.544 OA
ATOM      8  O   UNL     1     -20.931  70.967  -0.008  1.00  0.00    -0.544 OA
ENDBRANCH   1   6
BRANCH   1   9
ATOM      9  C   UNL     1     -21.044  68.130  -1.598  1.00  0.00     0.047 C 
ATOM     10  C   UNL     1     -22.497  67.905  -1.145  1.00  0.00     0.014 C 
ATOM     11  C   UNL     1     -20.507  66.833  -2.227  1.00  0.00     0.014 C 
ENDBRANCH   1   9
TORSDOF 3
ENDMDL
MODEL 6
REMARK VINA RESULT:    -4.018      1.950      2.243
REMARK INTER + INTRA:          -4.681
REMARK INTER:                  -4.624
REMARK INTRA:                  -0.057
REMARK UNBOUND:                -0.075
REMARK SMILES CC(C)[C@@H]([NH3+])C(=O)[O-]
REMARK SMILES IDX 4 1 5 2 6 6 7 7 8 8 2 9 1 10 3 11
REMARK H PARENT 5 3 5 4 5 5
REMARK Flexibility Score: inf
ROOT
ATOM      1  C   UNL     1     -20.910  68.110  -1.493  1.00  0.00     0.230 C 
ENDROOT
BRANCH   1   2
ATOM      2  N   UNL     1     -20.855  66.895  -2.321  1.00  0.00    -0.350 N 
ATOM      3  H   UNL     1     -21.127  66.059  -1.757  1.00  0.00     0.345 HD
ATOM      4  H   UNL     1     -21.489  66.983  -3.149  1.00  0.00     0.345 HD
ATOM      5  H   UNL     1     -19.877  66.733  -2.658  1.00  0.00     0.345 HD
ENDBRANCH   1   2
BRANCH   1   6
ATOM      6  C   UNL     1     -22.174  68.100  -0.670  1.00  0.00     0.099 C 
ATOM      7  O   UNL     1     -23.241  67.627  -1.143  1.00  0.00    -0.544 OA
ATOM      8  O   UNL     1     -22.165  68.609   0.623  1.00  0.00    -0.544 OA
ENDBRANCH   1   6
BRANCH   1   9
ATOM      9  C   UNL     1     -19.653  68.248  -0.581  1.00  0.00     0.047 C 
ATOM     10  C   UNL     1     -18.831  69.496  -0.949  1.00  0.00     0.014 C 
ATOM     11  C   UNL     1     -18.747  67.008  -0.661  1.00  0.00     0.014 C 
ENDBRANCH   1   9
TORSDOF 3
ENDMDL
MODEL 7
REMARK VINA RESULT:    -3.838      2.174      3.025
REMARK INTER + INTRA:          -4.474
REMARK INTER:                  -4.623
REMARK INTRA:                   0.149
REMARK UNBOUND:                -0.075
REMARK SMILES CC(C)[C@@H]([NH3+])C(=O)[O-]
REMARK SMILES IDX 4 1 5 2 6 6 7 7 8 8 2 9 1 10 3 11
REMARK H PARENT 5 3 5 4 5 5
REMARK Flexibility Score: inf
ROOT
ATOM      1  C   UNL     1     -20.804  67.996  -0.598  1.00  0.00     0.230 C 
ENDROOT
BRANCH   1   2
ATOM      2  N   UNL     1     -20.944  68.458  -1.988  1.00  0.00    -0.350 N 
ATOM      3  H   UNL     1     -21.787  69.068  -2.083  1.00  0.00     0.345 HD
ATOM      4  H   UNL     1     -20.092  68.984  -2.291  1.00  0.00     0.345 HD
ATOM      5  H   UNL     1     -21.084  67.640  -2.626  1.00  0.00     0.345 HD
ENDBRANCH   1   2
BRANCH   1   6
ATOM      6  C   UNL     1     -19.342  67.939  -0.232  1.00  0.00     0.099 C 
ATOM      7  O   UNL     1     -18.558  68.859  -0.589  1.00  0.00    -0.544 OA
ATOM      8  O   UNL     1     -18.852  66.871   0.508  1.00  0.00    -0.544 OA
ENDBRANCH   1   6
BRANCH   1   9
ATOM      9  C   UNL     1     -21.591  68.903   0.397  1.00  0.00     0.047 C 
ATOM     10  C   UNL     1     -21.277  70.391   0.163  1.00  0.00     0.014 C 
ATOM     11  C   UNL     1     -21.284  68.549   1.862  1.00  0.00     0.014 C 
ENDBRANCH   1   9
TORSDOF 3
ENDMDL
MODEL 8
REMARK VINA RESULT:    -3.724      2.241      2.681
REMARK INTER + INTRA:          -4.344
REMARK INTER:                  -4.391
REMARK INTRA:                   0.047
REMARK UNBOUND:                -0.075
REMARK SMILES CC(C)[C@@H]([NH3+])C(=O)[O-]
REMARK SMILES IDX 4 1 5 2 6 6 7 7 8 8 2 9 1 10 3 11
REMARK H PARENT 5 3 5 4 5 5
REMARK Flexibility Score: inf
ROOT
ATOM      1  C   UNL     1     -20.562  69.235  -0.915  1.00  0.00     0.230 C 
ENDROOT
BRANCH   1   2
ATOM      2  N   UNL     1     -21.135  70.079   0.145  1.00  0.00    -0.350 N 
ATOM      3  H   UNL     1     -21.363  71.027  -0.230  1.00  0.00     0.345 HD
ATOM      4  H   UNL     1     -21.998  69.640   0.542  1.00  0.00     0.345 HD
ATOM      5  H   UNL     1     -20.438  70.213   0.915  1.00  0.00     0.345 HD
ENDBRANCH   1   2
BRANCH   1   6
ATOM      6  C   UNL     1     -19.079  69.079  -0.686  1.00  0.00     0.099 C 
ATOM      7  O   UNL     1     -18.283  70.005  -0.998  1.00  0.00    -0.544 OA
ATOM      8  O   UNL     1     -18.582  67.911  -0.122  1.00  0.00    -0.544 OA
ENDBRANCH   1   6
BRANCH   1   9
ATOM      9  C   UNL     1     -21.262  67.844  -0.992  1.00  0.00     0.047 C 
ATOM     10  C   UNL     1     -20.889  67.104  -2.289  1.00  0.00     0.014 C 
ATOM     11  C   UNL     1     -22.792  67.966  -0.905  1.00  0.00     0.014 C 
ENDBRANCH   1   9
TORSDOF 3
ENDMDL
MODEL 9
REMARK VINA RESULT:    -3.658      1.975      2.495
REMARK INTER + INTRA:          -4.268
REMARK INTER:                  -4.200
REMARK INTRA:                  -0.068
REMARK UNBOUND:                -0.075
REMARK SMILES CC(C)[C@@H]([NH3+])C(=O)[O-]
REMARK SMILES IDX 4 1 5 2 6 6 7 7 8 8 2 9 1 10 3 11
REMARK H PARENT 5 3 5 4 5 5
REMARK Flexibility Score: inf
ROOT
ATOM      1  C   UNL     1     -20.715  69.205   0.257  1.00  0.00     0.230 C 
ENDROOT
BRANCH   1   2
ATOM      2  N   UNL     1     -21.010  70.616  -0.037  1.00  0.00    -0.350 N 
ATOM      3  H   UNL     1     -20.966  70.788  -1.066  1.00  0.00     0.345 HD
ATOM      4  H   UNL     1     -21.957  70.878   0.323  1.00  0.00     0.345 HD
ATOM      5  H   UNL     1     -20.293  71.234   0.410  1.00  0.00     0.345 HD
ENDBRANCH   1   2
BRANCH   1   6
ATOM      6  C   UNL     1     -21.994  68.406   0.226  1.00  0.00     0.099 C 
ATOM      7  O   UNL     1     -22.595  68.122   1.296  1.00  0.00    -0.544 OA
ATOM      8  O   UNL     1     -22.521  67.986  -0.988  1.00  0.00    -0.544 OA
ENDBRANCH   1   6
BRANCH   1   9
ATOM      9  C   UNL     1     -19.666  68.613  -0.734  1.00  0.00     0.047 C 
ATOM     10  C   UNL     1     -19.005  67.349  -0.156  1.00  0.00     0.014 C 
ATOM     11  C   UNL     1     -18.573  69.634  -1.090  1.00  0.00     0.014 C 
ENDBRANCH   1   9
TORSDOF 3
ENDMDL
