MODEL 1
REMARK VINA RESULT:    -4.159      0.000      0.000
REMARK INTER + INTRA:          -6.365
REMARK INTER:                  -5.132
REMARK INTRA:                  -1.233
REMARK UNBOUND:                -1.233
REMARK SMILES CC(C)=CCC[C@@H](C)c1ccc(C)cc1
REMARK SMILES IDX 6 1 7 2 8 3 9 4 13 5 12 6 11 7 14 8 10 9 15 10 5 11 4 12
REMARK SMILES IDX 2 13 1 14 3 15
REMARK H PARENT
REMARK Flexibility Score: inf
ROOT
ATOM      1  C   UNL     1     -11.987  -8.329 -24.941  1.00  0.00     0.012 C 
ENDROOT
BRANCH   1   2
ATOM      2  C   UNL     1     -12.739  -9.021 -23.784  1.00  0.00     0.016 C 
ATOM      3  C   UNL     1     -14.245  -8.745 -23.870  1.00  0.00     0.013 C 
BRANCH   2   4
ATOM      4  C   UNL     1     -12.474 -10.518 -23.751  1.00  0.00    -0.045 A 
ATOM      5  C   UNL     1     -11.681 -14.763 -23.702  1.00  0.00     0.044 C 
ATOM      6  C   UNL     1     -11.957 -13.290 -23.749  1.00  0.00    -0.051 A 
ATOM      7  C   UNL     1     -10.897 -12.371 -23.748  1.00  0.00     0.004 A 
ATOM      8  C   UNL     1     -13.276 -12.817 -23.724  1.00  0.00     0.004 A 
ATOM      9  C   UNL     1     -11.153 -10.997 -23.756  1.00  0.00     0.004 A 
ATOM     10  C   UNL     1     -13.534 -11.444 -23.731  1.00  0.00     0.004 A 
ENDBRANCH   2   4
ENDBRANCH   1   2
BRANCH   1  11
ATOM     11  C   UNL     1     -12.832  -8.263 -26.222  1.00  0.00     0.028 C 
BRANCH  11  12
ATOM     12  C   UNL     1     -11.989  -8.562 -27.434  1.00  0.00    -0.028 C 
ATOM     13  C   UNL     1     -11.816  -9.798 -27.955  1.00  0.00    -0.080 C 
ATOM     14  C   UNL     1     -10.973  -9.943 -29.196  1.00  0.00     0.039 C 
ATOM     15  C   UNL     1     -12.426 -11.027 -27.321  1.00  0.00     0.039 C 
ENDBRANCH  11  12
ENDBRANCH   1  11
TORSDOF 4
ENDMDL
MODEL 2
REMARK VINA RESULT:    -4.117      1.633      3.267
REMARK INTER + INTRA:          -6.313
REMARK INTER:                  -5.551
REMARK INTRA:                  -0.762
REMARK UNBOUND:                -1.233
REMARK SMILES CC(C)=CCC[C@@H](C)c1ccc(C)cc1
REMARK SMILES IDX 6 1 7 2 8 3 9 4 13 5 12 6 11 7 14 8 10 9 15 10 5 11 4 12
REMARK SMILES IDX 2 13 1 14 3 15
REMARK H PARENT
REMARK Flexibility Score: inf
ROOT
ATOM      1  C   UNL     1     -11.593  -7.875 -27.867  1.00  0.00     0.012 C 
ENDROOT
BRANCH   1   2
ATOM      2  C   UNL     1     -12.781  -8.758 -27.427  1.00  0.00     0.016 C 
ATOM      3  C   UNL     1     -13.185  -9.725 -28.547  1.00  0.00     0.013 C 
BRANCH   2   4
ATOM      4  C   UNL     1     -12.477  -9.522 -26.148  1.00  0.00    -0.045 A 
ATOM      5  C   UNL     1     -11.647 -11.737 -22.535  1.00  0.00     0.044 C 
ATOM      6  C   UNL     1     -11.964 -10.974 -23.787  1.00  0.00    -0.051 A 
ATOM      7  C   UNL     1     -11.912 -11.611 -25.036  1.00  0.00     0.004 A 
ATOM      8  C   UNL     1     -12.246  -9.602 -23.725  1.00  0.00     0.004 A 
ATOM      9  C   UNL     1     -12.173 -10.893 -26.206  1.00  0.00     0.004 A 
ATOM     10  C   UNL     1     -12.506  -8.883 -24.895  1.00  0.00     0.004 A 
ENDBRANCH   2   4
ENDBRANCH   1   2
BRANCH   1  11
ATOM     11  C   UNL     1     -11.327  -7.974 -29.377  1.00  0.00     0.028 C 
BRANCH  11  12
ATOM     12  C   UNL     1      -9.863  -8.213 -29.646  1.00  0.00    -0.028 C 
ATOM     13  C   UNL     1      -9.369  -9.329 -30.227  1.00  0.00    -0.080 C 
ATOM     14  C   UNL     1      -7.883  -9.414 -30.468  1.00  0.00     0.039 C 
ATOM     15  C   UNL     1     -10.255 -10.488 -30.620  1.00  0.00     0.039 C 
ENDBRANCH  11  12
ENDBRANCH   1  11
TORSDOF 4
ENDMDL
MODEL 3
REMARK VINA RESULT:    -4.007     20.994     23.031
REMARK INTER + INTRA:          -6.178
REMARK INTER:                  -4.626
REMARK INTRA:                  -1.552
REMARK UNBOUND:                -1.233
REMARK SMILES CC(C)=CCC[C@@H](C)c1ccc(C)cc1
REMARK SMILES IDX 6 1 7 2 8 3 9 4 13 5 12 6 11 7 14 8 10 9 15 10 5 11 4 12
REMARK SMILES IDX 2 13 1 14 3 15
REMARK H PARENT
REMARK Flexibility Score: inf
ROOT
ATOM      1  C   UNL     1     -23.037 -23.322 -40.641  1.00  0.00     0.012 C 
ENDROOT
BRANCH   1   2
ATOM      2  C   UNL     1     -24.459 -23.625 -41.160  1.00  0.00     0.016 C 
ATOM      3  C   UNL     1     -25.096 -24.773 -40.366  1.00  0.00     0.013 C 
BRANCH   2   4
ATOM      4  C   UNL     1     -25.350 -22.394 -41.122  1.00  0.00    -0.045 A 
ATOM      5  C   UNL     1     -27.832 -18.862 -41.000  1.00  0.00     0.044 C 
ATOM      6  C   UNL     1     -26.958 -20.080 -41.017  1.00  0.00    -0.051 A 
ATOM      7  C   UNL     1     -25.718 -20.052 -41.672  1.00  0.00     0.004 A 
ATOM      8  C   UNL     1     -27.403 -21.277 -40.438  1.00  0.00     0.004 A 
ATOM      9  C   UNL     1     -24.918 -21.197 -41.718  1.00  0.00     0.004 A 
ATOM     10  C   UNL     1     -26.604 -22.423 -40.485  1.00  0.00     0.004 A 
ENDBRANCH   2   4
ENDBRANCH   1   2
BRANCH   1  11
ATOM     11  C   UNL     1     -23.005 -23.142 -39.115  1.00  0.00     0.028 C 
BRANCH  11  12
ATOM     12  C   UNL     1     -22.857 -21.687 -38.753  1.00  0.00    -0.028 C 
ATOM     13  C   UNL     1     -23.731 -21.003 -37.980  1.00  0.00    -0.080 C 
ATOM     14  C   UNL     1     -23.435 -19.558 -37.669  1.00  0.00     0.039 C 
ATOM     15  C   UNL     1     -24.991 -21.639 -37.440  1.00  0.00     0.039 C 
ENDBRANCH  11  12
ENDBRANCH   1  11
TORSDOF 4
ENDMDL
MODEL 4
REMARK VINA RESULT:    -3.990     21.550     23.570
REMARK INTER + INTRA:          -6.157
REMARK INTER:                  -5.577
REMARK INTRA:                  -0.580
REMARK UNBOUND:                -1.233
REMARK SMILES CC(C)=CCC[C@@H](C)c1ccc(C)cc1
REMARK SMILES IDX 6 1 7 2 8 3 9 4 13 5 12 6 11 7 14 8 10 9 15 10 5 11 4 12
REMARK SMILES IDX 2 13 1 14 3 15
REMARK H PARENT
REMARK Flexibility Score: inf
ROOT
ATOM      1  C   UNL     1     -25.425 -22.898 -40.068  1.00  0.00     0.012 C 
ENDROOT
BRANCH   1   2
ATOM      2  C   UNL     1     -26.595 -22.405 -40.948  1.00  0.00     0.016 C 
ATOM      3  C   UNL     1     -27.943 -22.817 -40.344  1.00  0.00     0.013 C 
BRANCH   2   4
ATOM      4  C   UNL     1     -26.546 -20.901 -41.164  1.00  0.00    -0.045 A 
ATOM      5  C   UNL     1     -26.350 -16.628 -41.763  1.00  0.00     0.044 C 
ATOM      6  C   UNL     1     -26.404 -18.109 -41.530  1.00  0.00    -0.051 A 
ATOM      7  C   UNL     1     -25.417 -18.946 -42.073  1.00  0.00     0.004 A 
ATOM      8  C   UNL     1     -27.475 -18.675 -40.827  1.00  0.00     0.004 A 
ATOM      9  C   UNL     1     -25.485 -20.329 -41.886  1.00  0.00     0.004 A 
ATOM     10  C   UNL     1     -27.545 -20.059 -40.640  1.00  0.00     0.004 A 
ENDBRANCH   2   4
ENDBRANCH   1   2
BRANCH   1  11
ATOM     11  C   UNL     1     -24.324 -23.576 -40.897  1.00  0.00     0.028 C 
BRANCH  11  12
ATOM     12  C   UNL     1     -22.977 -22.976 -40.586  1.00  0.00    -0.028 C 
ATOM     13  C   UNL     1     -21.813 -23.663 -40.615  1.00  0.00    -0.080 C 
ATOM     14  C   UNL     1     -20.534 -22.923 -40.317  1.00  0.00     0.039 C 
ATOM     15  C   UNL     1     -21.763 -25.143 -40.919  1.00  0.00     0.039 C 
ENDBRANCH  11  12
ENDBRANCH   1  11
TORSDOF 4
ENDMDL
MODEL 5
REMARK VINA RESULT:    -3.957     20.955     22.929
REMARK INTER + INTRA:          -6.116
REMARK INTER:                  -4.731
REMARK INTRA:                  -1.385
REMARK UNBOUND:                -1.233
REMARK SMILES CC(C)=CCC[C@@H](C)c1ccc(C)cc1
REMARK SMILES IDX 6 1 7 2 8 3 9 4 13 5 12 6 11 7 14 8 10 9 15 10 5 11 4 12
REMARK SMILES IDX 2 13 1 14 3 15
REMARK H PARENT
REMARK Flexibility Score: inf
ROOT
ATOM      1  C   UNL     1     -26.814 -22.557 -40.445  1.00  0.00     0.012 C 
ENDROOT
BRANCH   1   2
ATOM      2  C   UNL     1     -25.361 -22.850 -40.012  1.00  0.00     0.016 C 
ATOM      3  C   UNL     1     -24.902 -24.218 -40.534  1.00  0.00     0.013 C 
BRANCH   2   4
ATOM      4  C   UNL     1     -24.404 -21.760 -40.467  1.00  0.00    -0.045 A 
ATOM      5  C   UNL     1     -21.690 -18.636 -41.703  1.00  0.00     0.044 C 
ATOM      6  C   UNL     1     -22.650 -19.700 -41.263  1.00  0.00    -0.051 A 
ATOM      7  C   UNL     1     -22.496 -20.319 -40.013  1.00  0.00     0.004 A 
ATOM      8  C   UNL     1     -23.668 -20.134 -42.124  1.00  0.00     0.004 A 
ATOM      9  C   UNL     1     -23.369 -21.335 -39.616  1.00  0.00     0.004 A 
ATOM     10  C   UNL     1     -24.541 -21.151 -41.728  1.00  0.00     0.004 A 
ENDBRANCH   2   4
ENDBRANCH   1   2
BRANCH   1  11
ATOM     11  C   UNL     1     -27.463 -21.462 -39.585  1.00  0.00     0.028 C 
BRANCH  11  12
ATOM     12  C   UNL     1     -27.952 -20.327 -40.447  1.00  0.00    -0.028 C 
ATOM     13  C   UNL     1     -27.370 -19.108 -40.503  1.00  0.00    -0.080 C 
ATOM     14  C   UNL     1     -27.948 -18.079 -41.440  1.00  0.00     0.039 C 
ATOM     15  C   UNL     1     -26.178 -18.750 -39.645  1.00  0.00     0.039 C 
ENDBRANCH  11  12
ENDBRANCH   1  11
TORSDOF 4
ENDMDL
MODEL 6
REMARK VINA RESULT:    -3.956     20.965     22.851
REMARK INTER + INTRA:          -6.114
REMARK INTER:                  -4.725
REMARK INTRA:                  -1.389
REMARK UNBOUND:                -1.233
REMARK SMILES CC(C)=CCC[C@@H](C)c1ccc(C)cc1
REMARK SMILES IDX 6 1 7 2 8 3 9 4 13 5 12 6 11 7 14 8 10 9 15 10 5 11 4 12
REMARK SMILES IDX 2 13 1 14 3 15
REMARK H PARENT
REMARK Flexibility Score: inf
ROOT
ATOM      1  C   UNL     1     -27.245 -22.343 -40.617  1.00  0.00     0.012 C 
ENDROOT
BRANCH   1   2
ATOM      2  C   UNL     1     -26.175 -21.902 -41.639  1.00  0.00     0.016 C 
ATOM      3  C   UNL     1     -26.192 -20.379 -41.824  1.00  0.00     0.013 C 
BRANCH   2   4
ATOM      4  C   UNL     1     -24.785 -22.373 -41.243  1.00  0.00    -0.045 A 
ATOM      5  C   UNL     1     -20.862 -23.753 -40.078  1.00  0.00     0.044 C 
ATOM      6  C   UNL     1     -22.232 -23.272 -40.454  1.00  0.00    -0.051 A 
ATOM      7  C   UNL     1     -23.251 -24.193 -40.739  1.00  0.00     0.004 A 
ATOM      8  C   UNL     1     -22.486 -21.901 -40.592  1.00  0.00     0.004 A 
ATOM      9  C   UNL     1     -24.518 -23.748 -41.123  1.00  0.00     0.004 A 
ATOM     10  C   UNL     1     -23.753 -21.454 -40.977  1.00  0.00     0.004 A 
ENDBRANCH   2   4
ENDBRANCH   1   2
BRANCH   1  11
ATOM     11  C   UNL     1     -27.412 -21.324 -39.480  1.00  0.00     0.028 C 
BRANCH  11  12
ATOM     12  C   UNL     1     -26.476 -21.637 -38.341  1.00  0.00    -0.028 C 
ATOM     13  C   UNL     1     -25.587 -20.760 -37.824  1.00  0.00    -0.080 C 
ATOM     14  C   UNL     1     -24.739 -21.201 -36.658  1.00  0.00     0.039 C 
ATOM     15  C   UNL     1     -25.411 -19.370 -38.389  1.00  0.00     0.039 C 
ENDBRANCH  11  12
ENDBRANCH   1  11
TORSDOF 4
ENDMDL
MODEL 7
REMARK VINA RESULT:    -3.954     22.906     23.972
REMARK INTER + INTRA:          -6.112
REMARK INTER:                  -5.602
REMARK INTRA:                  -0.510
REMARK UNBOUND:                -1.233
REMARK SMILES CC(C)=CCC[C@@H](C)c1ccc(C)cc1
REMARK SMILES IDX 6 1 7 2 8 3 9 4 13 5 12 6 11 7 14 8 10 9 15 10 5 11 4 12
REMARK SMILES IDX 2 13 1 14 3 15
REMARK H PARENT
REMARK Flexibility Score: inf
ROOT
ATOM      1  C   UNL     1     -23.096 -23.310 -40.669  1.00  0.00     0.012 C 
ENDROOT
BRANCH   1   2
ATOM      2  C   UNL     1     -24.525 -23.621 -41.165  1.00  0.00     0.016 C 
ATOM      3  C   UNL     1     -25.155 -24.749 -40.338  1.00  0.00     0.013 C 
BRANCH   2   4
ATOM      4  C   UNL     1     -25.413 -22.388 -41.144  1.00  0.00    -0.045 A 
ATOM      5  C   UNL     1     -27.887 -18.848 -41.081  1.00  0.00     0.044 C 
ATOM      6  C   UNL     1     -27.013 -20.067 -41.080  1.00  0.00    -0.051 A 
ATOM      7  C   UNL     1     -25.862 -20.112 -41.881  1.00  0.00     0.004 A 
ATOM      8  C   UNL     1     -27.375 -21.196 -40.333  1.00  0.00     0.004 A 
ATOM      9  C   UNL     1     -25.065 -21.260 -41.907  1.00  0.00     0.004 A 
ATOM     10  C   UNL     1     -26.580 -22.345 -40.360  1.00  0.00     0.004 A 
ENDBRANCH   2   4
ENDBRANCH   1   2
BRANCH   1  11
ATOM     11  C   UNL     1     -22.399 -24.554 -40.096  1.00  0.00     0.028 C 
BRANCH  11  12
ATOM     12  C   UNL     1     -21.260 -24.984 -40.985  1.00  0.00    -0.028 C 
ATOM     13  C   UNL     1     -20.660 -26.193 -40.921  1.00  0.00    -0.080 C 
ATOM     14  C   UNL     1     -19.556 -26.499 -41.900  1.00  0.00     0.039 C 
ATOM     15  C   UNL     1     -21.053 -27.229 -39.892  1.00  0.00     0.039 C 
ENDBRANCH  11  12
ENDBRANCH   1  11
TORSDOF 4
ENDMDL
MODEL 8
REMARK VINA RESULT:    -3.930     20.962     23.080
REMARK INTER + INTRA:          -6.083
REMARK INTER:                  -4.548
REMARK INTRA:                  -1.535
REMARK UNBOUND:                -1.233
REMARK SMILES CC(C)=CCC[C@@H](C)c1ccc(C)cc1
REMARK SMILES IDX 6 1 7 2 8 3 9 4 13 5 12 6 11 7 14 8 10 9 15 10 5 11 4 12
REMARK SMILES IDX 2 13 1 14 3 15
REMARK H PARENT
REMARK Flexibility Score: inf
ROOT
ATOM      1  C   UNL     1     -24.895 -22.826 -41.153  1.00  0.00     0.012 C 
ENDROOT
BRANCH   1   2
ATOM      2  C   UNL     1     -26.294 -22.238 -41.441  1.00  0.00     0.016 C 
ATOM      3  C   UNL     1     -27.328 -22.781 -40.447  1.00  0.00     0.013 C 
BRANCH   2   4
ATOM      4  C   UNL     1     -26.284 -20.718 -41.422  1.00  0.00    -0.045 A 
ATOM      5  C   UNL     1     -26.314 -16.400 -41.386  1.00  0.00     0.044 C 
ATOM      6  C   UNL     1     -26.316 -17.899 -41.425  1.00  0.00    -0.051 A 
ATOM      7  C   UNL     1     -27.379 -18.619 -40.861  1.00  0.00     0.004 A 
ATOM      8  C   UNL     1     -25.225 -18.594 -41.964  1.00  0.00     0.004 A 
ATOM      9  C   UNL     1     -27.367 -20.017 -40.865  1.00  0.00     0.004 A 
ATOM     10  C   UNL     1     -25.210 -19.991 -41.968  1.00  0.00     0.004 A 
ENDBRANCH   2   4
ENDBRANCH   1   2
BRANCH   1  11
ATOM     11  C   UNL     1     -24.637 -22.993 -39.648  1.00  0.00     0.028 C 
BRANCH  11  12
ATOM     12  C   UNL     1     -23.732 -21.901 -39.138  1.00  0.00    -0.028 C 
ATOM     13  C   UNL     1     -24.121 -20.928 -38.284  1.00  0.00    -0.080 C 
ATOM     14  C   UNL     1     -23.096 -19.921 -37.828  1.00  0.00     0.039 C 
ATOM     15  C   UNL     1     -25.546 -20.814 -37.793  1.00  0.00     0.039 C 
ENDBRANCH  11  12
ENDBRANCH   1  11
TORSDOF 4
ENDMDL
MODEL 9
REMARK VINA RESULT:    -3.849      2.066      6.490
REMARK INTER + INTRA:          -5.983
REMARK INTER:                  -5.477
REMARK INTRA:                  -0.506
REMARK UNBOUND:                -1.233
REMARK SMILES CC(C)=CCC[C@@H](C)c1ccc(C)cc1
REMARK SMILES IDX 6 1 7 2 8 3 9 4 13 5 12 6 11 7 14 8 10 9 15 10 5 11 4 12
REMARK SMILES IDX 2 13 1 14 3 15
REMARK H PARENT
REMARK Flexibility Score: inf
ROOT
ATOM      1  C   UNL     1     -11.988  -7.875 -26.947  1.00  0.00     0.012 C 
ENDROOT
BRANCH   1   2
ATOM      2  C   UNL     1     -12.118  -9.083 -27.900  1.00  0.00     0.016 C 
ATOM      3  C   UNL     1     -13.584  -9.512 -28.039  1.00  0.00     0.013 C 
BRANCH   2   4
ATOM      4  C   UNL     1     -11.517  -8.795 -29.266  1.00  0.00    -0.045 A 
ATOM      5  C   UNL     1      -9.778  -7.929 -33.123  1.00  0.00     0.044 C 
ATOM      6  C   UNL     1     -10.387  -8.201 -31.780  1.00  0.00    -0.051 A 
ATOM      7  C   UNL     1      -9.582  -8.239 -30.632  1.00  0.00     0.004 A 
ATOM      8  C   UNL     1     -11.755  -8.487 -31.670  1.00  0.00     0.004 A 
ATOM      9  C   UNL     1     -10.143  -8.527 -29.385  1.00  0.00     0.004 A 
ATOM     10  C   UNL     1     -12.317  -8.777 -30.424  1.00  0.00     0.004 A 
ENDBRANCH   2   4
ENDBRANCH   1   2
BRANCH   1  11
ATOM     11  C   UNL     1     -12.574  -8.169 -25.558  1.00  0.00     0.028 C 
BRANCH  11  12
ATOM     12  C   UNL     1     -11.952  -9.408 -24.967  1.00  0.00    -0.028 C 
ATOM     13  C   UNL     1     -12.380 -10.008 -23.834  1.00  0.00    -0.080 C 
ATOM     14  C   UNL     1     -11.683 -11.266 -23.381  1.00  0.00     0.039 C 
ATOM     15  C   UNL     1     -13.517  -9.448 -23.010  1.00  0.00     0.039 C 
ENDBRANCH  11  12
ENDBRANCH   1  11
TORSDOF 4
ENDMDL
