MODEL 1
REMARK VINA RESULT:    -5.110      0.000      0.000
REMARK INTER + INTRA:          -8.158
REMARK INTER:                  -7.798
REMARK INTRA:                  -0.360
REMARK UNBOUND:                -0.360
REMARK SMILES O=C([O-])CCCCCCCCC(=O)[O-]
REMARK SMILES IDX 7 1 6 2 5 3 4 4 2 5 1 6 3 7 8 8 9 9 10 10 11 11 12 12 13 13
REMARK SMILES IDX 14 14
REMARK H PARENT
REMARK Flexibility Score: inf
ROOT
ATOM      1  C   UNL     1      -5.462  35.651  19.894  1.00  0.00     0.000 C 
ENDROOT
BRANCH   1   2
ATOM      2  C   UNL     1      -5.339  36.785  20.927  1.00  0.00     0.000 C 
BRANCH   2   3
ATOM      3  C   UNL     1      -5.611  36.370  22.384  1.00  0.00     0.006 C 
BRANCH   3   4
ATOM      4  C   UNL     1      -5.205  37.446  23.399  1.00  0.00     0.053 C 
BRANCH   4   5
ATOM      5  C   UNL     1      -5.204  36.882  24.785  1.00  0.00     0.041 C 
ATOM      6  O   UNL     1      -5.889  35.861  25.054  1.00  0.00    -0.550 OA
ATOM      7  O   UNL     1      -4.407  37.455  25.768  1.00  0.00    -0.550 OA
ENDBRANCH   4   5
ENDBRANCH   3   4
ENDBRANCH   2   3
ENDBRANCH   1   2
BRANCH   1   8
ATOM      8  C   UNL     1      -4.270  35.592  18.926  1.00  0.00     0.000 C 
BRANCH   8   9
ATOM      9  C   UNL     1      -3.508  36.925  18.912  1.00  0.00     0.000 C 
BRANCH   9  10
ATOM     10  C   UNL     1      -2.797  37.193  17.572  1.00  0.00     0.006 C 
BRANCH  10  11
ATOM     11  C   UNL     1      -3.178  36.217  16.448  1.00  0.00     0.053 C 
BRANCH  11  12
ATOM     12  C   UNL     1      -3.087  36.856  15.097  1.00  0.00     0.041 C 
ATOM     13  O   UNL     1      -2.304  36.391  14.227  1.00  0.00    -0.550 OA
ATOM     14  O   UNL     1      -3.843  37.985  14.809  1.00  0.00    -0.550 OA
ENDBRANCH  11  12
ENDBRANCH  10  11
ENDBRANCH   9  10
ENDBRANCH   8   9
ENDBRANCH   1   8
TORSDOF 9
ENDMDL
MODEL 2
REMARK VINA RESULT:    -5.101      1.244      1.811
REMARK INTER + INTRA:          -8.145
REMARK INTER:                  -7.721
REMARK INTRA:                  -0.424
REMARK UNBOUND:                -0.360
REMARK SMILES O=C([O-])CCCCCCCCC(=O)[O-]
REMARK SMILES IDX 7 1 6 2 5 3 4 4 2 5 1 6 3 7 8 8 9 9 10 10 11 11 12 12 13 13
REMARK SMILES IDX 14 14
REMARK H PARENT
REMARK Flexibility Score: inf
ROOT
ATOM      1  C   UNL     1      -4.956  35.880  21.171  1.00  0.00     0.000 C 
ENDROOT
BRANCH   1   2
ATOM      2  C   UNL     1      -6.009  35.409  22.191  1.00  0.00     0.000 C 
BRANCH   2   3
ATOM      3  C   UNL     1      -5.478  35.195  23.620  1.00  0.00     0.006 C 
BRANCH   3   4
ATOM      4  C   UNL     1      -6.029  36.218  24.622  1.00  0.00     0.053 C 
BRANCH   4   5
ATOM      5  C   UNL     1      -5.034  37.314  24.848  1.00  0.00     0.041 C 
ATOM      6  O   UNL     1      -4.280  37.286  25.856  1.00  0.00    -0.550 OA
ATOM      7  O   UNL     1      -4.907  38.339  23.920  1.00  0.00    -0.550 OA
ENDBRANCH   4   5
ENDBRANCH   3   4
ENDBRANCH   2   3
ENDBRANCH   1   2
BRANCH   1   8
ATOM      8  C   UNL     1      -5.154  37.341  20.738  1.00  0.00     0.000 C 
BRANCH   8   9
ATOM      9  C   UNL     1      -4.635  37.564  19.310  1.00  0.00     0.000 C 
BRANCH   9  10
ATOM     10  C   UNL     1      -3.499  36.596  18.929  1.00  0.00     0.006 C 
BRANCH  10  11
ATOM     11  C   UNL     1      -2.417  37.213  18.030  1.00  0.00     0.053 C 
BRANCH  11  12
ATOM     12  C   UNL     1      -2.596  36.827  16.594  1.00  0.00     0.041 C 
ATOM     13  O   UNL     1      -1.992  35.825  16.127  1.00  0.00    -0.550 OA
ATOM     14  O   UNL     1      -3.404  37.592  15.763  1.00  0.00    -0.550 OA
ENDBRANCH  11  12
ENDBRANCH  10  11
ENDBRANCH   9  10
ENDBRANCH   8   9
ENDBRANCH   1   8
TORSDOF 9
ENDMDL
MODEL 3
REMARK VINA RESULT:    -5.093      1.173      1.645
REMARK INTER + INTRA:          -8.132
REMARK INTER:                  -7.643
REMARK INTRA:                  -0.489
REMARK UNBOUND:                -0.360
REMARK SMILES O=C([O-])CCCCCCCCC(=O)[O-]
REMARK SMILES IDX 7 1 6 2 5 3 4 4 2 5 1 6 3 7 8 8 9 9 10 10 11 11 12 12 13 13
REMARK SMILES IDX 14 14
REMARK H PARENT
REMARK Flexibility Score: inf
ROOT
ATOM      1  C   UNL     1      -5.463  36.193  20.879  1.00  0.00     0.000 C 
ENDROOT
BRANCH   1   2
ATOM      2  C   UNL     1      -4.698  35.392  21.947  1.00  0.00     0.000 C 
BRANCH   2   3
ATOM      3  C   UNL     1      -5.419  35.258  23.300  1.00  0.00     0.006 C 
BRANCH   3   4
ATOM      4  C   UNL     1      -6.125  36.549  23.732  1.00  0.00     0.053 C 
BRANCH   4   5
ATOM      5  C   UNL     1      -5.135  37.524  24.290  1.00  0.00     0.041 C 
ATOM      6  O   UNL     1      -4.796  38.534  23.620  1.00  0.00    -0.550 OA
ATOM      7  O   UNL     1      -4.625  37.342  25.569  1.00  0.00    -0.550 OA
ENDBRANCH   4   5
ENDBRANCH   3   4
ENDBRANCH   2   3
ENDBRANCH   1   2
BRANCH   1   8
ATOM      8  C   UNL     1      -5.588  35.445  19.543  1.00  0.00     0.000 C 
BRANCH   8   9
ATOM      9  C   UNL     1      -4.311  35.607  18.704  1.00  0.00     0.000 C 
BRANCH   9  10
ATOM     10  C   UNL     1      -3.723  37.028  18.779  1.00  0.00     0.006 C 
BRANCH  10  11
ATOM     11  C   UNL     1      -2.422  37.217  17.982  1.00  0.00     0.053 C 
BRANCH  11  12
ATOM     12  C   UNL     1      -2.586  36.830  16.545  1.00  0.00     0.041 C 
ATOM     13  O   UNL     1      -1.938  35.860  16.072  1.00  0.00    -0.550 OA
ATOM     14  O   UNL     1      -3.431  37.561  15.720  1.00  0.00    -0.550 OA
ENDBRANCH  11  12
ENDBRANCH  10  11
ENDBRANCH   9  10
ENDBRANCH   8   9
ENDBRANCH   1   8
TORSDOF 9
ENDMDL
MODEL 4
REMARK VINA RESULT:    -5.090      1.131      7.575
REMARK INTER + INTRA:          -8.127
REMARK INTER:                  -7.702
REMARK INTRA:                  -0.425
REMARK UNBOUND:                -0.360
REMARK SMILES O=C([O-])CCCCCCCCC(=O)[O-]
REMARK SMILES IDX 7 1 6 2 5 3 4 4 2 5 1 6 3 7 8 8 9 9 10 10 11 11 12 12 13 13
REMARK SMILES IDX 14 14
REMARK H PARENT
REMARK Flexibility Score: inf
ROOT
ATOM      1  C   UNL     1      -5.033  36.028  19.428  1.00  0.00     0.000 C 
ENDROOT
BRANCH   1   2
ATOM      2  C   UNL     1      -3.915  37.071  19.598  1.00  0.00     0.000 C 
BRANCH   2   3
ATOM      3  C   UNL     1      -3.051  37.307  18.346  1.00  0.00     0.006 C 
BRANCH   3   4
ATOM      4  C   UNL     1      -3.306  36.275  17.240  1.00  0.00     0.053 C 
BRANCH   4   5
ATOM      5  C   UNL     1      -2.877  36.817  15.912  1.00  0.00     0.041 C 
ATOM      6  O   UNL     1      -1.884  36.322  15.317  1.00  0.00    -0.550 OA
ATOM      7  O   UNL     1      -3.604  37.835  15.309  1.00  0.00    -0.550 OA
ENDBRANCH   4   5
ENDBRANCH   3   4
ENDBRANCH   2   3
ENDBRANCH   1   2
BRANCH   1   8
ATOM      8  C   UNL     1      -5.750  35.698  20.747  1.00  0.00     0.000 C 
BRANCH   8   9
ATOM      9  C   UNL     1      -4.737  35.469  21.878  1.00  0.00     0.000 C 
BRANCH   9  10
ATOM     10  C   UNL     1      -5.407  35.304  23.255  1.00  0.00     0.006 C 
BRANCH  10  11
ATOM     11  C   UNL     1      -6.087  36.577  23.784  1.00  0.00     0.053 C 
BRANCH  11  12
ATOM     12  C   UNL     1      -5.099  37.535  24.374  1.00  0.00     0.041 C 
ATOM     13  O   UNL     1      -4.577  37.297  25.494  1.00  0.00    -0.550 OA
ATOM     14  O   UNL     1      -4.780  38.707  23.700  1.00  0.00    -0.550 OA
ENDBRANCH  11  12
ENDBRANCH  10  11
ENDBRANCH   9  10
ENDBRANCH   8   9
ENDBRANCH   1   8
TORSDOF 9
ENDMDL
MODEL 5
REMARK VINA RESULT:    -4.995      0.785      7.819
REMARK INTER + INTRA:          -7.984
REMARK INTER:                  -7.663
REMARK INTRA:                  -0.320
REMARK UNBOUND:                -0.360
REMARK SMILES O=C([O-])CCCCCCCCC(=O)[O-]
REMARK SMILES IDX 7 1 6 2 5 3 4 4 2 5 1 6 3 7 8 8 9 9 10 10 11 11 12 12 13 13
REMARK SMILES IDX 14 14
REMARK H PARENT
REMARK Flexibility Score: inf
ROOT
ATOM      1  C   UNL     1      -4.220  35.760  19.068  1.00  0.00     0.000 C 
ENDROOT
BRANCH   1   2
ATOM      2  C   UNL     1      -3.391  37.045  18.889  1.00  0.00     0.000 C 
BRANCH   2   3
ATOM      3  C   UNL     1      -2.673  37.171  17.534  1.00  0.00     0.006 C 
BRANCH   3   4
ATOM      4  C   UNL     1      -3.231  36.217  16.469  1.00  0.00     0.053 C 
BRANCH   4   5
ATOM      5  C   UNL     1      -3.126  36.834  15.110  1.00  0.00     0.041 C 
ATOM      6  O   UNL     1      -3.842  37.824  14.807  1.00  0.00    -0.550 OA
ATOM      7  O   UNL     1      -2.204  36.344  14.194  1.00  0.00    -0.550 OA
ENDBRANCH   4   5
ENDBRANCH   3   4
ENDBRANCH   2   3
ENDBRANCH   1   2
BRANCH   1   8
ATOM      8  C   UNL     1      -5.448  35.960  19.969  1.00  0.00     0.000 C 
BRANCH   8   9
ATOM      9  C   UNL     1      -5.100  36.832  21.184  1.00  0.00     0.000 C 
BRANCH   9  10
ATOM     10  C   UNL     1      -4.995  36.021  22.490  1.00  0.00     0.006 C 
BRANCH  10  11
ATOM     11  C   UNL     1      -5.772  36.622  23.671  1.00  0.00     0.053 C 
BRANCH  11  12
ATOM     12  C   UNL     1      -4.964  37.641  24.413  1.00  0.00     0.041 C 
ATOM     13  O   UNL     1      -4.518  37.382  25.562  1.00  0.00    -0.550 OA
ATOM     14  O   UNL     1      -4.728  38.888  23.849  1.00  0.00    -0.550 OA
ENDBRANCH  11  12
ENDBRANCH  10  11
ENDBRANCH   9  10
ENDBRANCH   8   9
ENDBRANCH   1   8
TORSDOF 9
ENDMDL
MODEL 6
REMARK VINA RESULT:    -4.981      0.690      7.809
REMARK INTER + INTRA:          -7.961
REMARK INTER:                  -7.571
REMARK INTRA:                  -0.390
REMARK UNBOUND:                -0.360
REMARK SMILES O=C([O-])CCCCCCCCC(=O)[O-]
REMARK SMILES IDX 7 1 6 2 5 3 4 4 2 5 1 6 3 7 8 8 9 9 10 10 11 11 12 12 13 13
REMARK SMILES IDX 14 14
REMARK H PARENT
REMARK Flexibility Score: inf
ROOT
ATOM      1  C   UNL     1      -4.288  35.823  19.049  1.00  0.00     0.000 C 
ENDROOT
BRANCH   1   2
ATOM      2  C   UNL     1      -3.800  37.208  18.587  1.00  0.00     0.000 C 
BRANCH   2   3
ATOM      3  C   UNL     1      -2.719  37.185  17.492  1.00  0.00     0.006 C 
BRANCH   3   4
ATOM      4  C   UNL     1      -3.022  36.180  16.373  1.00  0.00     0.053 C 
BRANCH   4   5
ATOM      5  C   UNL     1      -3.049  36.871  15.046  1.00  0.00     0.041 C 
ATOM      6  O   UNL     1      -2.375  36.420  14.083  1.00  0.00    -0.550 OA
ATOM      7  O   UNL     1      -3.859  37.984  14.858  1.00  0.00    -0.550 OA
ENDBRANCH   4   5
ENDBRANCH   3   4
ENDBRANCH   2   3
ENDBRANCH   1   2
BRANCH   1   8
ATOM      8  C   UNL     1      -4.793  35.819  20.500  1.00  0.00     0.000 C 
BRANCH   8   9
ATOM      9  C   UNL     1      -5.350  37.196  20.890  1.00  0.00     0.000 C 
BRANCH   9  10
ATOM     10  C   UNL     1      -4.558  37.859  22.033  1.00  0.00     0.006 C 
BRANCH  10  11
ATOM     11  C   UNL     1      -5.365  38.062  23.325  1.00  0.00     0.053 C 
BRANCH  11  12
ATOM     12  C   UNL     1      -5.097  36.983  24.328  1.00  0.00     0.041 C 
ATOM     13  O   UNL     1      -4.615  37.269  25.455  1.00  0.00    -0.550 OA
ATOM     14  O   UNL     1      -5.352  35.656  24.005  1.00  0.00    -0.550 OA
ENDBRANCH  11  12
ENDBRANCH  10  11
ENDBRANCH   9  10
ENDBRANCH   8   9
ENDBRANCH   1   8
TORSDOF 9
ENDMDL
MODEL 7
REMARK VINA RESULT:    -4.872      2.464      6.273
REMARK INTER + INTRA:          -7.795
REMARK INTER:                  -6.962
REMARK INTRA:                  -0.833
REMARK UNBOUND:                -0.360
REMARK SMILES O=C([O-])CCCCCCCCC(=O)[O-]
REMARK SMILES IDX 7 1 6 2 5 3 4 4 2 5 1 6 3 7 8 8 9 9 10 10 11 11 12 12 13 13
REMARK SMILES IDX 14 14
REMARK H PARENT
REMARK Flexibility Score: inf
ROOT
ATOM      1  C   UNL     1      -4.755  35.387  21.809  1.00  0.00     0.000 C 
ENDROOT
BRANCH   1   2
ATOM      2  C   UNL     1      -5.752  35.852  20.733  1.00  0.00     0.000 C 
BRANCH   2   3
ATOM      3  C   UNL     1      -5.120  36.570  19.527  1.00  0.00     0.006 C 
BRANCH   3   4
ATOM      4  C   UNL     1      -3.639  36.218  19.330  1.00  0.00     0.053 C 
BRANCH   4   5
ATOM      5  C   UNL     1      -2.973  37.235  18.458  1.00  0.00     0.041 C 
ATOM      6  O   UNL     1      -3.376  37.422  17.280  1.00  0.00    -0.550 OA
ATOM      7  O   UNL     1      -1.937  38.012  18.962  1.00  0.00    -0.550 OA
ENDBRANCH   4   5
ENDBRANCH   3   4
ENDBRANCH   2   3
ENDBRANCH   1   2
BRANCH   1   8
ATOM      8  C   UNL     1      -5.388  35.278  23.205  1.00  0.00     0.000 C 
BRANCH   8   9
ATOM      9  C   UNL     1      -5.991  36.622  23.640  1.00  0.00     0.000 C 
BRANCH   9  10
ATOM     10  C   UNL     1      -4.971  37.533  24.349  1.00  0.00     0.006 C 
BRANCH  10  11
ATOM     11  C   UNL     1      -5.029  39.005  23.914  1.00  0.00     0.053 C 
BRANCH  11  12
ATOM     12  C   UNL     1      -4.931  39.154  22.427  1.00  0.00     0.041 C 
ATOM     13  O   UNL     1      -3.903  38.758  21.817  1.00  0.00    -0.550 OA
ATOM     14  O   UNL     1      -5.962  39.758  21.719  1.00  0.00    -0.550 OA
ENDBRANCH  11  12
ENDBRANCH  10  11
ENDBRANCH   9  10
ENDBRANCH   8   9
ENDBRANCH   1   8
TORSDOF 9
ENDMDL
MODEL 8
REMARK VINA RESULT:    -4.645      2.501      3.652
REMARK INTER + INTRA:          -7.449
REMARK INTER:                  -6.674
REMARK INTRA:                  -0.775
REMARK UNBOUND:                -0.360
REMARK SMILES O=C([O-])CCCCCCCCC(=O)[O-]
REMARK SMILES IDX 7 1 6 2 5 3 4 4 2 5 1 6 3 7 8 8 9 9 10 10 11 11 12 12 13 13
REMARK SMILES IDX 14 14
REMARK H PARENT
REMARK Flexibility Score: inf
ROOT
ATOM      1  C   UNL     1      -5.617  35.297  23.672  1.00  0.00     0.000 C 
ENDROOT
BRANCH   1   2
ATOM      2  C   UNL     1      -6.014  36.765  23.903  1.00  0.00     0.000 C 
BRANCH   2   3
ATOM      3  C   UNL     1      -4.886  37.669  24.432  1.00  0.00     0.006 C 
BRANCH   3   4
ATOM      4  C   UNL     1      -4.951  39.096  23.874  1.00  0.00     0.053 C 
BRANCH   4   5
ATOM      5  C   UNL     1      -4.944  39.072  22.377  1.00  0.00     0.041 C 
ATOM      6  O   UNL     1      -3.997  38.521  21.757  1.00  0.00    -0.550 OA
ATOM      7  O   UNL     1      -6.008  39.615  21.668  1.00  0.00    -0.550 OA
ENDBRANCH   4   5
ENDBRANCH   3   4
ENDBRANCH   2   3
ENDBRANCH   1   2
BRANCH   1   8
ATOM      8  C   UNL     1      -5.150  35.021  22.235  1.00  0.00     0.000 C 
BRANCH   8   9
ATOM      9  C   UNL     1      -6.081  35.697  21.217  1.00  0.00     0.000 C 
BRANCH   9  10
ATOM     10  C   UNL     1      -5.446  35.825  19.820  1.00  0.00     0.006 C 
BRANCH  10  11
ATOM     11  C   UNL     1      -3.909  35.804  19.820  1.00  0.00     0.053 C 
BRANCH  11  12
ATOM     12  C   UNL     1      -3.340  36.528  18.639  1.00  0.00     0.041 C 
ATOM     13  O   UNL     1      -2.734  37.620  18.797  1.00  0.00    -0.550 OA
ATOM     14  O   UNL     1      -3.506  36.012  17.360  1.00  0.00    -0.550 OA
ENDBRANCH  11  12
ENDBRANCH  10  11
ENDBRANCH   9  10
ENDBRANCH   8   9
ENDBRANCH   1   8
TORSDOF 9
ENDMDL
