MODEL 1
REMARK VINA RESULT:    -7.544      0.000      0.000
REMARK INTER + INTRA:         -10.995
REMARK INTER:                  -9.970
REMARK INTRA:                  -1.025
REMARK UNBOUND:                -1.025
REMARK SMILES CC[C@H](C=C[C@@H](C)[C@@H]1CC[C@@H]2C3=CC[C@@H]4C[C@H](O)CC[C@@]4(C)[C@H]3CC[C@@]21C)C(C)C
REMARK SMILES IDX 6 1 7 2 5 3 4 4 3 5 2 6 1 7 28 8 29 9 30 10 8 11 9 12 26 13
REMARK SMILES IDX 10 14 11 15 25 16 27 17 12 18 24 19 23 20 13 21 21 22 14 23
REMARK SMILES IDX 15 24 20 25 22 26 16 27 19 28 17 29 18 30
REMARK H PARENT 18 31
REMARK Flexibility Score: inf
ROOT
ATOM      1  C   UNL     1     115.641 126.203 126.855  1.00  0.00     0.012 C 
ATOM      2  C   UNL     1     115.769 126.752 128.282  1.00  0.00     0.012 C 
ENDROOT
BRANCH   1   3
ATOM      3  C   UNL     1     116.054 127.251 125.838  1.00  0.00    -0.028 C 
ATOM      4  C   UNL     1     115.953 128.563 126.109  1.00  0.00    -0.027 C 
BRANCH   4   5
ATOM      5  C   UNL     1     116.448 129.620 125.143  1.00  0.00     0.014 C 
BRANCH   5   6
ATOM      6  C   UNL     1     115.298 130.616 124.862  1.00  0.00     0.004 C 
ATOM      7  C   UNL     1     114.206 130.601 125.932  1.00  0.00     0.004 C 
ENDBRANCH   5   6
BRANCH   5   8
ATOM      8  C   UNL     1     117.762 130.291 125.654  1.00  0.00    -0.011 C 
ATOM      9  C   UNL     1     117.874 131.745 125.165  1.00  0.00     0.008 C 
ATOM     10  C   UNL     1     119.036 129.512 125.283  1.00  0.00     0.008 C 
ENDBRANCH   5   8
ENDBRANCH   4   5
ENDBRANCH   1   3
BRANCH   1  11
ATOM     11  C   UNL     1     114.261 125.501 126.594  1.00  0.00     0.002 C 
ATOM     12  C   UNL     1     113.343 125.458 127.833  1.00  0.00     0.005 C 
ATOM     13  C   UNL     1     114.174 124.079 125.951  1.00  0.00    -0.023 C 
ATOM     14  C   UNL     1     112.409 124.258 127.648  1.00  0.00     0.009 C 
ATOM     15  C   UNL     1     112.703 123.709 126.251  1.00  0.00     0.021 C 
ATOM     16  C   UNL     1     115.141 123.053 126.616  1.00  0.00     0.008 C 
ATOM     17  C   UNL     1     114.394 124.110 124.416  1.00  0.00     0.012 C 
ATOM     18  C   UNL     1     112.423 122.220 126.092  1.00  0.00    -0.067 C 
ATOM     19  C   UNL     1     114.810 121.588 126.283  1.00  0.00     0.009 C 
ATOM     20  C   UNL     1     113.381 121.233 126.759  1.00  0.00     0.021 C 
ATOM     21  C   UNL     1     111.496 121.831 125.187  1.00  0.00    -0.027 C 
ATOM     22  C   UNL     1     112.945 119.722 126.587  1.00  0.00    -0.023 C 
ATOM     23  C   UNL     1     111.241 120.399 124.810  1.00  0.00     0.031 C 
ATOM     24  C   UNL     1     112.444 119.499 125.125  1.00  0.00     0.002 C 
ATOM     25  C   UNL     1     114.125 118.737 126.864  1.00  0.00     0.010 C 
ATOM     26  C   UNL     1     111.818 119.450 127.631  1.00  0.00     0.012 C 
ATOM     27  C   UNL     1     112.102 118.022 124.817  1.00  0.00     0.036 C 
ATOM     28  C   UNL     1     113.756 117.271 126.595  1.00  0.00     0.032 C 
ATOM     29  C   UNL     1     113.281 117.089 125.144  1.00  0.00     0.114 C 
BRANCH  29  30
ATOM     30  O   UNL     1     112.936 115.749 124.899  1.00  0.00    -0.393 OA
ATOM     31  H   UNL     1     112.101 115.746 124.360  1.00  0.00     0.210 HD
ENDBRANCH  29  30
ENDBRANCH   1  11
TORSDOF 6
ENDMDL
MODEL 2
REMARK VINA RESULT:    -7.392      1.504      2.840
REMARK INTER + INTRA:         -10.794
REMARK INTER:                 -10.190
REMARK INTRA:                  -0.604
REMARK UNBOUND:                -1.025
REMARK SMILES CC[C@H](C=C[C@@H](C)[C@@H]1CC[C@@H]2C3=CC[C@@H]4C[C@H](O)CC[C@@]4(C)[C@H]3CC[C@@]21C)C(C)C
REMARK SMILES IDX 6 1 7 2 5 3 4 4 3 5 2 6 1 7 28 8 29 9 30 10 8 11 9 12 26 13
REMARK SMILES IDX 10 14 11 15 25 16 27 17 12 18 24 19 23 20 13 21 21 22 14 23
REMARK SMILES IDX 15 24 20 25 22 26 16 27 19 28 17 29 18 30
REMARK H PARENT 18 31
REMARK Flexibility Score: inf
ROOT
ATOM      1  C   UNL     1     115.341 125.465 126.884  1.00  0.00     0.012 C 
ATOM      2  C   UNL     1     113.949 125.982 127.273  1.00  0.00     0.012 C 
ENDROOT
BRANCH   1   3
ATOM      3  C   UNL     1     116.255 126.617 126.505  1.00  0.00    -0.028 C 
ATOM      4  C   UNL     1     115.859 127.894 126.641  1.00  0.00    -0.027 C 
BRANCH   4   5
ATOM      5  C   UNL     1     116.791 129.054 126.357  1.00  0.00     0.014 C 
BRANCH   5   6
ATOM      6  C   UNL     1     117.838 128.607 125.309  1.00  0.00     0.004 C 
ATOM      7  C   UNL     1     119.045 129.540 125.220  1.00  0.00     0.004 C 
ENDBRANCH   5   6
BRANCH   5   8
ATOM      8  C   UNL     1     115.999 130.339 125.958  1.00  0.00    -0.011 C 
ATOM      9  C   UNL     1     116.458 131.556 126.779  1.00  0.00     0.008 C 
ATOM     10  C   UNL     1     114.472 130.179 126.063  1.00  0.00     0.008 C 
ENDBRANCH   5   8
ENDBRANCH   4   5
ENDBRANCH   1   3
BRANCH   1  11
ATOM     11  C   UNL     1     115.285 124.271 125.867  1.00  0.00     0.002 C 
ATOM     12  C   UNL     1     114.558 124.612 124.549  1.00  0.00     0.005 C 
ATOM     13  C   UNL     1     114.761 122.860 126.288  1.00  0.00    -0.023 C 
ATOM     14  C   UNL     1     114.022 123.292 123.987  1.00  0.00     0.009 C 
ATOM     15  C   UNL     1     114.561 122.195 124.907  1.00  0.00     0.021 C 
ATOM     16  C   UNL     1     113.411 122.922 127.064  1.00  0.00     0.008 C 
ATOM     17  C   UNL     1     115.812 122.058 127.099  1.00  0.00     0.012 C 
ATOM     18  C   UNL     1     113.689 120.947 124.972  1.00  0.00    -0.067 C 
ATOM     19  C   UNL     1     112.685 121.567 127.149  1.00  0.00     0.009 C 
ATOM     20  C   UNL     1     112.366 121.034 125.732  1.00  0.00     0.021 C 
ATOM     21  C   UNL     1     114.216 119.769 124.568  1.00  0.00    -0.027 C 
ATOM     22  C   UNL     1     111.515 119.702 125.665  1.00  0.00    -0.023 C 
ATOM     23  C   UNL     1     113.531 118.442 124.732  1.00  0.00     0.031 C 
ATOM     24  C   UNL     1     112.469 118.478 125.840  1.00  0.00     0.002 C 
ATOM     25  C   UNL     1     110.425 119.647 126.782  1.00  0.00     0.010 C 
ATOM     26  C   UNL     1     110.803 119.683 124.278  1.00  0.00     0.012 C 
ATOM     27  C   UNL     1     111.720 117.126 125.908  1.00  0.00     0.036 C 
ATOM     28  C   UNL     1     109.661 118.314 126.807  1.00  0.00     0.032 C 
ATOM     29  C   UNL     1     110.631 117.137 126.995  1.00  0.00     0.114 C 
BRANCH  29  30
ATOM     30  O   UNL     1     109.934 115.917 127.010  1.00  0.00    -0.393 OA
ATOM     31  H   UNL     1     110.144 115.438 126.165  1.00  0.00     0.210 HD
ENDBRANCH  29  30
ENDBRANCH   1  11
TORSDOF 6
ENDMDL
MODEL 3
REMARK VINA RESULT:    -7.248      4.012     10.009
REMARK INTER + INTRA:         -10.604
REMARK INTER:                  -9.556
REMARK INTRA:                  -1.048
REMARK UNBOUND:                -1.025
REMARK SMILES CC[C@H](C=C[C@@H](C)[C@@H]1CC[C@@H]2C3=CC[C@@H]4C[C@H](O)CC[C@@]4(C)[C@H]3CC[C@@]21C)C(C)C
REMARK SMILES IDX 6 1 7 2 5 3 4 4 3 5 2 6 1 7 28 8 29 9 30 10 8 11 9 12 26 13
REMARK SMILES IDX 10 14 11 15 25 16 27 17 12 18 24 19 23 20 13 21 21 22 14 23
REMARK SMILES IDX 15 24 20 25 22 26 16 27 19 28 17 29 18 30
REMARK H PARENT 18 31
REMARK Flexibility Score: inf
ROOT
ATOM      1  C   UNL     1     109.640 116.219 125.558  1.00  0.00     0.012 C 
ATOM      2  C   UNL     1     109.941 116.168 127.063  1.00  0.00     0.012 C 
ENDROOT
BRANCH   1   3
ATOM      3  C   UNL     1     110.535 115.256 124.800  1.00  0.00    -0.028 C 
ATOM      4  C   UNL     1     111.850 115.171 125.065  1.00  0.00    -0.027 C 
BRANCH   4   5
ATOM      5  C   UNL     1     112.738 114.150 124.384  1.00  0.00     0.014 C 
BRANCH   5   6
ATOM      6  C   UNL     1     111.880 113.321 123.399  1.00  0.00     0.004 C 
ATOM      7  C   UNL     1     112.594 113.012 122.083  1.00  0.00     0.004 C 
ENDBRANCH   5   6
BRANCH   5   8
ATOM      8  C   UNL     1     113.986 114.824 123.730  1.00  0.00    -0.011 C 
ATOM      9  C   UNL     1     115.277 114.459 124.483  1.00  0.00     0.008 C 
ATOM     10  C   UNL     1     113.865 116.352 123.602  1.00  0.00     0.008 C 
ENDBRANCH   5   8
ENDBRANCH   4   5
ENDBRANCH   1   3
BRANCH   1  11
ATOM     11  C   UNL     1     109.580 117.684 124.999  1.00  0.00     0.002 C 
ATOM     12  C   UNL     1     109.806 117.778 123.476  1.00  0.00     0.005 C 
ATOM     13  C   UNL     1     110.431 118.836 125.626  1.00  0.00    -0.023 C 
ATOM     14  C   UNL     1     110.354 119.180 123.196  1.00  0.00     0.009 C 
ATOM     15  C   UNL     1     110.308 119.923 124.533  1.00  0.00     0.021 C 
ATOM     16  C   UNL     1     111.924 118.441 125.836  1.00  0.00     0.008 C 
ATOM     17  C   UNL     1     109.823 119.367 126.950  1.00  0.00     0.012 C 
ATOM     18  C   UNL     1     111.351 121.024 124.674  1.00  0.00    -0.067 C 
ATOM     19  C   UNL     1     112.854 119.643 126.077  1.00  0.00     0.009 C 
ATOM     20  C   UNL     1     112.810 120.612 124.872  1.00  0.00     0.021 C 
ATOM     21  C   UNL     1     110.927 122.296 124.855  1.00  0.00    -0.027 C 
ATOM     22  C   UNL     1     113.806 121.839 124.929  1.00  0.00    -0.023 C 
ATOM     23  C   UNL     1     111.838 123.447 125.172  1.00  0.00     0.031 C 
ATOM     24  C   UNL     1     113.166 122.978 125.784  1.00  0.00     0.002 C 
ATOM     25  C   UNL     1     115.178 121.451 125.566  1.00  0.00     0.010 C 
ATOM     26  C   UNL     1     114.056 122.294 123.458  1.00  0.00     0.012 C 
ATOM     27  C   UNL     1     114.111 124.183 126.001  1.00  0.00     0.036 C 
ATOM     28  C   UNL     1     116.122 122.651 125.734  1.00  0.00     0.032 C 
ATOM     29  C   UNL     1     115.461 123.743 126.592  1.00  0.00     0.114 C 
BRANCH  29  30
ATOM     30  O   UNL     1     116.321 124.845 126.740  1.00  0.00    -0.393 OA
ATOM     31  H   UNL     1     116.485 124.972 127.711  1.00  0.00     0.210 HD
ENDBRANCH  29  30
ENDBRANCH   1  11
TORSDOF 6
ENDMDL
MODEL 4
REMARK VINA RESULT:    -7.130      5.001      9.573
REMARK INTER + INTRA:         -10.447
REMARK INTER:                  -9.264
REMARK INTRA:                  -1.183
REMARK UNBOUND:                -1.025
REMARK SMILES CC[C@H](C=C[C@@H](C)[C@@H]1CC[C@@H]2C3=CC[C@@H]4C[C@H](O)CC[C@@]4(C)[C@H]3CC[C@@]21C)C(C)C
REMARK SMILES IDX 6 1 7 2 5 3 4 4 3 5 2 6 1 7 28 8 29 9 30 10 8 11 9 12 26 13
REMARK SMILES IDX 10 14 11 15 25 16 27 17 12 18 24 19 23 20 13 21 21 22 14 23
REMARK SMILES IDX 15 24 20 25 22 26 16 27 19 28 17 29 18 30
REMARK H PARENT 18 31
REMARK Flexibility Score: inf
ROOT
ATOM      1  C   UNL     1     109.664 116.800 127.637  1.00  0.00     0.012 C 
ATOM      2  C   UNL     1     109.803 115.973 128.922  1.00  0.00     0.012 C 
ENDROOT
BRANCH   1   3
ATOM      3  C   UNL     1     110.102 115.992 126.429  1.00  0.00    -0.028 C 
ATOM      4  C   UNL     1     109.661 116.291 125.195  1.00  0.00    -0.027 C 
BRANCH   4   5
ATOM      5  C   UNL     1     110.161 115.555 123.968  1.00  0.00     0.014 C 
BRANCH   5   6
ATOM      6  C   UNL     1     110.145 116.527 122.764  1.00  0.00     0.004 C 
ATOM      7  C   UNL     1     109.932 117.987 123.164  1.00  0.00     0.004 C 
ENDBRANCH   5   6
BRANCH   5   8
ATOM      8  C   UNL     1     111.547 114.885 124.228  1.00  0.00    -0.011 C 
ATOM      9  C   UNL     1     112.630 115.463 123.302  1.00  0.00     0.008 C 
ATOM     10  C   UNL     1     111.520 113.351 124.116  1.00  0.00     0.008 C 
ENDBRANCH   5   8
ENDBRANCH   4   5
ENDBRANCH   1   3
BRANCH   1  11
ATOM     11  C   UNL     1     110.290 118.234 127.766  1.00  0.00     0.002 C 
ATOM     12  C   UNL     1     109.538 119.315 126.962  1.00  0.00     0.005 C 
ATOM     13  C   UNL     1     111.809 118.492 127.506  1.00  0.00    -0.023 C 
ATOM     14  C   UNL     1     110.552 120.420 126.652  1.00  0.00     0.009 C 
ATOM     15  C   UNL     1     111.833 120.033 127.394  1.00  0.00     0.021 C 
ATOM     16  C   UNL     1     112.316 117.842 126.183  1.00  0.00     0.008 C 
ATOM     17  C   UNL     1     112.697 118.049 128.699  1.00  0.00     0.012 C 
ATOM     18  C   UNL     1     113.111 120.561 126.754  1.00  0.00    -0.067 C 
ATOM     19  C   UNL     1     113.673 118.389 125.706  1.00  0.00     0.009 C 
ATOM     20  C   UNL     1     113.584 119.912 125.453  1.00  0.00     0.021 C 
ATOM     21  C   UNL     1     113.891 121.403 127.469  1.00  0.00    -0.027 C 
ATOM     22  C   UNL     1     114.876 120.594 124.847  1.00  0.00    -0.023 C 
ATOM     23  C   UNL     1     115.251 121.864 127.029  1.00  0.00     0.031 C 
ATOM     24  C   UNL     1     115.877 120.910 126.002  1.00  0.00     0.002 C 
ATOM     25  C   UNL     1     115.591 119.673 123.807  1.00  0.00     0.010 C 
ATOM     26  C   UNL     1     114.409 121.891 124.117  1.00  0.00     0.012 C 
ATOM     27  C   UNL     1     117.228 121.474 125.502  1.00  0.00     0.036 C 
ATOM     28  C   UNL     1     116.909 120.266 123.288  1.00  0.00     0.032 C 
ATOM     29  C   UNL     1     117.872 120.550 124.453  1.00  0.00     0.114 C 
BRANCH  29  30
ATOM     30  O   UNL     1     119.074 121.101 123.979  1.00  0.00    -0.393 OA
ATOM     31  H   UNL     1     119.582 120.376 123.528  1.00  0.00     0.210 HD
ENDBRANCH  29  30
ENDBRANCH   1  11
TORSDOF 6
ENDMDL
MODEL 5
REMARK VINA RESULT:    -7.095      3.595      9.609
REMARK INTER + INTRA:         -10.401
REMARK INTER:                  -9.533
REMARK INTRA:                  -0.868
REMARK UNBOUND:                -1.025
REMARK SMILES CC[C@H](C=C[C@@H](C)[C@@H]1CC[C@@H]2C3=CC[C@@H]4C[C@H](O)CC[C@@]4(C)[C@H]3CC[C@@]21C)C(C)C
REMARK SMILES IDX 6 1 7 2 5 3 4 4 3 5 2 6 1 7 28 8 29 9 30 10 8 11 9 12 26 13
REMARK SMILES IDX 10 14 11 15 25 16 27 17 12 18 24 19 23 20 13 21 21 22 14 23
REMARK SMILES IDX 15 24 20 25 22 26 16 27 19 28 17 29 18 30
REMARK H PARENT 18 31
REMARK Flexibility Score: inf
ROOT
ATOM      1  C   UNL     1     110.964 116.777 126.137  1.00  0.00     0.012 C 
ATOM      2  C   UNL     1     110.064 115.674 125.563  1.00  0.00     0.012 C 
ENDROOT
BRANCH   1   3
ATOM      3  C   UNL     1     110.977 116.724 127.654  1.00  0.00    -0.028 C 
ATOM      4  C   UNL     1     112.131 116.641 128.338  1.00  0.00    -0.027 C 
BRANCH   4   5
ATOM      5  C   UNL     1     112.167 116.682 129.852  1.00  0.00     0.014 C 
BRANCH   5   6
ATOM      6  C   UNL     1     110.938 115.920 130.400  1.00  0.00     0.004 C 
ATOM      7  C   UNL     1     109.925 116.825 131.102  1.00  0.00     0.004 C 
ENDBRANCH   5   6
BRANCH   5   8
ATOM      8  C   UNL     1     113.534 116.169 130.405  1.00  0.00    -0.011 C 
ATOM      9  C   UNL     1     114.715 116.781 129.633  1.00  0.00     0.008 C 
ATOM     10  C   UNL     1     113.655 114.635 130.422  1.00  0.00     0.008 C 
ENDBRANCH   5   8
ENDBRANCH   4   5
ENDBRANCH   1   3
BRANCH   1  11
ATOM     11  C   UNL     1     110.680 118.185 125.503  1.00  0.00     0.002 C 
ATOM     12  C   UNL     1     110.956 118.250 123.987  1.00  0.00     0.005 C 
ATOM     13  C   UNL     1     111.292 119.492 126.102  1.00  0.00    -0.023 C 
ATOM     14  C   UNL     1     111.269 119.713 123.658  1.00  0.00     0.009 C 
ATOM     15  C   UNL     1     111.035 120.493 124.953  1.00  0.00     0.021 C 
ATOM     16  C   UNL     1     112.819 119.370 126.388  1.00  0.00     0.008 C 
ATOM     17  C   UNL     1     110.542 119.966 127.375  1.00  0.00     0.012 C 
ATOM     18  C   UNL     1     111.867 121.763 125.077  1.00  0.00    -0.067 C 
ATOM     19  C   UNL     1     113.517 120.725 126.604  1.00  0.00     0.009 C 
ATOM     20  C   UNL     1     113.364 121.618 125.350  1.00  0.00     0.021 C 
ATOM     21  C   UNL     1     111.224 122.949 125.177  1.00  0.00    -0.027 C 
ATOM     22  C   UNL     1     114.132 123.001 125.383  1.00  0.00    -0.023 C 
ATOM     23  C   UNL     1     111.910 124.253 125.470  1.00  0.00     0.031 C 
ATOM     24  C   UNL     1     113.268 124.047 126.155  1.00  0.00     0.002 C 
ATOM     25  C   UNL     1     115.520 122.883 126.090  1.00  0.00     0.010 C 
ATOM     26  C   UNL     1     114.369 123.428 123.902  1.00  0.00     0.012 C 
ATOM     27  C   UNL     1     113.983 125.406 126.346  1.00  0.00     0.036 C 
ATOM     28  C   UNL     1     116.236 124.235 126.234  1.00  0.00     0.032 C 
ATOM     29  C   UNL     1     115.360 125.232 127.010  1.00  0.00     0.114 C 
BRANCH  29  30
ATOM     30  O   UNL     1     116.010 126.471 127.135  1.00  0.00    -0.393 OA
ATOM     31  H   UNL     1     115.483 127.027 127.767  1.00  0.00     0.210 HD
ENDBRANCH  29  30
ENDBRANCH   1  11
TORSDOF 6
ENDMDL
MODEL 6
REMARK VINA RESULT:    -7.085      3.568      6.080
REMARK INTER + INTRA:         -10.388
REMARK INTER:                  -8.995
REMARK INTRA:                  -1.394
REMARK UNBOUND:                -1.025
REMARK SMILES CC[C@H](C=C[C@@H](C)[C@@H]1CC[C@@H]2C3=CC[C@@H]4C[C@H](O)CC[C@@]4(C)[C@H]3CC[C@@]21C)C(C)C
REMARK SMILES IDX 6 1 7 2 5 3 4 4 3 5 2 6 1 7 28 8 29 9 30 10 8 11 9 12 26 13
REMARK SMILES IDX 10 14 11 15 25 16 27 17 12 18 24 19 23 20 13 21 21 22 14 23
REMARK SMILES IDX 15 24 20 25 22 26 16 27 19 28 17 29 18 30
REMARK H PARENT 18 31
REMARK Flexibility Score: inf
ROOT
ATOM      1  C   UNL     1     115.595 123.170 124.542  1.00  0.00     0.012 C 
ATOM      2  C   UNL     1     115.860 124.671 124.363  1.00  0.00     0.012 C 
ENDROOT
BRANCH   1   3
ATOM      3  C   UNL     1     116.610 122.349 123.769  1.00  0.00    -0.028 C 
ATOM      4  C   UNL     1     117.276 121.338 124.351  1.00  0.00    -0.027 C 
BRANCH   4   5
ATOM      5  C   UNL     1     118.223 120.449 123.570  1.00  0.00     0.014 C 
BRANCH   5   6
ATOM      6  C   UNL     1     119.643 120.586 124.168  1.00  0.00     0.004 C 
ATOM      7  C   UNL     1     120.618 121.330 123.255  1.00  0.00     0.004 C 
ENDBRANCH   5   6
BRANCH   5   8
ATOM      8  C   UNL     1     117.700 118.979 123.500  1.00  0.00    -0.011 C 
ATOM      9  C   UNL     1     116.921 118.725 122.198  1.00  0.00     0.008 C 
ATOM     10  C   UNL     1     116.847 118.570 124.713  1.00  0.00     0.008 C 
ENDBRANCH   5   8
ENDBRANCH   4   5
ENDBRANCH   1   3
BRANCH   1  11
ATOM     11  C   UNL     1     114.089 122.788 124.316  1.00  0.00     0.002 C 
ATOM     12  C   UNL     1     113.094 123.816 124.892  1.00  0.00     0.005 C 
ATOM     13  C   UNL     1     113.530 121.385 124.720  1.00  0.00    -0.023 C 
ATOM     14  C   UNL     1     111.795 123.058 125.184  1.00  0.00     0.009 C 
ATOM     15  C   UNL     1     112.008 121.641 124.649  1.00  0.00     0.021 C 
ATOM     16  C   UNL     1     113.945 120.960 126.161  1.00  0.00     0.008 C 
ATOM     17  C   UNL     1     113.915 120.280 123.701  1.00  0.00     0.012 C 
ATOM     18  C   UNL     1     111.193 120.572 125.366  1.00  0.00    -0.067 C 
ATOM     19  C   UNL     1     113.113 119.794 126.724  1.00  0.00     0.009 C 
ATOM     20  C   UNL     1     111.615 120.177 126.782  1.00  0.00     0.021 C 
ATOM     21  C   UNL     1     110.294 119.857 124.651  1.00  0.00    -0.027 C 
ATOM     22  C   UNL     1     110.650 119.115 127.449  1.00  0.00    -0.023 C 
ATOM     23  C   UNL     1     109.549 118.669 125.190  1.00  0.00     0.031 C 
ATOM     24  C   UNL     1     110.267 118.035 126.389  1.00  0.00     0.002 C 
ATOM     25  C   UNL     1     111.318 118.402 128.667  1.00  0.00     0.010 C 
ATOM     26  C   UNL     1     109.397 119.892 127.959  1.00  0.00     0.012 C 
ATOM     27  C   UNL     1     109.418 116.882 126.973  1.00  0.00     0.036 C 
ATOM     28  C   UNL     1     110.444 117.288 129.263  1.00  0.00     0.032 C 
ATOM     29  C   UNL     1     110.101 116.239 128.193  1.00  0.00     0.114 C 
BRANCH  29  30
ATOM     30  O   UNL     1     109.293 115.224 128.735  1.00  0.00    -0.393 OA
ATOM     31  H   UNL     1     109.052 115.492 129.661  1.00  0.00     0.210 HD
ENDBRANCH  29  30
ENDBRANCH   1  11
TORSDOF 6
ENDMDL
MODEL 7
REMARK VINA RESULT:    -7.015      3.920     10.405
REMARK INTER + INTRA:         -10.296
REMARK INTER:                  -9.036
REMARK INTRA:                  -1.260
REMARK UNBOUND:                -1.025
REMARK SMILES CC[C@H](C=C[C@@H](C)[C@@H]1CC[C@@H]2C3=CC[C@@H]4C[C@H](O)CC[C@@]4(C)[C@H]3CC[C@@]21C)C(C)C
REMARK SMILES IDX 6 1 7 2 5 3 4 4 3 5 2 6 1 7 28 8 29 9 30 10 8 11 9 12 26 13
REMARK SMILES IDX 10 14 11 15 25 16 27 17 12 18 24 19 23 20 13 21 21 22 14 23
REMARK SMILES IDX 15 24 20 25 22 26 16 27 19 28 17 29 18 30
REMARK H PARENT 18 31
REMARK Flexibility Score: inf
ROOT
ATOM      1  C   UNL     1     110.366 116.589 123.344  1.00  0.00     0.012 C 
ATOM      2  C   UNL     1     109.171 116.365 122.407  1.00  0.00     0.012 C 
ENDROOT
BRANCH   1   3
ATOM      3  C   UNL     1     110.877 115.268 123.888  1.00  0.00    -0.028 C 
ATOM      4  C   UNL     1     112.039 114.743 123.465  1.00  0.00    -0.027 C 
BRANCH   4   5
ATOM      5  C   UNL     1     112.609 113.474 124.065  1.00  0.00     0.014 C 
BRANCH   5   6
ATOM      6  C   UNL     1     112.616 112.369 122.982  1.00  0.00     0.004 C 
ATOM      7  C   UNL     1     112.681 112.917 121.556  1.00  0.00     0.004 C 
ENDBRANCH   5   6
BRANCH   5   8
ATOM      8  C   UNL     1     114.001 113.728 124.725  1.00  0.00    -0.011 C 
ATOM      9  C   UNL     1     114.578 115.091 124.305  1.00  0.00     0.008 C 
ATOM     10  C   UNL     1     115.026 112.615 124.450  1.00  0.00     0.008 C 
ENDBRANCH   5   8
ENDBRANCH   4   5
ENDBRANCH   1   3
BRANCH   1  11
ATOM     11  C   UNL     1     110.102 117.713 124.408  1.00  0.00     0.002 C 
ATOM     12  C   UNL     1     108.990 118.703 124.003  1.00  0.00     0.005 C 
ATOM     13  C   UNL     1     111.263 118.589 124.980  1.00  0.00    -0.023 C 
ATOM     14  C   UNL     1     109.280 120.016 124.736  1.00  0.00     0.009 C 
ATOM     15  C   UNL     1     110.467 119.728 125.657  1.00  0.00     0.021 C 
ATOM     16  C   UNL     1     112.195 119.160 123.868  1.00  0.00     0.008 C 
ATOM     17  C   UNL     1     112.098 117.838 126.050  1.00  0.00     0.012 C 
ATOM     18  C   UNL     1     111.327 120.947 125.968  1.00  0.00    -0.067 C 
ATOM     19  C   UNL     1     113.091 120.316 124.348  1.00  0.00     0.009 C 
ATOM     20  C   UNL     1     112.228 121.493 124.860  1.00  0.00     0.021 C 
ATOM     21  C   UNL     1     111.440 121.346 127.256  1.00  0.00    -0.027 C 
ATOM     22  C   UNL     1     113.013 122.802 125.278  1.00  0.00    -0.023 C 
ATOM     23  C   UNL     1     112.381 122.420 127.722  1.00  0.00     0.031 C 
ATOM     24  C   UNL     1     113.539 122.636 126.739  1.00  0.00     0.002 C 
ATOM     25  C   UNL     1     114.230 123.079 124.339  1.00  0.00     0.010 C 
ATOM     26  C   UNL     1     112.014 123.993 125.157  1.00  0.00     0.012 C 
ATOM     27  C   UNL     1     114.424 123.816 127.205  1.00  0.00     0.036 C 
ATOM     28  C   UNL     1     115.073 124.281 124.792  1.00  0.00     0.032 C 
ATOM     29  C   UNL     1     115.584 124.074 126.227  1.00  0.00     0.114 C 
BRANCH  29  30
ATOM     30  O   UNL     1     116.349 125.176 126.645  1.00  0.00    -0.393 OA
ATOM     31  H   UNL     1     116.195 125.299 127.619  1.00  0.00     0.210 HD
ENDBRANCH  29  30
ENDBRANCH   1  11
TORSDOF 6
ENDMDL
MODEL 8
REMARK VINA RESULT:    -6.997      4.357      8.043
REMARK INTER + INTRA:         -10.271
REMARK INTER:                  -9.348
REMARK INTRA:                  -0.923
REMARK UNBOUND:                -1.025
REMARK SMILES CC[C@H](C=C[C@@H](C)[C@@H]1CC[C@@H]2C3=CC[C@@H]4C[C@H](O)CC[C@@]4(C)[C@H]3CC[C@@]21C)C(C)C
REMARK SMILES IDX 6 1 7 2 5 3 4 4 3 5 2 6 1 7 28 8 29 9 30 10 8 11 9 12 26 13
REMARK SMILES IDX 10 14 11 15 25 16 27 17 12 18 24 19 23 20 13 21 21 22 14 23
REMARK SMILES IDX 15 24 20 25 22 26 16 27 19 28 17 29 18 30
REMARK H PARENT 18 31
REMARK Flexibility Score: inf
ROOT
ATOM      1  C   UNL     1     109.374 119.374 125.916  1.00  0.00     0.012 C 
ATOM      2  C   UNL     1     108.925 119.855 124.529  1.00  0.00     0.012 C 
ENDROOT
BRANCH   1   3
ATOM      3  C   UNL     1     110.534 120.209 126.425  1.00  0.00    -0.028 C 
ATOM      4  C   UNL     1     111.368 120.833 125.575  1.00  0.00    -0.027 C 
BRANCH   4   5
ATOM      5  C   UNL     1     112.473 121.746 126.066  1.00  0.00     0.014 C 
BRANCH   5   6
ATOM      6  C   UNL     1     113.611 121.759 125.018  1.00  0.00     0.004 C 
ATOM      7  C   UNL     1     113.258 121.018 123.728  1.00  0.00     0.004 C 
ENDBRANCH   5   6
BRANCH   5   8
ATOM      8  C   UNL     1     111.926 123.163 126.429  1.00  0.00    -0.011 C 
ATOM      9  C   UNL     1     111.504 123.939 125.169  1.00  0.00     0.008 C 
ATOM     10  C   UNL     1     112.905 124.006 127.264  1.00  0.00     0.008 C 
ENDBRANCH   5   8
ENDBRANCH   4   5
ENDBRANCH   1   3
BRANCH   1  11
ATOM     11  C   UNL     1     109.566 117.817 125.987  1.00  0.00     0.002 C 
ATOM     12  C   UNL     1     110.261 117.335 127.277  1.00  0.00     0.005 C 
ATOM     13  C   UNL     1     110.236 117.021 124.821  1.00  0.00    -0.023 C 
ATOM     14  C   UNL     1     110.940 116.004 126.942  1.00  0.00     0.009 C 
ATOM     15  C   UNL     1     110.516 115.666 125.511  1.00  0.00     0.021 C 
ATOM     16  C   UNL     1     111.567 117.668 124.331  1.00  0.00     0.008 C 
ATOM     17  C   UNL     1     109.273 116.800 123.625  1.00  0.00     0.012 C 
ATOM     18  C   UNL     1     111.518 114.809 124.748  1.00  0.00    -0.067 C 
ATOM     19  C   UNL     1     112.434 116.727 123.477  1.00  0.00     0.009 C 
ATOM     20  C   UNL     1     112.819 115.465 124.284  1.00  0.00     0.021 C 
ATOM     21  C   UNL     1     111.124 113.591 124.309  1.00  0.00    -0.027 C 
ATOM     22  C   UNL     1     113.809 114.457 123.571  1.00  0.00    -0.023 C 
ATOM     23  C   UNL     1     111.948 112.717 123.407  1.00  0.00     0.031 C 
ATOM     24  C   UNL     1     112.992 113.524 122.623  1.00  0.00     0.002 C 
ATOM     25  C   UNL     1     114.892 115.201 122.725  1.00  0.00     0.010 C 
ATOM     26  C   UNL     1     114.529 113.650 124.695  1.00  0.00     0.012 C 
ATOM     27  C   UNL     1     113.882 112.575 121.785  1.00  0.00     0.036 C 
ATOM     28  C   UNL     1     115.795 114.243 121.934  1.00  0.00     0.032 C 
ATOM     29  C   UNL     1     114.956 113.352 121.003  1.00  0.00     0.114 C 
BRANCH  29  30
ATOM     30  O   UNL     1     115.781 112.470 120.285  1.00  0.00    -0.393 OA
ATOM     31  H   UNL     1     116.691 112.867 120.250  1.00  0.00     0.210 HD
ENDBRANCH  29  30
ENDBRANCH   1  11
TORSDOF 6
ENDMDL
MODEL 9
REMARK VINA RESULT:    -6.829      4.935      7.547
REMARK INTER + INTRA:         -10.050
REMARK INTER:                  -8.979
REMARK INTRA:                  -1.072
REMARK UNBOUND:                -1.025
REMARK SMILES CC[C@H](C=C[C@@H](C)[C@@H]1CC[C@@H]2C3=CC[C@@H]4C[C@H](O)CC[C@@]4(C)[C@H]3CC[C@@]21C)C(C)C
REMARK SMILES IDX 6 1 7 2 5 3 4 4 3 5 2 6 1 7 28 8 29 9 30 10 8 11 9 12 26 13
REMARK SMILES IDX 10 14 11 15 25 16 27 17 12 18 24 19 23 20 13 21 21 22 14 23
REMARK SMILES IDX 15 24 20 25 22 26 16 27 19 28 17 29 18 30
REMARK H PARENT 18 31
REMARK Flexibility Score: inf
ROOT
ATOM      1  C   UNL     1     109.992 119.306 124.271  1.00  0.00     0.012 C 
ATOM      2  C   UNL     1     109.822 118.278 123.144  1.00  0.00     0.012 C 
ENDROOT
BRANCH   1   3
ATOM      3  C   UNL     1     111.265 120.109 124.077  1.00  0.00    -0.028 C 
ATOM      4  C   UNL     1     111.479 121.249 124.755  1.00  0.00    -0.027 C 
BRANCH   4   5
ATOM      5  C   UNL     1     112.783 122.013 124.644  1.00  0.00     0.014 C 
BRANCH   5   6
ATOM      6  C   UNL     1     113.279 122.362 126.067  1.00  0.00     0.004 C 
ATOM      7  C   UNL     1     112.275 122.007 127.164  1.00  0.00     0.004 C 
ENDBRANCH   5   6
BRANCH   5   8
ATOM      8  C   UNL     1     113.827 121.238 123.778  1.00  0.00    -0.011 C 
ATOM      9  C   UNL     1     114.728 120.349 124.652  1.00  0.00     0.008 C 
ATOM     10  C   UNL     1     114.689 122.152 122.890  1.00  0.00     0.008 C 
ENDBRANCH   5   8
ENDBRANCH   4   5
ENDBRANCH   1   3
BRANCH   1  11
ATOM     11  C   UNL     1     109.784 118.684 125.698  1.00  0.00     0.002 C 
ATOM     12  C   UNL     1     109.546 119.733 126.804  1.00  0.00     0.005 C 
ATOM     13  C   UNL     1     110.796 117.655 126.299  1.00  0.00    -0.023 C 
ATOM     14  C   UNL     1     110.001 119.097 128.120  1.00  0.00     0.009 C 
ATOM     15  C   UNL     1     110.364 117.649 127.783  1.00  0.00     0.021 C 
ATOM     16  C   UNL     1     112.279 118.115 126.164  1.00  0.00     0.008 C 
ATOM     17  C   UNL     1     110.617 116.234 125.705  1.00  0.00     0.012 C 
ATOM     18  C   UNL     1     111.414 117.037 128.702  1.00  0.00    -0.067 C 
ATOM     19  C   UNL     1     113.251 117.338 127.069  1.00  0.00     0.009 C 
ATOM     20  C   UNL     1     112.860 117.509 128.556  1.00  0.00     0.021 C 
ATOM     21  C   UNL     1     111.077 115.949 129.433  1.00  0.00    -0.027 C 
ATOM     22  C   UNL     1     113.842 116.859 129.613  1.00  0.00    -0.023 C 
ATOM     23  C   UNL     1     112.054 115.150 130.247  1.00  0.00     0.031 C 
ATOM     24  C   UNL     1     113.498 115.343 129.764  1.00  0.00     0.002 C 
ATOM     25  C   UNL     1     115.337 116.989 129.181  1.00  0.00     0.010 C 
ATOM     26  C   UNL     1     113.646 117.631 130.954  1.00  0.00     0.012 C 
ATOM     27  C   UNL     1     114.478 114.585 130.690  1.00  0.00     0.036 C 
ATOM     28  C   UNL     1     116.301 116.268 130.135  1.00  0.00     0.032 C 
ATOM     29  C   UNL     1     115.939 114.777 130.246  1.00  0.00     0.114 C 
BRANCH  29  30
ATOM     30  O   UNL     1     116.815 114.118 131.125  1.00  0.00    -0.393 OA
ATOM     31  H   UNL     1     117.360 113.484 130.589  1.00  0.00     0.210 HD
ENDBRANCH  29  30
ENDBRANCH   1  11
TORSDOF 6
ENDMDL
