MODEL 1
REMARK VINA RESULT:    -3.660      0.000      0.000
REMARK INTER + INTRA:          -4.638
REMARK INTER:                  -4.516
REMARK INTRA:                  -0.123
REMARK UNBOUND:                -0.123
REMARK SMILES CCCCCC(=O)[O-]
REMARK SMILES IDX 4 1 5 2 6 3 7 4 8 5 3 6 2 7 1 8
REMARK H PARENT
REMARK Flexibility Score: inf
ROOT
ATOM      1  C   UNL     1      -9.455  -2.444   3.360  1.00  0.00     0.006 C 
ENDROOT
BRANCH   1   2
ATOM      2  C   UNL     1      -8.403  -3.126   4.244  1.00  0.00     0.053 C 
BRANCH   2   3
ATOM      3  C   UNL     1      -9.022  -3.599   5.523  1.00  0.00     0.041 C 
ATOM      4  O   UNL     1     -10.268  -3.763   5.600  1.00  0.00    -0.550 OA
ATOM      5  O   UNL     1      -8.228  -3.809   6.642  1.00  0.00    -0.550 OA
ENDBRANCH   2   3
ENDBRANCH   1   2
BRANCH   1   6
ATOM      6  C   UNL     1      -9.237  -0.925   3.234  1.00  0.00     0.000 C 
BRANCH   6   7
ATOM      7  C   UNL     1      -8.682  -0.463   1.875  1.00  0.00    -0.003 C 
ATOM      8  C   UNL     1      -7.179  -0.189   1.903  1.00  0.00     0.004 C 
ENDBRANCH   6   7
ENDBRANCH   1   6
TORSDOF 4
ENDMDL
MODEL 2
REMARK VINA RESULT:    -3.574      0.182      1.156
REMARK INTER + INTRA:          -4.533
REMARK INTER:                  -4.409
REMARK INTRA:                  -0.124
REMARK UNBOUND:                -0.123
REMARK SMILES CCCCCC(=O)[O-]
REMARK SMILES IDX 4 1 5 2 6 3 7 4 8 5 3 6 2 7 1 8
REMARK H PARENT
REMARK Flexibility Score: inf
ROOT
ATOM      1  C   UNL     1      -9.563  -2.405   3.426  1.00  0.00     0.006 C 
ENDROOT
BRANCH   1   2
ATOM      2  C   UNL     1      -8.491  -3.132   4.247  1.00  0.00     0.053 C 
BRANCH   2   3
ATOM      3  C   UNL     1      -9.058  -3.600   5.551  1.00  0.00     0.041 C 
ATOM      4  O   UNL     1      -8.293  -3.886   6.509  1.00  0.00    -0.550 OA
ATOM      5  O   UNL     1     -10.430  -3.766   5.691  1.00  0.00    -0.550 OA
ENDBRANCH   2   3
ENDBRANCH   1   2
BRANCH   1   6
ATOM      6  C   UNL     1      -9.343  -0.883   3.368  1.00  0.00     0.000 C 
BRANCH   6   7
ATOM      7  C   UNL     1      -8.681  -0.375   2.076  1.00  0.00    -0.003 C 
ATOM      8  C   UNL     1      -7.170  -0.187   2.211  1.00  0.00     0.004 C 
ENDBRANCH   6   7
ENDBRANCH   1   6
TORSDOF 4
ENDMDL
MODEL 3
REMARK VINA RESULT:    -3.516      1.349      1.592
REMARK INTER + INTRA:          -4.461
REMARK INTER:                  -4.242
REMARK INTRA:                  -0.219
REMARK UNBOUND:                -0.123
REMARK SMILES CCCCCC(=O)[O-]
REMARK SMILES IDX 4 1 5 2 6 3 7 4 8 5 3 6 2 7 1 8
REMARK H PARENT
REMARK Flexibility Score: inf
ROOT
ATOM      1  C   UNL     1     -10.228  -1.105   3.739  1.00  0.00     0.006 C 
ENDROOT
BRANCH   1   2
ATOM      2  C   UNL     1     -10.036  -2.415   2.964  1.00  0.00     0.053 C 
BRANCH   2   3
ATOM      3  C   UNL     1      -9.324  -3.423   3.811  1.00  0.00     0.041 C 
ATOM      4  O   UNL     1      -9.871  -4.526   4.077  1.00  0.00    -0.550 OA
ATOM      5  O   UNL     1      -8.077  -3.125   4.346  1.00  0.00    -0.550 OA
ENDBRANCH   2   3
ENDBRANCH   1   2
BRANCH   1   6
ATOM      6  C   UNL     1      -9.392   0.055   3.171  1.00  0.00     0.000 C 
BRANCH   6   7
ATOM      7  C   UNL     1      -8.622  -0.276   1.880  1.00  0.00    -0.003 C 
ATOM      8  C   UNL     1      -7.108  -0.133   2.031  1.00  0.00     0.004 C 
ENDBRANCH   6   7
ENDBRANCH   1   6
TORSDOF 4
ENDMDL
MODEL 4
REMARK VINA RESULT:    -3.496      2.812      4.356
REMARK INTER + INTRA:          -4.436
REMARK INTER:                  -4.334
REMARK INTRA:                  -0.102
REMARK UNBOUND:                -0.123
REMARK SMILES CCCCCC(=O)[O-]
REMARK SMILES IDX 4 1 5 2 6 3 7 4 8 5 3 6 2 7 1 8
REMARK H PARENT
REMARK Flexibility Score: inf
ROOT
ATOM      1  C   UNL     1      -9.840  -2.440   3.249  1.00  0.00     0.006 C 
ENDROOT
BRANCH   1   2
ATOM      2  C   UNL     1      -9.318  -1.644   2.046  1.00  0.00     0.053 C 
BRANCH   2   3
ATOM      3  C   UNL     1      -8.679  -0.369   2.501  1.00  0.00     0.041 C 
ATOM      4  O   UNL     1      -9.371   0.523   3.058  1.00  0.00    -0.550 OA
ATOM      5  O   UNL     1      -7.329  -0.146   2.264  1.00  0.00    -0.550 OA
ENDBRANCH   2   3
ENDBRANCH   1   2
BRANCH   1   6
ATOM      6  C   UNL     1      -8.711  -2.980   4.145  1.00  0.00     0.000 C 
BRANCH   6   7
ATOM      7  C   UNL     1      -9.173  -3.929   5.265  1.00  0.00    -0.003 C 
ATOM      8  C   UNL     1      -8.230  -3.941   6.467  1.00  0.00     0.004 C 
ENDBRANCH   6   7
ENDBRANCH   1   6
TORSDOF 4
ENDMDL
MODEL 5
REMARK VINA RESULT:    -3.450      3.040      4.710
REMARK INTER + INTRA:          -4.380
REMARK INTER:                  -4.327
REMARK INTRA:                  -0.053
REMARK UNBOUND:                -0.123
REMARK SMILES CCCCCC(=O)[O-]
REMARK SMILES IDX 4 1 5 2 6 3 7 4 8 5 3 6 2 7 1 8
REMARK H PARENT
REMARK Flexibility Score: inf
ROOT
ATOM      1  C   UNL     1      -8.802  -2.367   3.736  1.00  0.00     0.006 C 
ENDROOT
BRANCH   1   2
ATOM      2  C   UNL     1      -9.464  -1.907   2.431  1.00  0.00     0.053 C 
BRANCH   2   3
ATOM      3  C   UNL     1      -8.976  -0.544   2.050  1.00  0.00     0.041 C 
ATOM      4  O   UNL     1      -7.747  -0.337   1.875  1.00  0.00    -0.550 OA
ATOM      5  O   UNL     1      -9.875   0.508   1.938  1.00  0.00    -0.550 OA
ENDBRANCH   2   3
ENDBRANCH   1   2
BRANCH   1   6
ATOM      6  C   UNL     1      -9.165  -3.815   4.113  1.00  0.00     0.000 C 
BRANCH   6   7
ATOM      7  C   UNL     1      -9.520  -4.026   5.596  1.00  0.00    -0.003 C 
ATOM      8  C   UNL     1      -8.290  -4.119   6.498  1.00  0.00     0.004 C 
ENDBRANCH   6   7
ENDBRANCH   1   6
TORSDOF 4
ENDMDL
MODEL 6
REMARK VINA RESULT:    -3.336      1.709      2.313
REMARK INTER + INTRA:          -4.239
REMARK INTER:                  -4.164
REMARK INTRA:                  -0.075
REMARK UNBOUND:                -0.123
REMARK SMILES CCCCCC(=O)[O-]
REMARK SMILES IDX 4 1 5 2 6 3 7 4 8 5 3 6 2 7 1 8
REMARK H PARENT
REMARK Flexibility Score: inf
ROOT
ATOM      1  C   UNL     1      -9.369  -3.439   5.320  1.00  0.00     0.006 C 
ENDROOT
BRANCH   1   2
ATOM      2  C   UNL     1      -8.548  -4.278   6.307  1.00  0.00     0.053 C 
BRANCH   2   3
ATOM      3  C   UNL     1      -9.099  -5.668   6.396  1.00  0.00     0.041 C 
ATOM      4  O   UNL     1      -9.392  -6.301   5.348  1.00  0.00    -0.550 OA
ATOM      5  O   UNL     1      -9.334  -6.244   7.637  1.00  0.00    -0.550 OA
ENDBRANCH   2   3
ENDBRANCH   1   2
BRANCH   1   6
ATOM      6  C   UNL     1      -8.548  -2.969   4.106  1.00  0.00     0.000 C 
BRANCH   6   7
ATOM      7  C   UNL     1      -9.239  -1.909   3.231  1.00  0.00    -0.003 C 
ATOM      8  C   UNL     1      -8.274  -0.854   2.693  1.00  0.00     0.004 C 
ENDBRANCH   6   7
ENDBRANCH   1   6
TORSDOF 4
ENDMDL
MODEL 7
REMARK VINA RESULT:    -3.299      2.644      4.679
REMARK INTER + INTRA:          -4.193
REMARK INTER:                  -4.110
REMARK INTRA:                  -0.083
REMARK UNBOUND:                -0.123
REMARK SMILES CCCCCC(=O)[O-]
REMARK SMILES IDX 4 1 5 2 6 3 7 4 8 5 3 6 2 7 1 8
REMARK H PARENT
REMARK Flexibility Score: inf
ROOT
ATOM      1  C   UNL     1      -8.950  -3.756   4.237  1.00  0.00     0.006 C 
ENDROOT
BRANCH   1   2
ATOM      2  C   UNL     1      -8.835  -2.320   3.710  1.00  0.00     0.053 C 
BRANCH   2   3
ATOM      3  C   UNL     1      -9.795  -2.098   2.584  1.00  0.00     0.041 C 
ATOM      4  O   UNL     1      -9.730  -1.047   1.894  1.00  0.00    -0.550 OA
ATOM      5  O   UNL     1     -10.794  -3.029   2.329  1.00  0.00    -0.550 OA
ENDBRANCH   2   3
ENDBRANCH   1   2
BRANCH   1   6
ATOM      6  C   UNL     1      -8.575  -3.881   5.724  1.00  0.00     0.000 C 
BRANCH   6   7
ATOM      7  C   UNL     1      -9.044  -5.180   6.402  1.00  0.00    -0.003 C 
ATOM      8  C   UNL     1      -9.582  -6.212   5.411  1.00  0.00     0.004 C 
ENDBRANCH   6   7
ENDBRANCH   1   6
TORSDOF 4
ENDMDL
MODEL 8
REMARK VINA RESULT:    -3.233      2.527      4.232
REMARK INTER + INTRA:          -4.112
REMARK INTER:                  -3.979
REMARK INTRA:                  -0.133
REMARK UNBOUND:                -0.123
REMARK SMILES CCCCCC(=O)[O-]
REMARK SMILES IDX 4 1 5 2 6 3 7 4 8 5 3 6 2 7 1 8
REMARK H PARENT
REMARK Flexibility Score: inf
ROOT
ATOM      1  C   UNL     1      -9.028  -2.066   3.406  1.00  0.00     0.006 C 
ENDROOT
BRANCH   1   2
ATOM      2  C   UNL     1     -10.208  -2.326   2.460  1.00  0.00     0.053 C 
BRANCH   2   3
ATOM      3  C   UNL     1     -11.371  -1.456   2.824  1.00  0.00     0.041 C 
ATOM      4  O   UNL     1     -11.991  -0.822   1.931  1.00  0.00    -0.550 OA
ATOM      5  O   UNL     1     -11.738  -1.308   4.155  1.00  0.00    -0.550 OA
ENDBRANCH   2   3
ENDBRANCH   1   2
BRANCH   1   6
ATOM      6  C   UNL     1      -8.571  -3.331   4.154  1.00  0.00     0.000 C 
BRANCH   6   7
ATOM      7  C   UNL     1      -9.241  -3.551   5.521  1.00  0.00    -0.003 C 
ATOM      8  C   UNL     1      -8.287  -4.116   6.572  1.00  0.00     0.004 C 
ENDBRANCH   6   7
ENDBRANCH   1   6
TORSDOF 4
ENDMDL
MODEL 9
REMARK VINA RESULT:    -3.217      2.995      5.145
REMARK INTER + INTRA:          -4.092
REMARK INTER:                  -3.975
REMARK INTRA:                  -0.116
REMARK UNBOUND:                -0.123
REMARK SMILES CCCCCC(=O)[O-]
REMARK SMILES IDX 4 1 5 2 6 3 7 4 8 5 3 6 2 7 1 8
REMARK H PARENT
REMARK Flexibility Score: inf
ROOT
ATOM      1  C   UNL     1      -9.497  -5.721   6.359  1.00  0.00     0.006 C 
ENDROOT
BRANCH   1   2
ATOM      2  C   UNL     1      -8.534  -4.528   6.325  1.00  0.00     0.053 C 
BRANCH   2   3
ATOM      3  C   UNL     1      -8.988  -3.519   5.317  1.00  0.00     0.041 C 
ATOM      4  O   UNL     1     -10.143  -3.024   5.392  1.00  0.00    -0.550 OA
ATOM      5  O   UNL     1      -8.153  -3.163   4.265  1.00  0.00    -0.550 OA
ENDBRANCH   2   3
ENDBRANCH   1   2
BRANCH   1   6
ATOM      6  C   UNL     1      -9.736  -6.337   4.969  1.00  0.00     0.000 C 
BRANCH   6   7
ATOM      7  C   UNL     1      -9.349  -7.821   4.845  1.00  0.00    -0.003 C 
ATOM      8  C   UNL     1      -8.369  -8.277   5.926  1.00  0.00     0.004 C 
ENDBRANCH   6   7
ENDBRANCH   1   6
TORSDOF 4
ENDMDL
