MODEL 1
REMARK VINA RESULT:    -2.853      0.000      0.000
REMARK INTER + INTRA:          -3.193
REMARK INTER:                  -3.186
REMARK INTRA:                  -0.007
REMARK UNBOUND:                -0.007
REMARK SMILES CCCC(=O)[O-]
REMARK SMILES IDX 3 1 4 2 5 3 6 4 2 5 1 6
REMARK H PARENT
REMARK Flexibility Score: inf
ROOT
ATOM      1  C   UNL     1     -17.664 -28.124  11.245  1.00  0.00     0.052 C 
ENDROOT
BRANCH   1   2
ATOM      2  C   UNL     1     -16.363 -27.546  10.785  1.00  0.00     0.041 C 
ATOM      3  O   UNL     1     -15.839 -27.940   9.710  1.00  0.00    -0.550 OA
ATOM      4  O   UNL     1     -15.703 -26.608  11.569  1.00  0.00    -0.550 OA
ENDBRANCH   1   2
BRANCH   1   5
ATOM      5  C   UNL     1     -18.531 -27.044  11.898  1.00  0.00     0.003 C 
ATOM      6  C   UNL     1     -19.912 -27.585  12.251  1.00  0.00     0.004 C 
ENDBRANCH   1   5
TORSDOF 2
ENDMDL
MODEL 2
REMARK VINA RESULT:    -2.684     16.005     16.768
REMARK INTER + INTRA:          -3.005
REMARK INTER:                  -2.982
REMARK INTRA:                  -0.023
REMARK UNBOUND:                -0.007
REMARK SMILES CCCC(=O)[O-]
REMARK SMILES IDX 3 1 4 2 5 3 6 4 2 5 1 6
REMARK H PARENT
REMARK Flexibility Score: inf
ROOT
ATOM      1  C   UNL     1     -29.949 -17.788  13.915  1.00  0.00     0.052 C 
ENDROOT
BRANCH   1   2
ATOM      2  C   UNL     1     -30.310 -16.470  13.309  1.00  0.00     0.041 C 
ATOM      3  O   UNL     1     -30.644 -16.399  12.096  1.00  0.00    -0.550 OA
ATOM      4  O   UNL     1     -30.231 -15.310  14.068  1.00  0.00    -0.550 OA
ENDBRANCH   1   2
BRANCH   1   5
ATOM      5  C   UNL     1     -31.060 -18.814  13.670  1.00  0.00     0.003 C 
ATOM      6  C   UNL     1     -30.480 -20.185  13.339  1.00  0.00     0.004 C 
ENDBRANCH   1   5
TORSDOF 2
ENDMDL
MODEL 3
REMARK VINA RESULT:    -2.556     15.959     16.817
REMARK INTER + INTRA:          -2.862
REMARK INTER:                  -2.838
REMARK INTRA:                  -0.024
REMARK UNBOUND:                -0.007
REMARK SMILES CCCC(=O)[O-]
REMARK SMILES IDX 3 1 4 2 5 3 6 4 2 5 1 6
REMARK H PARENT
REMARK Flexibility Score: inf
ROOT
ATOM      1  C   UNL     1     -29.592 -17.334  13.828  1.00  0.00     0.052 C 
ENDROOT
BRANCH   1   2
ATOM      2  C   UNL     1     -30.384 -18.568  14.122  1.00  0.00     0.041 C 
ATOM      3  O   UNL     1     -30.424 -19.509  13.286  1.00  0.00    -0.550 OA
ATOM      4  O   UNL     1     -31.120 -18.659  15.296  1.00  0.00    -0.550 OA
ENDBRANCH   1   2
BRANCH   1   5
ATOM      5  C   UNL     1     -30.430 -16.336  13.025  1.00  0.00     0.003 C 
ATOM      6  C   UNL     1     -30.596 -15.021  13.780  1.00  0.00     0.004 C 
ENDBRANCH   1   5
TORSDOF 2
ENDMDL
MODEL 4
REMARK VINA RESULT:    -2.555      2.160      3.455
REMARK INTER + INTRA:          -2.861
REMARK INTER:                  -2.851
REMARK INTRA:                  -0.010
REMARK UNBOUND:                -0.007
REMARK SMILES CCCC(=O)[O-]
REMARK SMILES IDX 3 1 4 2 5 3 6 4 2 5 1 6
REMARK H PARENT
REMARK Flexibility Score: inf
ROOT
ATOM      1  C   UNL     1     -15.754 -26.720  11.930  1.00  0.00     0.052 C 
ENDROOT
BRANCH   1   2
ATOM      2  C   UNL     1     -16.896 -27.319  11.172  1.00  0.00     0.041 C 
ATOM      3  O   UNL     1     -16.677 -28.053  10.173  1.00  0.00    -0.550 OA
ATOM      4  O   UNL     1     -18.203 -27.026  11.538  1.00  0.00    -0.550 OA
ENDBRANCH   1   2
BRANCH   1   5
ATOM      5  C   UNL     1     -14.726 -27.796  12.292  1.00  0.00     0.003 C 
ATOM      6  C   UNL     1     -13.427 -27.172  12.791  1.00  0.00     0.004 C 
ENDBRANCH   1   5
TORSDOF 2
ENDMDL
MODEL 5
REMARK VINA RESULT:    -2.516      2.735      3.574
REMARK INTER + INTRA:          -2.817
REMARK INTER:                  -2.805
REMARK INTRA:                  -0.012
REMARK UNBOUND:                -0.007
REMARK SMILES CCCC(=O)[O-]
REMARK SMILES IDX 3 1 4 2 5 3 6 4 2 5 1 6
REMARK H PARENT
REMARK Flexibility Score: inf
ROOT
ATOM      1  C   UNL     1     -18.144 -26.881  11.565  1.00  0.00     0.052 C 
ENDROOT
BRANCH   1   2
ATOM      2  C   UNL     1     -19.269 -27.467  12.357  1.00  0.00     0.041 C 
ATOM      3  O   UNL     1     -20.176 -28.123  11.780  1.00  0.00    -0.550 OA
ATOM      4  O   UNL     1     -19.345 -27.247  13.726  1.00  0.00    -0.550 OA
ENDBRANCH   1   2
BRANCH   1   5
ATOM      5  C   UNL     1     -16.849 -27.660  11.814  1.00  0.00     0.003 C 
ATOM      6  C   UNL     1     -15.641 -26.729  11.830  1.00  0.00     0.004 C 
ENDBRANCH   1   5
TORSDOF 2
ENDMDL
MODEL 6
REMARK VINA RESULT:    -2.256      2.906      3.677
REMARK INTER + INTRA:          -2.527
REMARK INTER:                  -2.522
REMARK INTRA:                  -0.005
REMARK UNBOUND:                -0.007
REMARK SMILES CCCC(=O)[O-]
REMARK SMILES IDX 3 1 4 2 5 3 6 4 2 5 1 6
REMARK H PARENT
REMARK Flexibility Score: inf
ROOT
ATOM      1  C   UNL     1     -14.571 -27.770  12.275  1.00  0.00     0.052 C 
ENDROOT
BRANCH   1   2
ATOM      2  C   UNL     1     -13.395 -27.361  13.105  1.00  0.00     0.041 C 
ATOM      3  O   UNL     1     -12.374 -26.868  12.558  1.00  0.00    -0.550 OA
ATOM      4  O   UNL     1     -13.407 -27.571  14.478  1.00  0.00    -0.550 OA
ENDBRANCH   1   2
BRANCH   1   5
ATOM      5  C   UNL     1     -15.551 -26.604  12.122  1.00  0.00     0.003 C 
ATOM      6  C   UNL     1     -16.773 -27.015  11.307  1.00  0.00     0.004 C 
ENDBRANCH   1   5
TORSDOF 2
ENDMDL
MODEL 7
REMARK VINA RESULT:    -2.250      8.414      9.501
REMARK INTER + INTRA:          -2.520
REMARK INTER:                  -2.514
REMARK INTRA:                  -0.006
REMARK UNBOUND:                -0.007
REMARK SMILES CCCC(=O)[O-]
REMARK SMILES IDX 3 1 4 2 5 3 6 4 2 5 1 6
REMARK H PARENT
REMARK Flexibility Score: inf
ROOT
ATOM      1  C   UNL     1     -21.833 -27.645  18.424  1.00  0.00     0.052 C 
ENDROOT
BRANCH   1   2
ATOM      2  C   UNL     1     -22.185 -27.144  19.789  1.00  0.00     0.041 C 
ATOM      3  O   UNL     1     -21.396 -26.382  20.407  1.00  0.00    -0.550 OA
ATOM      4  O   UNL     1     -23.362 -27.558  20.399  1.00  0.00    -0.550 OA
ENDBRANCH   1   2
BRANCH   1   5
ATOM      5  C   UNL     1     -22.987 -27.402  17.448  1.00  0.00     0.003 C 
ATOM      6  C   UNL     1     -22.469 -27.082  16.050  1.00  0.00     0.004 C 
ENDBRANCH   1   5
TORSDOF 2
ENDMDL
MODEL 8
REMARK VINA RESULT:    -2.175     12.601     12.883
REMARK INTER + INTRA:          -2.437
REMARK INTER:                  -2.421
REMARK INTRA:                  -0.016
REMARK UNBOUND:                -0.007
REMARK SMILES CCCC(=O)[O-]
REMARK SMILES IDX 3 1 4 2 5 3 6 4 2 5 1 6
REMARK H PARENT
REMARK Flexibility Score: inf
ROOT
ATOM      1  C   UNL     1     -12.062 -16.132  15.007  1.00  0.00     0.052 C 
ENDROOT
BRANCH   1   2
ATOM      2  C   UNL     1     -11.859 -16.205  13.527  1.00  0.00     0.041 C 
ATOM      3  O   UNL     1     -11.245 -17.180  13.018  1.00  0.00    -0.550 OA
ATOM      4  O   UNL     1     -12.303 -15.172  12.712  1.00  0.00    -0.550 OA
ENDBRANCH   1   2
BRANCH   1   5
ATOM      5  C   UNL     1     -11.180 -17.160  15.721  1.00  0.00     0.003 C 
ATOM      6  C   UNL     1     -11.734 -17.496  17.102  1.00  0.00     0.004 C 
ENDBRANCH   1   5
TORSDOF 2
ENDMDL
