MODEL 1
REMARK VINA RESULT:    45.727      0.000      0.000
REMARK INTER + INTRA:          50.695
REMARK INTER:                  49.737
REMARK INTRA:                   0.958
REMARK UNBOUND:                 0.958
REMARK SMILES C[C@@H]1[C@H]2C3=CC[C@H]4[C@@]5(C)CC[C@H](O)C(C)(C)[C@@H]5CC[C@@]4(C)[C@@]3(C)CC[C@]2(C(=O)[O-])CC[C@@H]1C
REMARK SMILES IDX 26 1 30 2 25 3 3 4 31 5 24 6 4 7 2 8 32 9 22 10 5 11 1 12
REMARK SMILES IDX 33 13 23 14 20 15 6 16 7 17 19 18 21 19 8 20 18 21 17 22
REMARK SMILES IDX 10 23 9 24 14 25 11 26 12 27 15 28 16 29 27 30 28 31 29 32
REMARK SMILES IDX 13 33
REMARK H PARENT 13 34
REMARK Flexibility Score: inf
ROOT
ATOM      1  C   UNL     1      12.653  21.948  -2.682  1.00  0.00     0.017 C 
ATOM      2  C   UNL     1      12.712  21.947  -4.231  1.00  0.00     0.014 C 
ATOM      3  C   UNL     1      12.907  23.404  -2.164  1.00  0.00     0.014 C 
ATOM      4  C   UNL     1      11.213  21.526  -2.224  1.00  0.00     0.030 C 
ATOM      5  C   UNL     1      12.257  20.607  -4.838  1.00  0.00     0.004 C 
ATOM      6  C   UNL     1      12.652  23.583  -0.635  1.00  0.00     0.013 C 
ATOM      7  C   UNL     1      11.134  21.665  -0.700  1.00  0.00    -0.063 C 
ATOM      8  C   UNL     1      10.698  20.192  -2.853  1.00  0.00    -0.003 C 
ATOM      9  C   UNL     1      10.827  20.211  -4.409  1.00  0.00    -0.011 C 
ATOM     10  C   UNL     1      11.240  23.092  -0.127  1.00  0.00    -0.006 C 
ATOM     11  C   UNL     1      11.570  20.630   0.040  1.00  0.00    -0.027 C 
ATOM     12  C   UNL     1       9.259  19.877  -2.400  1.00  0.00     0.008 C 
ATOM     13  C   UNL     1       9.773  21.082  -5.125  1.00  0.00     0.008 C 
ATOM     14  C   UNL     1      10.187  24.034  -0.809  1.00  0.00     0.017 C 
ATOM     15  C   UNL     1      11.037  23.132   1.519  1.00  0.00    -0.020 C 
ATOM     16  C   UNL     1      12.164  20.820   1.394  1.00  0.00     0.032 C 
ATOM     17  C   UNL     1      11.246  21.710   2.239  1.00  0.00     0.006 C 
ATOM     18  C   UNL     1      11.994  24.209   2.126  1.00  0.00     0.008 C 
ATOM     19  C   UNL     1       9.574  23.570   1.876  1.00  0.00     0.012 C 
ATOM     20  C   UNL     1      11.572  21.717   3.827  1.00  0.00    -0.025 C 
ATOM     21  C   UNL     1      12.065  24.231   3.648  1.00  0.00     0.005 C 
ATOM     22  C   UNL     1      12.584  22.872   4.165  1.00  0.00     0.003 C 
ATOM     23  C   UNL     1      12.246  20.375   4.281  1.00  0.00     0.010 C 
ATOM     24  C   UNL     1      10.216  21.841   4.617  1.00  0.00     0.012 C 
ATOM     25  C   UNL     1      13.151  22.905   5.648  1.00  0.00    -0.006 C 
ATOM     26  C   UNL     1      12.719  20.360   5.743  1.00  0.00     0.033 C 
ATOM     27  C   UNL     1      13.714  21.496   6.020  1.00  0.00     0.120 C 
ATOM     28  C   UNL     1      12.104  23.373   6.694  1.00  0.00     0.014 C 
ATOM     29  C   UNL     1      14.346  23.898   5.729  1.00  0.00     0.014 C 
ENDROOT
BRANCH   1  30
ATOM     30  C   UNL     1      13.772  21.036  -2.158  1.00  0.00     0.048 C 
ATOM     31  O   UNL     1      14.354  21.304  -1.072  1.00  0.00    -0.550 OA
ATOM     32  O   UNL     1      14.255  19.972  -2.907  1.00  0.00    -0.550 OA
ENDBRANCH   1  30
BRANCH  27  33
ATOM     33  O   UNL     1      14.097  21.459   7.373  1.00  0.00    -0.393 OA
ATOM     34  H   UNL     1      14.070  22.393   7.709  1.00  0.00     0.210 HD
ENDBRANCH  27  33
TORSDOF 2
ENDMDL
