MODEL 1
REMARK VINA RESULT:    -3.960      0.000      0.000
REMARK INTER + INTRA:          -5.599
REMARK INTER:                  -5.350
REMARK INTRA:                  -0.249
REMARK UNBOUND:                -0.249
REMARK SMILES CCCCCCCC(=O)[O-]
REMARK SMILES IDX 5 1 6 2 7 3 8 4 9 5 10 6 4 7 3 8 2 9 1 10
REMARK H PARENT
REMARK Flexibility Score: inf
ROOT
ATOM      1  C   UNL     1      24.937   7.096  20.340  1.00  0.00     0.000 C 
ENDROOT
BRANCH   1   2
ATOM      2  C   UNL     1      25.728   6.370  19.241  1.00  0.00     0.006 C 
BRANCH   2   3
ATOM      3  C   UNL     1      24.867   5.355  18.479  1.00  0.00     0.053 C 
BRANCH   3   4
ATOM      4  C   UNL     1      25.658   4.148  18.077  1.00  0.00     0.041 C 
ATOM      5  O   UNL     1      26.827   3.981  18.514  1.00  0.00    -0.550 OA
ATOM      6  O   UNL     1      25.115   3.225  17.191  1.00  0.00    -0.550 OA
ENDBRANCH   3   4
ENDBRANCH   2   3
ENDBRANCH   1   2
BRANCH   1   7
ATOM      7  C   UNL     1      23.483   7.323  19.912  1.00  0.00     0.000 C 
BRANCH   7   8
ATOM      8  C   UNL     1      23.336   8.633  19.129  1.00  0.00    -0.000 C 
BRANCH   8   9
ATOM      9  C   UNL     1      22.454   9.631  19.888  1.00  0.00    -0.003 C 
ATOM     10  C   UNL     1      21.491   8.912  20.829  1.00  0.00     0.004 C 
ENDBRANCH   8   9
ENDBRANCH   7   8
ENDBRANCH   1   7
TORSDOF 6
ENDMDL
MODEL 2
REMARK VINA RESULT:    -3.698     10.575     11.995
REMARK INTER + INTRA:          -5.244
REMARK INTER:                  -4.980
REMARK INTRA:                  -0.263
REMARK UNBOUND:                -0.249
REMARK SMILES CCCCCCCC(=O)[O-]
REMARK SMILES IDX 5 1 6 2 7 3 8 4 9 5 10 6 4 7 3 8 2 9 1 10
REMARK H PARENT
REMARK Flexibility Score: inf
ROOT
ATOM      1  C   UNL     1      23.029  -3.009  16.490  1.00  0.00     0.000 C 
ENDROOT
BRANCH   1   2
ATOM      2  C   UNL     1      22.008  -3.328  17.592  1.00  0.00     0.006 C 
BRANCH   2   3
ATOM      3  C   UNL     1      22.615  -4.169  18.721  1.00  0.00     0.053 C 
BRANCH   3   4
ATOM      4  C   UNL     1      21.658  -4.341  19.861  1.00  0.00     0.041 C 
ATOM      5  O   UNL     1      21.634  -5.419  20.512  1.00  0.00    -0.550 OA
ATOM      6  O   UNL     1      20.771  -3.322  20.183  1.00  0.00    -0.550 OA
ENDBRANCH   3   4
ENDBRANCH   2   3
ENDBRANCH   1   2
BRANCH   1   7
ATOM      7  C   UNL     1      22.488  -3.397  15.109  1.00  0.00     0.000 C 
BRANCH   7   8
ATOM      8  C   UNL     1      22.174  -4.897  15.042  1.00  0.00    -0.000 C 
BRANCH   8   9
ATOM      9  C   UNL     1      21.285  -5.219  13.836  1.00  0.00    -0.003 C 
ATOM     10  C   UNL     1      21.249  -4.054  12.850  1.00  0.00     0.004 C 
ENDBRANCH   8   9
ENDBRANCH   7   8
ENDBRANCH   1   7
TORSDOF 6
ENDMDL
MODEL 3
REMARK VINA RESULT:    -3.691     11.875     12.628
REMARK INTER + INTRA:          -5.235
REMARK INTER:                  -5.022
REMARK INTRA:                  -0.213
REMARK UNBOUND:                -0.249
REMARK SMILES CCCCCCCC(=O)[O-]
REMARK SMILES IDX 5 1 6 2 7 3 8 4 9 5 10 6 4 7 3 8 2 9 1 10
REMARK H PARENT
REMARK Flexibility Score: inf
ROOT
ATOM      1  C   UNL     1      20.990   3.924   8.206  1.00  0.00     0.000 C 
ENDROOT
BRANCH   1   2
ATOM      2  C   UNL     1      19.550   3.390   8.171  1.00  0.00     0.006 C 
BRANCH   2   3
ATOM      3  C   UNL     1      19.401   2.070   8.936  1.00  0.00     0.053 C 
BRANCH   3   4
ATOM      4  C   UNL     1      18.031   1.920   9.523  1.00  0.00     0.041 C 
ATOM      5  O   UNL     1      17.114   2.724   9.207  1.00  0.00    -0.550 OA
ATOM      6  O   UNL     1      17.776   0.912  10.444  1.00  0.00    -0.550 OA
ENDBRANCH   3   4
ENDBRANCH   2   3
ENDBRANCH   1   2
BRANCH   1   7
ATOM      7  C   UNL     1      21.104   5.251   7.446  1.00  0.00     0.000 C 
BRANCH   7   8
ATOM      8  C   UNL     1      22.567   5.694   7.327  1.00  0.00    -0.000 C 
BRANCH   8   9
ATOM      9  C   UNL     1      23.495   4.487   7.154  1.00  0.00    -0.003 C 
ATOM     10  C   UNL     1      24.753   4.632   8.007  1.00  0.00     0.004 C 
ENDBRANCH   8   9
ENDBRANCH   7   8
ENDBRANCH   1   7
TORSDOF 6
ENDMDL
MODEL 4
REMARK VINA RESULT:    -3.664     10.544     11.160
REMARK INTER + INTRA:          -5.198
REMARK INTER:                  -4.655
REMARK INTRA:                  -0.543
REMARK UNBOUND:                -0.249
REMARK SMILES CCCCCCCC(=O)[O-]
REMARK SMILES IDX 5 1 6 2 7 3 8 4 9 5 10 6 4 7 3 8 2 9 1 10
REMARK H PARENT
REMARK Flexibility Score: inf
ROOT
ATOM      1  C   UNL     1      22.721  -4.130  17.732  1.00  0.00     0.000 C 
ENDROOT
BRANCH   1   2
ATOM      2  C   UNL     1      24.186  -3.669  17.742  1.00  0.00     0.006 C 
BRANCH   2   3
ATOM      3  C   UNL     1      24.892  -4.004  19.062  1.00  0.00     0.053 C 
BRANCH   3   4
ATOM      4  C   UNL     1      25.189  -5.468  19.175  1.00  0.00     0.041 C 
ATOM      5  O   UNL     1      26.159  -5.970  18.548  1.00  0.00    -0.550 OA
ATOM      6  O   UNL     1      24.372  -6.285  19.948  1.00  0.00    -0.550 OA
ENDBRANCH   3   4
ENDBRANCH   2   3
ENDBRANCH   1   2
BRANCH   1   7
ATOM      7  C   UNL     1      21.773  -2.958  18.007  1.00  0.00     0.000 C 
BRANCH   7   8
ATOM      8  C   UNL     1      20.837  -3.269  19.181  1.00  0.00    -0.000 C 
BRANCH   8   9
ATOM      9  C   UNL     1      21.398  -4.402  20.046  1.00  0.00    -0.003 C 
ATOM     10  C   UNL     1      21.882  -3.879  21.395  1.00  0.00     0.004 C 
ENDBRANCH   8   9
ENDBRANCH   7   8
ENDBRANCH   1   7
TORSDOF 6
ENDMDL
MODEL 5
REMARK VINA RESULT:    -3.657     10.236     10.766
REMARK INTER + INTRA:          -5.188
REMARK INTER:                  -4.915
REMARK INTRA:                  -0.273
REMARK UNBOUND:                -0.249
REMARK SMILES CCCCCCCC(=O)[O-]
REMARK SMILES IDX 5 1 6 2 7 3 8 4 9 5 10 6 4 7 3 8 2 9 1 10
REMARK H PARENT
REMARK Flexibility Score: inf
ROOT
ATOM      1  C   UNL     1      24.712  -3.721  18.362  1.00  0.00     0.000 C 
ENDROOT
BRANCH   1   2
ATOM      2  C   UNL     1      25.639  -3.579  19.579  1.00  0.00     0.006 C 
BRANCH   2   3
ATOM      3  C   UNL     1      27.036  -3.081  19.190  1.00  0.00     0.053 C 
BRANCH   3   4
ATOM      4  C   UNL     1      28.048  -3.379  20.254  1.00  0.00     0.041 C 
ATOM      5  O   UNL     1      28.243  -2.560  21.190  1.00  0.00    -0.550 OA
ATOM      6  O   UNL     1      28.798  -4.547  20.192  1.00  0.00    -0.550 OA
ENDBRANCH   3   4
ENDBRANCH   2   3
ENDBRANCH   1   2
BRANCH   1   7
ATOM      7  C   UNL     1      23.298  -4.128  18.792  1.00  0.00     0.000 C 
BRANCH   7   8
ATOM      8  C   UNL     1      23.311  -4.786  20.177  1.00  0.00    -0.000 C 
BRANCH   8   9
ATOM      9  C   UNL     1      22.285  -4.130  21.108  1.00  0.00    -0.003 C 
ATOM     10  C   UNL     1      21.108  -3.564  20.319  1.00  0.00     0.004 C 
ENDBRANCH   8   9
ENDBRANCH   7   8
ENDBRANCH   1   7
TORSDOF 6
ENDMDL
MODEL 6
REMARK VINA RESULT:    -3.598     10.100     11.321
REMARK INTER + INTRA:          -5.109
REMARK INTER:                  -4.665
REMARK INTRA:                  -0.443
REMARK UNBOUND:                -0.249
REMARK SMILES CCCCCCCC(=O)[O-]
REMARK SMILES IDX 5 1 6 2 7 3 8 4 9 5 10 6 4 7 3 8 2 9 1 10
REMARK H PARENT
REMARK Flexibility Score: inf
ROOT
ATOM      1  C   UNL     1      21.258  -3.735  20.530  1.00  0.00     0.000 C 
ENDROOT
BRANCH   1   2
ATOM      2  C   UNL     1      22.625  -4.216  21.039  1.00  0.00     0.006 C 
BRANCH   2   3
ATOM      3  C   UNL     1      23.530  -4.704  19.900  1.00  0.00     0.053 C 
BRANCH   3   4
ATOM      4  C   UNL     1      23.715  -6.190  19.936  1.00  0.00     0.041 C 
ATOM      5  O   UNL     1      22.718  -6.951  20.048  1.00  0.00    -0.550 OA
ATOM      6  O   UNL     1      24.993  -6.732  19.880  1.00  0.00    -0.550 OA
ENDBRANCH   3   4
ENDBRANCH   2   3
ENDBRANCH   1   2
BRANCH   1   7
ATOM      7  C   UNL     1      21.209  -3.736  18.999  1.00  0.00     0.000 C 
BRANCH   7   8
ATOM      8  C   UNL     1      20.873  -2.341  18.456  1.00  0.00    -0.000 C 
BRANCH   8   9
ATOM      9  C   UNL     1      21.800  -1.965  17.295  1.00  0.00    -0.003 C 
ATOM     10  C   UNL     1      22.463  -3.202  16.696  1.00  0.00     0.004 C 
ENDBRANCH   8   9
ENDBRANCH   7   8
ENDBRANCH   1   7
TORSDOF 6
ENDMDL
MODEL 7
REMARK VINA RESULT:    -3.597     10.407     11.226
REMARK INTER + INTRA:          -5.108
REMARK INTER:                  -4.918
REMARK INTRA:                  -0.190
REMARK UNBOUND:                -0.249
REMARK SMILES CCCCCCCC(=O)[O-]
REMARK SMILES IDX 5 1 6 2 7 3 8 4 9 5 10 6 4 7 3 8 2 9 1 10
REMARK H PARENT
REMARK Flexibility Score: inf
ROOT
ATOM      1  C   UNL     1      24.479  -3.737  18.356  1.00  0.00     0.000 C 
ENDROOT
BRANCH   1   2
ATOM      2  C   UNL     1      23.266  -4.604  18.725  1.00  0.00     0.006 C 
BRANCH   2   3
ATOM      3  C   UNL     1      22.946  -4.548  20.224  1.00  0.00     0.053 C 
BRANCH   3   4
ATOM      4  C   UNL     1      21.579  -3.992  20.479  1.00  0.00     0.041 C 
ATOM      5  O   UNL     1      20.900  -3.516  19.530  1.00  0.00    -0.550 OA
ATOM      6  O   UNL     1      21.067  -3.971  21.770  1.00  0.00    -0.550 OA
ENDBRANCH   3   4
ENDBRANCH   2   3
ENDBRANCH   1   2
BRANCH   1   7
ATOM      7  C   UNL     1      25.514  -3.729  19.486  1.00  0.00     0.000 C 
BRANCH   7   8
ATOM      8  C   UNL     1      26.792  -2.997  19.058  1.00  0.00    -0.000 C 
BRANCH   8   9
ATOM      9  C   UNL     1      27.771  -2.869  20.230  1.00  0.00    -0.003 C 
ATOM     10  C   UNL     1      29.017  -2.087  19.825  1.00  0.00     0.004 C 
ENDBRANCH   8   9
ENDBRANCH   7   8
ENDBRANCH   1   7
TORSDOF 6
ENDMDL
MODEL 8
REMARK VINA RESULT:    -3.587     11.615     13.051
REMARK INTER + INTRA:          -5.094
REMARK INTER:                  -4.730
REMARK INTRA:                  -0.364
REMARK UNBOUND:                -0.249
REMARK SMILES CCCCCCCC(=O)[O-]
REMARK SMILES IDX 5 1 6 2 7 3 8 4 9 5 10 6 4 7 3 8 2 9 1 10
REMARK H PARENT
REMARK Flexibility Score: inf
ROOT
ATOM      1  C   UNL     1      24.466  -5.538  19.106  1.00  0.00     0.000 C 
ENDROOT
BRANCH   1   2
ATOM      2  C   UNL     1      24.221  -6.835  19.891  1.00  0.00     0.006 C 
BRANCH   2   3
ATOM      3  C   UNL     1      23.025  -7.626  19.348  1.00  0.00     0.053 C 
BRANCH   3   4
ATOM      4  C   UNL     1      23.450  -8.931  18.747  1.00  0.00     0.041 C 
ATOM      5  O   UNL     1      22.910 -10.007  19.119  1.00  0.00    -0.550 OA
ATOM      6  O   UNL     1      24.466  -8.962  17.800  1.00  0.00    -0.550 OA
ENDBRANCH   3   4
ENDBRANCH   2   3
ENDBRANCH   1   2
BRANCH   1   7
ATOM      7  C   UNL     1      23.329  -4.535  19.331  1.00  0.00     0.000 C 
BRANCH   7   8
ATOM      8  C   UNL     1      23.115  -4.270  20.826  1.00  0.00    -0.000 C 
BRANCH   8   9
ATOM      9  C   UNL     1      21.626  -4.114  21.150  1.00  0.00    -0.003 C 
ATOM     10  C   UNL     1      20.882  -3.429  20.006  1.00  0.00     0.004 C 
ENDBRANCH   8   9
ENDBRANCH   7   8
ENDBRANCH   1   7
TORSDOF 6
ENDMDL
MODEL 9
REMARK VINA RESULT:    -3.581     11.863     13.151
REMARK INTER + INTRA:          -5.086
REMARK INTER:                  -4.709
REMARK INTRA:                  -0.377
REMARK UNBOUND:                -0.249
REMARK SMILES CCCCCCCC(=O)[O-]
REMARK SMILES IDX 5 1 6 2 7 3 8 4 9 5 10 6 4 7 3 8 2 9 1 10
REMARK H PARENT
REMARK Flexibility Score: inf
ROOT
ATOM      1  C   UNL     1      23.875   5.714   5.967  1.00  0.00     0.000 C 
ENDROOT
BRANCH   1   2
ATOM      2  C   UNL     1      23.098   5.965   7.268  1.00  0.00     0.006 C 
BRANCH   2   3
ATOM      3  C   UNL     1      21.638   5.507   7.171  1.00  0.00     0.053 C 
BRANCH   3   4
ATOM      4  C   UNL     1      21.363   4.335   8.063  1.00  0.00     0.041 C 
ATOM      5  O   UNL     1      22.295   3.812   8.728  1.00  0.00    -0.550 OA
ATOM      6  O   UNL     1      20.082   3.801   8.133  1.00  0.00    -0.550 OA
ENDBRANCH   3   4
ENDBRANCH   2   3
ENDBRANCH   1   2
BRANCH   1   7
ATOM      7  C   UNL     1      24.621   4.377   6.020  1.00  0.00     0.000 C 
BRANCH   7   8
ATOM      8  C   UNL     1      25.596   4.336   7.202  1.00  0.00    -0.000 C 
BRANCH   8   9
ATOM      9  C   UNL     1      26.993   3.899   6.748  1.00  0.00    -0.003 C 
ATOM     10  C   UNL     1      27.311   4.430   5.353  1.00  0.00     0.004 C 
ENDBRANCH   8   9
ENDBRANCH   7   8
ENDBRANCH   1   7
TORSDOF 6
ENDMDL
