MODEL 1
REMARK VINA RESULT:    -4.714      0.000      0.000
REMARK INTER + INTRA:          -5.833
REMARK INTER:                  -5.679
REMARK INTRA:                  -0.154
REMARK UNBOUND:                -0.154
REMARK SMILES CC[C@H](C)[C@H]([NH3+])C(=O)[O-]
REMARK SMILES IDX 3 1 4 2 5 3 6 4 7 8 8 9 9 10 2 11 1 12
REMARK H PARENT 6 5 6 6 6 7
REMARK Flexibility Score: inf
ROOT
ATOM      1  C   UNL     1      -7.247   6.430  -0.814  1.00  0.00     0.050 C 
ATOM      2  C   UNL     1      -7.521   6.451   0.701  1.00  0.00     0.014 C 
ENDROOT
BRANCH   1   3
ATOM      3  C   UNL     1      -5.867   5.790  -1.173  1.00  0.00     0.230 C 
BRANCH   3   4
ATOM      4  N   UNL     1      -4.816   6.808  -1.331  1.00  0.00    -0.350 N 
ATOM      5  H   UNL     1      -5.241   7.760  -1.247  1.00  0.00     0.345 HD
ATOM      6  H   UNL     1      -4.076   6.713  -0.600  1.00  0.00     0.345 HD
ATOM      7  H   UNL     1      -4.380   6.729  -2.277  1.00  0.00     0.345 HD
ENDBRANCH   3   4
BRANCH   3   8
ATOM      8  C   UNL     1      -5.934   4.904  -2.395  1.00  0.00     0.099 C 
ATOM      9  O   UNL     1      -7.051   4.543  -2.849  1.00  0.00    -0.544 OA
ATOM     10  O   UNL     1      -4.773   4.499  -3.042  1.00  0.00    -0.544 OA
ENDBRANCH   3   8
ENDBRANCH   1   3
BRANCH   1  11
ATOM     11  C   UNL     1      -7.417   7.861  -1.388  1.00  0.00     0.006 C 
ATOM     12  C   UNL     1      -8.459   7.948  -2.504  1.00  0.00     0.004 C 
ENDBRANCH   1  11
TORSDOF 4
ENDMDL
MODEL 2
REMARK VINA RESULT:    -4.555      1.371      1.523
REMARK INTER + INTRA:          -5.641
REMARK INTER:                  -5.571
REMARK INTRA:                  -0.070
REMARK UNBOUND:                -0.154
REMARK SMILES CC[C@H](C)[C@H]([NH3+])C(=O)[O-]
REMARK SMILES IDX 3 1 4 2 5 3 6 4 7 8 8 9 9 10 2 11 1 12
REMARK H PARENT 6 5 6 6 6 7
REMARK Flexibility Score: inf
ROOT
ATOM      1  C   UNL     1      -7.403   6.437  -1.998  1.00  0.00     0.050 C 
ATOM      2  C   UNL     1      -8.746   5.751  -1.687  1.00  0.00     0.014 C 
ENDROOT
BRANCH   1   3
ATOM      3  C   UNL     1      -6.175   5.648  -1.439  1.00  0.00     0.230 C 
BRANCH   3   4
ATOM      4  N   UNL     1      -5.539   6.351  -0.314  1.00  0.00    -0.350 N 
ATOM      5  H   UNL     1      -5.504   7.377  -0.521  1.00  0.00     0.345 HD
ATOM      6  H   UNL     1      -6.069   6.213   0.575  1.00  0.00     0.345 HD
ATOM      7  H   UNL     1      -4.557   6.013  -0.188  1.00  0.00     0.345 HD
ENDBRANCH   3   4
BRANCH   3   8
ATOM      8  C   UNL     1      -5.155   5.324  -2.506  1.00  0.00     0.099 C 
ATOM      9  O   UNL     1      -4.964   4.128  -2.850  1.00  0.00    -0.544 OA
ATOM     10  O   UNL     1      -4.438   6.336  -3.132  1.00  0.00    -0.544 OA
ENDBRANCH   3   8
ENDBRANCH   1   3
BRANCH   1  11
ATOM     11  C   UNL     1      -7.451   7.907  -1.508  1.00  0.00     0.006 C 
ATOM     12  C   UNL     1      -8.084   8.864  -2.519  1.00  0.00     0.004 C 
ENDBRANCH   1  11
TORSDOF 4
ENDMDL
MODEL 3
REMARK VINA RESULT:    -4.486      1.585      2.343
REMARK INTER + INTRA:          -5.558
REMARK INTER:                  -5.565
REMARK INTRA:                   0.007
REMARK UNBOUND:                -0.154
REMARK SMILES CC[C@H](C)[C@H]([NH3+])C(=O)[O-]
REMARK SMILES IDX 3 1 4 2 5 3 6 4 7 8 8 9 9 10 2 11 1 12
REMARK H PARENT 6 5 6 6 6 7
REMARK Flexibility Score: inf
ROOT
ATOM      1  C   UNL     1      -6.511   7.019  -1.199  1.00  0.00     0.050 C 
ATOM      2  C   UNL     1      -7.642   8.053  -1.352  1.00  0.00     0.014 C 
ENDROOT
BRANCH   1   3
ATOM      3  C   UNL     1      -6.487   5.969  -2.357  1.00  0.00     0.230 C 
BRANCH   3   4
ATOM      4  N   UNL     1      -7.443   4.876  -2.124  1.00  0.00    -0.350 N 
ATOM      5  H   UNL     1      -8.357   5.112  -2.577  1.00  0.00     0.345 HD
ATOM      6  H   UNL     1      -7.102   3.974  -2.525  1.00  0.00     0.345 HD
ATOM      7  H   UNL     1      -7.611   4.758  -1.099  1.00  0.00     0.345 HD
ENDBRANCH   3   4
BRANCH   3   8
ATOM      8  C   UNL     1      -5.104   5.418  -2.616  1.00  0.00     0.099 C 
ATOM      9  O   UNL     1      -4.905   4.176  -2.570  1.00  0.00    -0.544 OA
ATOM     10  O   UNL     1      -4.049   6.266  -2.927  1.00  0.00    -0.544 OA
ENDBRANCH   3   8
ENDBRANCH   1   3
BRANCH   1  11
ATOM     11  C   UNL     1      -6.596   6.368   0.206  1.00  0.00     0.006 C 
ATOM     12  C   UNL     1      -7.997   6.423   0.816  1.00  0.00     0.004 C 
ENDBRANCH   1  11
TORSDOF 4
ENDMDL
MODEL 4
REMARK VINA RESULT:    -4.481      2.312      3.581
REMARK INTER + INTRA:          -5.552
REMARK INTER:                  -5.452
REMARK INTRA:                  -0.100
REMARK UNBOUND:                -0.154
REMARK SMILES CC[C@H](C)[C@H]([NH3+])C(=O)[O-]
REMARK SMILES IDX 3 1 4 2 5 3 6 4 7 8 8 9 9 10 2 11 1 12
REMARK H PARENT 6 5 6 6 6 7
REMARK Flexibility Score: inf
ROOT
ATOM      1  C   UNL     1      -7.007   6.561  -1.766  1.00  0.00     0.050 C 
ATOM      2  C   UNL     1      -7.107   7.858  -2.588  1.00  0.00     0.014 C 
ENDROOT
BRANCH   1   3
ATOM      3  C   UNL     1      -7.699   6.672  -0.368  1.00  0.00     0.230 C 
BRANCH   3   4
ATOM      4  N   UNL     1      -6.793   6.282   0.723  1.00  0.00    -0.350 N 
ATOM      5  H   UNL     1      -6.684   7.083   1.387  1.00  0.00     0.345 HD
ATOM      6  H   UNL     1      -7.163   5.462   1.256  1.00  0.00     0.345 HD
ATOM      7  H   UNL     1      -5.849   6.048   0.340  1.00  0.00     0.345 HD
ENDBRANCH   3   4
BRANCH   3   8
ATOM      8  C   UNL     1      -8.989   5.890  -0.292  1.00  0.00     0.099 C 
ATOM      9  O   UNL     1      -9.654   5.878   0.777  1.00  0.00    -0.544 OA
ATOM     10  O   UNL     1      -9.465   5.198  -1.399  1.00  0.00    -0.544 OA
ENDBRANCH   3   8
ENDBRANCH   1   3
BRANCH   1  11
ATOM     11  C   UNL     1      -5.522   6.125  -1.672  1.00  0.00     0.006 C 
ATOM     12  C   UNL     1      -5.193   4.901  -2.528  1.00  0.00     0.004 C 
ENDBRANCH   1  11
TORSDOF 4
ENDMDL
MODEL 5
REMARK VINA RESULT:    -4.389      2.155      2.952
REMARK INTER + INTRA:          -5.442
REMARK INTER:                  -5.964
REMARK INTRA:                   0.522
REMARK UNBOUND:                -0.154
REMARK SMILES CC[C@H](C)[C@H]([NH3+])C(=O)[O-]
REMARK SMILES IDX 3 1 4 2 5 3 6 4 7 8 8 9 9 10 2 11 1 12
REMARK H PARENT 6 5 6 6 6 7
REMARK Flexibility Score: inf
ROOT
ATOM      1  C   UNL     1      -6.597   7.157  -1.119  1.00  0.00     0.050 C 
ATOM      2  C   UNL     1      -5.641   6.010  -1.495  1.00  0.00     0.014 C 
ENDROOT
BRANCH   1   3
ATOM      3  C   UNL     1      -7.511   6.810   0.101  1.00  0.00     0.230 C 
BRANCH   3   4
ATOM      4  N   UNL     1      -6.742   6.230   1.214  1.00  0.00    -0.350 N 
ATOM      5  H   UNL     1      -7.291   6.322   2.100  1.00  0.00     0.345 HD
ATOM      6  H   UNL     1      -6.541   5.218   1.055  1.00  0.00     0.345 HD
ATOM      7  H   UNL     1      -5.842   6.748   1.335  1.00  0.00     0.345 HD
ENDBRANCH   3   4
BRANCH   3   8
ATOM      8  C   UNL     1      -8.665   5.909  -0.272  1.00  0.00     0.099 C 
ATOM      9  O   UNL     1      -9.689   5.866   0.458  1.00  0.00    -0.544 OA
ATOM     10  O   UNL     1      -8.619   5.141  -1.429  1.00  0.00    -0.544 OA
ENDBRANCH   3   8
ENDBRANCH   1   3
BRANCH   1  11
ATOM     11  C   UNL     1      -7.399   7.590  -2.373  1.00  0.00     0.006 C 
ATOM     12  C   UNL     1      -7.937   9.019  -2.286  1.00  0.00     0.004 C 
ENDBRANCH   1  11
TORSDOF 4
ENDMDL
MODEL 6
REMARK VINA RESULT:    -4.346      2.389      3.455
REMARK INTER + INTRA:          -5.390
REMARK INTER:                  -5.458
REMARK INTRA:                   0.068
REMARK UNBOUND:                -0.154
REMARK SMILES CC[C@H](C)[C@H]([NH3+])C(=O)[O-]
REMARK SMILES IDX 3 1 4 2 5 3 6 4 7 8 8 9 9 10 2 11 1 12
REMARK H PARENT 6 5 6 6 6 7
REMARK Flexibility Score: inf
ROOT
ATOM      1  C   UNL     1      -6.230   6.189  -2.017  1.00  0.00     0.050 C 
ATOM      2  C   UNL     1      -5.622   6.307  -0.607  1.00  0.00     0.014 C 
ENDROOT
BRANCH   1   3
ATOM      3  C   UNL     1      -7.727   6.636  -2.073  1.00  0.00     0.230 C 
BRANCH   3   4
ATOM      4  N   UNL     1      -7.894   8.040  -1.663  1.00  0.00    -0.350 N 
ATOM      5  H   UNL     1      -7.561   8.156  -0.678  1.00  0.00     0.345 HD
ATOM      6  H   UNL     1      -7.346   8.686  -2.274  1.00  0.00     0.345 HD
ATOM      7  H   UNL     1      -8.904   8.305  -1.697  1.00  0.00     0.345 HD
ENDBRANCH   3   4
BRANCH   3   8
ATOM      8  C   UNL     1      -8.635   5.738  -1.267  1.00  0.00     0.099 C 
ATOM      9  O   UNL     1      -9.274   4.815  -1.838  1.00  0.00    -0.544 OA
ATOM     10  O   UNL     1      -8.758   5.902   0.107  1.00  0.00    -0.544 OA
ENDBRANCH   3   8
ENDBRANCH   1   3
BRANCH   1  11
ATOM     11  C   UNL     1      -6.008   4.751  -2.554  1.00  0.00     0.006 C 
ATOM     12  C   UNL     1      -4.567   4.480  -2.985  1.00  0.00     0.004 C 
ENDBRANCH   1  11
TORSDOF 4
ENDMDL
MODEL 7
REMARK VINA RESULT:    -4.160      2.781      3.753
REMARK INTER + INTRA:          -5.166
REMARK INTER:                  -5.090
REMARK INTRA:                  -0.076
REMARK UNBOUND:                -0.154
REMARK SMILES CC[C@H](C)[C@H]([NH3+])C(=O)[O-]
REMARK SMILES IDX 3 1 4 2 5 3 6 4 7 8 8 9 9 10 2 11 1 12
REMARK H PARENT 6 5 6 6 6 7
REMARK Flexibility Score: inf
ROOT
ATOM      1  C   UNL     1      -6.546   6.279  -1.861  1.00  0.00     0.050 C 
ATOM      2  C   UNL     1      -5.817   6.345  -0.507  1.00  0.00     0.014 C 
ENDROOT
BRANCH   1   3
ATOM      3  C   UNL     1      -8.070   6.609  -1.748  1.00  0.00     0.230 C 
BRANCH   3   4
ATOM      4  N   UNL     1      -8.908   5.474  -2.165  1.00  0.00    -0.350 N 
ATOM      5  H   UNL     1      -8.521   5.061  -3.045  1.00  0.00     0.345 HD
ATOM      6  H   UNL     1      -8.934   4.726  -1.436  1.00  0.00     0.345 HD
ATOM      7  H   UNL     1      -9.882   5.800  -2.361  1.00  0.00     0.345 HD
ENDBRANCH   3   4
BRANCH   3   8
ATOM      8  C   UNL     1      -8.454   7.858  -2.506  1.00  0.00     0.099 C 
ATOM      9  O   UNL     1      -9.660   8.217  -2.555  1.00  0.00    -0.544 OA
ATOM     10  O   UNL     1      -7.486   8.632  -3.135  1.00  0.00    -0.544 OA
ENDBRANCH   3   8
ENDBRANCH   1   3
BRANCH   1  11
ATOM     11  C   UNL     1      -6.273   4.904  -2.525  1.00  0.00     0.006 C 
ATOM     12  C   UNL     1      -4.792   4.649  -2.807  1.00  0.00     0.004 C 
ENDBRANCH   1  11
TORSDOF 4
ENDMDL
MODEL 8
REMARK VINA RESULT:    -4.109      2.197      3.181
REMARK INTER + INTRA:          -5.104
REMARK INTER:                  -5.029
REMARK INTRA:                  -0.075
REMARK UNBOUND:                -0.154
REMARK SMILES CC[C@H](C)[C@H]([NH3+])C(=O)[O-]
REMARK SMILES IDX 3 1 4 2 5 3 6 4 7 8 8 9 9 10 2 11 1 12
REMARK H PARENT 6 5 6 6 6 7
REMARK Flexibility Score: inf
ROOT
ATOM      1  C   UNL     1      -8.458   7.978  -2.514  1.00  0.00     0.050 C 
ATOM      2  C   UNL     1      -9.994   8.084  -2.459  1.00  0.00     0.014 C 
ENDROOT
BRANCH   1   3
ATOM      3  C   UNL     1      -7.844   7.369  -1.212  1.00  0.00     0.230 C 
BRANCH   3   4
ATOM      4  N   UNL     1      -6.378   7.267  -1.294  1.00  0.00    -0.350 N 
ATOM      5  H   UNL     1      -6.007   6.873  -0.399  1.00  0.00     0.345 HD
ATOM      6  H   UNL     1      -6.079   6.644  -2.078  1.00  0.00     0.345 HD
ATOM      7  H   UNL     1      -5.960   8.216  -1.428  1.00  0.00     0.345 HD
ENDBRANCH   3   4
BRANCH   3   8
ATOM      8  C   UNL     1      -8.448   6.032  -0.852  1.00  0.00     0.099 C 
ATOM      9  O   UNL     1      -8.429   5.089  -1.685  1.00  0.00    -0.544 OA
ATOM     10  O   UNL     1      -9.007   5.821   0.403  1.00  0.00    -0.544 OA
ENDBRANCH   3   8
ENDBRANCH   1   3
BRANCH   1  11
ATOM     11  C   UNL     1      -7.860   9.362  -2.875  1.00  0.00     0.006 C 
ATOM     12  C   UNL     1      -8.261   9.853  -4.267  1.00  0.00     0.004 C 
ENDBRANCH   1  11
TORSDOF 4
ENDMDL
MODEL 9
REMARK VINA RESULT:    -3.939      2.127      2.616
REMARK INTER + INTRA:          -4.900
REMARK INTER:                  -4.912
REMARK INTRA:                   0.012
REMARK UNBOUND:                -0.154
REMARK SMILES CC[C@H](C)[C@H]([NH3+])C(=O)[O-]
REMARK SMILES IDX 3 1 4 2 5 3 6 4 7 8 8 9 9 10 2 11 1 12
REMARK H PARENT 6 5 6 6 6 7
REMARK Flexibility Score: inf
ROOT
ATOM      1  C   UNL     1      -8.510   6.845  -1.080  1.00  0.00     0.050 C 
ATOM      2  C   UNL     1      -8.006   7.827  -2.153  1.00  0.00     0.014 C 
ENDROOT
BRANCH   1   3
ATOM      3  C   UNL     1      -7.365   5.980  -0.461  1.00  0.00     0.230 C 
BRANCH   3   4
ATOM      4  N   UNL     1      -6.994   6.445   0.885  1.00  0.00    -0.350 N 
ATOM      5  H   UNL     1      -7.861   6.572   1.459  1.00  0.00     0.345 HD
ATOM      6  H   UNL     1      -6.376   5.758   1.372  1.00  0.00     0.345 HD
ATOM      7  H   UNL     1      -6.508   7.368   0.825  1.00  0.00     0.345 HD
ENDBRANCH   3   4
BRANCH   3   8
ATOM      8  C   UNL     1      -6.145   5.905  -1.349  1.00  0.00     0.099 C 
ATOM      9  O   UNL     1      -5.127   6.594  -1.078  1.00  0.00    -0.544 OA
ATOM     10  O   UNL     1      -6.124   5.065  -2.456  1.00  0.00    -0.544 OA
ENDBRANCH   3   8
ENDBRANCH   1   3
BRANCH   1  11
ATOM     11  C   UNL     1      -9.664   5.991  -1.666  1.00  0.00     0.006 C 
ATOM     12  C   UNL     1     -10.941   6.037  -0.826  1.00  0.00     0.004 C 
ENDBRANCH   1  11
TORSDOF 4
ENDMDL
