MODEL 1
REMARK VINA RESULT:    -3.774      0.000      0.000
REMARK INTER + INTRA:          -3.884
REMARK INTER:                  -3.884
REMARK INTRA:                   0.000
REMARK UNBOUND:                 0.000
REMARK SMILES Nc1ncnc2nc[nH]c12
REMARK SMILES IDX 8 1 7 2 6 3 5 4 4 5 3 6 2 7 10 8 9 9 1 11
REMARK H PARENT 9 10 1 12 1 13
REMARK Flexibility Score: inf
ROOT
ATOM      1  C   UNL     1     145.641 140.474 107.078  1.00  0.00     0.199 A 
ATOM      2  N   UNL     1     144.990 140.996 106.002  1.00  0.00    -0.217 NA
ATOM      3  C   UNL     1     144.757 142.259 106.395  1.00  0.00     0.182 A 
ATOM      4  N   UNL     1     144.126 143.223 105.683  1.00  0.00    -0.215 NA
ATOM      5  C   UNL     1     143.981 144.457 106.254  1.00  0.00     0.226 A 
ATOM      6  N   UNL     1     144.467 144.703 107.514  1.00  0.00    -0.217 NA
ATOM      7  C   UNL     1     145.104 143.731 108.234  1.00  0.00     0.152 A 
ATOM      8  C   UNL     1     145.243 142.480 107.638  1.00  0.00     0.127 A 
ATOM      9  N   UNL     1     145.811 141.357 108.095  1.00  0.00    -0.340 N 
ATOM     10  H   UNL     1     146.277 141.188 109.013  1.00  0.00     0.168 HD
ENDROOT
BRANCH   7  11
ATOM     11  N   UNL     1     145.600 144.009 109.544  1.00  0.00    -0.382 N 
ATOM     12  H   UNL     1     146.480 143.572 109.896  1.00  0.00     0.158 HD
ATOM     13  H   UNL     1     145.082 144.663 110.171  1.00  0.00     0.158 HD
ENDBRANCH   7  11
TORSDOF 1
ENDMDL
MODEL 2
REMARK VINA RESULT:    -3.680     10.440     11.586
REMARK INTER + INTRA:          -3.787
REMARK INTER:                  -3.787
REMARK INTRA:                   0.000
REMARK UNBOUND:                 0.000
REMARK SMILES Nc1ncnc2nc[nH]c12
REMARK SMILES IDX 8 1 7 2 6 3 5 4 4 5 3 6 2 7 10 8 9 9 1 11
REMARK H PARENT 9 10 1 12 1 13
REMARK Flexibility Score: inf
ROOT
ATOM      1  C   UNL     1     143.105 130.003 106.970  1.00  0.00     0.199 A 
ATOM      2  N   UNL     1     143.462 130.807 105.931  1.00  0.00    -0.217 NA
ATOM      3  C   UNL     1     144.573 131.400 106.397  1.00  0.00     0.182 A 
ATOM      4  N   UNL     1     145.338 132.309 105.746  1.00  0.00    -0.215 NA
ATOM      5  C   UNL     1     146.439 132.805 106.388  1.00  0.00     0.226 A 
ATOM      6  N   UNL     1     146.753 132.386 107.657  1.00  0.00    -0.217 NA
ATOM      7  C   UNL     1     145.982 131.469 108.316  1.00  0.00     0.152 A 
ATOM      8  C   UNL     1     144.865 130.974 107.648  1.00  0.00     0.127 A 
ATOM      9  N   UNL     1     143.943 130.084 108.035  1.00  0.00    -0.340 N 
ATOM     10  H   UNL     1     143.875 129.566 108.939  1.00  0.00     0.168 HD
ENDROOT
BRANCH   7  11
ATOM     11  N   UNL     1     146.328 131.049 109.636  1.00  0.00    -0.382 N 
ATOM     12  H   UNL     1     147.323 130.904 109.917  1.00  0.00     0.158 HD
ATOM     13  H   UNL     1     145.579 130.881 110.344  1.00  0.00     0.158 HD
ENDBRANCH   7  11
TORSDOF 1
ENDMDL
MODEL 3
REMARK VINA RESULT:    -3.678     10.758     11.892
REMARK INTER + INTRA:          -3.786
REMARK INTER:                  -3.786
REMARK INTRA:                   0.000
REMARK UNBOUND:                 0.000
REMARK SMILES Nc1ncnc2nc[nH]c12
REMARK SMILES IDX 8 1 7 2 6 3 5 4 4 5 3 6 2 7 10 8 9 9 1 11
REMARK H PARENT 9 10 1 12 1 13
REMARK Flexibility Score: inf
ROOT
ATOM      1  C   UNL     1     136.141 146.260 106.991  1.00  0.00     0.199 A 
ATOM      2  N   UNL     1     135.399 145.867 105.919  1.00  0.00    -0.217 NA
ATOM      3  C   UNL     1     134.143 145.999 106.376  1.00  0.00     0.182 A 
ATOM      4  N   UNL     1     133.003 145.736 105.695  1.00  0.00    -0.215 NA
ATOM      5  C   UNL     1     131.810 145.932 106.333  1.00  0.00     0.226 A 
ATOM      6  N   UNL     1     131.778 146.387 107.627  1.00  0.00    -0.217 NA
ATOM      7  C   UNL     1     132.928 146.654 108.317  1.00  0.00     0.152 A 
ATOM      8  C   UNL     1     134.135 146.448 107.653  1.00  0.00     0.127 A 
ATOM      9  N   UNL     1     135.396 146.621 108.067  1.00  0.00    -0.340 N 
ATOM     10  H   UNL     1     135.739 146.955 108.995  1.00  0.00     0.168 HD
ENDROOT
BRANCH   7  11
ATOM     11  N   UNL     1     132.871 147.125 109.663  1.00  0.00    -0.382 N 
ATOM     12  H   UNL     1     133.712 147.109 110.281  1.00  0.00     0.158 HD
ATOM     13  H   UNL     1     131.974 147.496 110.050  1.00  0.00     0.158 HD
ENDBRANCH   7  11
TORSDOF 1
ENDMDL
MODEL 4
REMARK VINA RESULT:    -3.663      1.313      3.281
REMARK INTER + INTRA:          -3.771
REMARK INTER:                  -3.771
REMARK INTRA:                   0.000
REMARK UNBOUND:                 0.000
REMARK SMILES Nc1ncnc2nc[nH]c12
REMARK SMILES IDX 8 1 7 2 6 3 5 4 4 5 3 6 2 7 10 8 9 9 1 11
REMARK H PARENT 9 10 1 12 1 13
REMARK Flexibility Score: inf
ROOT
ATOM      1  C   UNL     1     142.889 146.001 106.886  1.00  0.00     0.199 A 
ATOM      2  N   UNL     1     142.534 145.074 105.955  1.00  0.00    -0.217 NA
ATOM      3  C   UNL     1     143.381 144.065 106.219  1.00  0.00     0.182 A 
ATOM      4  N   UNL     1     143.451 142.878 105.572  1.00  0.00    -0.215 NA
ATOM      5  C   UNL     1     144.385 141.970 105.986  1.00  0.00     0.226 A 
ATOM      6  N   UNL     1     145.224 142.262 107.033  1.00  0.00    -0.217 NA
ATOM      7  C   UNL     1     145.155 143.460 107.688  1.00  0.00     0.152 A 
ATOM      8  C   UNL     1     144.198 144.373 107.253  1.00  0.00     0.127 A 
ATOM      9  N   UNL     1     143.904 145.603 107.695  1.00  0.00    -0.340 N 
ATOM     10  H   UNL     1     144.344 146.138 108.475  1.00  0.00     0.168 HD
ENDROOT
BRANCH   7  11
ATOM     11  N   UNL     1     146.038 143.742 108.773  1.00  0.00    -0.382 N 
ATOM     12  H   UNL     1     146.579 144.634 108.817  1.00  0.00     0.158 HD
ATOM     13  H   UNL     1     146.155 143.050 109.546  1.00  0.00     0.158 HD
ENDBRANCH   7  11
TORSDOF 1
ENDMDL
MODEL 5
REMARK VINA RESULT:    -3.651     17.477     18.172
REMARK INTER + INTRA:          -3.758
REMARK INTER:                  -3.758
REMARK INTRA:                   0.000
REMARK UNBOUND:                 0.000
REMARK SMILES Nc1ncnc2nc[nH]c12
REMARK SMILES IDX 8 1 7 2 6 3 5 4 4 5 3 6 2 7 10 8 9 9 1 11
REMARK H PARENT 9 10 1 12 1 13
REMARK Flexibility Score: inf
ROOT
ATOM      1  C   UNL     1     126.875 146.137 108.464  1.00  0.00     0.199 A 
ATOM      2  N   UNL     1     127.116 144.877 108.918  1.00  0.00    -0.217 NA
ATOM      3  C   UNL     1     127.272 144.187 107.776  1.00  0.00     0.182 A 
ATOM      4  N   UNL     1     127.536 142.864 107.660  1.00  0.00    -0.215 NA
ATOM      5  C   UNL     1     127.660 142.337 106.405  1.00  0.00     0.226 A 
ATOM      6  N   UNL     1     127.522 143.136 105.297  1.00  0.00    -0.217 NA
ATOM      7  C   UNL     1     127.256 144.472 105.412  1.00  0.00     0.152 A 
ATOM      8  C   UNL     1     127.132 144.992 106.697  1.00  0.00     0.127 A 
ATOM      9  N   UNL     1     126.878 146.240 107.110  1.00  0.00    -0.340 N 
ATOM     10  H   UNL     1     126.718 147.098 106.537  1.00  0.00     0.168 HD
ENDROOT
BRANCH   7  11
ATOM     11  N   UNL     1     127.115 145.283 104.245  1.00  0.00    -0.382 N 
ATOM     12  H   UNL     1     127.457 144.960 103.313  1.00  0.00     0.158 HD
ATOM     13  H   UNL     1     126.662 146.222 104.313  1.00  0.00     0.158 HD
ENDBRANCH   7  11
TORSDOF 1
ENDMDL
MODEL 6
REMARK VINA RESULT:    -3.620     17.655     17.993
REMARK INTER + INTRA:          -3.725
REMARK INTER:                  -3.725
REMARK INTRA:                   0.000
REMARK UNBOUND:                 0.000
REMARK SMILES Nc1ncnc2nc[nH]c12
REMARK SMILES IDX 8 1 7 2 6 3 5 4 4 5 3 6 2 7 10 8 9 9 1 11
REMARK H PARENT 9 10 1 12 1 13
REMARK Flexibility Score: inf
ROOT
ATOM      1  C   UNL     1     127.451 141.821 106.939  1.00  0.00     0.199 A 
ATOM      2  N   UNL     1     127.370 142.484 108.125  1.00  0.00    -0.217 NA
ATOM      3  C   UNL     1     127.243 143.761 107.731  1.00  0.00     0.182 A 
ATOM      4  N   UNL     1     127.122 144.846 108.532  1.00  0.00    -0.215 NA
ATOM      5  C   UNL     1     127.001 146.074 107.943  1.00  0.00     0.226 A 
ATOM      6  N   UNL     1     127.002 146.194 106.576  1.00  0.00    -0.217 NA
ATOM      7  C   UNL     1     127.124 145.100 105.765  1.00  0.00     0.152 A 
ATOM      8  C   UNL     1     127.245 143.857 106.381  1.00  0.00     0.127 A 
ATOM      9  N   UNL     1     127.378 142.634 105.853  1.00  0.00    -0.340 N 
ATOM     10  H   UNL     1     127.416 142.357 104.848  1.00  0.00     0.168 HD
ENDROOT
BRANCH   7  11
ATOM     11  N   UNL     1     127.122 145.249 104.345  1.00  0.00    -0.382 N 
ATOM     12  H   UNL     1     127.092 146.191 103.897  1.00  0.00     0.158 HD
ATOM     13  H   UNL     1     127.153 144.405 103.731  1.00  0.00     0.158 HD
ENDBRANCH   7  11
TORSDOF 1
ENDMDL
MODEL 7
REMARK VINA RESULT:    -3.534     16.674     18.291
REMARK INTER + INTRA:          -3.637
REMARK INTER:                  -3.637
REMARK INTRA:                   0.000
REMARK UNBOUND:                 0.000
REMARK SMILES Nc1ncnc2nc[nH]c12
REMARK SMILES IDX 8 1 7 2 6 3 5 4 4 5 3 6 2 7 10 8 9 9 1 11
REMARK H PARENT 9 10 1 12 1 13
REMARK Flexibility Score: inf
ROOT
ATOM      1  C   UNL     1     144.650 131.820 121.827  1.00  0.00     0.199 A 
ATOM      2  N   UNL     1     145.620 130.974 122.271  1.00  0.00    -0.217 NA
ATOM      3  C   UNL     1     145.967 130.323 121.149  1.00  0.00     0.182 A 
ATOM      4  N   UNL     1     146.908 129.356 121.033  1.00  0.00    -0.215 NA
ATOM      5  C   UNL     1     147.121 128.806 119.800  1.00  0.00     0.226 A 
ATOM      6  N   UNL     1     146.399 129.232 118.713  1.00  0.00    -0.217 NA
ATOM      7  C   UNL     1     145.449 130.208 118.827  1.00  0.00     0.152 A 
ATOM      8  C   UNL     1     145.244 130.757 120.090  1.00  0.00     0.127 A 
ATOM      9  N   UNL     1     144.397 131.711 120.498  1.00  0.00    -0.340 N 
ATOM     10  H   UNL     1     143.702 132.251 119.936  1.00  0.00     0.168 HD
ENDROOT
BRANCH   7  11
ATOM     11  N   UNL     1     144.709 130.635 117.683  1.00  0.00    -0.382 N 
ATOM     12  H   UNL     1     145.008 131.461 117.119  1.00  0.00     0.158 HD
ATOM     13  H   UNL     1     143.850 130.117 117.394  1.00  0.00     0.158 HD
ENDBRANCH   7  11
TORSDOF 1
ENDMDL
MODEL 8
REMARK VINA RESULT:    -3.453      4.764      5.506
REMARK INTER + INTRA:          -3.554
REMARK INTER:                  -3.554
REMARK INTRA:                   0.000
REMARK UNBOUND:                 0.000
REMARK SMILES Nc1ncnc2nc[nH]c12
REMARK SMILES IDX 8 1 7 2 6 3 5 4 4 5 3 6 2 7 10 8 9 9 1 11
REMARK H PARENT 9 10 1 12 1 13
REMARK Flexibility Score: inf
ROOT
ATOM      1  C   UNL     1     144.664 142.632 113.673  1.00  0.00     0.199 A 
ATOM      2  N   UNL     1     143.469 143.275 113.573  1.00  0.00    -0.217 NA
ATOM      3  C   UNL     1     143.711 144.178 112.608  1.00  0.00     0.182 A 
ATOM      4  N   UNL     1     142.837 145.088 112.115  1.00  0.00    -0.215 NA
ATOM      5  C   UNL     1     143.269 145.929 111.128  1.00  0.00     0.226 A 
ATOM      6  N   UNL     1     144.555 145.846 110.654  1.00  0.00    -0.217 NA
ATOM      7  C   UNL     1     145.438 144.928 111.151  1.00  0.00     0.152 A 
ATOM      8  C   UNL     1     144.982 144.079 112.156  1.00  0.00     0.127 A 
ATOM      9  N   UNL     1     145.611 143.100 112.820  1.00  0.00    -0.340 N 
ATOM     10  H   UNL     1     146.594 142.767 112.715  1.00  0.00     0.168 HD
ENDROOT
BRANCH   7  11
ATOM     11  N   UNL     1     146.771 144.860 110.643  1.00  0.00    -0.382 N 
ATOM     12  H   UNL     1     147.526 144.360 111.163  1.00  0.00     0.158 HD
ATOM     13  H   UNL     1     147.008 145.315 109.734  1.00  0.00     0.158 HD
ENDBRANCH   7  11
TORSDOF 1
ENDMDL
MODEL 9
REMARK VINA RESULT:    -3.370     11.685     12.856
REMARK INTER + INTRA:          -3.468
REMARK INTER:                  -3.468
REMARK INTRA:                   0.000
REMARK UNBOUND:                 0.000
REMARK SMILES Nc1ncnc2nc[nH]c12
REMARK SMILES IDX 8 1 7 2 6 3 5 4 4 5 3 6 2 7 10 8 9 9 1 11
REMARK H PARENT 9 10 1 12 1 13
REMARK Flexibility Score: inf
ROOT
ATOM      1  C   UNL     1     131.897 146.464 110.382  1.00  0.00     0.199 A 
ATOM      2  N   UNL     1     131.072 146.078 109.369  1.00  0.00    -0.217 NA
ATOM      3  C   UNL     1     131.908 146.040 108.319  1.00  0.00     0.182 A 
ATOM      4  N   UNL     1     131.591 145.707 107.045  1.00  0.00    -0.215 NA
ATOM      5  C   UNL     1     132.584 145.726 106.106  1.00  0.00     0.226 A 
ATOM      6  N   UNL     1     133.866 146.072 106.454  1.00  0.00    -0.217 NA
ATOM      7  C   UNL     1     134.188 146.407 107.740  1.00  0.00     0.152 A 
ATOM      8  C   UNL     1     133.165 146.383 108.684  1.00  0.00     0.127 A 
ATOM      9  N   UNL     1     133.183 146.659 109.994  1.00  0.00    -0.340 N 
ATOM     10  H   UNL     1     133.989 146.954 110.588  1.00  0.00     0.168 HD
ENDROOT
BRANCH   7  11
ATOM     11  N   UNL     1     135.529 146.764 108.079  1.00  0.00    -0.382 N 
ATOM     12  H   UNL     1     136.322 146.585 107.424  1.00  0.00     0.158 HD
ATOM     13  H   UNL     1     135.733 147.215 108.998  1.00  0.00     0.158 HD
ENDBRANCH   7  11
TORSDOF 1
ENDMDL
