MODEL 1
REMARK VINA RESULT:    -8.225      0.000      0.000
REMARK INTER + INTRA:          -8.465
REMARK INTER:                  -8.465
REMARK INTRA:                   0.000
REMARK UNBOUND:                 0.000
REMARK SMILES C=C1CCC[C@@]2(C)C[C@@]3(O)OC(=O)C(C)=C3C[C@@H]12
REMARK SMILES IDX 15 1 14 2 16 3 17 4 18 5 2 6 1 7 3 8 4 9 5 10 6 11 8 12 9 13
REMARK SMILES IDX 11 14 12 15 13 16 7 17 10 18
REMARK H PARENT 10 19
REMARK Flexibility Score: inf
ROOT
ATOM      1  C   UNL     1       9.740 -43.721  45.845  1.00  0.00     0.052 C 
ATOM      2  C   UNL     1      11.027 -44.037  45.150  1.00  0.00     0.040 C 
ATOM      3  C   UNL     1      11.959 -44.893  45.565  1.00  0.00     0.012 C 
ATOM      4  C   UNL     1      11.866 -45.762  46.782  1.00  0.00     0.047 C 
ATOM      5  C   UNL     1      13.062 -46.737  46.830  1.00  0.00     0.025 C 
ATOM      6  C   UNL     1      12.923 -47.663  48.029  1.00  0.00    -0.073 C 
ATOM      7  C   UNL     1      13.469 -47.332  49.211  1.00  0.00     0.008 C 
ATOM      8  C   UNL     1      12.028 -48.872  47.922  1.00  0.00     0.031 C 
ATOM      9  C   UNL     1      12.327 -49.651  46.642  1.00  0.00     0.005 C 
ATOM     10  C   UNL     1      12.280 -48.737  45.409  1.00  0.00     0.008 C 
ATOM     11  C   UNL     1      13.271 -47.535  45.483  1.00  0.00    -0.019 C 
ATOM     12  C   UNL     1      13.048 -46.638  44.200  1.00  0.00     0.092 C 
ATOM     13  C   UNL     1      12.992 -45.130  44.498  1.00  0.00     0.235 C 
ATOM     14  O   UNL     1      12.498 -44.383  43.387  1.00  0.00    -0.426 OA
ATOM     15  C   UNL     1      11.350 -43.716  43.776  1.00  0.00     0.336 C 
ATOM     16  O   UNL     1      10.677 -42.972  43.017  1.00  0.00    -0.246 OA
ATOM     17  C   UNL     1      14.729 -48.061  45.446  1.00  0.00     0.012 C 
ENDROOT
BRANCH  13  18
ATOM     18  O   UNL     1      14.238 -44.630  44.905  1.00  0.00    -0.353 OA
ATOM     19  H   UNL     1      14.054 -43.858  45.501  1.00  0.00     0.215 HD
ENDBRANCH  13  18
TORSDOF 1
ENDMDL
MODEL 2
REMARK VINA RESULT:    -7.891      7.631     10.041
REMARK INTER + INTRA:          -8.122
REMARK INTER:                  -8.122
REMARK INTRA:                   0.000
REMARK UNBOUND:                 0.000
REMARK SMILES C=C1CCC[C@@]2(C)C[C@@]3(O)OC(=O)C(C)=C3C[C@@H]12
REMARK SMILES IDX 15 1 14 2 16 3 17 4 18 5 2 6 1 7 3 8 4 9 5 10 6 11 8 12 9 13
REMARK SMILES IDX 11 14 12 15 13 16 7 17 10 18
REMARK H PARENT 10 19
REMARK Flexibility Score: inf
ROOT
ATOM      1  C   UNL     1      14.091 -46.667  37.084  1.00  0.00     0.052 C 
ATOM      2  C   UNL     1      12.917 -46.598  38.010  1.00  0.00     0.040 C 
ATOM      3  C   UNL     1      11.663 -46.300  37.675  1.00  0.00     0.012 C 
ATOM      4  C   UNL     1      11.169 -46.044  36.283  1.00  0.00     0.047 C 
ATOM      5  C   UNL     1       9.632 -45.906  36.284  1.00  0.00     0.025 C 
ATOM      6  C   UNL     1       9.132 -45.718  34.859  1.00  0.00    -0.073 C 
ATOM      7  C   UNL     1       8.991 -44.485  34.346  1.00  0.00     0.008 C 
ATOM      8  C   UNL     1       8.957 -46.929  33.977  1.00  0.00     0.031 C 
ATOM      9  C   UNL     1       8.173 -48.017  34.708  1.00  0.00     0.005 C 
ATOM     10  C   UNL     1       8.799 -48.334  36.073  1.00  0.00     0.008 C 
ATOM     11  C   UNL     1       8.899 -47.097  37.019  1.00  0.00    -0.019 C 
ATOM     12  C   UNL     1       9.640 -47.549  38.340  1.00  0.00     0.092 C 
ATOM     13  C   UNL     1      10.719 -46.562  38.816  1.00  0.00     0.235 C 
ATOM     14  O   UNL     1      11.561 -47.131  39.818  1.00  0.00    -0.426 OA
ATOM     15  C   UNL     1      12.864 -47.131  39.355  1.00  0.00     0.336 C 
ATOM     16  O   UNL     1      13.844 -47.572  40.010  1.00  0.00    -0.246 OA
ATOM     17  C   UNL     1       7.475 -46.627  37.411  1.00  0.00     0.012 C 
ENDROOT
BRANCH  13  18
ATOM     18  O   UNL     1      10.162 -45.359  39.275  1.00  0.00    -0.353 OA
ATOM     19  H   UNL     1      10.474 -44.647  38.657  1.00  0.00     0.215 HD
ENDBRANCH  13  18
TORSDOF 1
ENDMDL
MODEL 3
REMARK VINA RESULT:    -7.536     12.150     14.488
REMARK INTER + INTRA:          -7.756
REMARK INTER:                  -7.756
REMARK INTRA:                   0.000
REMARK UNBOUND:                 0.000
REMARK SMILES C=C1CCC[C@@]2(C)C[C@@]3(O)OC(=O)C(C)=C3C[C@@H]12
REMARK SMILES IDX 15 1 14 2 16 3 17 4 18 5 2 6 1 7 3 8 4 9 5 10 6 11 8 12 9 13
REMARK SMILES IDX 11 14 12 15 13 16 7 17 10 18
REMARK H PARENT 10 19
REMARK Flexibility Score: inf
ROOT
ATOM      1  C   UNL     1       5.166 -49.004  35.684  1.00  0.00     0.052 C 
ATOM      2  C   UNL     1       6.547 -48.820  35.136  1.00  0.00     0.040 C 
ATOM      3  C   UNL     1       6.867 -48.254  33.974  1.00  0.00     0.012 C 
ATOM      4  C   UNL     1       5.902 -47.625  33.015  1.00  0.00     0.047 C 
ATOM      5  C   UNL     1       6.670 -46.927  31.872  1.00  0.00     0.025 C 
ATOM      6  C   UNL     1       5.688 -46.231  30.943  1.00  0.00    -0.073 C 
ATOM      7  C   UNL     1       5.188 -46.876  29.875  1.00  0.00     0.008 C 
ATOM      8  C   UNL     1       5.154 -44.872  31.323  1.00  0.00     0.031 C 
ATOM      9  C   UNL     1       6.295 -43.943  31.734  1.00  0.00     0.005 C 
ATOM     10  C   UNL     1       7.177 -44.585  32.814  1.00  0.00     0.008 C 
ATOM     11  C   UNL     1       7.800 -45.949  32.385  1.00  0.00    -0.019 C 
ATOM     12  C   UNL     1       8.599 -46.531  33.618  1.00  0.00     0.092 C 
ATOM     13  C   UNL     1       8.350 -48.028  33.870  1.00  0.00     0.235 C 
ATOM     14  O   UNL     1       8.839 -48.446  35.144  1.00  0.00    -0.426 OA
ATOM     15  C   UNL     1       7.780 -48.937  35.886  1.00  0.00     0.336 C 
ATOM     16  O   UNL     1       7.888 -49.382  37.058  1.00  0.00    -0.246 OA
ATOM     17  C   UNL     1       8.809 -45.719  31.232  1.00  0.00     0.012 C 
ENDROOT
BRANCH  13  18
ATOM     18  O   UNL     1       8.896 -48.828  32.854  1.00  0.00    -0.353 OA
ATOM     19  H   UNL     1       9.094 -48.223  32.092  1.00  0.00     0.215 HD
ENDBRANCH  13  18
TORSDOF 1
ENDMDL
MODEL 4
REMARK VINA RESULT:    -7.328      8.355     10.413
REMARK INTER + INTRA:          -7.542
REMARK INTER:                  -7.542
REMARK INTRA:                   0.000
REMARK UNBOUND:                 0.000
REMARK SMILES C=C1CCC[C@@]2(C)C[C@@]3(O)OC(=O)C(C)=C3C[C@@H]12
REMARK SMILES IDX 15 1 14 2 16 3 17 4 18 5 2 6 1 7 3 8 4 9 5 10 6 11 8 12 9 13
REMARK SMILES IDX 11 14 12 15 13 16 7 17 10 18
REMARK H PARENT 10 19
REMARK Flexibility Score: inf
ROOT
ATOM      1  C   UNL     1      12.673 -46.001  37.094  1.00  0.00     0.052 C 
ATOM      2  C   UNL     1      11.437 -46.216  37.909  1.00  0.00     0.040 C 
ATOM      3  C   UNL     1      10.215 -46.464  37.440  1.00  0.00     0.012 C 
ATOM      4  C   UNL     1       9.855 -46.647  35.997  1.00  0.00     0.047 C 
ATOM      5  C   UNL     1       8.381 -47.090  35.870  1.00  0.00     0.025 C 
ATOM      6  C   UNL     1       8.044 -47.342  34.409  1.00  0.00    -0.073 C 
ATOM      7  C   UNL     1       7.550 -46.354  33.645  1.00  0.00     0.008 C 
ATOM      8  C   UNL     1       8.424 -48.662  33.785  1.00  0.00     0.031 C 
ATOM      9  C   UNL     1       7.981 -49.824  34.673  1.00  0.00     0.005 C 
ATOM     10  C   UNL     1       8.488 -49.652  36.112  1.00  0.00     0.008 C 
ATOM     11  C   UNL     1       8.020 -48.325  36.786  1.00  0.00    -0.019 C 
ATOM     12  C   UNL     1       8.688 -48.242  38.217  1.00  0.00     0.092 C 
ATOM     13  C   UNL     1       9.278 -46.860  38.548  1.00  0.00     0.235 C 
ATOM     14  O   UNL     1      10.124 -46.900  39.697  1.00  0.00    -0.426 OA
ATOM     15  C   UNL     1      11.394 -46.496  39.328  1.00  0.00     0.336 C 
ATOM     16  O   UNL     1      12.368 -46.426  40.121  1.00  0.00    -0.246 OA
ATOM     17  C   UNL     1       6.483 -48.357  36.982  1.00  0.00     0.012 C 
ENDROOT
BRANCH  13  18
ATOM     18  O   UNL     1       8.278 -45.890  38.712  1.00  0.00    -0.353 OA
ATOM     19  H   UNL     1       8.476 -45.419  39.564  1.00  0.00     0.215 HD
ENDBRANCH  13  18
TORSDOF 1
ENDMDL
MODEL 5
REMARK VINA RESULT:    -7.291     10.680     12.221
REMARK INTER + INTRA:          -7.504
REMARK INTER:                  -7.504
REMARK INTRA:                   0.000
REMARK UNBOUND:                 0.000
REMARK SMILES C=C1CCC[C@@]2(C)C[C@@]3(O)OC(=O)C(C)=C3C[C@@H]12
REMARK SMILES IDX 15 1 14 2 16 3 17 4 18 5 2 6 1 7 3 8 4 9 5 10 6 11 8 12 9 13
REMARK SMILES IDX 11 14 12 15 13 16 7 17 10 18
REMARK H PARENT 10 19
REMARK Flexibility Score: inf
ROOT
ATOM      1  C   UNL     1       7.513 -46.935  31.680  1.00  0.00     0.052 C 
ATOM      2  C   UNL     1       8.046 -46.663  33.051  1.00  0.00     0.040 C 
ATOM      3  C   UNL     1       7.534 -47.102  34.200  1.00  0.00     0.012 C 
ATOM      4  C   UNL     1       6.356 -48.018  34.336  1.00  0.00     0.047 C 
ATOM      5  C   UNL     1       6.178 -48.436  35.812  1.00  0.00     0.025 C 
ATOM      6  C   UNL     1       5.026 -49.421  35.931  1.00  0.00    -0.073 C 
ATOM      7  C   UNL     1       3.778 -48.983  36.166  1.00  0.00     0.008 C 
ATOM      8  C   UNL     1       5.269 -50.877  35.619  1.00  0.00     0.031 C 
ATOM      9  C   UNL     1       6.517 -51.380  36.343  1.00  0.00     0.005 C 
ATOM     10  C   UNL     1       7.727 -50.478  36.063  1.00  0.00     0.008 C 
ATOM     11  C   UNL     1       7.504 -48.988  36.469  1.00  0.00    -0.019 C 
ATOM     12  C   UNL     1       8.786 -48.168  36.042  1.00  0.00     0.092 C 
ATOM     13  C   UNL     1       8.467 -46.832  35.349  1.00  0.00     0.235 C 
ATOM     14  O   UNL     1       9.616 -46.269  34.716  1.00  0.00    -0.426 OA
ATOM     15  C   UNL     1       9.361 -46.144  33.363  1.00  0.00     0.336 C 
ATOM     16  O   UNL     1      10.184 -45.679  32.532  1.00  0.00    -0.246 OA
ATOM     17  C   UNL     1       7.367 -48.885  38.010  1.00  0.00     0.012 C 
ENDROOT
BRANCH  13  18
ATOM     18  O   UNL     1       7.895 -45.906  36.234  1.00  0.00    -0.353 OA
ATOM     19  H   UNL     1       8.646 -45.486  36.730  1.00  0.00     0.215 HD
ENDBRANCH  13  18
TORSDOF 1
ENDMDL
MODEL 6
REMARK VINA RESULT:    -7.244     10.452     12.315
REMARK INTER + INTRA:          -7.456
REMARK INTER:                  -7.456
REMARK INTRA:                   0.000
REMARK UNBOUND:                 0.000
REMARK SMILES C=C1CCC[C@@]2(C)C[C@@]3(O)OC(=O)C(C)=C3C[C@@H]12
REMARK SMILES IDX 15 1 14 2 16 3 17 4 18 5 2 6 1 7 3 8 4 9 5 10 6 11 8 12 9 13
REMARK SMILES IDX 11 14 12 15 13 16 7 17 10 18
REMARK H PARENT 10 19
REMARK Flexibility Score: inf
ROOT
ATOM      1  C   UNL     1       7.623 -43.370  32.439  1.00  0.00     0.052 C 
ATOM      2  C   UNL     1       7.541 -44.865  32.413  1.00  0.00     0.040 C 
ATOM      3  C   UNL     1       8.181 -45.705  33.224  1.00  0.00     0.012 C 
ATOM      4  C   UNL     1       9.059 -45.310  34.373  1.00  0.00     0.047 C 
ATOM      5  C   UNL     1       9.476 -46.562  35.175  1.00  0.00     0.025 C 
ATOM      6  C   UNL     1      10.307 -46.147  36.379  1.00  0.00    -0.073 C 
ATOM      7  C   UNL     1      11.645 -46.069  36.287  1.00  0.00     0.008 C 
ATOM      8  C   UNL     1       9.606 -45.665  37.625  1.00  0.00     0.031 C 
ATOM      9  C   UNL     1       8.488 -46.628  38.019  1.00  0.00     0.005 C 
ATOM     10  C   UNL     1       7.540 -46.896  36.841  1.00  0.00     0.008 C 
ATOM     11  C   UNL     1       8.255 -47.478  35.582  1.00  0.00    -0.019 C 
ATOM     12  C   UNL     1       7.182 -47.614  34.429  1.00  0.00     0.092 C 
ATOM     13  C   UNL     1       7.672 -47.111  33.061  1.00  0.00     0.235 C 
ATOM     14  O   UNL     1       6.602 -46.969  32.128  1.00  0.00    -0.426 OA
ATOM     15  C   UNL     1       6.537 -45.648  31.724  1.00  0.00     0.336 C 
ATOM     16  O   UNL     1       5.694 -45.203  30.903  1.00  0.00    -0.246 OA
ATOM     17  C   UNL     1       8.792 -48.897  35.900  1.00  0.00     0.012 C 
ENDROOT
BRANCH  13  18
ATOM     18  O   UNL     1       8.676 -47.935  32.529  1.00  0.00    -0.353 OA
ATOM     19  H   UNL     1       8.879 -47.586  31.622  1.00  0.00     0.215 HD
ENDBRANCH  13  18
TORSDOF 1
ENDMDL
MODEL 7
REMARK VINA RESULT:    -7.004      6.371      9.894
REMARK INTER + INTRA:          -7.209
REMARK INTER:                  -7.209
REMARK INTRA:                   0.000
REMARK UNBOUND:                 0.000
REMARK SMILES C=C1CCC[C@@]2(C)C[C@@]3(O)OC(=O)C(C)=C3C[C@@H]12
REMARK SMILES IDX 15 1 14 2 16 3 17 4 18 5 2 6 1 7 3 8 4 9 5 10 6 11 8 12 9 13
REMARK SMILES IDX 11 14 12 15 13 16 7 17 10 18
REMARK H PARENT 10 19
REMARK Flexibility Score: inf
ROOT
ATOM      1  C   UNL     1      10.131 -41.566  44.989  1.00  0.00     0.052 C 
ATOM      2  C   UNL     1       9.378 -40.851  46.067  1.00  0.00     0.040 C 
ATOM      3  C   UNL     1       9.550 -39.586  46.445  1.00  0.00     0.012 C 
ATOM      4  C   UNL     1      10.491 -38.606  45.812  1.00  0.00     0.047 C 
ATOM      5  C   UNL     1      10.277 -37.201  46.414  1.00  0.00     0.025 C 
ATOM      6  C   UNL     1      11.184 -36.199  45.717  1.00  0.00    -0.073 C 
ATOM      7  C   UNL     1      12.412 -35.944  46.197  1.00  0.00     0.008 C 
ATOM      8  C   UNL     1      10.757 -35.621  44.390  1.00  0.00     0.031 C 
ATOM      9  C   UNL     1       9.315 -35.119  44.462  1.00  0.00     0.005 C 
ATOM     10  C   UNL     1       8.372 -36.207  44.995  1.00  0.00     0.008 C 
ATOM     11  C   UNL     1       8.766 -36.741  46.407  1.00  0.00    -0.019 C 
ATOM     12  C   UNL     1       7.769 -37.909  46.784  1.00  0.00     0.092 C 
ATOM     13  C   UNL     1       8.460 -39.146  47.384  1.00  0.00     0.235 C 
ATOM     14  O   UNL     1       7.589 -40.275  47.431  1.00  0.00    -0.426 OA
ATOM     15  C   UNL     1       8.140 -41.293  46.674  1.00  0.00     0.336 C 
ATOM     16  O   UNL     1       7.607 -42.422  46.518  1.00  0.00    -0.246 OA
ATOM     17  C   UNL     1       8.592 -35.613  47.455  1.00  0.00     0.012 C 
ENDROOT
BRANCH  13  18
ATOM     18  O   UNL     1       8.988 -38.884  48.657  1.00  0.00    -0.353 OA
ATOM     19  H   UNL     1       8.292 -38.380  49.155  1.00  0.00     0.215 HD
ENDBRANCH  13  18
TORSDOF 1
ENDMDL
MODEL 8
REMARK VINA RESULT:    -6.743      9.001     10.552
REMARK INTER + INTRA:          -6.940
REMARK INTER:                  -6.940
REMARK INTRA:                   0.000
REMARK UNBOUND:                 0.000
REMARK SMILES C=C1CCC[C@@]2(C)C[C@@]3(O)OC(=O)C(C)=C3C[C@@H]12
REMARK SMILES IDX 15 1 14 2 16 3 17 4 18 5 2 6 1 7 3 8 4 9 5 10 6 11 8 12 9 13
REMARK SMILES IDX 11 14 12 15 13 16 7 17 10 18
REMARK H PARENT 10 19
REMARK Flexibility Score: inf
ROOT
ATOM      1  C   UNL     1       6.345 -34.987  42.996  1.00  0.00     0.052 C 
ATOM      2  C   UNL     1       7.789 -35.380  42.994  1.00  0.00     0.040 C 
ATOM      3  C   UNL     1       8.552 -35.586  44.066  1.00  0.00     0.012 C 
ATOM      4  C   UNL     1       8.090 -35.532  45.490  1.00  0.00     0.047 C 
ATOM      5  C   UNL     1       9.221 -35.997  46.432  1.00  0.00     0.025 C 
ATOM      6  C   UNL     1       8.722 -36.008  47.869  1.00  0.00    -0.073 C 
ATOM      7  C   UNL     1       8.863 -34.922  48.646  1.00  0.00     0.008 C 
ATOM      8  C   UNL     1       7.920 -37.189  48.358  1.00  0.00     0.031 C 
ATOM      9  C   UNL     1       8.616 -38.499  47.996  1.00  0.00     0.005 C 
ATOM     10  C   UNL     1       8.950 -38.558  46.499  1.00  0.00     0.008 C 
ATOM     11  C   UNL     1       9.854 -37.383  46.012  1.00  0.00    -0.019 C 
ATOM     12  C   UNL     1      10.037 -37.522  44.448  1.00  0.00     0.092 C 
ATOM     13  C   UNL     1       9.872 -36.198  43.683  1.00  0.00     0.235 C 
ATOM     14  O   UNL     1       9.745 -36.404  42.276  1.00  0.00    -0.426 OA
ATOM     15  C   UNL     1       8.526 -35.900  41.862  1.00  0.00     0.336 C 
ATOM     16  O   UNL     1       8.118 -35.933  40.672  1.00  0.00    -0.246 OA
ATOM     17  C   UNL     1      11.254 -37.500  46.665  1.00  0.00     0.012 C 
ENDROOT
BRANCH  13  18
ATOM     18  O   UNL     1      10.920 -35.304  43.951  1.00  0.00    -0.353 OA
ATOM     19  H   UNL     1      11.485 -35.729  44.648  1.00  0.00     0.215 HD
ENDBRANCH  13  18
TORSDOF 1
ENDMDL
MODEL 9
REMARK VINA RESULT:    -6.500      9.983     11.454
REMARK INTER + INTRA:          -6.690
REMARK INTER:                  -6.690
REMARK INTRA:                   0.000
REMARK UNBOUND:                 0.000
REMARK SMILES C=C1CCC[C@@]2(C)C[C@@]3(O)OC(=O)C(C)=C3C[C@@H]12
REMARK SMILES IDX 15 1 14 2 16 3 17 4 18 5 2 6 1 7 3 8 4 9 5 10 6 11 8 12 9 13
REMARK SMILES IDX 11 14 12 15 13 16 7 17 10 18
REMARK H PARENT 10 19
REMARK Flexibility Score: inf
ROOT
ATOM      1  C   UNL     1       8.617 -44.496  33.786  1.00  0.00     0.052 C 
ATOM      2  C   UNL     1       8.479 -45.973  33.587  1.00  0.00     0.040 C 
ATOM      3  C   UNL     1       8.563 -46.909  34.531  1.00  0.00     0.012 C 
ATOM      4  C   UNL     1       8.742 -46.655  35.997  1.00  0.00     0.047 C 
ATOM      5  C   UNL     1       8.617 -47.978  36.782  1.00  0.00     0.025 C 
ATOM      6  C   UNL     1       8.728 -47.703  38.274  1.00  0.00    -0.073 C 
ATOM      7  C   UNL     1       9.924 -47.745  38.886  1.00  0.00     0.008 C 
ATOM      8  C   UNL     1       7.512 -47.221  39.024  1.00  0.00     0.031 C 
ATOM      9  C   UNL     1       6.301 -48.095  38.703  1.00  0.00     0.005 C 
ATOM     10  C   UNL     1       6.085 -48.214  37.188  1.00  0.00     0.008 C 
ATOM     11  C   UNL     1       7.314 -48.796  36.424  1.00  0.00    -0.019 C 
ATOM     12  C   UNL     1       6.984 -48.775  34.878  1.00  0.00     0.092 C 
ATOM     13  C   UNL     1       8.136 -48.251  34.004  1.00  0.00     0.235 C 
ATOM     14  O   UNL     1       7.711 -47.964  32.672  1.00  0.00    -0.426 OA
ATOM     15  C   UNL     1       7.935 -46.624  32.414  1.00  0.00     0.336 C 
ATOM     16  O   UNL     1       7.662 -46.062  31.321  1.00  0.00    -0.246 OA
ATOM     17  C   UNL     1       7.532 -50.273  36.841  1.00  0.00     0.012 C 
ENDROOT
BRANCH  13  18
ATOM     18  O   UNL     1       9.224 -49.137  33.987  1.00  0.00    -0.353 OA
ATOM     19  H   UNL     1      10.012 -48.627  34.312  1.00  0.00     0.215 HD
ENDBRANCH  13  18
TORSDOF 1
ENDMDL
