MODEL 1
REMARK VINA RESULT:     2.538      0.000      0.000
REMARK INTER + INTRA:           2.792
REMARK INTER:                   2.687
REMARK INTRA:                   0.105
REMARK UNBOUND:                 0.105
REMARK SMILES CC1=C[C@H]2C(=C(C)CC[C@@H]2C(C)C)CC1
REMARK SMILES IDX 1 1 2 2 3 3 4 4 10 5 9 6 8 7 6 8 5 9 14 10 15 11 7 12 11 13
REMARK SMILES IDX 12 14 13 15
REMARK H PARENT
REMARK Flexibility Score: inf
ROOT
ATOM      1  C   UNL     1     -14.217  -1.994  21.063  1.00  0.00     0.039 C 
ATOM      2  C   UNL     1     -14.225  -1.998  19.560  1.00  0.00    -0.076 C 
ATOM      3  C   UNL     1     -15.268  -1.479  18.888  1.00  0.00    -0.020 C 
ATOM      4  C   UNL     1     -15.290  -1.528  17.371  1.00  0.00     0.041 C 
ATOM      5  C   UNL     1     -16.672  -1.104  16.802  1.00  0.00     0.003 C 
ATOM      6  C   UNL     1     -16.751  -1.500  15.317  1.00  0.00     0.009 C 
ATOM      7  C   UNL     1     -16.634  -3.014  15.173  1.00  0.00     0.031 C 
ATOM      8  C   UNL     1     -15.418  -3.575  15.879  1.00  0.00    -0.073 C 
ATOM      9  C   UNL     1     -14.836  -2.923  16.927  1.00  0.00    -0.064 C 
ATOM     10  C   UNL     1     -13.660  -3.551  17.676  1.00  0.00     0.036 C 
ATOM     11  C   UNL     1     -13.098  -2.631  18.774  1.00  0.00     0.035 C 
ATOM     12  C   UNL     1     -14.952  -4.949  15.457  1.00  0.00     0.039 C 
ENDROOT
BRANCH   5  13
ATOM     13  C   UNL     1     -16.984   0.415  17.037  1.00  0.00    -0.013 C 
ATOM     14  C   UNL     1     -15.722   1.189  17.445  1.00  0.00     0.007 C 
ATOM     15  C   UNL     1     -18.110   0.675  18.055  1.00  0.00     0.007 C 
ENDBRANCH   5  13
TORSDOF 1
ENDMDL
MODEL 2
REMARK VINA RESULT:     2.779      1.177      4.061
REMARK INTER + INTRA:           3.047
REMARK INTER:                   3.340
REMARK INTRA:                  -0.292
REMARK UNBOUND:                 0.105
REMARK SMILES CC1=C[C@H]2C(=C(C)CC[C@@H]2C(C)C)CC1
REMARK SMILES IDX 1 1 2 2 3 3 4 4 10 5 9 6 8 7 6 8 5 9 14 10 15 11 7 12 11 13
REMARK SMILES IDX 12 14 13 15
REMARK H PARENT
REMARK Flexibility Score: inf
ROOT
ATOM      1  C   UNL     1     -17.494   0.999  17.034  1.00  0.00     0.039 C 
ATOM      2  C   UNL     1     -16.833  -0.348  17.132  1.00  0.00    -0.076 C 
ATOM      3  C   UNL     1     -15.905  -0.578  18.077  1.00  0.00    -0.020 C 
ATOM      4  C   UNL     1     -15.209  -1.926  18.141  1.00  0.00     0.041 C 
ATOM      5  C   UNL     1     -14.014  -1.910  19.134  1.00  0.00     0.003 C 
ATOM      6  C   UNL     1     -13.148  -3.160  18.903  1.00  0.00     0.009 C 
ATOM      7  C   UNL     1     -12.577  -3.148  17.489  1.00  0.00     0.031 C 
ATOM      8  C   UNL     1     -13.643  -2.953  16.432  1.00  0.00    -0.073 C 
ATOM      9  C   UNL     1     -14.828  -2.340  16.715  1.00  0.00    -0.064 C 
ATOM     10  C   UNL     1     -15.853  -2.082  15.611  1.00  0.00     0.036 C 
ATOM     11  C   UNL     1     -17.150  -1.448  16.143  1.00  0.00     0.035 C 
ATOM     12  C   UNL     1     -13.289  -3.356  15.018  1.00  0.00     0.039 C 
ENDROOT
BRANCH   5  13
ATOM     13  C   UNL     1     -14.469  -1.759  20.627  1.00  0.00    -0.013 C 
ATOM     14  C   UNL     1     -13.262  -1.708  21.577  1.00  0.00     0.007 C 
ATOM     15  C   UNL     1     -15.457  -2.843  21.096  1.00  0.00     0.007 C 
ENDBRANCH   5  13
TORSDOF 1
ENDMDL
MODEL 3
REMARK VINA RESULT:     3.908      1.229      3.876
REMARK INTER + INTRA:           4.242
REMARK INTER:                   4.507
REMARK INTRA:                  -0.265
REMARK UNBOUND:                 0.105
REMARK SMILES CC1=C[C@H]2C(=C(C)CC[C@@H]2C(C)C)CC1
REMARK SMILES IDX 1 1 2 2 3 3 4 4 10 5 9 6 8 7 6 8 5 9 14 10 15 11 7 12 11 13
REMARK SMILES IDX 12 14 13 15
REMARK H PARENT
REMARK Flexibility Score: inf
ROOT
ATOM      1  C   UNL     1     -12.443  -2.022  20.984  1.00  0.00     0.039 C 
ATOM      2  C   UNL     1     -13.656  -2.230  20.120  1.00  0.00    -0.076 C 
ATOM      3  C   UNL     1     -13.515  -2.481  18.807  1.00  0.00    -0.020 C 
ATOM      4  C   UNL     1     -14.744  -2.646  17.932  1.00  0.00     0.041 C 
ATOM      5  C   UNL     1     -14.376  -2.686  16.423  1.00  0.00     0.003 C 
ATOM      6  C   UNL     1     -15.653  -2.501  15.585  1.00  0.00     0.009 C 
ATOM      7  C   UNL     1     -16.278  -1.141  15.876  1.00  0.00     0.031 C 
ATOM      8  C   UNL     1     -16.491  -0.900  17.355  1.00  0.00    -0.073 C 
ATOM      9  C   UNL     1     -15.747  -1.546  18.299  1.00  0.00    -0.064 C 
ATOM     10  C   UNL     1     -15.926  -1.224  19.783  1.00  0.00     0.036 C 
ATOM     11  C   UNL     1     -15.052  -2.107  20.690  1.00  0.00     0.035 C 
ATOM     12  C   UNL     1     -17.476   0.180  17.740  1.00  0.00     0.039 C 
ENDROOT
BRANCH   5  13
ATOM     13  C   UNL     1     -13.578  -3.976  16.028  1.00  0.00    -0.013 C 
ATOM     14  C   UNL     1     -12.347  -3.634  15.174  1.00  0.00     0.007 C 
ATOM     15  C   UNL     1     -14.426  -5.047  15.318  1.00  0.00     0.007 C 
ENDBRANCH   5  13
TORSDOF 1
ENDMDL
MODEL 4
REMARK VINA RESULT:     5.169      1.269      1.920
REMARK INTER + INTRA:           5.576
REMARK INTER:                   5.775
REMARK INTRA:                  -0.198
REMARK UNBOUND:                 0.105
REMARK SMILES CC1=C[C@H]2C(=C(C)CC[C@@H]2C(C)C)CC1
REMARK SMILES IDX 1 1 2 2 3 3 4 4 10 5 9 6 8 7 6 8 5 9 14 10 15 11 7 12 11 13
REMARK SMILES IDX 12 14 13 15
REMARK H PARENT
REMARK Flexibility Score: inf
ROOT
ATOM      1  C   UNL     1     -15.249  -2.430  22.097  1.00  0.00     0.039 C 
ATOM      2  C   UNL     1     -14.647  -2.088  20.763  1.00  0.00    -0.076 C 
ATOM      3  C   UNL     1     -15.438  -1.912  19.689  1.00  0.00    -0.020 C 
ATOM      4  C   UNL     1     -14.821  -1.612  18.336  1.00  0.00     0.041 C 
ATOM      5  C   UNL     1     -15.872  -1.685  17.194  1.00  0.00     0.003 C 
ATOM      6  C   UNL     1     -15.145  -1.721  15.838  1.00  0.00     0.009 C 
ATOM      7  C   UNL     1     -14.271  -2.967  15.746  1.00  0.00     0.031 C 
ATOM      8  C   UNL     1     -13.339  -3.116  16.930  1.00  0.00    -0.073 C 
ATOM      9  C   UNL     1     -13.619  -2.543  18.136  1.00  0.00    -0.064 C 
ATOM     10  C   UNL     1     -12.703  -2.776  19.338  1.00  0.00     0.036 C 
ATOM     11  C   UNL     1     -13.148  -1.989  20.583  1.00  0.00     0.035 C 
ATOM     12  C   UNL     1     -12.147  -4.029  16.756  1.00  0.00     0.039 C 
ENDROOT
BRANCH   5  13
ATOM     13  C   UNL     1     -16.937  -0.537  17.276  1.00  0.00    -0.013 C 
ATOM     14  C   UNL     1     -17.633  -0.322  15.923  1.00  0.00     0.007 C 
ATOM     15  C   UNL     1     -16.380   0.801  17.797  1.00  0.00     0.007 C 
ENDBRANCH   5  13
TORSDOF 1
ENDMDL
