MODEL 1
REMARK VINA RESULT:    -4.243      0.000      0.000
REMARK INTER + INTRA:         -10.749
REMARK INTER:                  -8.212
REMARK INTRA:                  -2.538
REMARK UNBOUND:                -2.538
REMARK SMILES CCCCCCCCCCCCCCCCCC(=O)[O-]
REMARK SMILES IDX 10 1 11 2 12 3 13 4 14 5 15 6 16 7 17 8 18 9 19 10 20 11
REMARK SMILES IDX 9 12 8 13 7 14 6 15 5 16 4 17 3 18 2 19 1 20
REMARK H PARENT
REMARK Flexibility Score: inf
ROOT
ATOM      1  C   UNL     1     -19.993 118.457  -1.913  1.00  0.00     0.000 C 
ENDROOT
BRANCH   1   2
ATOM      2  C   UNL     1     -20.987 118.145  -3.049  1.00  0.00     0.000 C 
BRANCH   2   3
ATOM      3  C   UNL     1     -21.334 116.652  -3.215  1.00  0.00     0.000 C 
BRANCH   3   4
ATOM      4  C   UNL     1     -20.121 115.713  -3.366  1.00  0.00     0.000 C 
BRANCH   4   5
ATOM      5  C   UNL     1     -20.236 114.375  -2.616  1.00  0.00     0.000 C 
BRANCH   5   6
ATOM      6  C   UNL     1     -20.658 114.547  -1.149  1.00  0.00     0.000 C 
BRANCH   6   7
ATOM      7  C   UNL     1     -19.449 114.888  -0.266  1.00  0.00     0.006 C 
BRANCH   7   8
ATOM      8  C   UNL     1     -18.238 113.996  -0.570  1.00  0.00     0.053 C 
BRANCH   8   9
ATOM      9  C   UNL     1     -17.010 114.804  -0.859  1.00  0.00     0.041 C 
ATOM     10  O   UNL     1     -17.110 115.936  -1.399  1.00  0.00    -0.550 OA
ATOM     11  O   UNL     1     -15.758 114.319  -0.502  1.00  0.00    -0.550 OA
ENDBRANCH   8   9
ENDBRANCH   7   8
ENDBRANCH   6   7
ENDBRANCH   5   6
ENDBRANCH   4   5
ENDBRANCH   3   4
ENDBRANCH   2   3
ENDBRANCH   1   2
BRANCH   1  12
ATOM     12  C   UNL     1     -19.695 119.954  -1.697  1.00  0.00     0.000 C 
BRANCH  12  13
ATOM     13  C   UNL     1     -20.540 120.643  -0.608  1.00  0.00    -0.000 C 
BRANCH  13  14
ATOM     14  C   UNL     1     -21.901 121.132  -1.130  1.00  0.00    -0.000 C 
BRANCH  14  15
ATOM     15  C   UNL     1     -23.091 120.519  -0.367  1.00  0.00    -0.000 C 
BRANCH  15  16
ATOM     16  C   UNL     1     -23.619 119.190  -0.941  1.00  0.00    -0.000 C 
BRANCH  16  17
ATOM     17  C   UNL     1     -24.190 118.257   0.141  1.00  0.00    -0.000 C 
BRANCH  17  18
ATOM     18  C   UNL     1     -23.287 117.044   0.412  1.00  0.00    -0.000 C 
BRANCH  18  19
ATOM     19  C   UNL     1     -21.844 117.447   0.749  1.00  0.00    -0.003 C 
ATOM     20  C   UNL     1     -21.751 118.035   2.153  1.00  0.00     0.004 C 
ENDBRANCH  18  19
ENDBRANCH  17  18
ENDBRANCH  16  17
ENDBRANCH  15  16
ENDBRANCH  14  15
ENDBRANCH  13  14
ENDBRANCH  12  13
ENDBRANCH   1  12
TORSDOF 16
ENDMDL
MODEL 2
REMARK VINA RESULT:    -4.230      1.049      3.537
REMARK INTER + INTRA:         -10.724
REMARK INTER:                  -8.079
REMARK INTRA:                  -2.645
REMARK UNBOUND:                -2.538
REMARK SMILES CCCCCCCCCCCCCCCCCC(=O)[O-]
REMARK SMILES IDX 10 1 11 2 12 3 13 4 14 5 15 6 16 7 17 8 18 9 19 10 20 11
REMARK SMILES IDX 9 12 8 13 7 14 6 15 5 16 4 17 3 18 2 19 1 20
REMARK H PARENT
REMARK Flexibility Score: inf
ROOT
ATOM      1  C   UNL     1     -25.115 118.433  -0.295  1.00  0.00     0.000 C 
ENDROOT
BRANCH   1   2
ATOM      2  C   UNL     1     -24.187 117.203  -0.245  1.00  0.00     0.000 C 
BRANCH   2   3
ATOM      3  C   UNL     1     -23.033 117.302   0.772  1.00  0.00     0.000 C 
BRANCH   3   4
ATOM      4  C   UNL     1     -21.774 116.490   0.412  1.00  0.00     0.000 C 
BRANCH   4   5
ATOM      5  C   UNL     1     -22.025 115.262  -0.481  1.00  0.00     0.000 C 
BRANCH   5   6
ATOM      6  C   UNL     1     -20.727 114.619  -0.993  1.00  0.00     0.000 C 
BRANCH   6   7
ATOM      7  C   UNL     1     -19.502 115.229  -0.298  1.00  0.00     0.006 C 
BRANCH   7   8
ATOM      8  C   UNL     1     -18.313 114.261  -0.259  1.00  0.00     0.053 C 
BRANCH   8   9
ATOM      9  C   UNL     1     -17.136 114.794  -1.017  1.00  0.00     0.041 C 
ATOM     10  O   UNL     1     -15.989 114.311  -0.825  1.00  0.00    -0.550 OA
ATOM     11  O   UNL     1     -17.311 115.802  -1.956  1.00  0.00    -0.550 OA
ENDBRANCH   8   9
ENDBRANCH   7   8
ENDBRANCH   6   7
ENDBRANCH   5   6
ENDBRANCH   4   5
ENDBRANCH   3   4
ENDBRANCH   2   3
ENDBRANCH   1   2
BRANCH   1  12
ATOM     12  C   UNL     1     -25.004 119.285  -1.575  1.00  0.00     0.000 C 
BRANCH  12  13
ATOM     13  C   UNL     1     -24.566 120.746  -1.357  1.00  0.00    -0.000 C 
BRANCH  13  14
ATOM     14  C   UNL     1     -23.083 120.981  -1.689  1.00  0.00    -0.000 C 
BRANCH  14  15
ATOM     15  C   UNL     1     -22.157 120.769  -0.476  1.00  0.00    -0.000 C 
BRANCH  15  16
ATOM     16  C   UNL     1     -20.659 121.001  -0.751  1.00  0.00    -0.000 C 
BRANCH  16  17
ATOM     17  C   UNL     1     -20.141 120.202  -1.960  1.00  0.00    -0.000 C 
BRANCH  17  18
ATOM     18  C   UNL     1     -19.946 118.711  -1.644  1.00  0.00    -0.000 C 
BRANCH  18  19
ATOM     19  C   UNL     1     -20.355 117.802  -2.812  1.00  0.00    -0.003 C 
ATOM     20  C   UNL     1     -21.846 117.926  -3.109  1.00  0.00     0.004 C 
ENDBRANCH  18  19
ENDBRANCH  17  18
ENDBRANCH  16  17
ENDBRANCH  15  16
ENDBRANCH  14  15
ENDBRANCH  13  14
ENDBRANCH  12  13
ENDBRANCH   1  12
TORSDOF 16
ENDMDL
MODEL 3
REMARK VINA RESULT:    -4.132      3.001      5.687
REMARK INTER + INTRA:         -10.534
REMARK INTER:                  -7.882
REMARK INTRA:                  -2.652
REMARK UNBOUND:                -2.538
REMARK SMILES CCCCCCCCCCCCCCCCCC(=O)[O-]
REMARK SMILES IDX 10 1 11 2 12 3 13 4 14 5 15 6 16 7 17 8 18 9 19 10 20 11
REMARK SMILES IDX 9 12 8 13 7 14 6 15 5 16 4 17 3 18 2 19 1 20
REMARK H PARENT
REMARK Flexibility Score: inf
ROOT
ATOM      1  C   UNL     1     -17.256 115.346  -1.314  1.00  0.00     0.000 C 
ENDROOT
BRANCH   1   2
ATOM      2  C   UNL     1     -17.632 113.983  -0.701  1.00  0.00     0.000 C 
BRANCH   2   3
ATOM      3  C   UNL     1     -19.085 113.878  -0.195  1.00  0.00     0.000 C 
BRANCH   3   4
ATOM      4  C   UNL     1     -19.976 115.095  -0.515  1.00  0.00     0.000 C 
BRANCH   4   5
ATOM      5  C   UNL     1     -21.271 114.769  -1.279  1.00  0.00     0.000 C 
BRANCH   5   6
ATOM      6  C   UNL     1     -22.491 115.531  -0.740  1.00  0.00     0.000 C 
BRANCH   6   7
ATOM      7  C   UNL     1     -22.142 116.282   0.553  1.00  0.00     0.006 C 
BRANCH   7   8
ATOM      8  C   UNL     1     -22.273 117.802   0.396  1.00  0.00     0.053 C 
BRANCH   8   9
ATOM      9  C   UNL     1     -23.704 118.230   0.290  1.00  0.00     0.041 C 
ATOM     10  O   UNL     1     -24.040 119.115  -0.540  1.00  0.00    -0.550 OA
ATOM     11  O   UNL     1     -24.671 117.628   1.085  1.00  0.00    -0.550 OA
ENDBRANCH   8   9
ENDBRANCH   7   8
ENDBRANCH   6   7
ENDBRANCH   5   6
ENDBRANCH   4   5
ENDBRANCH   3   4
ENDBRANCH   2   3
ENDBRANCH   1   2
BRANCH   1  12
ATOM     12  C   UNL     1     -17.085 115.350  -2.846  1.00  0.00     0.000 C 
BRANCH  12  13
ATOM     13  C   UNL     1     -17.789 114.199  -3.591  1.00  0.00    -0.000 C 
BRANCH  13  14
ATOM     14  C   UNL     1     -19.074 114.649  -4.304  1.00  0.00    -0.000 C 
BRANCH  14  15
ATOM     15  C   UNL     1     -19.312 116.168  -4.212  1.00  0.00    -0.000 C 
BRANCH  15  16
ATOM     16  C   UNL     1     -20.675 116.650  -4.744  1.00  0.00    -0.000 C 
BRANCH  16  17
ATOM     17  C   UNL     1     -21.438 117.524  -3.733  1.00  0.00    -0.000 C 
BRANCH  17  18
ATOM     18  C   UNL     1     -20.507 118.193  -2.710  1.00  0.00    -0.000 C 
BRANCH  18  19
ATOM     19  C   UNL     1     -20.884 119.658  -2.441  1.00  0.00    -0.003 C 
ATOM     20  C   UNL     1     -19.814 120.356  -1.607  1.00  0.00     0.004 C 
ENDBRANCH  18  19
ENDBRANCH  17  18
ENDBRANCH  16  17
ENDBRANCH  15  16
ENDBRANCH  14  15
ENDBRANCH  13  14
ENDBRANCH  12  13
ENDBRANCH   1  12
TORSDOF 16
ENDMDL
MODEL 4
REMARK VINA RESULT:    -4.109      1.441      3.521
REMARK INTER + INTRA:         -10.489
REMARK INTER:                  -8.190
REMARK INTRA:                  -2.299
REMARK UNBOUND:                -2.538
REMARK SMILES CCCCCCCCCCCCCCCCCC(=O)[O-]
REMARK SMILES IDX 10 1 11 2 12 3 13 4 14 5 15 6 16 7 17 8 18 9 19 10 20 11
REMARK SMILES IDX 9 12 8 13 7 14 6 15 5 16 4 17 3 18 2 19 1 20
REMARK H PARENT
REMARK Flexibility Score: inf
ROOT
ATOM      1  C   UNL     1     -22.772 115.594   0.080  1.00  0.00     0.000 C 
ENDROOT
BRANCH   1   2
ATOM      2  C   UNL     1     -21.449 115.184  -0.597  1.00  0.00     0.000 C 
BRANCH   2   3
ATOM      3  C   UNL     1     -21.563 114.867  -2.101  1.00  0.00     0.000 C 
BRANCH   3   4
ATOM      4  C   UNL     1     -21.231 116.041  -3.042  1.00  0.00     0.000 C 
BRANCH   4   5
ATOM      5  C   UNL     1     -19.754 116.470  -3.053  1.00  0.00     0.000 C 
BRANCH   5   6
ATOM      6  C   UNL     1     -18.900 115.647  -4.030  1.00  0.00     0.000 C 
BRANCH   6   7
ATOM      7  C   UNL     1     -17.985 114.674  -3.273  1.00  0.00     0.006 C 
BRANCH   7   8
ATOM      8  C   UNL     1     -17.032 115.398  -2.314  1.00  0.00     0.053 C 
BRANCH   8   9
ATOM      9  C   UNL     1     -16.897 114.673  -1.010  1.00  0.00     0.041 C 
ATOM     10  O   UNL     1     -15.759 114.346  -0.583  1.00  0.00    -0.550 OA
ATOM     11  O   UNL     1     -18.027 114.387  -0.253  1.00  0.00    -0.550 OA
ENDBRANCH   8   9
ENDBRANCH   7   8
ENDBRANCH   6   7
ENDBRANCH   5   6
ENDBRANCH   4   5
ENDBRANCH   3   4
ENDBRANCH   2   3
ENDBRANCH   1   2
BRANCH   1  12
ATOM     12  C   UNL     1     -23.032 117.113   0.141  1.00  0.00     0.000 C 
BRANCH  12  13
ATOM     13  C   UNL     1     -22.384 117.845   1.332  1.00  0.00    -0.000 C 
BRANCH  13  14
ATOM     14  C   UNL     1     -21.472 119.002   0.896  1.00  0.00    -0.000 C 
BRANCH  14  15
ATOM     15  C   UNL     1     -20.981 118.865  -0.558  1.00  0.00    -0.000 C 
BRANCH  15  16
ATOM     16  C   UNL     1     -20.259 120.103  -1.123  1.00  0.00    -0.000 C 
BRANCH  16  17
ATOM     17  C   UNL     1     -20.707 120.457  -2.552  1.00  0.00    -0.000 C 
BRANCH  17  18
ATOM     18  C   UNL     1     -22.054 119.819  -2.924  1.00  0.00    -0.000 C 
BRANCH  18  19
ATOM     19  C   UNL     1     -23.223 120.810  -2.824  1.00  0.00    -0.003 C 
ATOM     20  C   UNL     1     -24.021 120.592  -1.543  1.00  0.00     0.004 C 
ENDBRANCH  18  19
ENDBRANCH  17  18
ENDBRANCH  16  17
ENDBRANCH  15  16
ENDBRANCH  14  15
ENDBRANCH  13  14
ENDBRANCH  12  13
ENDBRANCH   1  12
TORSDOF 16
ENDMDL
MODEL 5
REMARK VINA RESULT:    -4.056      3.943      6.698
REMARK INTER + INTRA:         -10.388
REMARK INTER:                  -7.862
REMARK INTRA:                  -2.526
REMARK UNBOUND:                -2.538
REMARK SMILES CCCCCCCCCCCCCCCCCC(=O)[O-]
REMARK SMILES IDX 10 1 11 2 12 3 13 4 14 5 15 6 16 7 17 8 18 9 19 10 20 11
REMARK SMILES IDX 9 12 8 13 7 14 6 15 5 16 4 17 3 18 2 19 1 20
REMARK H PARENT
REMARK Flexibility Score: inf
ROOT
ATOM      1  C   UNL     1     -21.240 118.451  -2.962  1.00  0.00     0.000 C 
ENDROOT
BRANCH   1   2
ATOM      2  C   UNL     1     -20.900 119.935  -3.197  1.00  0.00     0.000 C 
BRANCH   2   3
ATOM      3  C   UNL     1     -20.020 120.579  -2.107  1.00  0.00     0.000 C 
BRANCH   3   4
ATOM      4  C   UNL     1     -20.718 120.797  -0.750  1.00  0.00     0.000 C 
BRANCH   4   5
ATOM      5  C   UNL     1     -22.194 121.221  -0.838  1.00  0.00     0.000 C 
BRANCH   5   6
ATOM      6  C   UNL     1     -23.158 120.143  -0.321  1.00  0.00     0.000 C 
BRANCH   6   7
ATOM      7  C   UNL     1     -24.511 120.226  -1.042  1.00  0.00     0.006 C 
BRANCH   7   8
ATOM      8  C   UNL     1     -24.359 120.590  -2.525  1.00  0.00     0.053 C 
BRANCH   8   9
ATOM      9  C   UNL     1     -25.332 121.649  -2.941  1.00  0.00     0.041 C 
ATOM     10  O   UNL     1     -26.179 122.088  -2.120  1.00  0.00    -0.550 OA
ATOM     11  O   UNL     1     -25.282 122.173  -4.227  1.00  0.00    -0.550 OA
ENDBRANCH   8   9
ENDBRANCH   7   8
ENDBRANCH   6   7
ENDBRANCH   5   6
ENDBRANCH   4   5
ENDBRANCH   3   4
ENDBRANCH   2   3
ENDBRANCH   1   2
BRANCH   1  12
ATOM     12  C   UNL     1     -21.090 117.541  -4.198  1.00  0.00     0.000 C 
BRANCH  12  13
ATOM     13  C   UNL     1     -20.019 116.440  -4.078  1.00  0.00    -0.000 C 
BRANCH  13  14
ATOM     14  C   UNL     1     -19.222 116.523  -2.767  1.00  0.00    -0.000 C 
BRANCH  14  15
ATOM     15  C   UNL     1     -18.853 115.138  -2.200  1.00  0.00    -0.000 C 
BRANCH  15  16
ATOM     16  C   UNL     1     -20.051 114.217  -1.896  1.00  0.00    -0.000 C 
BRANCH  16  17
ATOM     17  C   UNL     1     -20.879 114.691  -0.689  1.00  0.00    -0.000 C 
BRANCH  17  18
ATOM     18  C   UNL     1     -22.243 115.268  -1.098  1.00  0.00    -0.000 C 
BRANCH  18  19
ATOM     19  C   UNL     1     -22.678 116.440  -0.205  1.00  0.00    -0.003 C 
ATOM     20  C   UNL     1     -21.488 117.033   0.543  1.00  0.00     0.004 C 
ENDBRANCH  18  19
ENDBRANCH  17  18
ENDBRANCH  16  17
ENDBRANCH  15  16
ENDBRANCH  14  15
ENDBRANCH  13  14
ENDBRANCH  12  13
ENDBRANCH   1  12
TORSDOF 16
ENDMDL
MODEL 6
REMARK VINA RESULT:    -4.044      2.834      6.698
REMARK INTER + INTRA:         -10.364
REMARK INTER:                  -7.804
REMARK INTRA:                  -2.559
REMARK UNBOUND:                -2.538
REMARK SMILES CCCCCCCCCCCCCCCCCC(=O)[O-]
REMARK SMILES IDX 10 1 11 2 12 3 13 4 14 5 15 6 16 7 17 8 18 9 19 10 20 11
REMARK SMILES IDX 9 12 8 13 7 14 6 15 5 16 4 17 3 18 2 19 1 20
REMARK H PARENT
REMARK Flexibility Score: inf
ROOT
ATOM      1  C   UNL     1     -20.654 117.121  -0.990  1.00  0.00     0.000 C 
ENDROOT
BRANCH   1   2
ATOM      2  C   UNL     1     -19.913 118.078  -1.945  1.00  0.00     0.000 C 
BRANCH   2   3
ATOM      3  C   UNL     1     -19.700 119.503  -1.397  1.00  0.00     0.000 C 
BRANCH   3   4
ATOM      4  C   UNL     1     -20.534 120.599  -2.088  1.00  0.00     0.000 C 
BRANCH   4   5
ATOM      5  C   UNL     1     -21.507 120.093  -3.167  1.00  0.00     0.000 C 
BRANCH   5   6
ATOM      6  C   UNL     1     -22.924 120.666  -3.011  1.00  0.00     0.000 C 
BRANCH   6   7
ATOM      7  C   UNL     1     -23.212 121.024  -1.546  1.00  0.00     0.006 C 
BRANCH   7   8
ATOM      8  C   UNL     1     -24.365 120.199  -0.961  1.00  0.00     0.053 C 
BRANCH   8   9
ATOM      9  C   UNL     1     -23.920 118.828  -0.557  1.00  0.00     0.041 C 
ATOM     10  O   UNL     1     -24.290 117.822  -1.218  1.00  0.00    -0.550 OA
ATOM     11  O   UNL     1     -23.070 118.664   0.530  1.00  0.00    -0.550 OA
ENDBRANCH   8   9
ENDBRANCH   7   8
ENDBRANCH   6   7
ENDBRANCH   5   6
ENDBRANCH   4   5
ENDBRANCH   3   4
ENDBRANCH   2   3
ENDBRANCH   1   2
BRANCH   1  12
ATOM     12  C   UNL     1     -21.187 115.829  -1.642  1.00  0.00     0.000 C 
BRANCH  12  13
ATOM     13  C   UNL     1     -20.635 114.518  -1.053  1.00  0.00    -0.000 C 
BRANCH  13  14
ATOM     14  C   UNL     1     -19.443 114.743  -0.109  1.00  0.00    -0.000 C 
BRANCH  14  15
ATOM     15  C   UNL     1     -18.094 114.349  -0.741  1.00  0.00    -0.000 C 
BRANCH  15  16
ATOM     16  C   UNL     1     -17.314 115.508  -1.391  1.00  0.00    -0.000 C 
BRANCH  16  17
ATOM     17  C   UNL     1     -17.157 115.345  -2.913  1.00  0.00    -0.000 C 
BRANCH  17  18
ATOM     18  C   UNL     1     -17.711 114.007  -3.425  1.00  0.00    -0.000 C 
BRANCH  18  19
ATOM     19  C   UNL     1     -18.916 114.187  -4.360  1.00  0.00    -0.003 C 
ATOM     20  C   UNL     1     -19.113 115.655  -4.726  1.00  0.00     0.004 C 
ENDBRANCH  18  19
ENDBRANCH  17  18
ENDBRANCH  16  17
ENDBRANCH  15  16
ENDBRANCH  14  15
ENDBRANCH  13  14
ENDBRANCH  12  13
ENDBRANCH   1  12
TORSDOF 16
ENDMDL
MODEL 7
REMARK VINA RESULT:    -4.011      2.753      6.273
REMARK INTER + INTRA:         -10.300
REMARK INTER:                  -7.716
REMARK INTRA:                  -2.584
REMARK UNBOUND:                -2.538
REMARK SMILES CCCCCCCCCCCCCCCCCC(=O)[O-]
REMARK SMILES IDX 10 1 11 2 12 3 13 4 14 5 15 6 16 7 17 8 18 9 19 10 20 11
REMARK SMILES IDX 9 12 8 13 7 14 6 15 5 16 4 17 3 18 2 19 1 20
REMARK H PARENT
REMARK Flexibility Score: inf
ROOT
ATOM      1  C   UNL     1     -20.445 114.641  -1.072  1.00  0.00     0.000 C 
ENDROOT
BRANCH   1   2
ATOM      2  C   UNL     1     -21.512 115.416  -0.274  1.00  0.00     0.000 C 
BRANCH   2   3
ATOM      3  C   UNL     1     -22.790 115.758  -1.064  1.00  0.00     0.000 C 
BRANCH   3   4
ATOM      4  C   UNL     1     -22.552 116.420  -2.435  1.00  0.00     0.000 C 
BRANCH   4   5
ATOM      5  C   UNL     1     -22.499 117.957  -2.415  1.00  0.00     0.000 C 
BRANCH   5   6
ATOM      6  C   UNL     1     -21.174 118.517  -2.955  1.00  0.00     0.000 C 
BRANCH   6   7
ATOM      7  C   UNL     1     -20.073 118.445  -1.888  1.00  0.00     0.006 C 
BRANCH   7   8
ATOM      8  C   UNL     1     -19.667 119.834  -1.377  1.00  0.00     0.053 C 
BRANCH   8   9
ATOM      9  C   UNL     1     -20.758 120.473  -0.574  1.00  0.00     0.041 C 
ATOM     10  O   UNL     1     -21.325 121.515  -0.993  1.00  0.00    -0.550 OA
ATOM     11  O   UNL     1     -21.169 119.898   0.622  1.00  0.00    -0.550 OA
ENDBRANCH   8   9
ENDBRANCH   7   8
ENDBRANCH   6   7
ENDBRANCH   5   6
ENDBRANCH   4   5
ENDBRANCH   3   4
ENDBRANCH   2   3
ENDBRANCH   1   2
BRANCH   1  12
ATOM     12  C   UNL     1     -19.413 113.879  -0.217  1.00  0.00     0.000 C 
BRANCH  12  13
ATOM     13  C   UNL     1     -17.939 114.226  -0.499  1.00  0.00    -0.000 C 
BRANCH  13  14
ATOM     14  C   UNL     1     -17.763 115.621  -1.121  1.00  0.00    -0.000 C 
BRANCH  14  15
ATOM     15  C   UNL     1     -17.098 115.579  -2.510  1.00  0.00    -0.000 C 
BRANCH  15  16
ATOM     16  C   UNL     1     -17.267 114.253  -3.275  1.00  0.00    -0.000 C 
BRANCH  16  17
ATOM     17  C   UNL     1     -18.441 114.280  -4.269  1.00  0.00    -0.000 C 
BRANCH  17  18
ATOM     18  C   UNL     1     -19.114 115.659  -4.352  1.00  0.00    -0.000 C 
BRANCH  18  19
ATOM     19  C   UNL     1     -20.364 115.652  -5.243  1.00  0.00    -0.003 C 
ATOM     20  C   UNL     1     -20.359 116.835  -6.207  1.00  0.00     0.004 C 
ENDBRANCH  18  19
ENDBRANCH  17  18
ENDBRANCH  16  17
ENDBRANCH  15  16
ENDBRANCH  14  15
ENDBRANCH  13  14
ENDBRANCH  12  13
ENDBRANCH   1  12
TORSDOF 16
ENDMDL
MODEL 8
REMARK VINA RESULT:    -3.988      2.538      6.087
REMARK INTER + INTRA:         -10.256
REMARK INTER:                  -7.385
REMARK INTRA:                  -2.871
REMARK UNBOUND:                -2.538
REMARK SMILES CCCCCCCCCCCCCCCCCC(=O)[O-]
REMARK SMILES IDX 10 1 11 2 12 3 13 4 14 5 15 6 16 7 17 8 18 9 19 10 20 11
REMARK SMILES IDX 9 12 8 13 7 14 6 15 5 16 4 17 3 18 2 19 1 20
REMARK H PARENT
REMARK Flexibility Score: inf
ROOT
ATOM      1  C   UNL     1     -21.122 118.347  -3.217  1.00  0.00     0.000 C 
ENDROOT
BRANCH   1   2
ATOM      2  C   UNL     1     -20.142 118.061  -2.063  1.00  0.00     0.000 C 
BRANCH   2   3
ATOM      3  C   UNL     1     -19.629 119.313  -1.324  1.00  0.00     0.000 C 
BRANCH   3   4
ATOM      4  C   UNL     1     -20.087 120.658  -1.923  1.00  0.00     0.000 C 
BRANCH   4   5
ATOM      5  C   UNL     1     -21.167 121.397  -1.113  1.00  0.00     0.000 C 
BRANCH   5   6
ATOM      6  C   UNL     1     -22.592 121.089  -1.595  1.00  0.00     0.000 C 
BRANCH   6   7
ATOM      7  C   UNL     1     -23.467 120.591  -0.436  1.00  0.00     0.006 C 
BRANCH   7   8
ATOM      8  C   UNL     1     -24.038 119.191  -0.698  1.00  0.00     0.053 C 
BRANCH   8   9
ATOM      9  C   UNL     1     -23.252 118.129   0.007  1.00  0.00     0.041 C 
ATOM     10  O   UNL     1     -23.503 116.913  -0.200  1.00  0.00    -0.550 OA
ATOM     11  O   UNL     1     -22.221 118.482   0.869  1.00  0.00    -0.550 OA
ENDBRANCH   8   9
ENDBRANCH   7   8
ENDBRANCH   6   7
ENDBRANCH   5   6
ENDBRANCH   4   5
ENDBRANCH   3   4
ENDBRANCH   2   3
ENDBRANCH   1   2
BRANCH   1  12
ATOM     12  C   UNL     1     -22.167 117.243  -3.476  1.00  0.00     0.000 C 
BRANCH  12  13
ATOM     13  C   UNL     1     -21.894 116.353  -4.704  1.00  0.00    -0.000 C 
BRANCH  13  14
ATOM     14  C   UNL     1     -20.883 116.976  -5.680  1.00  0.00    -0.000 C 
BRANCH  14  15
ATOM     15  C   UNL     1     -19.510 116.278  -5.647  1.00  0.00    -0.000 C 
BRANCH  15  16
ATOM     16  C   UNL     1     -19.394 115.110  -4.649  1.00  0.00    -0.000 C 
BRANCH  16  17
ATOM     17  C   UNL     1     -18.324 115.349  -3.570  1.00  0.00    -0.000 C 
BRANCH  17  18
ATOM     18  C   UNL     1     -18.722 114.768  -2.204  1.00  0.00    -0.000 C 
BRANCH  18  19
ATOM     19  C   UNL     1     -20.151 114.206  -2.197  1.00  0.00    -0.003 C 
ATOM     20  C   UNL     1     -20.930 114.700  -0.981  1.00  0.00     0.004 C 
ENDBRANCH  18  19
ENDBRANCH  17  18
ENDBRANCH  16  17
ENDBRANCH  15  16
ENDBRANCH  14  15
ENDBRANCH  13  14
ENDBRANCH  12  13
ENDBRANCH   1  12
TORSDOF 16
ENDMDL
MODEL 9
REMARK VINA RESULT:    -3.939      2.399      5.933
REMARK INTER + INTRA:         -10.160
REMARK INTER:                  -7.532
REMARK INTRA:                  -2.629
REMARK UNBOUND:                -2.538
REMARK SMILES CCCCCCCCCCCCCCCCCC(=O)[O-]
REMARK SMILES IDX 10 1 11 2 12 3 13 4 14 5 15 6 16 7 17 8 18 9 19 10 20 11
REMARK SMILES IDX 9 12 8 13 7 14 6 15 5 16 4 17 3 18 2 19 1 20
REMARK H PARENT
REMARK Flexibility Score: inf
ROOT
ATOM      1  C   UNL     1     -19.973 118.417  -1.622  1.00  0.00     0.000 C 
ENDROOT
BRANCH   1   2
ATOM      2  C   UNL     1     -20.037 119.946  -1.801  1.00  0.00     0.000 C 
BRANCH   2   3
ATOM      3  C   UNL     1     -20.649 120.713  -0.613  1.00  0.00     0.000 C 
BRANCH   3   4
ATOM      4  C   UNL     1     -22.160 120.995  -0.727  1.00  0.00     0.000 C 
BRANCH   4   5
ATOM      5  C   UNL     1     -22.741 120.863  -2.145  1.00  0.00     0.000 C 
BRANCH   5   6
ATOM      6  C   UNL     1     -23.763 119.723  -2.268  1.00  0.00     0.000 C 
BRANCH   6   7
ATOM      7  C   UNL     1     -24.099 119.135  -0.890  1.00  0.00     0.006 C 
BRANCH   7   8
ATOM      8  C   UNL     1     -24.144 117.602  -0.907  1.00  0.00     0.053 C 
BRANCH   8   9
ATOM      9  C   UNL     1     -23.321 117.009   0.195  1.00  0.00     0.041 C 
ATOM     10  O   UNL     1     -23.444 115.792   0.492  1.00  0.00    -0.550 OA
ATOM     11  O   UNL     1     -22.396 117.793   0.873  1.00  0.00    -0.550 OA
ENDBRANCH   8   9
ENDBRANCH   7   8
ENDBRANCH   6   7
ENDBRANCH   5   6
ENDBRANCH   4   5
ENDBRANCH   3   4
ENDBRANCH   2   3
ENDBRANCH   1   2
BRANCH   1  12
ATOM     12  C   UNL     1     -20.830 117.605  -2.614  1.00  0.00     0.000 C 
BRANCH  12  13
ATOM     13  C   UNL     1     -20.043 116.677  -3.558  1.00  0.00    -0.000 C 
BRANCH  13  14
ATOM     14  C   UNL     1     -20.540 115.223  -3.516  1.00  0.00    -0.000 C 
BRANCH  14  15
ATOM     15  C   UNL     1     -21.415 114.923  -2.284  1.00  0.00    -0.000 C 
BRANCH  15  16
ATOM     16  C   UNL     1     -20.644 114.468  -1.030  1.00  0.00    -0.000 C 
BRANCH  16  17
ATOM     17  C   UNL     1     -19.231 113.949  -1.351  1.00  0.00    -0.000 C 
BRANCH  17  18
ATOM     18  C   UNL     1     -18.140 114.664  -0.541  1.00  0.00    -0.000 C 
BRANCH  18  19
ATOM     19  C   UNL     1     -17.042 115.265  -1.432  1.00  0.00    -0.003 C 
ATOM     20  C   UNL     1     -17.021 114.597  -2.804  1.00  0.00     0.004 C 
ENDBRANCH  18  19
ENDBRANCH  17  18
ENDBRANCH  16  17
ENDBRANCH  15  16
ENDBRANCH  14  15
ENDBRANCH  13  14
ENDBRANCH  12  13
ENDBRANCH   1  12
TORSDOF 16
ENDMDL
