MODEL 1
REMARK VINA RESULT:    -4.067      0.000      0.000
REMARK INTER + INTRA:          -6.141
REMARK INTER:                  -5.731
REMARK INTRA:                  -0.410
REMARK UNBOUND:                -0.410
REMARK SMILES CCCCCCCCC(=O)[O-]
REMARK SMILES IDX 6 1 7 2 8 3 9 4 10 5 11 6 5 7 4 8 3 9 2 10 1 11
REMARK H PARENT
REMARK Flexibility Score: inf
ROOT
ATOM      1  C   UNL     1     -20.802   9.795  18.000  1.00  0.00     0.000 C 
ENDROOT
BRANCH   1   2
ATOM      2  C   UNL     1     -19.371   9.252  17.909  1.00  0.00     0.006 C 
BRANCH   2   3
ATOM      3  C   UNL     1     -19.326   7.759  18.241  1.00  0.00     0.053 C 
BRANCH   3   4
ATOM      4  C   UNL     1     -18.028   7.407  18.898  1.00  0.00     0.041 C 
ATOM      5  O   UNL     1     -16.938   7.759  18.376  1.00  0.00    -0.550 OA
ATOM      6  O   UNL     1     -18.021   6.647  20.061  1.00  0.00    -0.550 OA
ENDBRANCH   3   4
ENDBRANCH   2   3
ENDBRANCH   1   2
BRANCH   1   7
ATOM      7  C   UNL     1     -20.805  11.289  18.338  1.00  0.00     0.000 C 
BRANCH   7   8
ATOM      8  C   UNL     1     -19.387  11.782  18.668  1.00  0.00    -0.000 C 
BRANCH   8   9
ATOM      9  C   UNL     1     -19.006  13.065  17.908  1.00  0.00    -0.000 C 
BRANCH   9  10
ATOM     10  C   UNL     1     -19.247  13.011  16.389  1.00  0.00    -0.003 C 
ATOM     11  C   UNL     1     -17.985  13.293  15.573  1.00  0.00     0.004 C 
ENDBRANCH   9  10
ENDBRANCH   8   9
ENDBRANCH   7   8
ENDBRANCH   1   7
TORSDOF 7
ENDMDL
MODEL 2
REMARK VINA RESULT:    -3.999      3.063      4.840
REMARK INTER + INTRA:          -6.045
REMARK INTER:                  -5.346
REMARK INTRA:                  -0.699
REMARK UNBOUND:                -0.410
REMARK SMILES CCCCCCCCC(=O)[O-]
REMARK SMILES IDX 6 1 7 2 8 3 9 4 10 5 11 6 5 7 4 8 3 9 2 10 1 11
REMARK H PARENT
REMARK Flexibility Score: inf
ROOT
ATOM      1  C   UNL     1     -19.602  12.845  16.357  1.00  0.00     0.000 C 
ENDROOT
BRANCH   1   2
ATOM      2  C   UNL     1     -18.457  12.343  15.468  1.00  0.00     0.006 C 
BRANCH   2   3
ATOM      3  C   UNL     1     -18.815  11.009  14.810  1.00  0.00     0.053 C 
BRANCH   3   4
ATOM      4  C   UNL     1     -18.163  10.895  13.468  1.00  0.00     0.041 C 
ATOM      5  O   UNL     1     -18.840  11.054  12.419  1.00  0.00    -0.550 OA
ATOM      6  O   UNL     1     -16.817  10.565  13.375  1.00  0.00    -0.550 OA
ENDBRANCH   3   4
ENDBRANCH   2   3
ENDBRANCH   1   2
BRANCH   1   7
ATOM      7  C   UNL     1     -19.113  13.122  17.783  1.00  0.00     0.000 C 
BRANCH   7   8
ATOM      8  C   UNL     1     -19.288  11.884  18.675  1.00  0.00    -0.000 C 
BRANCH   8   9
ATOM      9  C   UNL     1     -20.624  11.157  18.437  1.00  0.00    -0.000 C 
BRANCH   9  10
ATOM     10  C   UNL     1     -20.490   9.688  17.998  1.00  0.00    -0.003 C 
ATOM     11  C   UNL     1     -19.045   9.191  18.004  1.00  0.00     0.004 C 
ENDBRANCH   9  10
ENDBRANCH   8   9
ENDBRANCH   7   8
ENDBRANCH   1   7
TORSDOF 7
ENDMDL
MODEL 3
REMARK VINA RESULT:    -3.905      1.054      1.372
REMARK INTER + INTRA:          -5.913
REMARK INTER:                  -5.548
REMARK INTRA:                  -0.365
REMARK UNBOUND:                -0.410
REMARK SMILES CCCCCCCCC(=O)[O-]
REMARK SMILES IDX 6 1 7 2 8 3 9 4 10 5 11 6 5 7 4 8 3 9 2 10 1 11
REMARK H PARENT
REMARK Flexibility Score: inf
ROOT
ATOM      1  C   UNL     1     -19.055   9.422  17.465  1.00  0.00     0.000 C 
ENDROOT
BRANCH   1   2
ATOM      2  C   UNL     1     -19.046   8.132  18.294  1.00  0.00     0.006 C 
BRANCH   2   3
ATOM      3  C   UNL     1     -17.630   7.785  18.757  1.00  0.00     0.053 C 
BRANCH   3   4
ATOM      4  C   UNL     1     -17.494   6.310  18.968  1.00  0.00     0.041 C 
ATOM      5  O   UNL     1     -17.971   5.503  18.126  1.00  0.00    -0.550 OA
ATOM      6  O   UNL     1     -16.884   5.824  20.117  1.00  0.00    -0.550 OA
ENDBRANCH   3   4
ENDBRANCH   2   3
ENDBRANCH   1   2
BRANCH   1   7
ATOM      7  C   UNL     1     -20.252  10.306  17.832  1.00  0.00     0.000 C 
BRANCH   7   8
ATOM      8  C   UNL     1     -19.852  11.373  18.863  1.00  0.00    -0.000 C 
BRANCH   8   9
ATOM      9  C   UNL     1     -19.029  12.520  18.251  1.00  0.00    -0.000 C 
BRANCH   9  10
ATOM     10  C   UNL     1     -19.502  12.985  16.862  1.00  0.00    -0.003 C 
ATOM     11  C   UNL     1     -18.347  13.290  15.908  1.00  0.00     0.004 C 
ENDBRANCH   9  10
ENDBRANCH   8   9
ENDBRANCH   7   8
ENDBRANCH   1   7
TORSDOF 7
ENDMDL
MODEL 4
REMARK VINA RESULT:    -3.859      3.716      5.431
REMARK INTER + INTRA:          -5.848
REMARK INTER:                  -5.310
REMARK INTRA:                  -0.538
REMARK UNBOUND:                -0.410
REMARK SMILES CCCCCCCCC(=O)[O-]
REMARK SMILES IDX 6 1 7 2 8 3 9 4 10 5 11 6 5 7 4 8 3 9 2 10 1 11
REMARK H PARENT
REMARK Flexibility Score: inf
ROOT
ATOM      1  C   UNL     1     -19.397  13.349  17.203  1.00  0.00     0.000 C 
ENDROOT
BRANCH   1   2
ATOM      2  C   UNL     1     -18.496  13.234  15.968  1.00  0.00     0.006 C 
BRANCH   2   3
ATOM      3  C   UNL     1     -18.843  11.989  15.148  1.00  0.00     0.053 C 
BRANCH   3   4
ATOM      4  C   UNL     1     -19.122  12.360  13.725  1.00  0.00     0.041 C 
ATOM      5  O   UNL     1     -19.376  13.555  13.421  1.00  0.00    -0.550 OA
ATOM      6  O   UNL     1     -19.150  11.378  12.743  1.00  0.00    -0.550 OA
ENDBRANCH   3   4
ENDBRANCH   2   3
ENDBRANCH   1   2
BRANCH   1   7
ATOM      7  C   UNL     1     -18.755  12.674  18.420  1.00  0.00     0.000 C 
BRANCH   7   8
ATOM      8  C   UNL     1     -19.725  11.679  19.075  1.00  0.00    -0.000 C 
BRANCH   8   9
ATOM      9  C   UNL     1     -19.839  10.354  18.300  1.00  0.00    -0.000 C 
BRANCH   9  10
ATOM     10  C   UNL     1     -21.279   9.874  18.049  1.00  0.00    -0.003 C 
ATOM     11  C   UNL     1     -22.324  10.698  18.801  1.00  0.00     0.004 C 
ENDBRANCH   9  10
ENDBRANCH   8   9
ENDBRANCH   7   8
ENDBRANCH   1   7
TORSDOF 7
ENDMDL
MODEL 5
REMARK VINA RESULT:    -3.838      3.583      5.573
REMARK INTER + INTRA:          -5.819
REMARK INTER:                  -5.114
REMARK INTRA:                  -0.705
REMARK UNBOUND:                -0.410
REMARK SMILES CCCCCCCCC(=O)[O-]
REMARK SMILES IDX 6 1 7 2 8 3 9 4 10 5 11 6 5 7 4 8 3 9 2 10 1 11
REMARK H PARENT
REMARK Flexibility Score: inf
ROOT
ATOM      1  C   UNL     1     -19.113  13.411  17.675  1.00  0.00     0.000 C 
ENDROOT
BRANCH   1   2
ATOM      2  C   UNL     1     -18.701  13.108  16.229  1.00  0.00     0.006 C 
BRANCH   2   3
ATOM      3  C   UNL     1     -19.888  13.262  15.275  1.00  0.00     0.053 C 
BRANCH   3   4
ATOM      4  C   UNL     1     -19.422  13.255  13.854  1.00  0.00     0.041 C 
ATOM      5  O   UNL     1     -18.942  12.206  13.350  1.00  0.00    -0.550 OA
ATOM      6  O   UNL     1     -19.472  14.420  13.099  1.00  0.00    -0.550 OA
ENDBRANCH   3   4
ENDBRANCH   2   3
ENDBRANCH   1   2
BRANCH   1   7
ATOM      7  C   UNL     1     -19.087  12.142  18.533  1.00  0.00     0.000 C 
BRANCH   7   8
ATOM      8  C   UNL     1     -20.417  11.379  18.427  1.00  0.00    -0.000 C 
BRANCH   8   9
ATOM      9  C   UNL     1     -20.225   9.867  18.208  1.00  0.00    -0.000 C 
BRANCH   9  10
ATOM     10  C   UNL     1     -19.115   9.495  17.210  1.00  0.00    -0.003 C 
ATOM     11  C   UNL     1     -19.579   9.539  15.754  1.00  0.00     0.004 C 
ENDBRANCH   9  10
ENDBRANCH   8   9
ENDBRANCH   7   8
ENDBRANCH   1   7
TORSDOF 7
ENDMDL
MODEL 6
REMARK VINA RESULT:    -3.810      3.712      4.553
REMARK INTER + INTRA:          -5.780
REMARK INTER:                  -5.071
REMARK INTRA:                  -0.709
REMARK UNBOUND:                -0.410
REMARK SMILES CCCCCCCCC(=O)[O-]
REMARK SMILES IDX 6 1 7 2 8 3 9 4 10 5 11 6 5 7 4 8 3 9 2 10 1 11
REMARK H PARENT
REMARK Flexibility Score: inf
ROOT
ATOM      1  C   UNL     1     -19.174   9.543  16.685  1.00  0.00     0.000 C 
ENDROOT
BRANCH   1   2
ATOM      2  C   UNL     1     -19.478   9.983  15.248  1.00  0.00     0.006 C 
BRANCH   2   3
ATOM      3  C   UNL     1     -18.234  10.572  14.578  1.00  0.00     0.053 C 
BRANCH   3   4
ATOM      4  C   UNL     1     -18.579  11.137  13.236  1.00  0.00     0.041 C 
ATOM      5  O   UNL     1     -19.468  12.022  13.131  1.00  0.00    -0.550 OA
ATOM      6  O   UNL     1     -17.953  10.651  12.096  1.00  0.00    -0.550 OA
ENDBRANCH   3   4
ENDBRANCH   2   3
ENDBRANCH   1   2
BRANCH   1   7
ATOM      7  C   UNL     1     -20.419   9.655  17.571  1.00  0.00     0.000 C 
BRANCH   7   8
ATOM      8  C   UNL     1     -20.688  11.117  17.960  1.00  0.00    -0.000 C 
BRANCH   8   9
ATOM      9  C   UNL     1     -19.469  11.800  18.605  1.00  0.00    -0.000 C 
BRANCH   9  10
ATOM     10  C   UNL     1     -18.973  13.060  17.874  1.00  0.00    -0.003 C 
ATOM     11  C   UNL     1     -19.893  13.491  16.732  1.00  0.00     0.004 C 
ENDBRANCH   9  10
ENDBRANCH   8   9
ENDBRANCH   7   8
ENDBRANCH   1   7
TORSDOF 7
ENDMDL
MODEL 7
REMARK VINA RESULT:    -3.801      4.178      6.414
REMARK INTER + INTRA:          -5.767
REMARK INTER:                  -5.378
REMARK INTRA:                  -0.389
REMARK UNBOUND:                -0.410
REMARK SMILES CCCCCCCCC(=O)[O-]
REMARK SMILES IDX 6 1 7 2 8 3 9 4 10 5 11 6 5 7 4 8 3 9 2 10 1 11
REMARK H PARENT
REMARK Flexibility Score: inf
ROOT
ATOM      1  C   UNL     1     -18.978  12.538  16.175  1.00  0.00     0.000 C 
ENDROOT
BRANCH   1   2
ATOM      2  C   UNL     1     -18.068  13.413  15.306  1.00  0.00     0.006 C 
BRANCH   2   3
ATOM      3  C   UNL     1     -18.706  14.778  15.041  1.00  0.00     0.053 C 
BRANCH   3   4
ATOM      4  C   UNL     1     -19.063  14.918  13.594  1.00  0.00     0.041 C 
ATOM      5  O   UNL     1     -19.781  14.050  13.032  1.00  0.00    -0.550 OA
ATOM      6  O   UNL     1     -18.562  15.981  12.854  1.00  0.00    -0.550 OA
ENDBRANCH   3   4
ENDBRANCH   2   3
ENDBRANCH   1   2
BRANCH   1   7
ATOM      7  C   UNL     1     -19.086  13.097  17.598  1.00  0.00     0.000 C 
BRANCH   7   8
ATOM      8  C   UNL     1     -19.272  11.967  18.622  1.00  0.00    -0.000 C 
BRANCH   8   9
ATOM      9  C   UNL     1     -20.627  11.251  18.486  1.00  0.00    -0.000 C 
BRANCH   9  10
ATOM     10  C   UNL     1     -20.538   9.775  18.059  1.00  0.00    -0.003 C 
ATOM     11  C   UNL     1     -19.103   9.252  18.007  1.00  0.00     0.004 C 
ENDBRANCH   9  10
ENDBRANCH   8   9
ENDBRANCH   7   8
ENDBRANCH   1   7
TORSDOF 7
ENDMDL
MODEL 8
REMARK VINA RESULT:    -3.781      1.483      2.676
REMARK INTER + INTRA:          -5.738
REMARK INTER:                  -5.142
REMARK INTRA:                  -0.596
REMARK UNBOUND:                -0.410
REMARK SMILES CCCCCCCCC(=O)[O-]
REMARK SMILES IDX 6 1 7 2 8 3 9 4 10 5 11 6 5 7 4 8 3 9 2 10 1 11
REMARK H PARENT
REMARK Flexibility Score: inf
ROOT
ATOM      1  C   UNL     1     -19.431  11.791  18.709  1.00  0.00     0.000 C 
ENDROOT
BRANCH   1   2
ATOM      2  C   UNL     1     -20.414  11.034  17.807  1.00  0.00     0.006 C 
BRANCH   2   3
ATOM      3  C   UNL     1     -20.298   9.522  18.015  1.00  0.00     0.053 C 
BRANCH   3   4
ATOM      4  C   UNL     1     -19.074   8.992  17.337  1.00  0.00     0.041 C 
ATOM      5  O   UNL     1     -18.175   8.422  18.009  1.00  0.00    -0.550 OA
ATOM      6  O   UNL     1     -18.903   9.171  15.971  1.00  0.00    -0.550 OA
ENDBRANCH   3   4
ENDBRANCH   2   3
ENDBRANCH   1   2
BRANCH   1   7
ATOM      7  C   UNL     1     -18.909  13.055  18.016  1.00  0.00     0.000 C 
BRANCH   7   8
ATOM      8  C   UNL     1     -19.287  13.063  16.527  1.00  0.00    -0.000 C 
BRANCH   8   9
ATOM      9  C   UNL     1     -18.075  13.264  15.601  1.00  0.00    -0.000 C 
BRANCH   9  10
ATOM     10  C   UNL     1     -17.896  12.176  14.527  1.00  0.00    -0.003 C 
ATOM     11  C   UNL     1     -19.183  11.878  13.757  1.00  0.00     0.004 C 
ENDBRANCH   9  10
ENDBRANCH   8   9
ENDBRANCH   7   8
ENDBRANCH   1   7
TORSDOF 7
ENDMDL
MODEL 9
REMARK VINA RESULT:    -3.763      5.328      7.759
REMARK INTER + INTRA:          -5.713
REMARK INTER:                  -5.264
REMARK INTRA:                  -0.448
REMARK UNBOUND:                -0.410
REMARK SMILES CCCCCCCCC(=O)[O-]
REMARK SMILES IDX 6 1 7 2 8 3 9 4 10 5 11 6 5 7 4 8 3 9 2 10 1 11
REMARK H PARENT
REMARK Flexibility Score: inf
ROOT
ATOM      1  C   UNL     1     -15.600   3.567  16.532  1.00  0.00     0.000 C 
ENDROOT
BRANCH   1   2
ATOM      2  C   UNL     1     -14.505   4.640  16.549  1.00  0.00     0.006 C 
BRANCH   2   3
ATOM      3  C   UNL     1     -14.167   5.105  15.131  1.00  0.00     0.053 C 
BRANCH   3   4
ATOM      4  C   UNL     1     -12.746   4.777  14.797  1.00  0.00     0.041 C 
ATOM      5  O   UNL     1     -11.901   4.611  15.716  1.00  0.00    -0.550 OA
ATOM      6  O   UNL     1     -12.342   4.703  13.470  1.00  0.00    -0.550 OA
ENDBRANCH   3   4
ENDBRANCH   2   3
ENDBRANCH   1   2
BRANCH   1   7
ATOM      7  C   UNL     1     -16.599   3.780  17.675  1.00  0.00     0.000 C 
BRANCH   7   8
ATOM      8  C   UNL     1     -15.872   3.932  19.020  1.00  0.00    -0.000 C 
BRANCH   8   9
ATOM      9  C   UNL     1     -16.295   5.195  19.791  1.00  0.00    -0.000 C 
BRANCH   9  10
ATOM     10  C   UNL     1     -17.588   5.859  19.283  1.00  0.00    -0.003 C 
ATOM     11  C   UNL     1     -17.383   7.308  18.842  1.00  0.00     0.004 C 
ENDBRANCH   9  10
ENDBRANCH   8   9
ENDBRANCH   7   8
ENDBRANCH   1   7
TORSDOF 7
ENDMDL
