MODEL 1
REMARK VINA RESULT:    -3.981      0.000      0.000
REMARK INTER + INTRA:          -5.840
REMARK INTER:                  -5.610
REMARK INTRA:                  -0.230
REMARK UNBOUND:                -0.230
REMARK SMILES CC1=CCC(=C(C)C)C(=O)CC(C)=CCC1
REMARK SMILES IDX 12 1 14 2 13 3 15 4 16 5 2 6 1 7 3 8 11 10 9 11 10 12 5 13
REMARK SMILES IDX 6 14 7 15 8 16 4 17
REMARK H PARENT
REMARK Flexibility Score: 60.00
ROOT
ATOM      1  C   UNL     1       2.981  17.037  -5.285  1.00  0.00    -0.070 C 
ATOM      2  C   UNL     1       2.889  18.297  -5.769  1.00  0.00    -0.027 C 
ATOM      3  C   UNL     1       1.686  16.320  -4.981  1.00  0.00     0.039 C 
ENDROOT
BRANCH   2   4
ATOM      4  C   UNL     1       4.036  19.183  -6.183  1.00  0.00     0.032 C 
BRANCH   4   5
ATOM      5  C   UNL     1       4.169  19.422  -7.705  1.00  0.00     0.034 C 
BRANCH   5   6
ATOM      6  C   UNL     1       3.153  18.696  -8.575  1.00  0.00    -0.077 C 
ATOM      7  C   UNL     1       1.978  19.492  -9.088  1.00  0.00     0.039 C 
ATOM      8  C   UNL     1       3.186  17.369  -8.882  1.00  0.00    -0.023 CG0
ATOM      9  G   UNL     1       4.283  16.341  -8.648  1.00  0.00     0.000 G0
ENDBRANCH   5   6
ENDBRANCH   4   5
ENDBRANCH   2   4
BRANCH   1  10
ATOM     10  C   UNL     1       4.283  16.274  -5.071  1.00  0.00     0.111 C 
BRANCH  10  11
ATOM     11  C   UNL     1       4.838  15.531  -6.265  1.00  0.00     0.163 C 
ATOM     12  O   UNL     1       6.004  15.065  -6.141  1.00  0.00    -0.294 OA
BRANCH  11  13
ATOM     13  C   UNL     1       4.077  15.318  -7.549  1.00  0.00    -0.002 C 
ATOM     14  C   UNL     1       3.182  14.291  -7.702  1.00  0.00    -0.069 C 
ATOM     15  C   UNL     1       2.336  14.163  -8.951  1.00  0.00     0.039 C 
ATOM     16  C   UNL     1       3.009  13.209  -6.659  1.00  0.00     0.039 C 
BRANCH  13  17
ATOM     17  C   UNL     1       4.275  16.320  -8.676  1.00  0.00     0.066 CG0
ATOM     18  G   UNL     1       3.190  17.371  -8.859  1.00  0.00     0.000 G0
ENDBRANCH  13  17
ENDBRANCH  11  13
ENDBRANCH  10  11
ENDBRANCH   1  10
TORSDOF 0
ENDMDL
MODEL 2
REMARK VINA RESULT:    -3.868      2.225      4.937
REMARK INTER + INTRA:          -5.681
REMARK INTER:                  -5.604
REMARK INTRA:                  -0.078
REMARK UNBOUND:                -0.230
REMARK SMILES CC1=CCC(=C(C)C)C(=O)CC(C)=CCC1
REMARK SMILES IDX 12 1 14 2 13 3 15 4 16 5 2 6 1 7 3 8 11 10 9 11 10 12 5 13
REMARK SMILES IDX 6 14 7 15 8 16 4 17
REMARK H PARENT
REMARK Flexibility Score: 60.00
ROOT
ATOM      1  C   UNL     1       5.969  13.274  -6.304  1.00  0.00    -0.070 C 
ATOM      2  C   UNL     1       5.921  12.365  -7.306  1.00  0.00    -0.027 C 
ATOM      3  C   UNL     1       6.473  12.794  -4.964  1.00  0.00     0.039 C 
ENDROOT
BRANCH   2   4
ATOM      4  C   UNL     1       5.497  12.624  -8.730  1.00  0.00     0.032 C 
BRANCH   4   5
ATOM      5  C   UNL     1       4.121  12.038  -9.125  1.00  0.00     0.034 C 
BRANCH   5   6
ATOM      6  C   UNL     1       3.023  12.176  -8.079  1.00  0.00    -0.077 C 
ATOM      7  C   UNL     1       2.593  10.928  -7.349  1.00  0.00     0.039 C 
ATOM      8  C   UNL     1       2.355  13.328  -7.789  1.00  0.00    -0.023 CG0
ATOM      9  G   UNL     1       2.635  14.756  -8.231  1.00  0.00     0.000 G0
ENDBRANCH   5   6
ENDBRANCH   4   5
ENDBRANCH   2   4
BRANCH   1  10
ATOM     10  C   UNL     1       5.600  14.746  -6.440  1.00  0.00     0.111 C 
BRANCH  10  11
ATOM     11  C   UNL     1       4.158  15.113  -6.171  1.00  0.00     0.163 C 
ATOM     12  O   UNL     1       3.741  14.916  -4.997  1.00  0.00    -0.294 OA
BRANCH  11  13
ATOM     13  C   UNL     1       3.233  15.699  -7.208  1.00  0.00    -0.002 C 
ATOM     14  C   UNL     1       2.982  17.044  -7.281  1.00  0.00    -0.069 C 
ATOM     15  C   UNL     1       2.150  17.630  -8.402  1.00  0.00     0.039 C 
ATOM     16  C   UNL     1       3.484  18.017  -6.238  1.00  0.00     0.039 C 
BRANCH  13  17
ATOM     17  C   UNL     1       2.619  14.759  -8.234  1.00  0.00     0.066 CG0
ATOM     18  G   UNL     1       2.359  13.329  -7.786  1.00  0.00     0.000 G0
ENDBRANCH  13  17
ENDBRANCH  11  13
ENDBRANCH  10  11
ENDBRANCH   1  10
TORSDOF 0
ENDMDL
MODEL 3
REMARK VINA RESULT:    -3.863      1.811      2.250
REMARK INTER + INTRA:          -5.674
REMARK INTER:                  -5.788
REMARK INTRA:                   0.114
REMARK UNBOUND:                -0.230
REMARK SMILES CC1=CCC(=C(C)C)C(=O)CC(C)=CCC1
REMARK SMILES IDX 12 1 14 2 13 3 15 4 16 5 2 6 1 7 3 8 11 10 9 11 10 12 5 13
REMARK SMILES IDX 6 14 7 15 8 16 4 17
REMARK H PARENT
REMARK Flexibility Score: 60.00
ROOT
ATOM      1  C   UNL     1       3.607  16.900  -5.549  1.00  0.00    -0.070 C 
ATOM      2  C   UNL     1       3.445  18.159  -6.018  1.00  0.00    -0.027 C 
ATOM      3  C   UNL     1       4.873  16.609  -4.778  1.00  0.00     0.039 C 
ENDROOT
BRANCH   2   4
ATOM      4  C   UNL     1       2.251  18.688  -6.771  1.00  0.00     0.032 C 
BRANCH   4   5
ATOM      5  C   UNL     1       2.259  18.417  -8.293  1.00  0.00     0.034 C 
BRANCH   5   6
ATOM      6  C   UNL     1       1.478  17.192  -8.747  1.00  0.00    -0.077 C 
ATOM      7  C   UNL     1      -0.011  17.344  -8.941  1.00  0.00     0.039 C 
ATOM      8  C   UNL     1       2.004  15.949  -8.937  1.00  0.00    -0.023 CG0
ATOM      9  G   UNL     1       3.458  15.500  -8.964  1.00  0.00     0.000 G0
ENDBRANCH   5   6
ENDBRANCH   4   5
ENDBRANCH   2   4
BRANCH   1  10
ATOM     10  C   UNL     1       2.590  15.774  -5.697  1.00  0.00     0.111 C 
BRANCH  10  11
ATOM     11  C   UNL     1       3.003  14.593  -6.545  1.00  0.00     0.163 C 
ATOM     12  O   UNL     1       2.517  13.475  -6.221  1.00  0.00    -0.294 OA
BRANCH  11  13
ATOM     13  C   UNL     1       3.929  14.695  -7.732  1.00  0.00    -0.002 C 
ATOM     14  C   UNL     1       5.146  14.067  -7.760  1.00  0.00    -0.069 C 
ATOM     15  C   UNL     1       6.008  14.077  -9.004  1.00  0.00     0.039 C 
ATOM     16  C   UNL     1       5.718  13.360  -6.552  1.00  0.00     0.039 C 
BRANCH  13  17
ATOM     17  C   UNL     1       3.451  15.472  -8.949  1.00  0.00     0.066 CG0
ATOM     18  G   UNL     1       2.012  15.965  -8.927  1.00  0.00     0.000 G0
ENDBRANCH  13  17
ENDBRANCH  11  13
ENDBRANCH  10  11
ENDBRANCH   1  10
TORSDOF 0
ENDMDL
MODEL 4
REMARK VINA RESULT:    -3.335      1.702      4.029
REMARK INTER + INTRA:          -4.930
REMARK INTER:                  -4.831
REMARK INTRA:                  -0.099
REMARK UNBOUND:                -0.230
REMARK SMILES CC1=CCC(=C(C)C)C(=O)CC(C)=CCC1
REMARK SMILES IDX 12 1 14 2 13 3 15 4 16 5 2 6 1 7 3 8 11 10 9 11 10 12 5 13
REMARK SMILES IDX 6 14 7 15 8 16 4 17
REMARK H PARENT
REMARK Flexibility Score: 60.00
ROOT
ATOM      1  C   UNL     1       3.995  14.982  -5.420  1.00  0.00    -0.070 C 
ATOM      2  C   UNL     1       4.658  14.256  -6.351  1.00  0.00    -0.027 C 
ATOM      3  C   UNL     1       3.369  14.224  -4.273  1.00  0.00     0.039 C 
ENDROOT
BRANCH   2   4
ATOM      4  C   UNL     1       5.395  14.797  -7.550  1.00  0.00     0.032 C 
BRANCH   4   5
ATOM      5  C   UNL     1       4.736  14.497  -8.917  1.00  0.00     0.034 C 
BRANCH   5   6
ATOM      6  C   UNL     1       3.236  14.740  -8.991  1.00  0.00    -0.077 C 
ATOM      7  C   UNL     1       2.338  13.533  -9.111  1.00  0.00     0.039 C 
ATOM      8  C   UNL     1       2.637  15.964  -9.017  1.00  0.00    -0.023 CG0
ATOM      9  G   UNL     1       3.230  17.344  -8.775  1.00  0.00     0.000 G0
ENDBRANCH   5   6
ENDBRANCH   4   5
ENDBRANCH   2   4
BRANCH   1  10
ATOM     10  C   UNL     1       3.876  16.502  -5.417  1.00  0.00     0.111 C 
BRANCH  10  11
ATOM     11  C   UNL     1       2.758  17.097  -6.242  1.00  0.00     0.163 C 
ATOM     12  O   UNL     1       1.584  16.811  -5.881  1.00  0.00    -0.294 OA
BRANCH  11  13
ATOM     13  C   UNL     1       2.980  18.000  -7.430  1.00  0.00    -0.002 C 
ATOM     14  C   UNL     1       3.011  19.365  -7.309  1.00  0.00    -0.069 C 
ATOM     15  C   UNL     1       3.356  20.252  -8.486  1.00  0.00     0.039 C 
ATOM     16  C   UNL     1       2.670  20.069  -6.015  1.00  0.00     0.039 C 
BRANCH  13  17
ATOM     17  C   UNL     1       3.237  17.356  -8.783  1.00  0.00     0.066 CG0
ATOM     18  G   UNL     1       2.643  15.973  -9.009  1.00  0.00     0.000 G0
ENDBRANCH  13  17
ENDBRANCH  11  13
ENDBRANCH  10  11
ENDBRANCH   1  10
TORSDOF 0
ENDMDL
MODEL 5
REMARK VINA RESULT:    -3.313      1.612      2.195
REMARK INTER + INTRA:          -4.899
REMARK INTER:                  -4.688
REMARK INTRA:                  -0.211
REMARK UNBOUND:                -0.230
REMARK SMILES CC1=CCC(=C(C)C)C(=O)CC(C)=CCC1
REMARK SMILES IDX 12 1 14 2 13 3 15 4 16 5 2 6 1 7 3 8 11 10 9 11 10 12 5 13
REMARK SMILES IDX 6 14 7 15 8 16 4 17
REMARK H PARENT
REMARK Flexibility Score: 60.00
ROOT
ATOM      1  C   UNL     1       3.332  15.231  -5.392  1.00  0.00    -0.070 C 
ATOM      2  C   UNL     1       2.205  15.952  -5.189  1.00  0.00    -0.027 C 
ATOM      3  C   UNL     1       3.404  13.869  -4.742  1.00  0.00     0.039 C 
ENDROOT
BRANCH   2   4
ATOM      4  C   UNL     1       1.893  17.308  -5.769  1.00  0.00     0.032 C 
BRANCH   4   5
ATOM      5  C   UNL     1       1.086  17.290  -7.089  1.00  0.00     0.034 C 
BRANCH   5   6
ATOM      6  C   UNL     1       1.912  17.385  -8.364  1.00  0.00    -0.077 C 
ATOM      7  C   UNL     1       2.267  18.763  -8.866  1.00  0.00     0.039 C 
ATOM      8  C   UNL     1       2.308  16.326  -9.125  1.00  0.00    -0.023 CG0
ATOM      9  G   UNL     1       2.239  14.835  -8.831  1.00  0.00     0.000 G0
ENDBRANCH   5   6
ENDBRANCH   4   5
ENDBRANCH   2   4
BRANCH   1  10
ATOM     10  C   UNL     1       4.505  15.668  -6.261  1.00  0.00     0.111 C 
BRANCH  10  11
ATOM     11  C   UNL     1       4.556  15.109  -7.665  1.00  0.00     0.163 C 
ATOM     12  O   UNL     1       5.557  15.431  -8.360  1.00  0.00    -0.294 OA
BRANCH  11  13
ATOM     13  C   UNL     1       3.502  14.197  -8.243  1.00  0.00    -0.002 C 
ATOM     14  C   UNL     1       3.615  12.833  -8.196  1.00  0.00    -0.069 C 
ATOM     15  C   UNL     1       2.494  11.933  -8.669  1.00  0.00     0.039 C 
ATOM     16  C   UNL     1       4.868  12.143  -7.705  1.00  0.00     0.039 C 
BRANCH  13  17
ATOM     17  C   UNL     1       2.254  14.831  -8.838  1.00  0.00     0.066 CG0
ATOM     18  G   UNL     1       2.303  16.330  -9.100  1.00  0.00     0.000 G0
ENDBRANCH  13  17
ENDBRANCH  11  13
ENDBRANCH  10  11
ENDBRANCH   1  10
TORSDOF 0
ENDMDL
MODEL 6
REMARK VINA RESULT:    -3.100      1.536      4.147
REMARK INTER + INTRA:          -4.598
REMARK INTER:                  -4.637
REMARK INTRA:                   0.039
REMARK UNBOUND:                -0.230
REMARK SMILES CC1=CCC(=C(C)C)C(=O)CC(C)=CCC1
REMARK SMILES IDX 12 1 14 2 13 3 15 4 16 5 2 6 1 7 3 8 11 10 9 11 10 12 5 13
REMARK SMILES IDX 6 14 7 15 8 16 4 17
REMARK H PARENT
REMARK Flexibility Score: 60.00
ROOT
ATOM      1  C   UNL     1       2.730  15.485  -5.612  1.00  0.00    -0.070 C 
ATOM      2  C   UNL     1       2.710  14.531  -6.572  1.00  0.00    -0.027 C 
ATOM      3  C   UNL     1       3.376  15.122  -4.295  1.00  0.00     0.039 C 
ENDROOT
BRANCH   2   4
ATOM      4  C   UNL     1       2.162  14.679  -7.969  1.00  0.00     0.032 C 
BRANCH   4   5
ATOM      5  C   UNL     1       3.221  14.668  -9.096  1.00  0.00     0.034 C 
BRANCH   5   6
ATOM      6  C   UNL     1       4.507  15.425  -8.798  1.00  0.00    -0.077 C 
ATOM      7  C   UNL     1       5.777  14.620  -8.667  1.00  0.00     0.039 C 
ATOM      8  C   UNL     1       4.597  16.767  -8.580  1.00  0.00    -0.023 CG0
ATOM      9  G   UNL     1       3.555  17.858  -8.773  1.00  0.00     0.000 G0
ENDBRANCH   5   6
ENDBRANCH   4   5
ENDBRANCH   2   4
BRANCH   1  10
ATOM     10  C   UNL     1       2.196  16.903  -5.776  1.00  0.00     0.111 C 
BRANCH  10  11
ATOM     11  C   UNL     1       3.191  17.957  -6.206  1.00  0.00     0.163 C 
ATOM     12  O   UNL     1       4.101  18.237  -5.380  1.00  0.00    -0.294 OA
BRANCH  11  13
ATOM     13  C   UNL     1       3.150  18.654  -7.544  1.00  0.00    -0.002 C 
ATOM     14  C   UNL     1       2.802  19.974  -7.665  1.00  0.00    -0.069 C 
ATOM     15  C   UNL     1       2.885  20.690  -8.996  1.00  0.00     0.039 C 
ATOM     16  C   UNL     1       2.284  20.783  -6.498  1.00  0.00     0.039 C 
BRANCH  13  17
ATOM     17  C   UNL     1       3.571  17.867  -8.775  1.00  0.00     0.066 CG0
ATOM     18  G   UNL     1       4.592  16.758  -8.565  1.00  0.00     0.000 G0
ENDBRANCH  13  17
ENDBRANCH  11  13
ENDBRANCH  10  11
ENDBRANCH   1  10
TORSDOF 0
ENDMDL
MODEL 7
REMARK VINA RESULT:    -2.861      1.526      2.208
REMARK INTER + INTRA:          -4.262
REMARK INTER:                  -4.095
REMARK INTRA:                  -0.167
REMARK UNBOUND:                -0.230
REMARK SMILES CC1=CCC(=C(C)C)C(=O)CC(C)=CCC1
REMARK SMILES IDX 12 1 14 2 13 3 15 4 16 5 2 6 1 7 3 8 11 10 9 11 10 12 5 13
REMARK SMILES IDX 6 14 7 15 8 16 4 17
REMARK H PARENT
REMARK Flexibility Score: 60.00
ROOT
ATOM      1  C   UNL     1       3.730  16.140  -5.198  1.00  0.00    -0.070 C 
ATOM      2  C   UNL     1       2.848  16.840  -5.950  1.00  0.00    -0.027 C 
ATOM      3  C   UNL     1       4.616  16.930  -4.264  1.00  0.00     0.039 C 
ENDROOT
BRANCH   2   4
ATOM      4  C   UNL     1       1.839  16.266  -6.912  1.00  0.00     0.032 C 
BRANCH   4   5
ATOM      5  C   UNL     1       2.272  16.265  -8.397  1.00  0.00     0.034 C 
BRANCH   5   6
ATOM      6  C   UNL     1       3.715  16.670  -8.661  1.00  0.00    -0.077 C 
ATOM      7  C   UNL     1       4.034  18.145  -8.682  1.00  0.00     0.039 C 
ATOM      8  C   UNL     1       4.736  15.811  -8.939  1.00  0.00    -0.023 CG0
ATOM      9  G   UNL     1       4.781  14.292  -8.857  1.00  0.00     0.000 G0
ENDBRANCH   5   6
ENDBRANCH   4   5
ENDBRANCH   2   4
BRANCH   1  10
ATOM     10  C   UNL     1       3.860  14.621  -5.188  1.00  0.00     0.111 C 
BRANCH  10  11
ATOM     11  C   UNL     1       4.717  14.007  -6.270  1.00  0.00     0.163 C 
ATOM     12  O   UNL     1       5.933  13.828  -5.986  1.00  0.00    -0.294 OA
BRANCH  11  13
ATOM     13  C   UNL     1       4.194  13.596  -7.625  1.00  0.00    -0.002 C 
ATOM     14  C   UNL     1       3.173  12.693  -7.766  1.00  0.00    -0.069 C 
ATOM     15  C   UNL     1       2.577  12.385  -9.123  1.00  0.00     0.039 C 
ATOM     16  C   UNL     1       2.605  11.926  -6.593  1.00  0.00     0.039 C 
BRANCH  13  17
ATOM     17  C   UNL     1       4.788  14.263  -8.855  1.00  0.00     0.066 CG0
ATOM     18  G   UNL     1       4.733  15.783  -8.906  1.00  0.00     0.000 G0
ENDBRANCH  13  17
ENDBRANCH  11  13
ENDBRANCH  10  11
ENDBRANCH   1  10
TORSDOF 0
ENDMDL
MODEL 8
REMARK VINA RESULT:    -2.823      2.070      3.183
REMARK INTER + INTRA:          -4.209
REMARK INTER:                  -5.913
REMARK INTRA:                   1.705
REMARK UNBOUND:                -0.230
REMARK SMILES CC1=CCC(=C(C)C)C(=O)CC(C)=CCC1
REMARK SMILES IDX 12 1 14 2 13 3 15 4 16 5 2 6 1 7 3 8 11 10 9 11 10 12 5 13
REMARK SMILES IDX 6 14 7 15 8 16 4 17
REMARK H PARENT
REMARK Flexibility Score: 60.00
ROOT
ATOM      1  C   UNL     1       1.075  17.830  -8.506  1.00  0.00    -0.070 C 
ATOM      2  C   UNL     1       1.569  19.046  -8.837  1.00  0.00    -0.027 C 
ATOM      3  C   UNL     1      -0.426  17.708  -8.382  1.00  0.00     0.039 C 
ENDROOT
BRANCH   2   4
ATOM      4  C   UNL     1       3.020  19.393  -9.058  1.00  0.00     0.032 C 
BRANCH   4   5
ATOM      5  C   UNL     1       4.004  18.804  -8.020  1.00  0.00     0.034 C 
BRANCH   5   6
ATOM      6  C   UNL     1       3.649  19.057  -6.561  1.00  0.00    -0.077 C 
ATOM      7  C   UNL     1       2.998  20.375  -6.219  1.00  0.00     0.039 C 
ATOM      8  C   UNL     1       3.925  18.214  -5.527  1.00  0.00    -0.023 CG0
ATOM      9  G   UNL     1       4.432  16.780  -5.548  1.00  0.00     0.000 G0
ENDBRANCH   5   6
ENDBRANCH   4   5
ENDBRANCH   2   4
BRANCH   1  10
ATOM     10  C   UNL     1       1.911  16.573  -8.298  1.00  0.00     0.111 C 
BRANCH  10  11
ATOM     11  C   UNL     1       2.254  16.215  -6.870  1.00  0.00     0.163 C 
ATOM     12  O   UNL     1       1.308  16.266  -6.038  1.00  0.00    -0.294 OA
BRANCH  11  13
ATOM     13  C   UNL     1       3.632  15.797  -6.417  1.00  0.00    -0.002 C 
ATOM     14  C   UNL     1       4.191  14.605  -6.798  1.00  0.00    -0.069 C 
ATOM     15  C   UNL     1       5.619  14.256  -6.437  1.00  0.00     0.039 C 
ATOM     16  C   UNL     1       3.416  13.558  -7.564  1.00  0.00     0.039 C 
BRANCH  13  17
ATOM     17  C   UNL     1       4.431  16.769  -5.563  1.00  0.00     0.066 CG0
ATOM     18  G   UNL     1       3.933  18.205  -5.509  1.00  0.00     0.000 G0
ENDBRANCH  13  17
ENDBRANCH  11  13
ENDBRANCH  10  11
ENDBRANCH   1  10
TORSDOF 0
ENDMDL
MODEL 9
REMARK VINA RESULT:    -2.687      2.179      4.746
REMARK INTER + INTRA:          -4.017
REMARK INTER:                  -3.613
REMARK INTRA:                  -0.404
REMARK UNBOUND:                -0.230
REMARK SMILES CC1=CCC(=C(C)C)C(=O)CC(C)=CCC1
REMARK SMILES IDX 12 1 14 2 13 3 15 4 16 5 2 6 1 7 3 8 11 10 9 11 10 12 5 13
REMARK SMILES IDX 6 14 7 15 8 16 4 17
REMARK H PARENT
REMARK Flexibility Score: 60.00
ROOT
ATOM      1  C   UNL     1       3.711  15.828  -8.611  1.00  0.00    -0.070 C 
ATOM      2  C   UNL     1       3.918  14.590  -9.120  1.00  0.00    -0.027 C 
ATOM      3  C   UNL     1       2.491  16.576  -9.097  1.00  0.00     0.039 C 
ENDROOT
BRANCH   2   4
ATOM      4  C   UNL     1       5.036  13.647  -8.753  1.00  0.00     0.032 C 
BRANCH   4   5
ATOM      5  C   UNL     1       4.759  12.742  -7.530  1.00  0.00     0.034 C 
BRANCH   5   6
ATOM      6  C   UNL     1       3.291  12.490  -7.217  1.00  0.00    -0.077 C 
ATOM      7  C   UNL     1       2.552  11.502  -8.086  1.00  0.00     0.039 C 
ATOM      8  C   UNL     1       2.572  13.128  -6.251  1.00  0.00    -0.023 CG0
ATOM      9  G   UNL     1       3.041  14.051  -5.137  1.00  0.00     0.000 G0
ENDBRANCH   5   6
ENDBRANCH   4   5
ENDBRANCH   2   4
BRANCH   1  10
ATOM     10  C   UNL     1       4.584  16.498  -7.557  1.00  0.00     0.111 C 
BRANCH  10  11
ATOM     11  C   UNL     1       4.485  15.956  -6.149  1.00  0.00     0.163 C 
ATOM     12  O   UNL     1       5.565  15.876  -5.504  1.00  0.00    -0.294 OA
BRANCH  11  13
ATOM     13  C   UNL     1       3.189  15.535  -5.501  1.00  0.00    -0.002 C 
ATOM     14  C   UNL     1       2.161  16.417  -5.293  1.00  0.00    -0.069 C 
ATOM     15  C   UNL     1       0.824  15.953  -4.755  1.00  0.00     0.039 C 
ATOM     16  C   UNL     1       2.304  17.900  -5.551  1.00  0.00     0.039 C 
BRANCH  13  17
ATOM     17  C   UNL     1       3.015  14.071  -5.130  1.00  0.00     0.066 CG0
ATOM     18  G   UNL     1       2.580  13.128  -6.242  1.00  0.00     0.000 G0
ENDBRANCH  13  17
ENDBRANCH  11  13
ENDBRANCH  10  11
ENDBRANCH   1  10
TORSDOF 0
ENDMDL
