MODEL 1
REMARK VINA RESULT:    -4.492      0.000      0.000
REMARK INTER + INTRA:          -5.911
REMARK INTER:                  -5.542
REMARK INTRA:                  -0.369
REMARK UNBOUND:                -0.369
REMARK SMILES C=CC[C@@H](C)C(=O)CC
REMARK SMILES IDX 4 1 5 2 6 3 7 4 8 5 9 6 3 7 2 8 1 9
REMARK H PARENT
REMARK Flexibility Score: inf
ROOT
ATOM      1  C   UNL     1       3.753  15.531  -7.007  1.00  0.00     0.057 C 
ATOM      2  C   UNL     1       3.784  16.798  -6.142  1.00  0.00     0.016 C 
ENDROOT
BRANCH   1   3
ATOM      3  C   UNL     1       5.039  14.753  -6.822  1.00  0.00     0.135 C 
ATOM      4  O   UNL     1       5.614  14.781  -5.743  1.00  0.00    -0.299 OA
BRANCH   3   5
ATOM      5  C   UNL     1       5.624  13.934  -7.942  1.00  0.00     0.072 C 
ATOM      6  C   UNL     1       5.555  12.445  -7.618  1.00  0.00     0.012 C 
ENDBRANCH   3   5
ENDBRANCH   1   3
BRANCH   1   7
ATOM      7  C   UNL     1       2.543  14.637  -6.669  1.00  0.00     0.038 C 
BRANCH   7   8
ATOM      8  C   UNL     1       1.735  14.313  -7.898  1.00  0.00    -0.034 C 
ATOM      9  C   UNL     1       2.262  14.370  -9.124  1.00  0.00     0.004 C 
ENDBRANCH   7   8
ENDBRANCH   1   7
TORSDOF 4
ENDMDL
MODEL 2
REMARK VINA RESULT:    -4.448      1.393      3.219
REMARK INTER + INTRA:          -5.857
REMARK INTER:                  -5.627
REMARK INTRA:                  -0.230
REMARK UNBOUND:                -0.369
REMARK SMILES C=CC[C@@H](C)C(=O)CC
REMARK SMILES IDX 4 1 5 2 6 3 7 4 8 5 9 6 3 7 2 8 1 9
REMARK H PARENT
REMARK Flexibility Score: inf
ROOT
ATOM      1  C   UNL     1       3.709  15.018  -5.821  1.00  0.00     0.057 C 
ATOM      2  C   UNL     1       4.901  14.472  -6.617  1.00  0.00     0.016 C 
ENDROOT
BRANCH   1   3
ATOM      3  C   UNL     1       4.026  16.408  -5.310  1.00  0.00     0.135 C 
ATOM      4  O   UNL     1       4.759  16.545  -4.341  1.00  0.00    -0.299 OA
BRANCH   3   5
ATOM      5  C   UNL     1       3.461  17.633  -5.980  1.00  0.00     0.072 C 
ATOM      6  C   UNL     1       3.950  18.902  -5.289  1.00  0.00     0.012 C 
ENDBRANCH   3   5
ENDBRANCH   1   3
BRANCH   1   7
ATOM      7  C   UNL     1       2.421  15.049  -6.668  1.00  0.00     0.038 C 
BRANCH   7   8
ATOM      8  C   UNL     1       2.439  13.989  -7.738  1.00  0.00    -0.034 C 
ATOM      9  C   UNL     1       2.021  14.236  -8.983  1.00  0.00     0.004 C 
ENDBRANCH   7   8
ENDBRANCH   1   7
TORSDOF 4
ENDMDL
MODEL 3
REMARK VINA RESULT:    -4.392      1.091      2.119
REMARK INTER + INTRA:          -5.788
REMARK INTER:                  -5.335
REMARK INTRA:                  -0.453
REMARK UNBOUND:                -0.369
REMARK SMILES C=CC[C@@H](C)C(=O)CC
REMARK SMILES IDX 4 1 5 2 6 3 7 4 8 5 9 6 3 7 2 8 1 9
REMARK H PARENT
REMARK Flexibility Score: inf
ROOT
ATOM      1  C   UNL     1       4.778  14.265  -8.221  1.00  0.00     0.057 C 
ATOM      2  C   UNL     1       5.945  14.743  -9.096  1.00  0.00     0.016 C 
ENDROOT
BRANCH   1   3
ATOM      3  C   UNL     1       5.284  13.291  -7.178  1.00  0.00     0.135 C 
ATOM      4  O   UNL     1       5.627  13.704  -6.080  1.00  0.00    -0.299 OA
BRANCH   3   5
ATOM      5  C   UNL     1       5.368  11.814  -7.465  1.00  0.00     0.072 C 
ATOM      6  C   UNL     1       4.299  11.396  -8.469  1.00  0.00     0.012 C 
ENDBRANCH   3   5
ENDBRANCH   1   3
BRANCH   1   7
ATOM      7  C   UNL     1       4.057  15.443  -7.535  1.00  0.00     0.038 C 
BRANCH   7   8
ATOM      8  C   UNL     1       2.622  15.107  -7.224  1.00  0.00    -0.034 C 
ATOM      9  C   UNL     1       1.877  14.364  -8.046  1.00  0.00     0.004 C 
ENDBRANCH   7   8
ENDBRANCH   1   7
TORSDOF 4
ENDMDL
MODEL 4
REMARK VINA RESULT:    -4.335      1.451      3.266
REMARK INTER + INTRA:          -5.717
REMARK INTER:                  -5.193
REMARK INTRA:                  -0.524
REMARK UNBOUND:                -0.369
REMARK SMILES C=CC[C@@H](C)C(=O)CC
REMARK SMILES IDX 4 1 5 2 6 3 7 4 8 5 9 6 3 7 2 8 1 9
REMARK H PARENT
REMARK Flexibility Score: inf
ROOT
ATOM      1  C   UNL     1       5.684  13.271  -7.639  1.00  0.00     0.057 C 
ATOM      2  C   UNL     1       5.882  13.802  -9.066  1.00  0.00     0.016 C 
ENDROOT
BRANCH   1   3
ATOM      3  C   UNL     1       4.671  14.129  -6.909  1.00  0.00     0.135 C 
ATOM      4  O   UNL     1       4.507  13.980  -5.707  1.00  0.00    -0.299 OA
BRANCH   3   5
ATOM      5  C   UNL     1       3.863  15.172  -7.636  1.00  0.00     0.072 C 
ATOM      6  C   UNL     1       2.432  14.693  -7.856  1.00  0.00     0.012 C 
ENDBRANCH   3   5
ENDBRANCH   1   3
BRANCH   1   7
ATOM      7  C   UNL     1       5.227  11.799  -7.636  1.00  0.00     0.038 C 
BRANCH   7   8
ATOM      8  C   UNL     1       4.234  11.525  -8.735  1.00  0.00    -0.034 C 
ATOM      9  C   UNL     1       3.008  11.063  -8.479  1.00  0.00     0.004 C 
ENDBRANCH   7   8
ENDBRANCH   1   7
TORSDOF 4
ENDMDL
MODEL 5
REMARK VINA RESULT:    -4.322      1.613      2.156
REMARK INTER + INTRA:          -5.701
REMARK INTER:                  -5.279
REMARK INTRA:                  -0.421
REMARK UNBOUND:                -0.369
REMARK SMILES C=CC[C@@H](C)C(=O)CC
REMARK SMILES IDX 4 1 5 2 6 3 7 4 8 5 9 6 3 7 2 8 1 9
REMARK H PARENT
REMARK Flexibility Score: inf
ROOT
ATOM      1  C   UNL     1       3.718  15.087  -8.846  1.00  0.00     0.057 C 
ATOM      2  C   UNL     1       4.083  16.066  -7.722  1.00  0.00     0.016 C 
ENDROOT
BRANCH   1   3
ATOM      3  C   UNL     1       4.826  14.069  -9.019  1.00  0.00     0.135 C 
ATOM      4  O   UNL     1       5.989  14.443  -9.069  1.00  0.00    -0.299 OA
BRANCH   3   5
ATOM      5  C   UNL     1       4.525  12.597  -9.124  1.00  0.00     0.072 C 
ATOM      6  C   UNL     1       5.250  11.817  -8.031  1.00  0.00     0.012 C 
ENDBRANCH   3   5
ENDBRANCH   1   3
BRANCH   1   7
ATOM      7  C   UNL     1       2.382  14.369  -8.568  1.00  0.00     0.038 C 
BRANCH   7   8
ATOM      8  C   UNL     1       2.022  14.419  -7.106  1.00  0.00    -0.034 C 
ATOM      9  C   UNL     1       2.223  13.379  -6.293  1.00  0.00     0.004 C 
ENDBRANCH   7   8
ENDBRANCH   1   7
TORSDOF 4
ENDMDL
MODEL 6
REMARK VINA RESULT:    -4.295      1.080      3.387
REMARK INTER + INTRA:          -5.668
REMARK INTER:                  -5.362
REMARK INTRA:                  -0.306
REMARK UNBOUND:                -0.369
REMARK SMILES C=CC[C@@H](C)C(=O)CC
REMARK SMILES IDX 4 1 5 2 6 3 7 4 8 5 9 6 3 7 2 8 1 9
REMARK H PARENT
REMARK Flexibility Score: inf
ROOT
ATOM      1  C   UNL     1       4.492  15.227  -7.995  1.00  0.00     0.057 C 
ATOM      2  C   UNL     1       3.101  14.791  -8.475  1.00  0.00     0.016 C 
ENDROOT
BRANCH   1   3
ATOM      3  C   UNL     1       4.505  15.331  -6.485  1.00  0.00     0.135 C 
ATOM      4  O   UNL     1       5.444  14.868  -5.854  1.00  0.00    -0.299 OA
BRANCH   3   5
ATOM      5  C   UNL     1       3.382  16.003  -5.739  1.00  0.00     0.072 C 
ATOM      6  C   UNL     1       3.586  17.514  -5.699  1.00  0.00     0.012 C 
ENDBRANCH   3   5
ENDBRANCH   1   3
BRANCH   1   7
ATOM      7  C   UNL     1       5.591  14.253  -8.465  1.00  0.00     0.038 C 
BRANCH   7   8
ATOM      8  C   UNL     1       5.033  12.880  -8.734  1.00  0.00    -0.034 C 
ATOM      9  C   UNL     1       5.333  11.832  -7.962  1.00  0.00     0.004 C 
ENDBRANCH   7   8
ENDBRANCH   1   7
TORSDOF 4
ENDMDL
MODEL 7
REMARK VINA RESULT:    -4.250      1.269      2.902
REMARK INTER + INTRA:          -5.613
REMARK INTER:                  -5.211
REMARK INTRA:                  -0.402
REMARK UNBOUND:                -0.369
REMARK SMILES C=CC[C@@H](C)C(=O)CC
REMARK SMILES IDX 4 1 5 2 6 3 7 4 8 5 9 6 3 7 2 8 1 9
REMARK H PARENT
REMARK Flexibility Score: inf
ROOT
ATOM      1  C   UNL     1       4.417  13.228  -7.629  1.00  0.00     0.057 C 
ATOM      2  C   UNL     1       5.134  11.905  -7.928  1.00  0.00     0.016 C 
ENDROOT
BRANCH   1   3
ATOM      3  C   UNL     1       5.043  13.887  -6.417  1.00  0.00     0.135 C 
ATOM      4  O   UNL     1       5.801  13.247  -5.704  1.00  0.00    -0.299 OA
BRANCH   3   5
ATOM      5  C   UNL     1       4.755  15.326  -6.076  1.00  0.00     0.072 C 
ATOM      6  C   UNL     1       3.418  15.454  -5.354  1.00  0.00     0.012 C 
ENDBRANCH   3   5
ENDBRANCH   1   3
BRANCH   1   7
ATOM      7  C   UNL     1       4.463  14.188  -8.834  1.00  0.00     0.038 C 
BRANCH   7   8
ATOM      8  C   UNL     1       3.107  14.779  -9.121  1.00  0.00    -0.034 C 
ATOM      9  C   UNL     1       1.985  14.237  -8.642  1.00  0.00     0.004 C 
ENDBRANCH   7   8
ENDBRANCH   1   7
TORSDOF 4
ENDMDL
MODEL 8
REMARK VINA RESULT:    -4.187      2.056      2.920
REMARK INTER + INTRA:          -5.535
REMARK INTER:                  -5.145
REMARK INTRA:                  -0.390
REMARK UNBOUND:                -0.369
REMARK SMILES C=CC[C@@H](C)C(=O)CC
REMARK SMILES IDX 4 1 5 2 6 3 7 4 8 5 9 6 3 7 2 8 1 9
REMARK H PARENT
REMARK Flexibility Score: inf
ROOT
ATOM      1  C   UNL     1       2.575  13.742  -8.602  1.00  0.00     0.057 C 
ATOM      2  C   UNL     1       3.622  14.734  -9.125  1.00  0.00     0.016 C 
ENDROOT
BRANCH   1   3
ATOM      3  C   UNL     1       3.250  12.449  -8.197  1.00  0.00     0.135 C 
ATOM      4  O   UNL     1       2.731  11.734  -7.352  1.00  0.00    -0.299 OA
BRANCH   3   5
ATOM      5  C   UNL     1       4.551  12.018  -8.823  1.00  0.00     0.072 C 
ATOM      6  C   UNL     1       5.621  11.807  -7.757  1.00  0.00     0.012 C 
ENDBRANCH   3   5
ENDBRANCH   1   3
BRANCH   1   7
ATOM      7  C   UNL     1       1.785  14.319  -7.411  1.00  0.00     0.038 C 
BRANCH   7   8
ATOM      8  C   UNL     1       2.641  15.231  -6.571  1.00  0.00    -0.034 C 
ATOM      9  C   UNL     1       3.045  14.888  -5.345  1.00  0.00     0.004 C 
ENDBRANCH   7   8
ENDBRANCH   1   7
TORSDOF 4
ENDMDL
MODEL 9
REMARK VINA RESULT:    -4.174      1.409      3.155
REMARK INTER + INTRA:          -5.518
REMARK INTER:                  -5.039
REMARK INTRA:                  -0.479
REMARK UNBOUND:                -0.369
REMARK SMILES C=CC[C@@H](C)C(=O)CC
REMARK SMILES IDX 4 1 5 2 6 3 7 4 8 5 9 6 3 7 2 8 1 9
REMARK H PARENT
REMARK Flexibility Score: inf
ROOT
ATOM      1  C   UNL     1       3.925  13.903  -6.551  1.00  0.00     0.057 C 
ATOM      2  C   UNL     1       3.249  14.135  -5.193  1.00  0.00     0.016 C 
ENDROOT
BRANCH   1   3
ATOM      3  C   UNL     1       3.807  15.151  -7.402  1.00  0.00     0.135 C 
ATOM      4  O   UNL     1       4.133  16.234  -6.937  1.00  0.00    -0.299 OA
BRANCH   3   5
ATOM      5  C   UNL     1       3.302  15.084  -8.819  1.00  0.00     0.072 C 
ATOM      6  C   UNL     1       2.066  14.196  -8.912  1.00  0.00     0.012 C 
ENDBRANCH   3   5
ENDBRANCH   1   3
BRANCH   1   7
ATOM      7  C   UNL     1       5.408  13.513  -6.391  1.00  0.00     0.038 C 
BRANCH   7   8
ATOM      8  C   UNL     1       5.882  12.663  -7.541  1.00  0.00    -0.034 C 
ATOM      9  C   UNL     1       5.137  11.674  -8.041  1.00  0.00     0.004 C 
ENDBRANCH   7   8
ENDBRANCH   1   7
TORSDOF 4
ENDMDL
