MODEL 1
REMARK VINA RESULT:    -3.978      0.000      0.000
REMARK INTER + INTRA:          -5.110
REMARK INTER:                  -4.908
REMARK INTRA:                  -0.201
REMARK UNBOUND:                -0.201
REMARK SMILES CCCCCC(=O)[O-]
REMARK SMILES IDX 4 1 5 2 6 3 7 4 8 5 3 6 2 7 1 8
REMARK H PARENT
REMARK Flexibility Score: inf
ROOT
ATOM      1  C   UNL     1      13.527  32.599  12.509  1.00  0.00     0.006 C 
ENDROOT
BRANCH   1   2
ATOM      2  C   UNL     1      13.373  33.713  13.553  1.00  0.00     0.053 C 
BRANCH   2   3
ATOM      3  C   UNL     1      14.348  34.816  13.288  1.00  0.00     0.041 C 
ATOM      4  O   UNL     1      13.995  35.827  12.626  1.00  0.00    -0.550 OA
ATOM      5  O   UNL     1      15.632  34.750  13.814  1.00  0.00    -0.550 OA
ENDBRANCH   2   3
ENDBRANCH   1   2
BRANCH   1   6
ATOM      6  C   UNL     1      14.255  31.365  13.065  1.00  0.00     0.000 C 
BRANCH   6   7
ATOM      7  C   UNL     1      15.538  31.035  12.288  1.00  0.00    -0.003 C 
ATOM      8  C   UNL     1      16.772  31.553  13.023  1.00  0.00     0.004 C 
ENDBRANCH   6   7
ENDBRANCH   1   6
TORSDOF 4
ENDMDL
MODEL 2
REMARK VINA RESULT:    -3.886     15.495     16.976
REMARK INTER + INTRA:          -4.996
REMARK INTER:                  -4.916
REMARK INTRA:                  -0.080
REMARK UNBOUND:                -0.201
REMARK SMILES CCCCCC(=O)[O-]
REMARK SMILES IDX 4 1 5 2 6 3 7 4 8 5 3 6 2 7 1 8
REMARK H PARENT
REMARK Flexibility Score: inf
ROOT
ATOM      1  C   UNL     1       4.841  46.289  10.255  1.00  0.00     0.006 C 
ENDROOT
BRANCH   1   2
ATOM      2  C   UNL     1       5.035  47.298   9.116  1.00  0.00     0.053 C 
BRANCH   2   3
ATOM      3  C   UNL     1       6.352  47.992   9.252  1.00  0.00     0.041 C 
ATOM      4  O   UNL     1       7.380  47.342   9.576  1.00  0.00    -0.550 OA
ATOM      5  O   UNL     1       6.456  49.349   8.972  1.00  0.00    -0.550 OA
ENDBRANCH   2   3
ENDBRANCH   1   2
BRANCH   1   6
ATOM      6  C   UNL     1       3.363  46.100  10.633  1.00  0.00     0.000 C 
BRANCH   6   7
ATOM      7  C   UNL     1       3.118  44.818  11.442  1.00  0.00    -0.003 C 
ATOM      8  C   UNL     1       4.407  44.329  12.097  1.00  0.00     0.004 C 
ENDBRANCH   6   7
ENDBRANCH   1   6
TORSDOF 4
ENDMDL
MODEL 3
REMARK VINA RESULT:    -3.865     15.587     16.686
REMARK INTER + INTRA:          -4.971
REMARK INTER:                  -4.872
REMARK INTRA:                  -0.099
REMARK UNBOUND:                -0.201
REMARK SMILES CCCCCC(=O)[O-]
REMARK SMILES IDX 4 1 5 2 6 3 7 4 8 5 3 6 2 7 1 8
REMARK H PARENT
REMARK Flexibility Score: inf
ROOT
ATOM      1  C   UNL     1       4.918  46.214   9.496  1.00  0.00     0.006 C 
ENDROOT
BRANCH   1   2
ATOM      2  C   UNL     1       4.061  45.994  10.750  1.00  0.00     0.053 C 
BRANCH   2   3
ATOM      3  C   UNL     1       4.242  44.604  11.269  1.00  0.00     0.041 C 
ATOM      4  O   UNL     1       4.413  44.404  12.500  1.00  0.00    -0.550 OA
ATOM      5  O   UNL     1       4.171  43.522  10.399  1.00  0.00    -0.550 OA
ENDBRANCH   2   3
ENDBRANCH   1   2
BRANCH   1   6
ATOM      6  C   UNL     1       4.848  47.659   8.979  1.00  0.00     0.000 C 
BRANCH   6   7
ATOM      7  C   UNL     1       6.162  48.427   9.189  1.00  0.00    -0.003 C 
ATOM      8  C   UNL     1       7.312  47.471   9.497  1.00  0.00     0.004 C 
ENDBRANCH   6   7
ENDBRANCH   1   6
TORSDOF 4
ENDMDL
MODEL 4
REMARK VINA RESULT:    -3.768     14.952     16.071
REMARK INTER + INTRA:          -4.851
REMARK INTER:                  -4.726
REMARK INTRA:                  -0.125
REMARK UNBOUND:                -0.201
REMARK SMILES CCCCCC(=O)[O-]
REMARK SMILES IDX 4 1 5 2 6 3 7 4 8 5 3 6 2 7 1 8
REMARK H PARENT
REMARK Flexibility Score: inf
ROOT
ATOM      1  C   UNL     1       3.976  44.532  11.788  1.00  0.00     0.006 C 
ENDROOT
BRANCH   1   2
ATOM      2  C   UNL     1       2.736  43.641  11.941  1.00  0.00     0.053 C 
BRANCH   2   3
ATOM      3  C   UNL     1       2.921  42.357  11.199  1.00  0.00     0.041 C 
ATOM      4  O   UNL     1       2.855  42.336   9.942  1.00  0.00    -0.550 OA
ATOM      5  O   UNL     1       3.218  41.190  11.892  1.00  0.00    -0.550 OA
ENDBRANCH   2   3
ENDBRANCH   1   2
BRANCH   1   6
ATOM      6  C   UNL     1       3.695  45.799  10.964  1.00  0.00     0.000 C 
BRANCH   6   7
ATOM      7  C   UNL     1       4.432  45.802   9.616  1.00  0.00    -0.003 C 
ATOM      8  C   UNL     1       5.385  46.990   9.515  1.00  0.00     0.004 C 
ENDBRANCH   6   7
ENDBRANCH   1   6
TORSDOF 4
ENDMDL
MODEL 5
REMARK VINA RESULT:    -3.754     15.007     16.128
REMARK INTER + INTRA:          -4.833
REMARK INTER:                  -4.704
REMARK INTRA:                  -0.128
REMARK UNBOUND:                -0.201
REMARK SMILES CCCCCC(=O)[O-]
REMARK SMILES IDX 4 1 5 2 6 3 7 4 8 5 3 6 2 7 1 8
REMARK H PARENT
REMARK Flexibility Score: inf
ROOT
ATOM      1  C   UNL     1       4.109  44.644  11.717  1.00  0.00     0.006 C 
ENDROOT
BRANCH   1   2
ATOM      2  C   UNL     1       2.901  43.742  12.001  1.00  0.00     0.053 C 
BRANCH   2   3
ATOM      3  C   UNL     1       2.988  42.484  11.199  1.00  0.00     0.041 C 
ATOM      4  O   UNL     1       3.171  41.378  11.772  1.00  0.00    -0.550 OA
ATOM      5  O   UNL     1       2.818  42.524   9.820  1.00  0.00    -0.550 OA
ENDBRANCH   2   3
ENDBRANCH   1   2
BRANCH   1   6
ATOM      6  C   UNL     1       3.744  45.870  10.866  1.00  0.00     0.000 C 
BRANCH   6   7
ATOM      7  C   UNL     1       4.493  45.905   9.526  1.00  0.00    -0.003 C 
ATOM      8  C   UNL     1       5.569  46.987   9.527  1.00  0.00     0.004 C 
ENDBRANCH   6   7
ENDBRANCH   1   6
TORSDOF 4
ENDMDL
MODEL 6
REMARK VINA RESULT:    -3.714      1.362      1.821
REMARK INTER + INTRA:          -4.784
REMARK INTER:                  -4.698
REMARK INTRA:                  -0.086
REMARK UNBOUND:                -0.201
REMARK SMILES CCCCCC(=O)[O-]
REMARK SMILES IDX 4 1 5 2 6 3 7 4 8 5 3 6 2 7 1 8
REMARK H PARENT
REMARK Flexibility Score: inf
ROOT
ATOM      1  C   UNL     1      13.701  33.703  13.637  1.00  0.00     0.006 C 
ENDROOT
BRANCH   1   2
ATOM      2  C   UNL     1      14.580  34.904  13.261  1.00  0.00     0.053 C 
BRANCH   2   3
ATOM      3  C   UNL     1      13.737  36.028  12.750  1.00  0.00     0.041 C 
ATOM      4  O   UNL     1      12.807  36.495  13.458  1.00  0.00    -0.550 OA
ATOM      5  O   UNL     1      14.010  36.595  11.511  1.00  0.00    -0.550 OA
ENDBRANCH   2   3
ENDBRANCH   1   2
BRANCH   1   6
ATOM      6  C   UNL     1      13.631  32.649  12.521  1.00  0.00     0.000 C 
BRANCH   6   7
ATOM      7  C   UNL     1      14.357  31.347  12.892  1.00  0.00    -0.003 C 
ATOM      8  C   UNL     1      15.869  31.554  12.930  1.00  0.00     0.004 C 
ENDBRANCH   6   7
ENDBRANCH   1   6
TORSDOF 4
ENDMDL
MODEL 7
REMARK VINA RESULT:    -3.677     15.196     16.433
REMARK INTER + INTRA:          -4.738
REMARK INTER:                  -4.615
REMARK INTRA:                  -0.124
REMARK UNBOUND:                -0.201
REMARK SMILES CCCCCC(=O)[O-]
REMARK SMILES IDX 4 1 5 2 6 3 7 4 8 5 3 6 2 7 1 8
REMARK H PARENT
REMARK Flexibility Score: inf
ROOT
ATOM      1  C   UNL     1       3.713  45.464  11.066  1.00  0.00     0.006 C 
ENDROOT
BRANCH   1   2
ATOM      2  C   UNL     1       4.217  45.442   9.617  1.00  0.00     0.053 C 
BRANCH   2   3
ATOM      3  C   UNL     1       4.854  46.749   9.267  1.00  0.00     0.041 C 
ATOM      4  O   UNL     1       6.021  47.011   9.660  1.00  0.00    -0.550 OA
ATOM      5  O   UNL     1       4.179  47.659   8.462  1.00  0.00    -0.550 OA
ENDBRANCH   2   3
ENDBRANCH   1   2
BRANCH   1   6
ATOM      6  C   UNL     1       4.341  44.357  11.927  1.00  0.00     0.000 C 
BRANCH   6   7
ATOM      7  C   UNL     1       3.811  42.960  11.572  1.00  0.00    -0.003 C 
ATOM      8  C   UNL     1       2.311  42.859  11.834  1.00  0.00     0.004 C 
ENDBRANCH   6   7
ENDBRANCH   1   6
TORSDOF 4
ENDMDL
MODEL 8
REMARK VINA RESULT:    -3.630     15.234     16.306
REMARK INTER + INTRA:          -4.680
REMARK INTER:                  -4.561
REMARK INTRA:                  -0.119
REMARK UNBOUND:                -0.201
REMARK SMILES CCCCCC(=O)[O-]
REMARK SMILES IDX 4 1 5 2 6 3 7 4 8 5 3 6 2 7 1 8
REMARK H PARENT
REMARK Flexibility Score: inf
ROOT
ATOM      1  C   UNL     1       3.372  45.005  10.035  1.00  0.00     0.006 C 
ENDROOT
BRANCH   1   2
ATOM      2  C   UNL     1       4.546  45.864  10.523  1.00  0.00     0.053 C 
BRANCH   2   3
ATOM      3  C   UNL     1       4.964  46.830   9.461  1.00  0.00     0.041 C 
ATOM      4  O   UNL     1       4.111  47.304   8.665  1.00  0.00    -0.550 OA
ATOM      5  O   UNL     1       6.287  47.244   9.379  1.00  0.00    -0.550 OA
ENDBRANCH   2   3
ENDBRANCH   1   2
BRANCH   1   6
ATOM      6  C   UNL     1       3.827  43.659   9.451  1.00  0.00     0.000 C 
BRANCH   6   7
ATOM      7  C   UNL     1       2.863  42.512   9.787  1.00  0.00    -0.003 C 
ATOM      8  C   UNL     1       3.032  42.061  11.236  1.00  0.00     0.004 C 
ENDBRANCH   6   7
ENDBRANCH   1   6
TORSDOF 4
ENDMDL
MODEL 9
REMARK VINA RESULT:    -3.456     15.916     16.800
REMARK INTER + INTRA:          -4.466
REMARK INTER:                  -4.209
REMARK INTRA:                  -0.257
REMARK UNBOUND:                -0.201
REMARK SMILES CCCCCC(=O)[O-]
REMARK SMILES IDX 4 1 5 2 6 3 7 4 8 5 3 6 2 7 1 8
REMARK H PARENT
REMARK Flexibility Score: inf
ROOT
ATOM      1  C   UNL     1       4.081  45.152  11.458  1.00  0.00     0.006 C 
ENDROOT
BRANCH   1   2
ATOM      2  C   UNL     1       4.656  46.038  10.345  1.00  0.00     0.053 C 
BRANCH   2   3
ATOM      3  C   UNL     1       3.552  46.665   9.555  1.00  0.00     0.041 C 
ATOM      4  O   UNL     1       2.367  46.624   9.980  1.00  0.00    -0.550 OA
ATOM      5  O   UNL     1       3.837  47.340   8.375  1.00  0.00    -0.550 OA
ENDBRANCH   2   3
ENDBRANCH   1   2
BRANCH   1   6
ATOM      6  C   UNL     1       4.149  43.655  11.115  1.00  0.00     0.000 C 
BRANCH   6   7
ATOM      7  C   UNL     1       2.774  43.064  10.771  1.00  0.00    -0.003 C 
ATOM      8  C   UNL     1       2.554  43.031   9.261  1.00  0.00     0.004 C 
ENDBRANCH   6   7
ENDBRANCH   1   6
TORSDOF 4
ENDMDL
