MODEL 1
REMARK VINA RESULT:    -3.390      0.000      0.000
REMARK INTER + INTRA:          -5.060
REMARK INTER:                  -4.778
REMARK INTRA:                  -0.282
REMARK UNBOUND:                -0.282
REMARK SMILES CCCCCCCCC(=O)[O-]
REMARK SMILES IDX 6 1 7 2 8 3 9 4 10 5 11 6 5 7 4 8 3 9 2 10 1 11
REMARK H PARENT
REMARK Flexibility Score: inf
ROOT
ATOM      1  C   UNL     1      26.237  41.839   3.486  1.00  0.00     0.000 C 
ENDROOT
BRANCH   1   2
ATOM      2  C   UNL     1      26.579  43.301   3.811  1.00  0.00     0.006 C 
BRANCH   2   3
ATOM      3  C   UNL     1      25.800  43.823   5.025  1.00  0.00     0.053 C 
BRANCH   3   4
ATOM      4  C   UNL     1      26.321  45.146   5.494  1.00  0.00     0.041 C 
ATOM      5  O   UNL     1      25.628  46.187   5.353  1.00  0.00    -0.550 OA
ATOM      6  O   UNL     1      27.588  45.235   6.059  1.00  0.00    -0.550 OA
ENDBRANCH   3   4
ENDBRANCH   2   3
ENDBRANCH   1   2
BRANCH   1   7
ATOM      7  C   UNL     1      24.730  41.584   3.617  1.00  0.00     0.000 C 
BRANCH   7   8
ATOM      8  C   UNL     1      24.190  40.837   2.389  1.00  0.00    -0.000 C 
BRANCH   8   9
ATOM      9  C   UNL     1      25.306  40.248   1.507  1.00  0.00    -0.000 C 
BRANCH   9  10
ATOM     10  C   UNL     1      24.821  39.589   0.203  1.00  0.00    -0.003 C 
ATOM     11  C   UNL     1      25.716  39.904  -0.996  1.00  0.00     0.004 C 
ENDBRANCH   9  10
ENDBRANCH   8   9
ENDBRANCH   7   8
ENDBRANCH   1   7
TORSDOF 7
ENDMDL
MODEL 2
REMARK VINA RESULT:    -3.340      4.373      6.604
REMARK INTER + INTRA:          -4.989
REMARK INTER:                  -4.708
REMARK INTRA:                  -0.281
REMARK UNBOUND:                -0.282
REMARK SMILES CCCCCCCCC(=O)[O-]
REMARK SMILES IDX 6 1 7 2 8 3 9 4 10 5 11 6 5 7 4 8 3 9 2 10 1 11
REMARK H PARENT
REMARK Flexibility Score: inf
ROOT
ATOM      1  C   UNL     1      25.395  39.881   1.025  1.00  0.00     0.000 C 
ENDROOT
BRANCH   1   2
ATOM      2  C   UNL     1      25.138  39.265  -0.358  1.00  0.00     0.006 C 
BRANCH   2   3
ATOM      3  C   UNL     1      25.983  39.927  -1.455  1.00  0.00     0.053 C 
BRANCH   3   4
ATOM      4  C   UNL     1      27.293  39.227  -1.647  1.00  0.00     0.041 C 
ATOM      5  O   UNL     1      27.411  38.010  -1.350  1.00  0.00    -0.550 OA
ATOM      6  O   UNL     1      28.393  39.929  -2.125  1.00  0.00    -0.550 OA
ENDBRANCH   3   4
ENDBRANCH   2   3
ENDBRANCH   1   2
BRANCH   1   7
ATOM      7  C   UNL     1      24.087  40.370   1.660  1.00  0.00     0.000 C 
BRANCH   7   8
ATOM      8  C   UNL     1      24.352  41.043   3.015  1.00  0.00    -0.000 C 
BRANCH   8   9
ATOM      9  C   UNL     1      25.762  41.652   3.115  1.00  0.00    -0.000 C 
BRANCH   9  10
ATOM     10  C   UNL     1      25.885  42.844   4.081  1.00  0.00    -0.003 C 
ATOM     11  C   UNL     1      27.264  43.504   4.045  1.00  0.00     0.004 C 
ENDBRANCH   9  10
ENDBRANCH   8   9
ENDBRANCH   7   8
ENDBRANCH   1   7
TORSDOF 7
ENDMDL
MODEL 3
REMARK VINA RESULT:    -3.296     20.263     21.175
REMARK INTER + INTRA:          -4.927
REMARK INTER:                  -4.760
REMARK INTRA:                  -0.167
REMARK UNBOUND:                -0.282
REMARK SMILES CCCCCCCCC(=O)[O-]
REMARK SMILES IDX 6 1 7 2 8 3 9 4 10 5 11 6 5 7 4 8 3 9 2 10 1 11
REMARK H PARENT
REMARK Flexibility Score: inf
ROOT
ATOM      1  C   UNL     1      42.500  31.038   3.443  1.00  0.00     0.000 C 
ENDROOT
BRANCH   1   2
ATOM      2  C   UNL     1      42.887  30.233   4.692  1.00  0.00     0.006 C 
BRANCH   2   3
ATOM      3  C   UNL     1      41.907  29.085   4.970  1.00  0.00     0.053 C 
BRANCH   3   4
ATOM      4  C   UNL     1      42.328  28.266   6.151  1.00  0.00     0.041 C 
ATOM      5  O   UNL     1      42.689  28.830   7.217  1.00  0.00    -0.550 OA
ATOM      6  O   UNL     1      42.354  26.880   6.063  1.00  0.00    -0.550 OA
ENDBRANCH   3   4
ENDBRANCH   2   3
ENDBRANCH   1   2
BRANCH   1   7
ATOM      7  C   UNL     1      43.509  32.163   3.180  1.00  0.00     0.000 C 
BRANCH   7   8
ATOM      8  C   UNL     1      43.814  32.289   1.680  1.00  0.00    -0.000 C 
BRANCH   8   9
ATOM      9  C   UNL     1      42.550  32.498   0.827  1.00  0.00    -0.000 C 
BRANCH   9  10
ATOM     10  C   UNL     1      42.815  32.885  -0.639  1.00  0.00    -0.003 C 
ATOM     11  C   UNL     1      41.795  32.287  -1.609  1.00  0.00     0.004 C 
ENDBRANCH   9  10
ENDBRANCH   8   9
ENDBRANCH   7   8
ENDBRANCH   1   7
TORSDOF 7
ENDMDL
MODEL 4
REMARK VINA RESULT:    -3.285      1.624      2.554
REMARK INTER + INTRA:          -4.912
REMARK INTER:                  -4.582
REMARK INTRA:                  -0.330
REMARK UNBOUND:                -0.282
REMARK SMILES CCCCCCCCC(=O)[O-]
REMARK SMILES IDX 6 1 7 2 8 3 9 4 10 5 11 6 5 7 4 8 3 9 2 10 1 11
REMARK H PARENT
REMARK Flexibility Score: inf
ROOT
ATOM      1  C   UNL     1      25.074  40.789   2.336  1.00  0.00     0.000 C 
ENDROOT
BRANCH   1   2
ATOM      2  C   UNL     1      24.224  41.402   3.459  1.00  0.00     0.006 C 
BRANCH   2   3
ATOM      3  C   UNL     1      25.046  41.677   4.725  1.00  0.00     0.053 C 
BRANCH   3   4
ATOM      4  C   UNL     1      25.389  43.128   4.861  1.00  0.00     0.041 C 
ATOM      5  O   UNL     1      24.846  43.827   5.757  1.00  0.00    -0.550 OA
ATOM      6  O   UNL     1      26.284  43.718   3.977  1.00  0.00    -0.550 OA
ENDBRANCH   3   4
ENDBRANCH   2   3
ENDBRANCH   1   2
BRANCH   1   7
ATOM      7  C   UNL     1      24.204  39.975   1.370  1.00  0.00     0.000 C 
BRANCH   7   8
ATOM      8  C   UNL     1      25.067  39.053   0.496  1.00  0.00    -0.000 C 
BRANCH   8   9
ATOM      9  C   UNL     1      25.357  39.644  -0.895  1.00  0.00    -0.000 C 
BRANCH   9  10
ATOM     10  C   UNL     1      26.831  39.571  -1.335  1.00  0.00    -0.003 C 
ATOM     11  C   UNL     1      27.766  39.107  -0.218  1.00  0.00     0.004 C 
ENDBRANCH   9  10
ENDBRANCH   8   9
ENDBRANCH   7   8
ENDBRANCH   1   7
TORSDOF 7
ENDMDL
MODEL 5
REMARK VINA RESULT:    -3.271     19.646     20.646
REMARK INTER + INTRA:          -4.892
REMARK INTER:                  -4.586
REMARK INTRA:                  -0.306
REMARK UNBOUND:                -0.282
REMARK SMILES CCCCCCCCC(=O)[O-]
REMARK SMILES IDX 6 1 7 2 8 3 9 4 10 5 11 6 5 7 4 8 3 9 2 10 1 11
REMARK H PARENT
REMARK Flexibility Score: inf
ROOT
ATOM      1  C   UNL     1      42.701  32.143   2.436  1.00  0.00     0.000 C 
ENDROOT
BRANCH   1   2
ATOM      2  C   UNL     1      42.725  31.035   3.500  1.00  0.00     0.006 C 
BRANCH   2   3
ATOM      3  C   UNL     1      44.013  31.059   4.334  1.00  0.00     0.053 C 
BRANCH   3   4
ATOM      4  C   UNL     1      43.733  30.906   5.797  1.00  0.00     0.041 C 
ATOM      5  O   UNL     1      43.205  31.848   6.443  1.00  0.00    -0.550 OA
ATOM      6  O   UNL     1      44.085  29.734   6.454  1.00  0.00    -0.550 OA
ENDBRANCH   3   4
ENDBRANCH   2   3
ENDBRANCH   1   2
BRANCH   1   7
ATOM      7  C   UNL     1      43.994  32.141   1.611  1.00  0.00     0.000 C 
BRANCH   7   8
ATOM      8  C   UNL     1      43.835  32.985   0.338  1.00  0.00    -0.000 C 
BRANCH   8   9
ATOM      9  C   UNL     1      42.366  33.150  -0.092  1.00  0.00    -0.000 C 
BRANCH   9  10
ATOM     10  C   UNL     1      41.967  32.355  -1.349  1.00  0.00    -0.003 C 
ATOM     11  C   UNL     1      40.545  32.658  -1.822  1.00  0.00     0.004 C 
ENDBRANCH   9  10
ENDBRANCH   8   9
ENDBRANCH   7   8
ENDBRANCH   1   7
TORSDOF 7
ENDMDL
MODEL 6
REMARK VINA RESULT:    -3.270     19.715     20.815
REMARK INTER + INTRA:          -4.891
REMARK INTER:                  -4.583
REMARK INTRA:                  -0.308
REMARK UNBOUND:                -0.282
REMARK SMILES CCCCCCCCC(=O)[O-]
REMARK SMILES IDX 6 1 7 2 8 3 9 4 10 5 11 6 5 7 4 8 3 9 2 10 1 11
REMARK H PARENT
REMARK Flexibility Score: inf
ROOT
ATOM      1  C   UNL     1      43.777  32.265   1.493  1.00  0.00     0.000 C 
ENDROOT
BRANCH   1   2
ATOM      2  C   UNL     1      42.331  32.522   1.046  1.00  0.00     0.006 C 
BRANCH   2   3
ATOM      3  C   UNL     1      42.240  33.618  -0.023  1.00  0.00     0.053 C 
BRANCH   3   4
ATOM      4  C   UNL     1      41.601  33.118  -1.282  1.00  0.00     0.041 C 
ATOM      5  O   UNL     1      40.757  33.826  -1.890  1.00  0.00    -0.550 OA
ATOM      6  O   UNL     1      41.914  31.853  -1.766  1.00  0.00    -0.550 OA
ENDBRANCH   3   4
ENDBRANCH   2   3
ENDBRANCH   1   2
BRANCH   1   7
ATOM      7  C   UNL     1      43.827  31.799   2.954  1.00  0.00     0.000 C 
BRANCH   7   8
ATOM      8  C   UNL     1      42.515  31.109   3.356  1.00  0.00    -0.000 C 
BRANCH   8   9
ATOM      9  C   UNL     1      42.661  30.231   4.612  1.00  0.00    -0.000 C 
BRANCH   9  10
ATOM     10  C   UNL     1      43.994  30.393   5.364  1.00  0.00    -0.003 C 
ATOM     11  C   UNL     1      44.119  29.461   6.569  1.00  0.00     0.004 C 
ENDBRANCH   9  10
ENDBRANCH   8   9
ENDBRANCH   7   8
ENDBRANCH   1   7
TORSDOF 7
ENDMDL
MODEL 7
REMARK VINA RESULT:    -3.266     19.624     20.562
REMARK INTER + INTRA:          -4.885
REMARK INTER:                  -4.227
REMARK INTRA:                  -0.658
REMARK UNBOUND:                -0.282
REMARK SMILES CCCCCCCCC(=O)[O-]
REMARK SMILES IDX 6 1 7 2 8 3 9 4 10 5 11 6 5 7 4 8 3 9 2 10 1 11
REMARK H PARENT
REMARK Flexibility Score: inf
ROOT
ATOM      1  C   UNL     1      43.645  32.211   3.773  1.00  0.00     0.000 C 
ENDROOT
BRANCH   1   2
ATOM      2  C   UNL     1      43.839  31.936   2.274  1.00  0.00     0.006 C 
BRANCH   2   3
ATOM      3  C   UNL     1      42.585  32.271   1.455  1.00  0.00     0.053 C 
BRANCH   3   4
ATOM      4  C   UNL     1      42.927  32.673   0.054  1.00  0.00     0.041 C 
ATOM      5  O   UNL     1      42.158  32.375  -0.896  1.00  0.00    -0.550 OA
ATOM      6  O   UNL     1      44.112  33.349  -0.207  1.00  0.00    -0.550 OA
ENDBRANCH   3   4
ENDBRANCH   2   3
ENDBRANCH   1   2
BRANCH   1   7
ATOM      7  C   UNL     1      43.907  30.948   4.603  1.00  0.00     0.000 C 
BRANCH   7   8
ATOM      8  C   UNL     1      42.615  30.446   5.264  1.00  0.00    -0.000 C 
BRANCH   8   9
ATOM      9  C   UNL     1      41.753  29.589   4.320  1.00  0.00    -0.000 C 
BRANCH   9  10
ATOM     10  C   UNL     1      40.270  29.996   4.249  1.00  0.00    -0.003 C 
ATOM     11  C   UNL     1      40.067  31.510   4.200  1.00  0.00     0.004 C 
ENDBRANCH   9  10
ENDBRANCH   8   9
ENDBRANCH   7   8
ENDBRANCH   1   7
TORSDOF 7
ENDMDL
MODEL 8
REMARK VINA RESULT:    -3.263      1.420      2.314
REMARK INTER + INTRA:          -4.880
REMARK INTER:                  -4.574
REMARK INTRA:                  -0.306
REMARK UNBOUND:                -0.282
REMARK SMILES CCCCCCCCC(=O)[O-]
REMARK SMILES IDX 6 1 7 2 8 3 9 4 10 5 11 6 5 7 4 8 3 9 2 10 1 11
REMARK H PARENT
REMARK Flexibility Score: inf
ROOT
ATOM      1  C   UNL     1      24.146  41.150   3.223  1.00  0.00     0.000 C 
ENDROOT
BRANCH   1   2
ATOM      2  C   UNL     1      25.118  41.860   4.176  1.00  0.00     0.006 C 
BRANCH   2   3
ATOM      3  C   UNL     1      26.527  41.985   3.582  1.00  0.00     0.053 C 
BRANCH   3   4
ATOM      4  C   UNL     1      27.151  43.308   3.901  1.00  0.00     0.041 C 
ATOM      5  O   UNL     1      28.373  43.503   3.675  1.00  0.00    -0.550 OA
ATOM      6  O   UNL     1      26.389  44.315   4.480  1.00  0.00    -0.550 OA
ENDBRANCH   3   4
ENDBRANCH   2   3
ENDBRANCH   1   2
BRANCH   1   7
ATOM      7  C   UNL     1      24.894  40.527   2.038  1.00  0.00     0.000 C 
BRANCH   7   8
ATOM      8  C   UNL     1      23.916  39.869   1.053  1.00  0.00    -0.000 C 
BRANCH   8   9
ATOM      9  C   UNL     1      24.628  39.127  -0.092  1.00  0.00    -0.000 C 
BRANCH   9  10
ATOM     10  C   UNL     1      25.690  39.955  -0.839  1.00  0.00    -0.003 C 
ATOM     11  C   UNL     1      26.854  39.109  -1.355  1.00  0.00     0.004 C 
ENDBRANCH   9  10
ENDBRANCH   8   9
ENDBRANCH   7   8
ENDBRANCH   1   7
TORSDOF 7
ENDMDL
MODEL 9
REMARK VINA RESULT:    -3.129      4.440      6.392
REMARK INTER + INTRA:          -4.692
REMARK INTER:                  -4.339
REMARK INTRA:                  -0.354
REMARK UNBOUND:                -0.282
REMARK SMILES CCCCCCCCC(=O)[O-]
REMARK SMILES IDX 6 1 7 2 8 3 9 4 10 5 11 6 5 7 4 8 3 9 2 10 1 11
REMARK H PARENT
REMARK Flexibility Score: inf
ROOT
ATOM      1  C   UNL     1      26.310  39.779   2.160  1.00  0.00     0.000 C 
ENDROOT
BRANCH   1   2
ATOM      2  C   UNL     1      27.245  39.535   0.966  1.00  0.00     0.006 C 
BRANCH   2   3
ATOM      3  C   UNL     1      26.515  38.892  -0.220  1.00  0.00     0.053 C 
BRANCH   3   4
ATOM      4  C   UNL     1      26.753  39.642  -1.494  1.00  0.00     0.041 C 
ATOM      5  O   UNL     1      27.853  39.535  -2.096  1.00  0.00    -0.550 OA
ATOM      6  O   UNL     1      25.771  40.486  -1.999  1.00  0.00    -0.550 OA
ENDBRANCH   3   4
ENDBRANCH   2   3
ENDBRANCH   1   2
BRANCH   1   7
ATOM      7  C   UNL     1      24.955  40.328   1.695  1.00  0.00     0.000 C 
BRANCH   7   8
ATOM      8  C   UNL     1      24.235  41.056   2.840  1.00  0.00    -0.000 C 
BRANCH   8   9
ATOM      9  C   UNL     1      24.256  40.265   4.160  1.00  0.00    -0.000 C 
BRANCH   9  10
ATOM     10  C   UNL     1      24.498  41.115   5.420  1.00  0.00    -0.003 C 
ATOM     11  C   UNL     1      23.875  42.509   5.330  1.00  0.00     0.004 C 
ENDBRANCH   9  10
ENDBRANCH   8   9
ENDBRANCH   7   8
ENDBRANCH   1   7
TORSDOF 7
ENDMDL
