MODEL 1
REMARK VINA RESULT:     0.000      0.000      0.000
REMARK INTER + INTRA:          -0.702
REMARK INTER:                   0.000
REMARK INTRA:                  -0.702
REMARK UNBOUND:                -0.702
REMARK SMILES CCCCCCCC(=O)[O-]
REMARK SMILES IDX 5 1 6 2 7 3 8 4 9 5 10 6 4 7 3 8 2 9 1 10
REMARK H PARENT
REMARK Flexibility Score: inf
ROOT
ATOM      1  C   UNL     1     178.032 185.772 181.689  1.00  0.00     0.000 C 
ENDROOT
BRANCH   1   2
ATOM      2  C   UNL     1     177.563 185.082 182.983  1.00  0.00     0.006 C 
BRANCH   2   3
ATOM      3  C   UNL     1     176.036 185.104 183.128  1.00  0.00     0.053 C 
BRANCH   3   4
ATOM      4  C   UNL     1     175.377 184.077 182.258  1.00  0.00     0.041 C 
ATOM      5  O   UNL     1     175.421 182.859 182.571  1.00  0.00    -0.550 OA
ATOM      6  O   UNL     1     174.743 184.463 181.084  1.00  0.00    -0.550 OA
ENDBRANCH   3   4
ENDBRANCH   2   3
ENDBRANCH   1   2
BRANCH   1   7
ATOM      7  C   UNL     1     178.735 184.805 180.723  1.00  0.00     0.000 C 
BRANCH   7   8
ATOM      8  C   UNL     1     178.973 183.417 181.344  1.00  0.00    -0.000 C 
BRANCH   8   9
ATOM      9  C   UNL     1     178.300 182.291 180.544  1.00  0.00    -0.003 C 
ATOM     10  C   UNL     1     177.443 182.812 179.390  1.00  0.00     0.004 C 
ENDBRANCH   8   9
ENDBRANCH   7   8
ENDBRANCH   1   7
TORSDOF 6
ENDMDL
MODEL 2
REMARK VINA RESULT:     0.000      7.033      8.229
REMARK INTER + INTRA:          -0.701
REMARK INTER:                   0.000
REMARK INTRA:                  -0.701
REMARK UNBOUND:                -0.702
REMARK SMILES CCCCCCCC(=O)[O-]
REMARK SMILES IDX 5 1 6 2 7 3 8 4 9 5 10 6 4 7 3 8 2 9 1 10
REMARK H PARENT
REMARK Flexibility Score: inf
ROOT
ATOM      1  C   UNL     1     180.220 182.025 176.695  1.00  0.00     0.000 C 
ENDROOT
BRANCH   1   2
ATOM      2  C   UNL     1     179.842 180.594 176.273  1.00  0.00     0.006 C 
BRANCH   2   3
ATOM      3  C   UNL     1     180.488 180.197 174.939  1.00  0.00     0.053 C 
BRANCH   3   4
ATOM      4  C   UNL     1     181.934 179.842 175.102  1.00  0.00     0.041 C 
ATOM      5  O   UNL     1     182.262 178.744 175.623  1.00  0.00    -0.550 OA
ATOM      6  O   UNL     1     182.920 180.737 174.708  1.00  0.00    -0.550 OA
ENDBRANCH   3   4
ENDBRANCH   2   3
ENDBRANCH   1   2
BRANCH   1   7
ATOM      7  C   UNL     1     181.029 182.063 178.002  1.00  0.00     0.000 C 
BRANCH   7   8
ATOM      8  C   UNL     1     181.116 180.686 178.683  1.00  0.00    -0.000 C 
BRANCH   8   9
ATOM      9  C   UNL     1     182.566 180.208 178.861  1.00  0.00    -0.003 C 
ATOM     10  C   UNL     1     183.584 181.145 178.212  1.00  0.00     0.004 C 
ENDBRANCH   8   9
ENDBRANCH   7   8
ENDBRANCH   1   7
TORSDOF 6
ENDMDL
MODEL 3
REMARK VINA RESULT:     0.000      5.225      6.916
REMARK INTER + INTRA:          -0.701
REMARK INTER:                   0.000
REMARK INTRA:                  -0.701
REMARK UNBOUND:                -0.702
REMARK SMILES CCCCCCCC(=O)[O-]
REMARK SMILES IDX 5 1 6 2 7 3 8 4 9 5 10 6 4 7 3 8 2 9 1 10
REMARK H PARENT
REMARK Flexibility Score: inf
ROOT
ATOM      1  C   UNL     1     177.512 186.192 186.150  1.00  0.00     0.000 C 
ENDROOT
BRANCH   1   2
ATOM      2  C   UNL     1     178.622 185.475 185.361  1.00  0.00     0.006 C 
BRANCH   2   3
ATOM      3  C   UNL     1     178.985 186.219 184.069  1.00  0.00     0.053 C 
BRANCH   3   4
ATOM      4  C   UNL     1     179.849 187.413 184.336  1.00  0.00     0.041 C 
ATOM      5  O   UNL     1     181.064 187.264 184.626  1.00  0.00    -0.550 OA
ATOM      6  O   UNL     1     179.304 188.690 184.294  1.00  0.00    -0.550 OA
ENDBRANCH   3   4
ENDBRANCH   2   3
ENDBRANCH   1   2
BRANCH   1   7
ATOM      7  C   UNL     1     177.989 186.687 187.525  1.00  0.00     0.000 C 
BRANCH   7   8
ATOM      8  C   UNL     1     179.404 186.193 187.874  1.00  0.00    -0.000 C 
BRANCH   8   9
ATOM      9  C   UNL     1     180.385 187.348 188.126  1.00  0.00    -0.003 C 
ATOM     10  C   UNL     1     179.771 188.721 187.854  1.00  0.00     0.004 C 
ENDBRANCH   8   9
ENDBRANCH   7   8
ENDBRANCH   1   7
TORSDOF 6
ENDMDL
MODEL 4
REMARK VINA RESULT:     0.001      5.073      6.585
REMARK INTER + INTRA:          -0.701
REMARK INTER:                   0.000
REMARK INTRA:                  -0.701
REMARK UNBOUND:                -0.702
REMARK SMILES CCCCCCCC(=O)[O-]
REMARK SMILES IDX 5 1 6 2 7 3 8 4 9 5 10 6 4 7 3 8 2 9 1 10
REMARK H PARENT
REMARK Flexibility Score: inf
ROOT
ATOM      1  C   UNL     1     178.872 178.900 180.179  1.00  0.00     0.000 C 
ENDROOT
BRANCH   1   2
ATOM      2  C   UNL     1     180.345 178.703 179.776  1.00  0.00     0.006 C 
BRANCH   2   3
ATOM      3  C   UNL     1     180.958 179.980 179.187  1.00  0.00     0.053 C 
BRANCH   3   4
ATOM      4  C   UNL     1     181.308 180.975 180.251  1.00  0.00     0.041 C 
ATOM      5  O   UNL     1     182.317 180.792 180.982  1.00  0.00    -0.550 OA
ATOM      6  O   UNL     1     180.503 182.088 180.457  1.00  0.00    -0.550 OA
ENDBRANCH   3   4
ENDBRANCH   2   3
ENDBRANCH   1   2
BRANCH   1   7
ATOM      7  C   UNL     1     178.646 178.740 181.691  1.00  0.00     0.000 C 
BRANCH   7   8
ATOM      8  C   UNL     1     179.900 178.238 182.428  1.00  0.00    -0.000 C 
BRANCH   8   9
ATOM      9  C   UNL     1     180.370 179.213 183.519  1.00  0.00    -0.003 C 
ATOM     10  C   UNL     1     179.565 180.512 183.543  1.00  0.00     0.004 C 
ENDBRANCH   8   9
ENDBRANCH   7   8
ENDBRANCH   1   7
TORSDOF 6
ENDMDL
MODEL 5
REMARK VINA RESULT:     0.001      2.267      3.258
REMARK INTER + INTRA:          -0.701
REMARK INTER:                   0.000
REMARK INTRA:                  -0.701
REMARK UNBOUND:                -0.702
REMARK SMILES CCCCCCCC(=O)[O-]
REMARK SMILES IDX 5 1 6 2 7 3 8 4 9 5 10 6 4 7 3 8 2 9 1 10
REMARK H PARENT
REMARK Flexibility Score: inf
ROOT
ATOM      1  C   UNL     1     176.524 183.217 182.384  1.00  0.00     0.000 C 
ENDROOT
BRANCH   1   2
ATOM      2  C   UNL     1     175.281 183.950 182.919  1.00  0.00     0.006 C 
BRANCH   2   3
ATOM      3  C   UNL     1     175.623 184.899 184.075  1.00  0.00     0.053 C 
BRANCH   3   4
ATOM      4  C   UNL     1     176.249 186.170 183.588  1.00  0.00     0.041 C 
ATOM      5  O   UNL     1     175.543 187.052 183.033  1.00  0.00    -0.550 OA
ATOM      6  O   UNL     1     177.617 186.367 183.719  1.00  0.00    -0.550 OA
ENDBRANCH   3   4
ENDBRANCH   2   3
ENDBRANCH   1   2
BRANCH   1   7
ATOM      7  C   UNL     1     176.844 183.580 180.925  1.00  0.00     0.000 C 
BRANCH   7   8
ATOM      8  C   UNL     1     175.747 184.443 180.276  1.00  0.00    -0.000 C 
BRANCH   8   9
ATOM      9  C   UNL     1     176.280 185.795 179.778  1.00  0.00    -0.003 C 
ATOM     10  C   UNL     1     177.744 186.030 180.148  1.00  0.00     0.004 C 
ENDBRANCH   8   9
ENDBRANCH   7   8
ENDBRANCH   1   7
TORSDOF 6
ENDMDL
MODEL 6
REMARK VINA RESULT:     0.001      7.013      7.948
REMARK INTER + INTRA:          -0.701
REMARK INTER:                   0.000
REMARK INTRA:                  -0.701
REMARK UNBOUND:                -0.702
REMARK SMILES CCCCCCCC(=O)[O-]
REMARK SMILES IDX 5 1 6 2 7 3 8 4 9 5 10 6 4 7 3 8 2 9 1 10
REMARK H PARENT
REMARK Flexibility Score: inf
ROOT
ATOM      1  C   UNL     1     184.530 181.452 187.083  1.00  0.00     0.000 C 
ENDROOT
BRANCH   1   2
ATOM      2  C   UNL     1     183.206 181.412 187.867  1.00  0.00     0.006 C 
BRANCH   2   3
ATOM      3  C   UNL     1     182.609 182.812 188.064  1.00  0.00     0.053 C 
BRANCH   3   4
ATOM      4  C   UNL     1     181.941 183.314 186.820  1.00  0.00     0.041 C 
ATOM      5  O   UNL     1     180.823 182.853 186.471  1.00  0.00    -0.550 OA
ATOM      6  O   UNL     1     182.567 184.269 186.030  1.00  0.00    -0.550 OA
ENDBRANCH   3   4
ENDBRANCH   2   3
ENDBRANCH   1   2
BRANCH   1   7
ATOM      7  C   UNL     1     184.441 180.721 185.734  1.00  0.00     0.000 C 
BRANCH   7   8
ATOM      8  C   UNL     1     183.115 179.962 185.558  1.00  0.00    -0.000 C 
BRANCH   8   9
ATOM      9  C   UNL     1     182.326 180.433 184.326  1.00  0.00    -0.003 C 
ATOM     10  C   UNL     1     182.972 181.630 183.628  1.00  0.00     0.004 C 
ENDBRANCH   8   9
ENDBRANCH   7   8
ENDBRANCH   1   7
TORSDOF 6
ENDMDL
MODEL 7
REMARK VINA RESULT:     0.001      3.184      4.495
REMARK INTER + INTRA:          -0.701
REMARK INTER:                   0.000
REMARK INTRA:                  -0.701
REMARK UNBOUND:                -0.702
REMARK SMILES CCCCCCCC(=O)[O-]
REMARK SMILES IDX 5 1 6 2 7 3 8 4 9 5 10 6 4 7 3 8 2 9 1 10
REMARK H PARENT
REMARK Flexibility Score: inf
ROOT
ATOM      1  C   UNL     1     176.363 181.725 184.384  1.00  0.00     0.000 C 
ENDROOT
BRANCH   1   2
ATOM      2  C   UNL     1     176.173 182.949 185.297  1.00  0.00     0.006 C 
BRANCH   2   3
ATOM      3  C   UNL     1     176.673 184.242 184.640  1.00  0.00     0.053 C 
BRANCH   3   4
ATOM      4  C   UNL     1     175.704 184.762 183.623  1.00  0.00     0.041 C 
ATOM      5  O   UNL     1     174.640 185.325 183.990  1.00  0.00    -0.550 OA
ATOM      6  O   UNL     1     175.962 184.598 182.268  1.00  0.00    -0.550 OA
ENDBRANCH   3   4
ENDBRANCH   2   3
ENDBRANCH   1   2
BRANCH   1   7
ATOM      7  C   UNL     1     175.030 181.078 183.976  1.00  0.00     0.000 C 
BRANCH   7   8
ATOM      8  C   UNL     1     173.826 181.684 184.719  1.00  0.00    -0.000 C 
BRANCH   8   9
ATOM      9  C   UNL     1     172.786 182.286 183.761  1.00  0.00    -0.003 C 
ATOM     10  C   UNL     1     173.238 182.261 182.301  1.00  0.00     0.004 C 
ENDBRANCH   8   9
ENDBRANCH   7   8
ENDBRANCH   1   7
TORSDOF 6
ENDMDL
MODEL 8
REMARK VINA RESULT:     0.001      4.528      5.789
REMARK INTER + INTRA:          -0.701
REMARK INTER:                   0.000
REMARK INTRA:                  -0.701
REMARK UNBOUND:                -0.702
REMARK SMILES CCCCCCCC(=O)[O-]
REMARK SMILES IDX 5 1 6 2 7 3 8 4 9 5 10 6 4 7 3 8 2 9 1 10
REMARK H PARENT
REMARK Flexibility Score: inf
ROOT
ATOM      1  C   UNL     1     181.174 184.545 184.388  1.00  0.00     0.000 C 
ENDROOT
BRANCH   1   2
ATOM      2  C   UNL     1     181.163 184.587 182.850  1.00  0.00     0.006 C 
BRANCH   2   3
ATOM      3  C   UNL     1     179.773 184.922 182.291  1.00  0.00     0.053 C 
BRANCH   3   4
ATOM      4  C   UNL     1     179.463 186.383 182.404  1.00  0.00     0.041 C 
ATOM      5  O   UNL     1     180.009 187.209 181.625  1.00  0.00    -0.550 OA
ATOM      6  O   UNL     1     178.596 186.838 183.389  1.00  0.00    -0.550 OA
ENDBRANCH   3   4
ENDBRANCH   2   3
ENDBRANCH   1   2
BRANCH   1   7
ATOM      7  C   UNL     1     182.075 185.627 185.004  1.00  0.00     0.000 C 
BRANCH   7   8
ATOM      8  C   UNL     1     182.903 186.379 183.947  1.00  0.00    -0.000 C 
BRANCH   8   9
ATOM      9  C   UNL     1     182.625 187.891 183.950  1.00  0.00    -0.003 C 
ATOM     10  C   UNL     1     181.506 188.288 184.912  1.00  0.00     0.004 C 
ENDBRANCH   8   9
ENDBRANCH   7   8
ENDBRANCH   1   7
TORSDOF 6
ENDMDL
MODEL 9
REMARK VINA RESULT:     0.001      3.413      5.034
REMARK INTER + INTRA:          -0.701
REMARK INTER:                   0.000
REMARK INTRA:                  -0.701
REMARK UNBOUND:                -0.702
REMARK SMILES CCCCCCCC(=O)[O-]
REMARK SMILES IDX 5 1 6 2 7 3 8 4 9 5 10 6 4 7 3 8 2 9 1 10
REMARK H PARENT
REMARK Flexibility Score: inf
ROOT
ATOM      1  C   UNL     1     175.520 181.885 185.743  1.00  0.00     0.000 C 
ENDROOT
BRANCH   1   2
ATOM      2  C   UNL     1     175.225 181.002 184.517  1.00  0.00     0.006 C 
BRANCH   2   3
ATOM      3  C   UNL     1     173.776 180.496 184.506  1.00  0.00     0.053 C 
BRANCH   3   4
ATOM      4  C   UNL     1     172.817 181.556 184.060  1.00  0.00     0.041 C 
ATOM      5  O   UNL     1     172.746 181.876 182.844  1.00  0.00    -0.550 OA
ATOM      6  O   UNL     1     172.023 182.214 184.991  1.00  0.00    -0.550 OA
ENDBRANCH   3   4
ENDBRANCH   2   3
ENDBRANCH   1   2
BRANCH   1   7
ATOM      7  C   UNL     1     175.868 183.333 185.359  1.00  0.00     0.000 C 
BRANCH   7   8
ATOM      8  C   UNL     1     176.026 183.521 183.840  1.00  0.00    -0.000 C 
BRANCH   8   9
ATOM      9  C   UNL     1     175.051 184.563 183.272  1.00  0.00    -0.003 C 
ATOM     10  C   UNL     1     174.065 185.087 184.317  1.00  0.00     0.004 C 
ENDBRANCH   8   9
ENDBRANCH   7   8
ENDBRANCH   1   7
TORSDOF 6
ENDMDL
