MODEL 1
REMARK VINA RESULT:    -5.145      0.000      0.000
REMARK INTER + INTRA:          -8.927
REMARK INTER:                  -7.853
REMARK INTRA:                  -1.075
REMARK UNBOUND:                -1.075
REMARK SMILES OC[C@@H]1O[C@](CO)(O[C@H]2O[C@H](CO)[C@@H](O)[C@@H](O)[C@@H]2O)[C@@H](O)[C@@H]1O
REMARK SMILES IDX 8 1 9 2 11 3 14 4 10 5 16 6 18 7 12 8 13 9 15 11 17 13 19 15
REMARK SMILES IDX 5 17 20 18 4 19 22 20 3 21 6 22 7 23 21 25 23 27 2 29 1 30
REMARK H PARENT 13 10 15 12 17 14 19 16 7 24 21 26 23 28 1 31
REMARK Flexibility Score: inf
ROOT
ATOM      1  O   UNL     1      35.396  26.856  21.072  1.00  0.00    -0.313 OA
ENDROOT
BRANCH   1   2
ATOM      2  C   UNL     1      34.182  26.756  20.341  1.00  0.00     0.285 C 
ATOM      3  C   UNL     1      32.794  28.014  18.878  1.00  0.00     0.178 C 
ATOM      4  C   UNL     1      32.711  26.856  17.844  1.00  0.00     0.177 C 
ATOM      5  O   UNL     1      33.983  27.985  19.659  1.00  0.00    -0.341 OA
ATOM      6  C   UNL     1      33.050  25.498  18.487  1.00  0.00     0.179 C 
ATOM      7  C   UNL     1      34.329  25.602  19.336  1.00  0.00     0.202 C 
BRANCH   3   8
ATOM      8  C   UNL     1      31.518  28.231  19.721  1.00  0.00     0.191 C 
BRANCH   8   9
ATOM      9  O   UNL     1      31.130  29.575  19.763  1.00  0.00    -0.394 OA
ATOM     10  H   UNL     1      30.889  29.823  18.833  1.00  0.00     0.210 HD
ENDBRANCH   8   9
ENDBRANCH   3   8
BRANCH   4  11
ATOM     11  O   UNL     1      33.611  27.111  16.793  1.00  0.00    -0.387 OA
ATOM     12  H   UNL     1      33.971  28.025  16.935  1.00  0.00     0.211 HD
ENDBRANCH   4  11
BRANCH   6  13
ATOM     13  O   UNL     1      33.156  24.490  17.510  1.00  0.00    -0.387 OA
ATOM     14  H   UNL     1      33.053  23.611  17.960  1.00  0.00     0.211 HD
ENDBRANCH   6  13
BRANCH   7  15
ATOM     15  O   UNL     1      34.539  24.402  20.033  1.00  0.00    -0.385 OA
ATOM     16  H   UNL     1      33.789  23.797  19.796  1.00  0.00     0.211 HD
ENDBRANCH   7  15
ENDBRANCH   1   2
BRANCH   1  17
ATOM     17  C   UNL     1      35.253  26.968  22.491  1.00  0.00     0.224 C 
ATOM     18  C   UNL     1      34.382  28.181  22.906  1.00  0.00     0.208 C 
ATOM     19  O   UNL     1      36.552  27.213  22.994  1.00  0.00    -0.337 OA
ATOM     20  C   UNL     1      35.380  29.312  22.862  1.00  0.00     0.180 C 
ATOM     21  C   UNL     1      36.681  28.599  23.242  1.00  0.00     0.179 C 
BRANCH  17  22
ATOM     22  C   UNL     1      34.760  25.623  23.094  1.00  0.00     0.225 C 
BRANCH  22  23
ATOM     23  O   UNL     1      35.159  25.487  24.434  1.00  0.00    -0.391 OA
ATOM     24  H   UNL     1      34.335  25.348  24.969  1.00  0.00     0.210 HD
ENDBRANCH  22  23
ENDBRANCH  17  22
BRANCH  18  25
ATOM     25  O   UNL     1      33.904  28.028  24.221  1.00  0.00    -0.385 OA
ATOM     26  H   UNL     1      33.896  28.933  24.631  1.00  0.00     0.211 HD
ENDBRANCH  18  25
BRANCH  20  27
ATOM     27  O   UNL     1      35.440  29.852  21.565  1.00  0.00    -0.387 OA
ATOM     28  H   UNL     1      36.400  29.905  21.323  1.00  0.00     0.211 HD
ENDBRANCH  20  27
BRANCH  21  29
ATOM     29  C   UNL     1      37.940  29.154  22.554  1.00  0.00     0.191 C 
BRANCH  29  30
ATOM     30  O   UNL     1      38.853  29.661  23.492  1.00  0.00    -0.394 OA
ATOM     31  H   UNL     1      39.701  29.156  23.370  1.00  0.00     0.210 HD
ENDBRANCH  29  30
ENDBRANCH  21  29
ENDBRANCH   1  17
TORSDOF 13
ENDMDL
MODEL 2
REMARK VINA RESULT:    -3.759      1.565      2.892
REMARK INTER + INTRA:          -6.811
REMARK INTER:                  -5.574
REMARK INTRA:                  -1.237
REMARK UNBOUND:                -1.075
REMARK SMILES OC[C@@H]1O[C@](CO)(O[C@H]2O[C@H](CO)[C@@H](O)[C@@H](O)[C@@H]2O)[C@@H](O)[C@@H]1O
REMARK SMILES IDX 8 1 9 2 11 3 14 4 10 5 16 6 18 7 12 8 13 9 15 11 17 13 19 15
REMARK SMILES IDX 5 17 20 18 4 19 22 20 3 21 6 22 7 23 21 25 23 27 2 29 1 30
REMARK H PARENT 13 10 15 12 17 14 19 16 7 24 21 26 23 28 1 31
REMARK Flexibility Score: inf
ROOT
ATOM      1  O   UNL     1      34.964  26.748  20.556  1.00  0.00    -0.313 OA
ENDROOT
BRANCH   1   2
ATOM      2  C   UNL     1      34.009  26.287  19.611  1.00  0.00     0.285 C 
ATOM      3  C   UNL     1      33.138  26.801  17.459  1.00  0.00     0.178 C 
ATOM      4  C   UNL     1      33.322  25.341  16.957  1.00  0.00     0.177 C 
ATOM      5  O   UNL     1      34.050  27.158  18.491  1.00  0.00    -0.341 OA
ATOM      6  C   UNL     1      33.421  24.347  18.130  1.00  0.00     0.179 C 
ATOM      7  C   UNL     1      34.405  24.861  19.196  1.00  0.00     0.202 C 
BRANCH   3   8
ATOM      8  C   UNL     1      31.680  27.207  17.770  1.00  0.00     0.191 C 
BRANCH   8   9
ATOM      9  O   UNL     1      31.578  28.535  18.199  1.00  0.00    -0.394 OA
ATOM     10  H   UNL     1      32.475  28.938  18.066  1.00  0.00     0.210 HD
ENDBRANCH   8   9
ENDBRANCH   3   8
BRANCH   4  11
ATOM     11  O   UNL     1      34.493  25.265  16.182  1.00  0.00    -0.387 OA
ATOM     12  H   UNL     1      35.232  25.015  16.796  1.00  0.00     0.211 HD
ENDBRANCH   4  11
BRANCH   6  13
ATOM     13  O   UNL     1      33.774  23.063  17.674  1.00  0.00    -0.387 OA
ATOM     14  H   UNL     1      34.765  22.988  17.696  1.00  0.00     0.211 HD
ENDBRANCH   6  13
BRANCH   7  15
ATOM     15  O   UNL     1      34.370  24.023  20.321  1.00  0.00    -0.385 OA
ATOM     16  H   UNL     1      33.506  24.193  20.780  1.00  0.00     0.211 HD
ENDBRANCH   7  15
ENDBRANCH   1   2
BRANCH   1  17
ATOM     17  C   UNL     1      34.501  27.758  21.457  1.00  0.00     0.224 C 
ATOM     18  C   UNL     1      35.661  28.582  22.073  1.00  0.00     0.208 C 
ATOM     19  O   UNL     1      33.882  27.071  22.527  1.00  0.00    -0.337 OA
ATOM     20  C   UNL     1      36.106  27.694  23.209  1.00  0.00     0.180 C 
ATOM     21  C   UNL     1      34.794  27.009  23.605  1.00  0.00     0.179 C 
BRANCH  17  22
ATOM     22  C   UNL     1      33.419  28.640  20.774  1.00  0.00     0.225 C 
BRANCH  22  23
ATOM     23  O   UNL     1      34.001  29.661  20.005  1.00  0.00    -0.391 OA
ATOM     24  H   UNL     1      34.787  29.264  19.546  1.00  0.00     0.210 HD
ENDBRANCH  22  23
ENDBRANCH  17  22
BRANCH  18  25
ATOM     25  O   UNL     1      35.190  29.803  22.589  1.00  0.00    -0.385 OA
ATOM     26  H   UNL     1      35.104  29.686  23.571  1.00  0.00     0.211 HD
ENDBRANCH  18  25
BRANCH  20  27
ATOM     27  O   UNL     1      37.061  26.769  22.753  1.00  0.00    -0.387 OA
ATOM     28  H   UNL     1      37.056  26.014  23.397  1.00  0.00     0.211 HD
ENDBRANCH  20  27
BRANCH  21  29
ATOM     29  C   UNL     1      34.951  25.560  24.097  1.00  0.00     0.191 C 
BRANCH  29  30
ATOM     30  O   UNL     1      34.718  24.641  23.063  1.00  0.00    -0.394 OA
ATOM     31  H   UNL     1      33.991  25.019  22.501  1.00  0.00     0.210 HD
ENDBRANCH  29  30
ENDBRANCH  21  29
ENDBRANCH   1  17
TORSDOF 13
ENDMDL
MODEL 3
REMARK VINA RESULT:    -3.669      1.312      5.790
REMARK INTER + INTRA:          -6.675
REMARK INTER:                  -5.607
REMARK INTRA:                  -1.067
REMARK UNBOUND:                -1.075
REMARK SMILES OC[C@@H]1O[C@](CO)(O[C@H]2O[C@H](CO)[C@@H](O)[C@@H](O)[C@@H]2O)[C@@H](O)[C@@H]1O
REMARK SMILES IDX 8 1 9 2 11 3 14 4 10 5 16 6 18 7 12 8 13 9 15 11 17 13 19 15
REMARK SMILES IDX 5 17 20 18 4 19 22 20 3 21 6 22 7 23 21 25 23 27 2 29 1 30
REMARK H PARENT 13 10 15 12 17 14 19 16 7 24 21 26 23 28 1 31
REMARK Flexibility Score: inf
ROOT
ATOM      1  O   UNL     1      34.447  27.753  19.697  1.00  0.00    -0.313 OA
ENDROOT
BRANCH   1   2
ATOM      2  C   UNL     1      34.595  27.611  21.103  1.00  0.00     0.285 C 
ATOM      3  C   UNL     1      35.558  26.167  22.727  1.00  0.00     0.178 C 
ATOM      4  C   UNL     1      36.258  27.343  23.463  1.00  0.00     0.177 C 
ATOM      5  O   UNL     1      35.333  26.424  21.346  1.00  0.00    -0.341 OA
ATOM      6  C   UNL     1      35.590  28.692  23.139  1.00  0.00     0.179 C 
ATOM      7  C   UNL     1      35.363  28.837  21.623  1.00  0.00     0.202 C 
BRANCH   3   8
ATOM      8  C   UNL     1      34.320  25.589  23.447  1.00  0.00     0.191 C 
BRANCH   8   9
ATOM      9  O   UNL     1      34.013  26.288  24.620  1.00  0.00    -0.394 OA
ATOM     10  H   UNL     1      34.515  27.143  24.573  1.00  0.00     0.210 HD
ENDBRANCH   8   9
ENDBRANCH   3   8
BRANCH   4  11
ATOM     11  O   UNL     1      37.610  27.389  23.076  1.00  0.00    -0.387 OA
ATOM     12  H   UNL     1      37.777  26.591  22.510  1.00  0.00     0.211 HD
ENDBRANCH   4  11
BRANCH   6  13
ATOM     13  O   UNL     1      36.341  29.765  23.655  1.00  0.00    -0.387 OA
ATOM     14  H   UNL     1      35.746  30.558  23.719  1.00  0.00     0.211 HD
ENDBRANCH   6  13
BRANCH   7  15
ATOM     15  O   UNL     1      34.620  29.998  21.361  1.00  0.00    -0.385 OA
ATOM     16  H   UNL     1      33.798  29.712  20.884  1.00  0.00     0.211 HD
ENDBRANCH   7  15
ENDBRANCH   1   2
BRANCH   1  17
ATOM     17  C   UNL     1      33.445  26.927  19.097  1.00  0.00     0.224 C 
ATOM     18  C   UNL     1      33.341  27.137  17.565  1.00  0.00     0.208 C 
ATOM     19  O   UNL     1      32.212  27.351  19.646  1.00  0.00    -0.337 OA
ATOM     20  C   UNL     1      32.465  28.362  17.476  1.00  0.00     0.180 C 
ATOM     21  C   UNL     1      31.579  28.205  18.715  1.00  0.00     0.179 C 
BRANCH  17  22
ATOM     22  C   UNL     1      33.654  25.441  19.499  1.00  0.00     0.225 C 
BRANCH  22  23
ATOM     23  O   UNL     1      34.740  24.873  18.812  1.00  0.00    -0.391 OA
ATOM     24  H   UNL     1      35.331  25.621  18.537  1.00  0.00     0.210 HD
ENDBRANCH  22  23
ENDBRANCH  17  22
BRANCH  18  25
ATOM     25  O   UNL     1      32.692  26.050  16.952  1.00  0.00    -0.385 OA
ATOM     26  H   UNL     1      31.720  26.159  17.129  1.00  0.00     0.211 HD
ENDBRANCH  18  25
BRANCH  20  27
ATOM     27  O   UNL     1      33.252  29.525  17.540  1.00  0.00    -0.387 OA
ATOM     28  H   UNL     1      33.899  29.391  18.280  1.00  0.00     0.211 HD
ENDBRANCH  20  27
BRANCH  21  29
ATOM     29  C   UNL     1      31.176  29.530  19.387  1.00  0.00     0.191 C 
BRANCH  29  30
ATOM     30  O   UNL     1      32.267  30.125  20.038  1.00  0.00    -0.394 OA
ATOM     31  H   UNL     1      32.431  29.598  20.865  1.00  0.00     0.210 HD
ENDBRANCH  29  30
ENDBRANCH  21  29
ENDBRANCH   1  17
TORSDOF 13
ENDMDL
MODEL 4
REMARK VINA RESULT:    -3.116      1.616      3.900
REMARK INTER + INTRA:          -5.830
REMARK INTER:                  -4.709
REMARK INTRA:                  -1.121
REMARK UNBOUND:                -1.075
REMARK SMILES OC[C@@H]1O[C@](CO)(O[C@H]2O[C@H](CO)[C@@H](O)[C@@H](O)[C@@H]2O)[C@@H](O)[C@@H]1O
REMARK SMILES IDX 8 1 9 2 11 3 14 4 10 5 16 6 18 7 12 8 13 9 15 11 17 13 19 15
REMARK SMILES IDX 5 17 20 18 4 19 22 20 3 21 6 22 7 23 21 25 23 27 2 29 1 30
REMARK H PARENT 13 10 15 12 17 14 19 16 7 24 21 26 23 28 1 31
REMARK Flexibility Score: inf
ROOT
ATOM      1  O   UNL     1      34.015  28.118  21.853  1.00  0.00    -0.313 OA
ENDROOT
BRANCH   1   2
ATOM      2  C   UNL     1      33.963  27.793  20.471  1.00  0.00     0.285 C 
ATOM      3  C   UNL     1      33.068  26.170  18.983  1.00  0.00     0.178 C 
ATOM      4  C   UNL     1      32.464  27.254  18.048  1.00  0.00     0.177 C 
ATOM      5  O   UNL     1      33.203  26.603  20.332  1.00  0.00    -0.341 OA
ATOM      6  C   UNL     1      33.155  28.617  18.241  1.00  0.00     0.179 C 
ATOM      7  C   UNL     1      33.277  28.957  19.738  1.00  0.00     0.202 C 
BRANCH   3   8
ATOM      8  C   UNL     1      34.334  25.470  18.441  1.00  0.00     0.191 C 
BRANCH   8   9
ATOM      9  O   UNL     1      34.115  24.862  17.199  1.00  0.00    -0.394 OA
ATOM     10  H   UNL     1      33.770  25.574  16.599  1.00  0.00     0.210 HD
ENDBRANCH   8   9
ENDBRANCH   3   8
BRANCH   4  11
ATOM     11  O   UNL     1      31.090  27.386  18.322  1.00  0.00    -0.387 OA
ATOM     12  H   UNL     1      30.657  27.704  17.487  1.00  0.00     0.211 HD
ENDBRANCH   4  11
BRANCH   6  13
ATOM     13  O   UNL     1      32.480  29.630  17.533  1.00  0.00    -0.387 OA
ATOM     14  H   UNL     1      32.344  29.318  16.600  1.00  0.00     0.211 HD
ENDBRANCH   6  13
BRANCH   7  15
ATOM     15  O   UNL     1      34.040  30.124  19.901  1.00  0.00    -0.385 OA
ATOM     16  H   UNL     1      34.488  30.054  20.784  1.00  0.00     0.211 HD
ENDBRANCH   7  15
ENDBRANCH   1   2
BRANCH   1  17
ATOM     17  C   UNL     1      35.328  28.224  22.412  1.00  0.00     0.224 C 
ATOM     18  C   UNL     1      36.356  27.317  21.688  1.00  0.00     0.208 C 
ATOM     19  O   UNL     1      35.226  27.740  23.737  1.00  0.00    -0.337 OA
ATOM     20  C   UNL     1      36.120  25.984  22.354  1.00  0.00     0.180 C 
ATOM     21  C   UNL     1      35.694  26.407  23.763  1.00  0.00     0.179 C 
BRANCH  17  22
ATOM     22  C   UNL     1      35.768  29.712  22.485  1.00  0.00     0.225 C 
BRANCH  22  23
ATOM     23  O   UNL     1      36.441  30.104  21.316  1.00  0.00    -0.391 OA
ATOM     24  H   UNL     1      35.797  30.631  20.774  1.00  0.00     0.210 HD
ENDBRANCH  22  23
ENDBRANCH  17  22
BRANCH  18  25
ATOM     25  O   UNL     1      37.671  27.744  21.948  1.00  0.00    -0.385 OA
ATOM     26  H   UNL     1      37.655  28.738  21.951  1.00  0.00     0.211 HD
ENDBRANCH  18  25
BRANCH  20  27
ATOM     27  O   UNL     1      35.098  25.285  21.687  1.00  0.00    -0.387 OA
ATOM     28  H   UNL     1      34.896  25.796  20.861  1.00  0.00     0.211 HD
ENDBRANCH  20  27
BRANCH  21  29
ATOM     29  C   UNL     1      34.655  25.484  24.423  1.00  0.00     0.191 C 
BRANCH  29  30
ATOM     30  O   UNL     1      33.346  25.924  24.170  1.00  0.00    -0.394 OA
ATOM     31  H   UNL     1      33.310  26.184  23.212  1.00  0.00     0.210 HD
ENDBRANCH  29  30
ENDBRANCH  21  29
ENDBRANCH   1  17
TORSDOF 13
ENDMDL
MODEL 5
REMARK VINA RESULT:    -3.059      1.349      6.093
REMARK INTER + INTRA:          -5.743
REMARK INTER:                  -4.721
REMARK INTRA:                  -1.022
REMARK UNBOUND:                -1.075
REMARK SMILES OC[C@@H]1O[C@](CO)(O[C@H]2O[C@H](CO)[C@@H](O)[C@@H](O)[C@@H]2O)[C@@H](O)[C@@H]1O
REMARK SMILES IDX 8 1 9 2 11 3 14 4 10 5 16 6 18 7 12 8 13 9 15 11 17 13 19 15
REMARK SMILES IDX 5 17 20 18 4 19 22 20 3 21 6 22 7 23 21 25 23 27 2 29 1 30
REMARK H PARENT 13 10 15 12 17 14 19 16 7 24 21 26 23 28 1 31
REMARK Flexibility Score: inf
ROOT
ATOM      1  O   UNL     1      34.540  28.109  19.546  1.00  0.00    -0.313 OA
ENDROOT
BRANCH   1   2
ATOM      2  C   UNL     1      34.607  27.795  20.930  1.00  0.00     0.285 C 
ATOM      3  C   UNL     1      35.362  26.093  22.407  1.00  0.00     0.178 C 
ATOM      4  C   UNL     1      36.125  27.108  23.303  1.00  0.00     0.177 C 
ATOM      5  O   UNL     1      35.227  26.525  21.058  1.00  0.00    -0.341 OA
ATOM      6  C   UNL     1      35.592  28.541  23.115  1.00  0.00     0.179 C 
ATOM      7  C   UNL     1      35.452  28.878  21.620  1.00  0.00     0.202 C 
BRANCH   3   8
ATOM      8  C   UNL     1      34.045  25.553  23.007  1.00  0.00     0.191 C 
BRANCH   8   9
ATOM      9  O   UNL     1      33.822  26.019  24.308  1.00  0.00    -0.394 OA
ATOM     10  H   UNL     1      33.151  26.746  24.230  1.00  0.00     0.210 HD
ENDBRANCH   8   9
ENDBRANCH   3   8
BRANCH   4  11
ATOM     11  O   UNL     1      37.493  27.074  22.976  1.00  0.00    -0.387 OA
ATOM     12  H   UNL     1      37.709  26.137  22.731  1.00  0.00     0.211 HD
ENDBRANCH   4  11
BRANCH   6  13
ATOM     13  O   UNL     1      36.407  29.474  23.783  1.00  0.00    -0.387 OA
ATOM     14  H   UNL     1      36.253  29.379  24.759  1.00  0.00     0.211 HD
ENDBRANCH   6  13
BRANCH   7  15
ATOM     15  O   UNL     1      34.826  30.125  21.467  1.00  0.00    -0.385 OA
ATOM     16  H   UNL     1      34.508  30.174  20.529  1.00  0.00     0.211 HD
ENDBRANCH   7  15
ENDBRANCH   1   2
BRANCH   1  17
ATOM     17  C   UNL     1      33.223  28.286  19.017  1.00  0.00     0.224 C 
ATOM     18  C   UNL     1      32.222  27.231  19.553  1.00  0.00     0.208 C 
ATOM     19  O   UNL     1      33.330  28.068  17.624  1.00  0.00    -0.337 OA
ATOM     20  C   UNL     1      32.489  26.057  18.645  1.00  0.00     0.180 C 
ATOM     21  C   UNL     1      32.897  26.753  17.342  1.00  0.00     0.179 C 
BRANCH  17  22
ATOM     22  C   UNL     1      32.744  29.749  19.231  1.00  0.00     0.225 C 
BRANCH  22  23
ATOM     23  O   UNL     1      31.755  30.104  18.299  1.00  0.00    -0.391 OA
ATOM     24  H   UNL     1      32.021  30.980  17.914  1.00  0.00     0.210 HD
ENDBRANCH  22  23
ENDBRANCH  17  22
BRANCH  18  25
ATOM     25  O   UNL     1      30.895  27.666  19.380  1.00  0.00    -0.385 OA
ATOM     26  H   UNL     1      30.549  27.216  18.564  1.00  0.00     0.211 HD
ENDBRANCH  18  25
BRANCH  20  27
ATOM     27  O   UNL     1      33.531  25.270  19.165  1.00  0.00    -0.387 OA
ATOM     28  H   UNL     1      33.780  25.670  20.039  1.00  0.00     0.211 HD
ENDBRANCH  20  27
BRANCH  21  29
ATOM     29  C   UNL     1      33.956  26.001  16.519  1.00  0.00     0.191 C 
BRANCH  29  30
ATOM     30  O   UNL     1      33.739  24.615  16.550  1.00  0.00    -0.394 OA
ATOM     31  H   UNL     1      34.366  24.240  17.224  1.00  0.00     0.210 HD
ENDBRANCH  29  30
ENDBRANCH  21  29
ENDBRANCH   1  17
TORSDOF 13
ENDMDL
MODEL 6
REMARK VINA RESULT:    -2.568      1.335      2.828
REMARK INTER + INTRA:          -4.994
REMARK INTER:                  -4.646
REMARK INTRA:                  -0.348
REMARK UNBOUND:                -1.075
REMARK SMILES OC[C@@H]1O[C@](CO)(O[C@H]2O[C@H](CO)[C@@H](O)[C@@H](O)[C@@H]2O)[C@@H](O)[C@@H]1O
REMARK SMILES IDX 8 1 9 2 11 3 14 4 10 5 16 6 18 7 12 8 13 9 15 11 17 13 19 15
REMARK SMILES IDX 5 17 20 18 4 19 22 20 3 21 6 22 7 23 21 25 23 27 2 29 1 30
REMARK H PARENT 13 10 15 12 17 14 19 16 7 24 21 26 23 28 1 31
REMARK Flexibility Score: inf
ROOT
ATOM      1  O   UNL     1      35.297  28.494  20.847  1.00  0.00    -0.313 OA
ENDROOT
BRANCH   1   2
ATOM      2  C   UNL     1      33.995  28.294  20.313  1.00  0.00     0.285 C 
ATOM      3  C   UNL     1      32.428  29.296  18.834  1.00  0.00     0.178 C 
ATOM      4  C   UNL     1      32.204  27.969  18.056  1.00  0.00     0.177 C 
ATOM      5  O   UNL     1      33.710  29.379  19.445  1.00  0.00    -0.341 OA
ATOM      6  C   UNL     1      32.621  26.745  18.893  1.00  0.00     0.179 C 
ATOM      7  C   UNL     1      34.003  26.969  19.533  1.00  0.00     0.202 C 
BRANCH   3   8
ATOM      8  C   UNL     1      31.277  29.702  19.781  1.00  0.00     0.191 C 
BRANCH   8   9
ATOM      9  O   UNL     1      30.466  28.615  20.128  1.00  0.00    -0.394 OA
ATOM     10  H   UNL     1      31.069  27.935  20.526  1.00  0.00     0.210 HD
ENDBRANCH   8   9
ENDBRANCH   3   8
BRANCH   4  11
ATOM     11  O   UNL     1      32.956  27.999  16.868  1.00  0.00    -0.387 OA
ATOM     12  H   UNL     1      33.021  28.949  16.590  1.00  0.00     0.211 HD
ENDBRANCH   4  11
BRANCH   6  13
ATOM     13  O   UNL     1      32.593  25.571  18.118  1.00  0.00    -0.387 OA
ATOM     14  H   UNL     1      32.696  25.826  17.164  1.00  0.00     0.211 HD
ENDBRANCH   6  13
BRANCH   7  15
ATOM     15  O   UNL     1      34.300  25.914  20.410  1.00  0.00    -0.385 OA
ATOM     16  H   UNL     1      35.189  25.562  20.145  1.00  0.00     0.211 HD
ENDBRANCH   7  15
ENDBRANCH   1   2
BRANCH   1  17
ATOM     17  C   UNL     1      35.351  28.772  22.249  1.00  0.00     0.224 C 
ATOM     18  C   UNL     1      36.790  28.683  22.817  1.00  0.00     0.208 C 
ATOM     19  O   UNL     1      34.605  27.749  22.878  1.00  0.00    -0.337 OA
ATOM     20  C   UNL     1      36.944  27.200  23.049  1.00  0.00     0.180 C 
ATOM     21  C   UNL     1      35.507  26.784  23.383  1.00  0.00     0.179 C 
BRANCH  17  22
ATOM     22  C   UNL     1      34.652  30.125  22.561  1.00  0.00     0.225 C 
BRANCH  22  23
ATOM     23  O   UNL     1      34.066  30.115  23.838  1.00  0.00    -0.391 OA
ATOM     24  H   UNL     1      33.743  31.037  24.015  1.00  0.00     0.210 HD
ENDBRANCH  22  23
ENDBRANCH  17  22
BRANCH  18  25
ATOM     25  O   UNL     1      36.888  29.363  24.045  1.00  0.00    -0.385 OA
ATOM     26  H   UNL     1      37.576  28.889  24.582  1.00  0.00     0.211 HD
ENDBRANCH  18  25
BRANCH  20  27
ATOM     27  O   UNL     1      37.410  26.574  21.881  1.00  0.00    -0.387 OA
ATOM     28  H   UNL     1      36.631  26.115  21.472  1.00  0.00     0.211 HD
ENDBRANCH  20  27
BRANCH  21  29
ATOM     29  C   UNL     1      35.119  25.377  22.898  1.00  0.00     0.191 C 
BRANCH  29  30
ATOM     30  O   UNL     1      34.634  24.588  23.952  1.00  0.00    -0.394 OA
ATOM     31  H   UNL     1      34.234  23.776  23.543  1.00  0.00     0.210 HD
ENDBRANCH  29  30
ENDBRANCH  21  29
ENDBRANCH   1  17
TORSDOF 13
ENDMDL
MODEL 7
REMARK VINA RESULT:    -2.524      1.941      6.002
REMARK INTER + INTRA:          -4.927
REMARK INTER:                  -3.924
REMARK INTRA:                  -1.003
REMARK UNBOUND:                -1.075
REMARK SMILES OC[C@@H]1O[C@](CO)(O[C@H]2O[C@H](CO)[C@@H](O)[C@@H](O)[C@@H]2O)[C@@H](O)[C@@H]1O
REMARK SMILES IDX 8 1 9 2 11 3 14 4 10 5 16 6 18 7 12 8 13 9 15 11 17 13 19 15
REMARK SMILES IDX 5 17 20 18 4 19 22 20 3 21 6 22 7 23 21 25 23 27 2 29 1 30
REMARK H PARENT 13 10 15 12 17 14 19 16 7 24 21 26 23 28 1 31
REMARK Flexibility Score: inf
ROOT
ATOM      1  O   UNL     1      34.168  27.238  18.997  1.00  0.00    -0.313 OA
ENDROOT
BRANCH   1   2
ATOM      2  C   UNL     1      34.145  26.508  20.216  1.00  0.00     0.285 C 
ATOM      3  C   UNL     1      35.439  24.959  21.471  1.00  0.00     0.178 C 
ATOM      4  C   UNL     1      35.320  25.802  22.771  1.00  0.00     0.177 C 
ATOM      5  O   UNL     1      35.334  25.737  20.285  1.00  0.00    -0.341 OA
ATOM      6  C   UNL     1      34.120  26.766  22.713  1.00  0.00     0.179 C 
ATOM      7  C   UNL     1      34.093  27.520  21.372  1.00  0.00     0.202 C 
BRANCH   3   8
ATOM      8  C   UNL     1      34.569  23.682  21.438  1.00  0.00     0.191 C 
BRANCH   8   9
ATOM      9  O   UNL     1      35.046  22.737  20.523  1.00  0.00    -0.394 OA
ATOM     10  H   UNL     1      34.815  21.848  20.898  1.00  0.00     0.210 HD
ENDBRANCH   8   9
ENDBRANCH   3   8
BRANCH   4  11
ATOM     11  O   UNL     1      36.503  26.542  22.950  1.00  0.00    -0.387 OA
ATOM     12  H   UNL     1      36.425  27.356  22.387  1.00  0.00     0.211 HD
ENDBRANCH   4  11
BRANCH   6  13
ATOM     13  O   UNL     1      34.132  27.653  23.806  1.00  0.00    -0.387 OA
ATOM     14  H   UNL     1      34.155  27.115  24.641  1.00  0.00     0.211 HD
ENDBRANCH   6  13
BRANCH   7  15
ATOM     15  O   UNL     1      32.915  28.278  21.274  1.00  0.00    -0.385 OA
ATOM     16  H   UNL     1      33.167  29.150  20.872  1.00  0.00     0.211 HD
ENDBRANCH   7  15
ENDBRANCH   1   2
BRANCH   1  17
ATOM     17  C   UNL     1      33.160  26.882  18.047  1.00  0.00     0.224 C 
ATOM     18  C   UNL     1      33.244  27.724  16.748  1.00  0.00     0.208 C 
ATOM     19  O   UNL     1      31.923  27.202  18.655  1.00  0.00    -0.337 OA
ATOM     20  C   UNL     1      32.510  28.982  17.142  1.00  0.00     0.180 C 
ATOM     21  C   UNL     1      31.483  28.445  18.145  1.00  0.00     0.179 C 
BRANCH  17  22
ATOM     22  C   UNL     1      33.175  25.351  17.786  1.00  0.00     0.225 C 
BRANCH  22  23
ATOM     23  O   UNL     1      34.214  24.991  16.912  1.00  0.00    -0.391 OA
ATOM     24  H   UNL     1      34.871  25.735  16.923  1.00  0.00     0.210 HD
ENDBRANCH  22  23
ENDBRANCH  17  22
BRANCH  18  25
ATOM     25  O   UNL     1      32.560  27.091  15.695  1.00  0.00    -0.385 OA
ATOM     26  H   UNL     1      33.230  26.550  15.201  1.00  0.00     0.211 HD
ENDBRANCH  18  25
BRANCH  20  27
ATOM     27  O   UNL     1      33.397  29.893  17.741  1.00  0.00    -0.387 OA
ATOM     28  H   UNL     1      34.246  29.403  17.898  1.00  0.00     0.211 HD
ENDBRANCH  20  27
BRANCH  21  29
ATOM     29  C   UNL     1      31.145  29.410  19.294  1.00  0.00     0.191 C 
BRANCH  29  30
ATOM     30  O   UNL     1      30.425  28.763  20.310  1.00  0.00    -0.394 OA
ATOM     31  H   UNL     1      31.090  28.291  20.878  1.00  0.00     0.210 HD
ENDBRANCH  29  30
ENDBRANCH  21  29
ENDBRANCH   1  17
TORSDOF 13
ENDMDL
MODEL 8
REMARK VINA RESULT:    -2.293      1.871      3.390
REMARK INTER + INTRA:          -4.575
REMARK INTER:                  -3.856
REMARK INTRA:                  -0.718
REMARK UNBOUND:                -1.075
REMARK SMILES OC[C@@H]1O[C@](CO)(O[C@H]2O[C@H](CO)[C@@H](O)[C@@H](O)[C@@H]2O)[C@@H](O)[C@@H]1O
REMARK SMILES IDX 8 1 9 2 11 3 14 4 10 5 16 6 18 7 12 8 13 9 15 11 17 13 19 15
REMARK SMILES IDX 5 17 20 18 4 19 22 20 3 21 6 22 7 23 21 25 23 27 2 29 1 30
REMARK H PARENT 13 10 15 12 17 14 19 16 7 24 21 26 23 28 1 31
REMARK Flexibility Score: inf
ROOT
ATOM      1  O   UNL     1      34.239  28.181  19.455  1.00  0.00    -0.313 OA
ENDROOT
BRANCH   1   2
ATOM      2  C   UNL     1      33.261  28.044  18.435  1.00  0.00     0.285 C 
ATOM      3  C   UNL     1      32.552  29.051  16.402  1.00  0.00     0.178 C 
ATOM      4  C   UNL     1      32.535  27.690  15.650  1.00  0.00     0.177 C 
ATOM      5  O   UNL     1      33.471  29.080  17.488  1.00  0.00    -0.341 OA
ATOM      6  C   UNL     1      32.443  26.504  16.628  1.00  0.00     0.179 C 
ATOM      7  C   UNL     1      33.454  26.668  17.777  1.00  0.00     0.202 C 
BRANCH   3   8
ATOM      8  C   UNL     1      31.161  29.615  16.767  1.00  0.00     0.191 C 
BRANCH   8   9
ATOM      9  O   UNL     1      30.450  30.045  15.641  1.00  0.00    -0.394 OA
ATOM     10  H   UNL     1      30.925  30.848  15.304  1.00  0.00     0.210 HD
ENDBRANCH   8   9
ENDBRANCH   3   8
BRANCH   4  11
ATOM     11  O   UNL     1      33.708  27.572  14.883  1.00  0.00    -0.387 OA
ATOM     12  H   UNL     1      33.620  28.199  14.119  1.00  0.00     0.211 HD
ENDBRANCH   4  11
BRANCH   6  13
ATOM     13  O   UNL     1      32.617  25.280  15.955  1.00  0.00    -0.387 OA
ATOM     14  H   UNL     1      32.933  25.476  15.034  1.00  0.00     0.211 HD
ENDBRANCH   6  13
BRANCH   7  15
ATOM     15  O   UNL     1      33.254  25.662  18.736  1.00  0.00    -0.385 OA
ATOM     16  H   UNL     1      33.990  25.743  19.396  1.00  0.00     0.211 HD
ENDBRANCH   7  15
ENDBRANCH   1   2
BRANCH   1  17
ATOM     17  C   UNL     1      33.753  28.651  20.716  1.00  0.00     0.224 C 
ATOM     18  C   UNL     1      34.865  29.307  21.574  1.00  0.00     0.208 C 
ATOM     19  O   UNL     1      33.326  27.502  21.421  1.00  0.00    -0.337 OA
ATOM     20  C   UNL     1      35.518  28.106  22.211  1.00  0.00     0.180 C 
ATOM     21  C   UNL     1      34.339  27.135  22.335  1.00  0.00     0.179 C 
BRANCH  17  22
ATOM     22  C   UNL     1      32.515  29.568  20.513  1.00  0.00     0.225 C 
BRANCH  22  23
ATOM     23  O   UNL     1      31.391  28.828  20.109  1.00  0.00    -0.391 OA
ATOM     24  H   UNL     1      30.621  29.160  20.640  1.00  0.00     0.210 HD
ENDBRANCH  22  23
ENDBRANCH  17  22
BRANCH  18  25
ATOM     25  O   UNL     1      34.309  30.125  22.575  1.00  0.00    -0.385 OA
ATOM     26  H   UNL     1      34.668  31.040  22.431  1.00  0.00     0.211 HD
ENDBRANCH  18  25
BRANCH  20  27
ATOM     27  O   UNL     1      36.524  27.600  21.369  1.00  0.00    -0.387 OA
ATOM     28  H   UNL     1      37.332  28.155  21.526  1.00  0.00     0.211 HD
ENDBRANCH  20  27
BRANCH  21  29
ATOM     29  C   UNL     1      34.710  25.652  22.163  1.00  0.00     0.191 C 
BRANCH  29  30
ATOM     30  O   UNL     1      34.938  25.335  20.816  1.00  0.00    -0.394 OA
ATOM     31  H   UNL     1      35.337  26.141  20.394  1.00  0.00     0.210 HD
ENDBRANCH  29  30
ENDBRANCH  21  29
ENDBRANCH   1  17
TORSDOF 13
ENDMDL
