MODEL 1
REMARK VINA RESULT:     0.281      0.000      0.000
REMARK INTER + INTRA:           0.684
REMARK INTER:                   0.510
REMARK INTRA:                   0.174
REMARK UNBOUND:                 0.174
REMARK SMILES CCCCCCCCCCCCCC[C@H](C)C(=O)[O-]
REMARK SMILES IDX 9 1 10 2 11 3 12 4 13 5 14 6 15 7 16 8 17 9 18 10 19 11 8 12
REMARK SMILES IDX 7 13 6 14 5 15 4 16 3 17 2 18 1 19
REMARK H PARENT
REMARK Flexibility Score: inf
ROOT
ATOM      1  C   UNL     1      -4.684  34.998  21.186  1.00  0.00     0.000 C 
ENDROOT
BRANCH   1   2
ATOM      2  C   UNL     1      -6.075  34.987  21.843  1.00  0.00     0.000 C 
BRANCH   2   3
ATOM      3  C   UNL     1      -6.060  34.354  23.244  1.00  0.00     0.000 C 
BRANCH   3   4
ATOM      4  C   UNL     1      -5.789  35.382  24.358  1.00  0.00     0.000 C 
BRANCH   4   5
ATOM      5  C   UNL     1      -5.964  36.832  23.879  1.00  0.00     0.001 C 
BRANCH   5   6
ATOM      6  C   UNL     1      -4.736  37.356  23.113  1.00  0.00     0.009 C 
BRANCH   6   7
ATOM      7  C   UNL     1      -4.735  38.894  22.998  1.00  0.00     0.032 C 
ATOM      8  C   UNL     1      -5.277  39.533  24.281  1.00  0.00     0.014 C 
BRANCH   7   9
ATOM      9  C   UNL     1      -5.542  39.359  21.815  1.00  0.00     0.044 C 
ATOM     10  O   UNL     1      -5.988  40.536  21.766  1.00  0.00    -0.550 OA
ATOM     11  O   UNL     1      -5.799  38.486  20.766  1.00  0.00    -0.550 OA
ENDBRANCH   7   9
ENDBRANCH   6   7
ENDBRANCH   5   6
ENDBRANCH   4   5
ENDBRANCH   3   4
ENDBRANCH   2   3
ENDBRANCH   1   2
BRANCH   1  12
ATOM     12  C   UNL     1      -4.676  35.706  19.819  1.00  0.00     0.000 C 
BRANCH  12  13
ATOM     13  C   UNL     1      -5.394  34.949  18.685  1.00  0.00    -0.000 C 
BRANCH  13  14
ATOM     14  C   UNL     1      -4.507  34.575  17.481  1.00  0.00    -0.000 C 
BRANCH  14  15
ATOM     15  C   UNL     1      -4.218  35.733  16.508  1.00  0.00    -0.000 C 
BRANCH  15  16
ATOM     16  C   UNL     1      -3.369  35.296  15.301  1.00  0.00    -0.000 C 
BRANCH  16  17
ATOM     17  C   UNL     1      -3.160  36.431  14.286  1.00  0.00    -0.000 C 
BRANCH  17  18
ATOM     18  C   UNL     1      -4.478  37.104  13.875  1.00  0.00    -0.003 C 
ATOM     19  C   UNL     1      -4.432  38.608  14.135  1.00  0.00     0.004 C 
ENDBRANCH  17  18
ENDBRANCH  16  17
ENDBRANCH  15  16
ENDBRANCH  14  15
ENDBRANCH  13  14
ENDBRANCH  12  13
ENDBRANCH   1  12
TORSDOF 14
ENDMDL
MODEL 2
REMARK VINA RESULT:     1.046      1.069      1.677
REMARK INTER + INTRA:           2.075
REMARK INTER:                   2.253
REMARK INTRA:                  -0.178
REMARK UNBOUND:                 0.174
REMARK SMILES CCCCCCCCCCCCCC[C@H](C)C(=O)[O-]
REMARK SMILES IDX 9 1 10 2 11 3 12 4 13 5 14 6 15 7 16 8 17 9 18 10 19 11 8 12
REMARK SMILES IDX 7 13 6 14 5 15 4 16 3 17 2 18 1 19
REMARK H PARENT
REMARK Flexibility Score: inf
ROOT
ATOM      1  C   UNL     1      -4.786  34.876  22.420  1.00  0.00     0.000 C 
ENDROOT
BRANCH   1   2
ATOM      2  C   UNL     1      -6.125  34.641  23.140  1.00  0.00     0.000 C 
BRANCH   2   3
ATOM      3  C   UNL     1      -6.090  35.089  24.610  1.00  0.00     0.000 C 
BRANCH   3   4
ATOM      4  C   UNL     1      -5.659  36.557  24.774  1.00  0.00     0.000 C 
BRANCH   4   5
ATOM      5  C   UNL     1      -5.800  37.364  23.474  1.00  0.00     0.001 C 
BRANCH   5   6
ATOM      6  C   UNL     1      -5.084  38.725  23.540  1.00  0.00     0.009 C 
BRANCH   6   7
ATOM      7  C   UNL     1      -4.910  39.358  22.144  1.00  0.00     0.032 C 
ATOM      8  C   UNL     1      -6.108  40.253  21.803  1.00  0.00     0.014 C 
BRANCH   7   9
ATOM      9  C   UNL     1      -4.737  38.309  21.079  1.00  0.00     0.044 C 
ATOM     10  O   UNL     1      -3.681  37.624  21.018  1.00  0.00    -0.550 OA
ATOM     11  O   UNL     1      -5.748  38.090  20.152  1.00  0.00    -0.550 OA
ENDBRANCH   7   9
ENDBRANCH   6   7
ENDBRANCH   5   6
ENDBRANCH   4   5
ENDBRANCH   3   4
ENDBRANCH   2   3
ENDBRANCH   1   2
BRANCH   1  12
ATOM     12  C   UNL     1      -4.785  34.346  20.975  1.00  0.00     0.000 C 
BRANCH  12  13
ATOM     13  C   UNL     1      -5.893  34.915  20.067  1.00  0.00    -0.000 C 
BRANCH  13  14
ATOM     14  C   UNL     1      -5.732  34.610  18.564  1.00  0.00    -0.000 C 
BRANCH  14  15
ATOM     15  C   UNL     1      -4.643  35.433  17.851  1.00  0.00    -0.000 C 
BRANCH  15  16
ATOM     16  C   UNL     1      -4.566  35.135  16.344  1.00  0.00    -0.000 C 
BRANCH  16  17
ATOM     17  C   UNL     1      -3.299  35.713  15.693  1.00  0.00    -0.000 C 
BRANCH  17  18
ATOM     18  C   UNL     1      -3.553  36.237  14.272  1.00  0.00    -0.003 C 
ATOM     19  C   UNL     1      -4.124  37.653  14.303  1.00  0.00     0.004 C 
ENDBRANCH  17  18
ENDBRANCH  16  17
ENDBRANCH  15  16
ENDBRANCH  14  15
ENDBRANCH  13  14
ENDBRANCH  12  13
ENDBRANCH   1  12
TORSDOF 14
ENDMDL
MODEL 3
REMARK VINA RESULT:     1.087      2.432      7.546
REMARK INTER + INTRA:           2.150
REMARK INTER:                   2.466
REMARK INTRA:                  -0.316
REMARK UNBOUND:                 0.174
REMARK SMILES CCCCCCCCCCCCCC[C@H](C)C(=O)[O-]
REMARK SMILES IDX 9 1 10 2 11 3 12 4 13 5 14 6 15 7 16 8 17 9 18 10 19 11 8 12
REMARK SMILES IDX 7 13 6 14 5 15 4 16 3 17 2 18 1 19
REMARK H PARENT
REMARK Flexibility Score: inf
ROOT
ATOM      1  C   UNL     1      -4.361  36.117  21.066  1.00  0.00     0.000 C 
ENDROOT
BRANCH   1   2
ATOM      2  C   UNL     1      -4.401  36.328  19.543  1.00  0.00     0.000 C 
BRANCH   2   3
ATOM      3  C   UNL     1      -5.398  35.390  18.844  1.00  0.00     0.000 C 
BRANCH   3   4
ATOM      4  C   UNL     1      -4.783  34.665  17.633  1.00  0.00     0.000 C 
BRANCH   4   5
ATOM      5  C   UNL     1      -4.496  35.613  16.458  1.00  0.00     0.001 C 
BRANCH   5   6
ATOM      6  C   UNL     1      -3.303  35.151  15.601  1.00  0.00     0.009 C 
BRANCH   6   7
ATOM      7  C   UNL     1      -3.221  35.913  14.263  1.00  0.00     0.032 C 
ATOM      8  C   UNL     1      -1.770  36.293  13.945  1.00  0.00     0.014 C 
BRANCH   7   9
ATOM      9  C   UNL     1      -4.082  37.148  14.276  1.00  0.00     0.044 C 
ATOM     10  O   UNL     1      -3.609  38.256  14.646  1.00  0.00    -0.550 OA
ATOM     11  O   UNL     1      -5.410  37.071  13.876  1.00  0.00    -0.550 OA
ENDBRANCH   7   9
ENDBRANCH   6   7
ENDBRANCH   5   6
ENDBRANCH   4   5
ENDBRANCH   3   4
ENDBRANCH   2   3
ENDBRANCH   1   2
BRANCH   1  12
ATOM     12  C   UNL     1      -4.866  34.726  21.489  1.00  0.00     0.000 C 
BRANCH  12  13
ATOM     13  C   UNL     1      -6.111  34.730  22.398  1.00  0.00    -0.000 C 
BRANCH  13  14
ATOM     14  C   UNL     1      -5.824  34.560  23.904  1.00  0.00    -0.000 C 
BRANCH  14  15
ATOM     15  C   UNL     1      -5.675  35.877  24.687  1.00  0.00    -0.000 C 
BRANCH  15  16
ATOM     16  C   UNL     1      -5.617  37.110  23.768  1.00  0.00    -0.000 C 
BRANCH  16  17
ATOM     17  C   UNL     1      -5.195  38.384  24.518  1.00  0.00    -0.000 C 
BRANCH  17  18
ATOM     18  C   UNL     1      -4.826  39.532  23.567  1.00  0.00    -0.003 C 
ATOM     19  C   UNL     1      -5.411  39.302  22.175  1.00  0.00     0.004 C 
ENDBRANCH  17  18
ENDBRANCH  16  17
ENDBRANCH  15  16
ENDBRANCH  14  15
ENDBRANCH  13  14
ENDBRANCH  12  13
ENDBRANCH   1  12
TORSDOF 14
ENDMDL
MODEL 4
REMARK VINA RESULT:     1.133      1.932      3.185
REMARK INTER + INTRA:           2.233
REMARK INTER:                   2.876
REMARK INTRA:                  -0.643
REMARK UNBOUND:                 0.174
REMARK SMILES CCCCCCCCCCCCCC[C@H](C)C(=O)[O-]
REMARK SMILES IDX 9 1 10 2 11 3 12 4 13 5 14 6 15 7 16 8 17 9 18 10 19 11 8 12
REMARK SMILES IDX 7 13 6 14 5 15 4 16 3 17 2 18 1 19
REMARK H PARENT
REMARK Flexibility Score: inf
ROOT
ATOM      1  C   UNL     1      -4.385  37.264  20.626  1.00  0.00     0.000 C 
ENDROOT
BRANCH   1   2
ATOM      2  C   UNL     1      -5.794  37.876  20.711  1.00  0.00     0.000 C 
BRANCH   2   3
ATOM      3  C   UNL     1      -5.765  39.411  20.796  1.00  0.00     0.000 C 
BRANCH   3   4
ATOM      4  C   UNL     1      -5.141  39.922  22.107  1.00  0.00     0.000 C 
BRANCH   4   5
ATOM      5  C   UNL     1      -5.729  39.234  23.349  1.00  0.00     0.001 C 
BRANCH   5   6
ATOM      6  C   UNL     1      -4.769  38.199  23.962  1.00  0.00     0.009 C 
BRANCH   6   7
ATOM      7  C   UNL     1      -5.482  37.267  24.964  1.00  0.00     0.032 C 
ATOM      8  C   UNL     1      -4.732  37.234  26.301  1.00  0.00     0.014 C 
BRANCH   7   9
ATOM      9  C   UNL     1      -5.617  35.870  24.420  1.00  0.00     0.044 C 
ATOM     10  O   UNL     1      -5.275  35.606  23.237  1.00  0.00    -0.550 OA
ATOM     11  O   UNL     1      -6.124  34.859  25.227  1.00  0.00    -0.550 OA
ENDBRANCH   7   9
ENDBRANCH   6   7
ENDBRANCH   5   6
ENDBRANCH   4   5
ENDBRANCH   3   4
ENDBRANCH   2   3
ENDBRANCH   1   2
BRANCH   1  12
ATOM     12  C   UNL     1      -4.336  36.001  19.746  1.00  0.00     0.000 C 
BRANCH  12  13
ATOM     13  C   UNL     1      -5.698  35.327  19.492  1.00  0.00    -0.000 C 
BRANCH  13  14
ATOM     14  C   UNL     1      -5.702  34.252  18.386  1.00  0.00    -0.000 C 
BRANCH  14  15
ATOM     15  C   UNL     1      -4.441  34.229  17.503  1.00  0.00    -0.000 C 
BRANCH  15  16
ATOM     16  C   UNL     1      -4.451  35.327  16.425  1.00  0.00    -0.000 C 
BRANCH  16  17
ATOM     17  C   UNL     1      -3.162  35.343  15.588  1.00  0.00    -0.000 C 
BRANCH  17  18
ATOM     18  C   UNL     1      -3.318  36.136  14.281  1.00  0.00    -0.003 C 
ATOM     19  C   UNL     1      -4.275  37.311  14.464  1.00  0.00     0.004 C 
ENDBRANCH  17  18
ENDBRANCH  16  17
ENDBRANCH  15  16
ENDBRANCH  14  15
ENDBRANCH  13  14
ENDBRANCH  12  13
ENDBRANCH   1  12
TORSDOF 14
ENDMDL
MODEL 5
REMARK VINA RESULT:     1.433      2.585      7.797
REMARK INTER + INTRA:           2.779
REMARK INTER:                   3.765
REMARK INTRA:                  -0.986
REMARK UNBOUND:                 0.174
REMARK SMILES CCCCCCCCCCCCCC[C@H](C)C(=O)[O-]
REMARK SMILES IDX 9 1 10 2 11 3 12 4 13 5 14 6 15 7 16 8 17 9 18 10 19 11 8 12
REMARK SMILES IDX 7 13 6 14 5 15 4 16 3 17 2 18 1 19
REMARK H PARENT
REMARK Flexibility Score: inf
ROOT
ATOM      1  C   UNL     1      -4.558  37.415  20.835  1.00  0.00     0.000 C 
ENDROOT
BRANCH   1   2
ATOM      2  C   UNL     1      -4.691  36.796  19.433  1.00  0.00     0.000 C 
BRANCH   2   3
ATOM      3  C   UNL     1      -5.323  35.395  19.466  1.00  0.00     0.000 C 
BRANCH   3   4
ATOM      4  C   UNL     1      -4.840  34.498  18.312  1.00  0.00     0.000 C 
BRANCH   4   5
ATOM      5  C   UNL     1      -4.968  35.179  16.940  1.00  0.00     0.001 C 
BRANCH   5   6
ATOM      6  C   UNL     1      -3.635  35.766  16.443  1.00  0.00     0.009 C 
BRANCH   6   7
ATOM      7  C   UNL     1      -3.576  35.853  14.904  1.00  0.00     0.032 C 
ATOM      8  C   UNL     1      -2.123  35.937  14.422  1.00  0.00     0.014 C 
BRANCH   7   9
ATOM      9  C   UNL     1      -4.355  37.033  14.386  1.00  0.00     0.044 C 
ATOM     10  O   UNL     1      -5.496  36.875  13.878  1.00  0.00    -0.550 OA
ATOM     11  O   UNL     1      -3.813  38.309  14.469  1.00  0.00    -0.550 OA
ENDBRANCH   7   9
ENDBRANCH   6   7
ENDBRANCH   5   6
ENDBRANCH   4   5
ENDBRANCH   3   4
ENDBRANCH   2   3
ENDBRANCH   1   2
BRANCH   1  12
ATOM     12  C   UNL     1      -5.804  38.215  21.254  1.00  0.00     0.000 C 
BRANCH  12  13
ATOM     13  C   UNL     1      -5.519  39.497  22.061  1.00  0.00    -0.000 C 
BRANCH  13  14
ATOM     14  C   UNL     1      -4.704  39.291  23.354  1.00  0.00    -0.000 C 
BRANCH  14  15
ATOM     15  C   UNL     1      -5.476  38.618  24.504  1.00  0.00    -0.000 C 
BRANCH  15  16
ATOM     16  C   UNL     1      -4.902  37.241  24.879  1.00  0.00    -0.000 C 
BRANCH  16  17
ATOM     17  C   UNL     1      -5.974  36.139  24.891  1.00  0.00    -0.000 C 
BRANCH  17  18
ATOM     18  C   UNL     1      -6.101  35.428  23.535  1.00  0.00    -0.003 C 
ATOM     19  C   UNL     1      -6.125  33.911  23.711  1.00  0.00     0.004 C 
ENDBRANCH  17  18
ENDBRANCH  16  17
ENDBRANCH  15  16
ENDBRANCH  14  15
ENDBRANCH  13  14
ENDBRANCH  12  13
ENDBRANCH   1  12
TORSDOF 14
ENDMDL
MODEL 6
REMARK VINA RESULT:     1.697      2.536      7.505
REMARK INTER + INTRA:           3.259
REMARK INTER:                   4.024
REMARK INTRA:                  -0.765
REMARK UNBOUND:                 0.174
REMARK SMILES CCCCCCCCCCCCCC[C@H](C)C(=O)[O-]
REMARK SMILES IDX 9 1 10 2 11 3 12 4 13 5 14 6 15 7 16 8 17 9 18 10 19 11 8 12
REMARK SMILES IDX 7 13 6 14 5 15 4 16 3 17 2 18 1 19
REMARK H PARENT
REMARK Flexibility Score: inf
ROOT
ATOM      1  C   UNL     1      -5.090  35.046  21.582  1.00  0.00     0.000 C 
ENDROOT
BRANCH   1   2
ATOM      2  C   UNL     1      -5.707  35.188  20.180  1.00  0.00     0.000 C 
BRANCH   2   3
ATOM      3  C   UNL     1      -4.728  35.801  19.165  1.00  0.00     0.000 C 
BRANCH   3   4
ATOM      4  C   UNL     1      -4.713  35.047  17.823  1.00  0.00     0.000 C 
BRANCH   4   5
ATOM      5  C   UNL     1      -4.260  35.932  16.651  1.00  0.00     0.001 C 
BRANCH   5   6
ATOM      6  C   UNL     1      -3.535  35.135  15.552  1.00  0.00     0.009 C 
BRANCH   6   7
ATOM      7  C   UNL     1      -3.297  35.980  14.284  1.00  0.00     0.032 C 
ATOM      8  C   UNL     1      -1.867  36.532  14.261  1.00  0.00     0.014 C 
BRANCH   7   9
ATOM      9  C   UNL     1      -4.283  37.114  14.181  1.00  0.00     0.044 C 
ATOM     10  O   UNL     1      -5.488  36.892  13.889  1.00  0.00    -0.550 OA
ATOM     11  O   UNL     1      -3.864  38.418  14.411  1.00  0.00    -0.550 OA
ENDBRANCH   7   9
ENDBRANCH   6   7
ENDBRANCH   5   6
ENDBRANCH   4   5
ENDBRANCH   3   4
ENDBRANCH   2   3
ENDBRANCH   1   2
BRANCH   1  12
ATOM     12  C   UNL     1      -5.837  34.028  22.462  1.00  0.00     0.000 C 
BRANCH  12  13
ATOM     13  C   UNL     1      -6.125  34.494  23.902  1.00  0.00    -0.000 C 
BRANCH  13  14
ATOM     14  C   UNL     1      -5.071  35.442  24.508  1.00  0.00    -0.000 C 
BRANCH  14  15
ATOM     15  C   UNL     1      -5.648  36.677  25.223  1.00  0.00    -0.000 C 
BRANCH  15  16
ATOM     16  C   UNL     1      -5.052  37.997  24.702  1.00  0.00    -0.000 C 
BRANCH  16  17
ATOM     17  C   UNL     1      -5.716  38.469  23.398  1.00  0.00    -0.000 C 
BRANCH  17  18
ATOM     18  C   UNL     1      -4.760  39.281  22.511  1.00  0.00    -0.003 C 
ATOM     19  C   UNL     1      -4.370  38.495  21.262  1.00  0.00     0.004 C 
ENDBRANCH  17  18
ENDBRANCH  16  17
ENDBRANCH  15  16
ENDBRANCH  14  15
ENDBRANCH  13  14
ENDBRANCH  12  13
ENDBRANCH   1  12
TORSDOF 14
ENDMDL
MODEL 7
REMARK VINA RESULT:     2.432      2.600      4.556
REMARK INTER + INTRA:           4.596
REMARK INTER:                   1.507
REMARK INTRA:                   3.089
REMARK UNBOUND:                 0.174
REMARK SMILES CCCCCCCCCCCCCC[C@H](C)C(=O)[O-]
REMARK SMILES IDX 9 1 10 2 11 3 12 4 13 5 14 6 15 7 16 8 17 9 18 10 19 11 8 12
REMARK SMILES IDX 7 13 6 14 5 15 4 16 3 17 2 18 1 19
REMARK H PARENT
REMARK Flexibility Score: inf
ROOT
ATOM      1  C   UNL     1      -5.407  35.898  24.615  1.00  0.00     0.000 C 
ENDROOT
BRANCH   1   2
ATOM      2  C   UNL     1      -5.878  37.198  25.289  1.00  0.00     0.000 C 
BRANCH   2   3
ATOM      3  C   UNL     1      -4.764  38.255  25.373  1.00  0.00     0.000 C 
BRANCH   3   4
ATOM      4  C   UNL     1      -4.435  38.881  24.006  1.00  0.00     0.000 C 
BRANCH   4   5
ATOM      5  C   UNL     1      -5.488  39.908  23.558  1.00  0.00     0.001 C 
BRANCH   5   6
ATOM      6  C   UNL     1      -5.589  40.022  22.026  1.00  0.00     0.009 C 
BRANCH   6   7
ATOM      7  C   UNL     1      -5.251  38.692  21.321  1.00  0.00     0.032 C 
ATOM      8  C   UNL     1      -3.822  38.248  21.657  1.00  0.00     0.014 C 
BRANCH   7   9
ATOM      9  C   UNL     1      -5.414  38.800  19.828  1.00  0.00     0.044 C 
ATOM     10  O   UNL     1      -6.106  39.723  19.324  1.00  0.00    -0.550 OA
ATOM     11  O   UNL     1      -4.797  37.875  18.996  1.00  0.00    -0.550 OA
ENDBRANCH   7   9
ENDBRANCH   6   7
ENDBRANCH   5   6
ENDBRANCH   4   5
ENDBRANCH   3   4
ENDBRANCH   2   3
ENDBRANCH   1   2
BRANCH   1  12
ATOM     12  C   UNL     1      -6.065  34.643  25.216  1.00  0.00     0.000 C 
BRANCH  12  13
ATOM     13  C   UNL     1      -6.124  33.421  24.278  1.00  0.00    -0.000 C 
BRANCH  13  14
ATOM     14  C   UNL     1      -6.094  33.749  22.771  1.00  0.00    -0.000 C 
BRANCH  14  15
ATOM     15  C   UNL     1      -5.358  35.052  22.408  1.00  0.00    -0.000 C 
BRANCH  15  16
ATOM     16  C   UNL     1      -4.154  34.815  21.480  1.00  0.00    -0.000 C 
BRANCH  16  17
ATOM     17  C   UNL     1      -4.311  35.516  20.121  1.00  0.00    -0.000 C 
BRANCH  17  18
ATOM     18  C   UNL     1      -5.690  35.273  19.489  1.00  0.00    -0.003 C 
ATOM     19  C   UNL     1      -5.571  34.446  18.211  1.00  0.00     0.004 C 
ENDBRANCH  17  18
ENDBRANCH  16  17
ENDBRANCH  15  16
ENDBRANCH  14  15
ENDBRANCH  13  14
ENDBRANCH  12  13
ENDBRANCH   1  12
TORSDOF 14
ENDMDL
MODEL 8
REMARK VINA RESULT:     2.457      2.571      7.755
REMARK INTER + INTRA:           4.642
REMARK INTER:                   5.417
REMARK INTRA:                  -0.775
REMARK UNBOUND:                 0.174
REMARK SMILES CCCCCCCCCCCCCC[C@H](C)C(=O)[O-]
REMARK SMILES IDX 9 1 10 2 11 3 12 4 13 5 14 6 15 7 16 8 17 9 18 10 19 11 8 12
REMARK SMILES IDX 7 13 6 14 5 15 4 16 3 17 2 18 1 19
REMARK H PARENT
REMARK Flexibility Score: inf
ROOT
ATOM      1  C   UNL     1      -4.837  34.936  20.510  1.00  0.00     0.000 C 
ENDROOT
BRANCH   1   2
ATOM      2  C   UNL     1      -5.871  34.679  19.401  1.00  0.00     0.000 C 
BRANCH   2   3
ATOM      3  C   UNL     1      -5.218  34.305  18.061  1.00  0.00     0.000 C 
BRANCH   3   4
ATOM      4  C   UNL     1      -4.584  35.515  17.351  1.00  0.00     0.000 C 
BRANCH   4   5
ATOM      5  C   UNL     1      -3.581  35.103  16.262  1.00  0.00     0.001 C 
BRANCH   5   6
ATOM      6  C   UNL     1      -4.175  35.191  14.845  1.00  0.00     0.009 C 
BRANCH   6   7
ATOM      7  C   UNL     1      -3.508  36.298  14.003  1.00  0.00     0.032 C 
ATOM      8  C   UNL     1      -2.024  36.433  14.365  1.00  0.00     0.014 C 
BRANCH   7   9
ATOM      9  C   UNL     1      -4.200  37.623  14.183  1.00  0.00     0.044 C 
ATOM     10  O   UNL     1      -5.414  37.760  13.875  1.00  0.00    -0.550 OA
ATOM     11  O   UNL     1      -3.497  38.707  14.693  1.00  0.00    -0.550 OA
ENDBRANCH   7   9
ENDBRANCH   6   7
ENDBRANCH   5   6
ENDBRANCH   4   5
ENDBRANCH   3   4
ENDBRANCH   2   3
ENDBRANCH   1   2
BRANCH   1  12
ATOM     12  C   UNL     1      -4.442  36.419  20.627  1.00  0.00     0.000 C 
BRANCH  12  13
ATOM     13  C   UNL     1      -5.580  37.422  20.352  1.00  0.00    -0.000 C 
BRANCH  13  14
ATOM     14  C   UNL     1      -5.423  38.796  21.036  1.00  0.00    -0.000 C 
BRANCH  14  15
ATOM     15  C   UNL     1      -4.560  38.788  22.311  1.00  0.00    -0.000 C 
BRANCH  15  16
ATOM     16  C   UNL     1      -5.357  38.388  23.565  1.00  0.00    -0.000 C 
BRANCH  16  17
ATOM     17  C   UNL     1      -5.444  36.865  23.747  1.00  0.00    -0.000 C 
BRANCH  17  18
ATOM     18  C   UNL     1      -5.222  36.432  25.204  1.00  0.00    -0.003 C 
ATOM     19  C   UNL     1      -4.882  37.631  26.087  1.00  0.00     0.004 C 
ENDBRANCH  17  18
ENDBRANCH  16  17
ENDBRANCH  15  16
ENDBRANCH  14  15
ENDBRANCH  13  14
ENDBRANCH  12  13
ENDBRANCH   1  12
TORSDOF 14
ENDMDL
MODEL 9
REMARK VINA RESULT:     3.063      1.117      1.708
REMARK INTER + INTRA:           5.743
REMARK INTER:                   5.154
REMARK INTRA:                   0.589
REMARK UNBOUND:                 0.174
REMARK SMILES CCCCCCCCCCCCCC[C@H](C)C(=O)[O-]
REMARK SMILES IDX 9 1 10 2 11 3 12 4 13 5 14 6 15 7 16 8 17 9 18 10 19 11 8 12
REMARK SMILES IDX 7 13 6 14 5 15 4 16 3 17 2 18 1 19
REMARK H PARENT
REMARK Flexibility Score: inf
ROOT
ATOM      1  C   UNL     1      -4.677  34.744  21.742  1.00  0.00     0.000 C 
ENDROOT
BRANCH   1   2
ATOM      2  C   UNL     1      -6.093  34.563  22.314  1.00  0.00     0.000 C 
BRANCH   2   3
ATOM      3  C   UNL     1      -6.083  34.180  23.803  1.00  0.00     0.000 C 
BRANCH   3   4
ATOM      4  C   UNL     1      -5.786  35.378  24.723  1.00  0.00     0.000 C 
BRANCH   4   5
ATOM      5  C   UNL     1      -6.125  36.726  24.066  1.00  0.00     0.001 C 
BRANCH   5   6
ATOM      6  C   UNL     1      -5.059  37.175  23.050  1.00  0.00     0.009 C 
BRANCH   6   7
ATOM      7  C   UNL     1      -5.644  38.107  21.969  1.00  0.00     0.032 C 
ATOM      8  C   UNL     1      -4.968  37.857  20.616  1.00  0.00     0.014 C 
BRANCH   7   9
ATOM      9  C   UNL     1      -5.501  39.556  22.352  1.00  0.00     0.044 C 
ATOM     10  O   UNL     1      -5.917  40.466  21.586  1.00  0.00    -0.550 OA
ATOM     11  O   UNL     1      -4.907  39.897  23.560  1.00  0.00    -0.550 OA
ENDBRANCH   7   9
ENDBRANCH   6   7
ENDBRANCH   5   6
ENDBRANCH   4   5
ENDBRANCH   3   4
ENDBRANCH   2   3
ENDBRANCH   1   2
BRANCH   1  12
ATOM     12  C   UNL     1      -4.590  34.400  20.244  1.00  0.00     0.000 C 
BRANCH  12  13
ATOM     13  C   UNL     1      -5.926  34.466  19.478  1.00  0.00    -0.000 C 
BRANCH  13  14
ATOM     14  C   UNL     1      -5.803  34.747  17.967  1.00  0.00    -0.000 C 
BRANCH  14  15
ATOM     15  C   UNL     1      -4.473  35.392  17.536  1.00  0.00    -0.000 C 
BRANCH  15  16
ATOM     16  C   UNL     1      -4.215  35.265  16.025  1.00  0.00    -0.000 C 
BRANCH  16  17
ATOM     17  C   UNL     1      -4.140  36.630  15.323  1.00  0.00    -0.000 C 
BRANCH  17  18
ATOM     18  C   UNL     1      -3.336  36.577  14.015  1.00  0.00    -0.003 C 
ATOM     19  C   UNL     1      -1.940  36.007  14.252  1.00  0.00     0.004 C 
ENDBRANCH  17  18
ENDBRANCH  16  17
ENDBRANCH  15  16
ENDBRANCH  14  15
ENDBRANCH  13  14
ENDBRANCH  12  13
ENDBRANCH   1  12
TORSDOF 14
ENDMDL
