MODEL 1
REMARK VINA RESULT:    -3.905      0.000      0.000
REMARK INTER + INTRA:          -6.171
REMARK INTER:                  -5.503
REMARK INTRA:                  -0.669
REMARK UNBOUND:                -0.669
REMARK SMILES CCCCCCCCC(=O)[O-]
REMARK SMILES IDX 6 1 7 2 8 3 9 4 10 5 11 6 5 7 4 8 3 9 2 10 1 11
REMARK H PARENT
REMARK Flexibility Score: inf
ROOT
ATOM      1  C   UNL     1       4.832   8.625  29.939  1.00  0.00     0.000 C 
ENDROOT
BRANCH   1   2
ATOM      2  C   UNL     1       5.059   8.955  28.457  1.00  0.00     0.006 C 
BRANCH   2   3
ATOM      3  C   UNL     1       6.534   8.793  28.080  1.00  0.00     0.053 C 
BRANCH   3   4
ATOM      4  C   UNL     1       6.908   7.345  28.042  1.00  0.00     0.041 C 
ATOM      5  O   UNL     1       6.314   6.557  27.260  1.00  0.00    -0.550 OA
ATOM      6  O   UNL     1       7.881   6.855  28.904  1.00  0.00    -0.550 OA
ENDBRANCH   3   4
ENDBRANCH   2   3
ENDBRANCH   1   2
BRANCH   1   7
ATOM      7  C   UNL     1       4.004   9.696  30.670  1.00  0.00     0.000 C 
BRANCH   7   8
ATOM      8  C   UNL     1       4.731  10.390  31.838  1.00  0.00    -0.000 C 
BRANCH   8   9
ATOM      9  C   UNL     1       6.100  10.990  31.452  1.00  0.00    -0.000 C 
BRANCH   9  10
ATOM     10  C   UNL     1       7.255  10.373  32.256  1.00  0.00    -0.003 C 
ATOM     11  C   UNL     1       8.363   9.874  31.334  1.00  0.00     0.004 C 
ENDBRANCH   9  10
ENDBRANCH   8   9
ENDBRANCH   7   8
ENDBRANCH   1   7
TORSDOF 7
ENDMDL
MODEL 2
REMARK VINA RESULT:    -3.837      2.208      3.993
REMARK INTER + INTRA:          -6.076
REMARK INTER:                  -5.591
REMARK INTRA:                  -0.485
REMARK UNBOUND:                -0.669
REMARK SMILES CCCCCCCCC(=O)[O-]
REMARK SMILES IDX 6 1 7 2 8 3 9 4 10 5 11 6 5 7 4 8 3 9 2 10 1 11
REMARK H PARENT
REMARK Flexibility Score: inf
ROOT
ATOM      1  C   UNL     1       7.023  10.421  32.444  1.00  0.00     0.000 C 
ENDROOT
BRANCH   1   2
ATOM      2  C   UNL     1       5.818  11.099  31.775  1.00  0.00     0.006 C 
BRANCH   2   3
ATOM      3  C   UNL     1       4.760  10.065  31.378  1.00  0.00     0.053 C 
BRANCH   3   4
ATOM      4  C   UNL     1       5.095   9.456  30.053  1.00  0.00     0.041 C 
ATOM      5  O   UNL     1       5.728  10.121  29.192  1.00  0.00    -0.550 OA
ATOM      6  O   UNL     1       4.665   8.170  29.750  1.00  0.00    -0.550 OA
ENDBRANCH   3   4
ENDBRANCH   2   3
ENDBRANCH   1   2
BRANCH   1   7
ATOM      7  C   UNL     1       8.332  10.626  31.663  1.00  0.00     0.000 C 
BRANCH   7   8
ATOM      8  C   UNL     1       9.143   9.339  31.409  1.00  0.00    -0.000 C 
BRANCH   8   9
ATOM      9  C   UNL     1       8.925   8.733  30.007  1.00  0.00    -0.000 C 
BRANCH   9  10
ATOM     10  C   UNL     1      10.035   9.129  29.021  1.00  0.00    -0.003 C 
ATOM     11  C   UNL     1       9.630  10.346  28.195  1.00  0.00     0.004 C 
ENDBRANCH   9  10
ENDBRANCH   8   9
ENDBRANCH   7   8
ENDBRANCH   1   7
TORSDOF 7
ENDMDL
MODEL 3
REMARK VINA RESULT:    -3.804      2.372      3.658
REMARK INTER + INTRA:          -6.029
REMARK INTER:                  -5.610
REMARK INTRA:                  -0.419
REMARK UNBOUND:                -0.669
REMARK SMILES CCCCCCCCC(=O)[O-]
REMARK SMILES IDX 6 1 7 2 8 3 9 4 10 5 11 6 5 7 4 8 3 9 2 10 1 11
REMARK H PARENT
REMARK Flexibility Score: inf
ROOT
ATOM      1  C   UNL     1       9.061   9.329  31.256  1.00  0.00     0.000 C 
ENDROOT
BRANCH   1   2
ATOM      2  C   UNL     1       8.849   8.853  29.811  1.00  0.00     0.006 C 
BRANCH   2   3
ATOM      3  C   UNL     1       9.990   9.326  28.907  1.00  0.00     0.053 C 
BRANCH   3   4
ATOM      4  C   UNL     1      10.648   8.160  28.239  1.00  0.00     0.041 C 
ATOM      5  O   UNL     1      10.765   8.131  26.986  1.00  0.00    -0.550 OA
ATOM      6  O   UNL     1      11.088   7.083  28.996  1.00  0.00    -0.550 OA
ENDBRANCH   3   4
ENDBRANCH   2   3
ENDBRANCH   1   2
BRANCH   1   7
ATOM      7  C   UNL     1       8.607  10.782  31.478  1.00  0.00     0.000 C 
BRANCH   7   8
ATOM      8  C   UNL     1       7.124  11.053  31.154  1.00  0.00    -0.000 C 
BRANCH   8   9
ATOM      9  C   UNL     1       6.190  10.940  32.378  1.00  0.00    -0.000 C 
BRANCH   9  10
ATOM     10  C   UNL     1       4.746  10.596  31.979  1.00  0.00    -0.003 C 
ATOM     11  C   UNL     1       4.716   9.595  30.828  1.00  0.00     0.004 C 
ENDBRANCH   9  10
ENDBRANCH   8   9
ENDBRANCH   7   8
ENDBRANCH   1   7
TORSDOF 7
ENDMDL
MODEL 4
REMARK VINA RESULT:    -3.801      1.491      3.434
REMARK INTER + INTRA:          -6.025
REMARK INTER:                  -5.379
REMARK INTRA:                  -0.646
REMARK UNBOUND:                -0.669
REMARK SMILES CCCCCCCCC(=O)[O-]
REMARK SMILES IDX 6 1 7 2 8 3 9 4 10 5 11 6 5 7 4 8 3 9 2 10 1 11
REMARK H PARENT
REMARK Flexibility Score: inf
ROOT
ATOM      1  C   UNL     1       7.207  10.399  32.232  1.00  0.00     0.000 C 
ENDROOT
BRANCH   1   2
ATOM      2  C   UNL     1       8.538  10.231  31.484  1.00  0.00     0.006 C 
BRANCH   2   3
ATOM      3  C   UNL     1       8.366  10.528  29.992  1.00  0.00     0.053 C 
BRANCH   3   4
ATOM      4  C   UNL     1       8.878   9.388  29.169  1.00  0.00     0.041 C 
ATOM      5  O   UNL     1       8.406   8.231  29.326  1.00  0.00    -0.550 OA
ATOM      6  O   UNL     1       9.909   9.594  28.261  1.00  0.00    -0.550 OA
ENDBRANCH   3   4
ENDBRANCH   2   3
ENDBRANCH   1   2
BRANCH   1   7
ATOM      7  C   UNL     1       6.058  10.846  31.313  1.00  0.00     0.000 C 
BRANCH   7   8
ATOM      8  C   UNL     1       4.662  10.346  31.732  1.00  0.00    -0.000 C 
BRANCH   8   9
ATOM      9  C   UNL     1       3.875   9.669  30.590  1.00  0.00    -0.000 C 
BRANCH   9  10
ATOM     10  C   UNL     1       4.747   8.699  29.777  1.00  0.00    -0.003 C 
ATOM     11  C   UNL     1       4.921   9.186  28.341  1.00  0.00     0.004 C 
ENDBRANCH   9  10
ENDBRANCH   8   9
ENDBRANCH   7   8
ENDBRANCH   1   7
TORSDOF 7
ENDMDL
MODEL 5
REMARK VINA RESULT:    -3.780      1.946      3.498
REMARK INTER + INTRA:          -5.995
REMARK INTER:                  -5.396
REMARK INTRA:                  -0.599
REMARK UNBOUND:                -0.669
REMARK SMILES CCCCCCCCC(=O)[O-]
REMARK SMILES IDX 6 1 7 2 8 3 9 4 10 5 11 6 5 7 4 8 3 9 2 10 1 11
REMARK H PARENT
REMARK Flexibility Score: inf
ROOT
ATOM      1  C   UNL     1       9.432   8.703  30.155  1.00  0.00     0.000 C 
ENDROOT
BRANCH   1   2
ATOM      2  C   UNL     1       9.502   9.715  29.002  1.00  0.00     0.006 C 
BRANCH   2   3
ATOM      3  C   UNL     1       8.639   9.260  27.822  1.00  0.00     0.053 C 
BRANCH   3   4
ATOM      4  C   UNL     1       7.193   9.524  28.099  1.00  0.00     0.041 C 
ATOM      5  O   UNL     1       6.381   8.566  28.194  1.00  0.00    -0.550 OA
ATOM      6  O   UNL     1       6.732  10.830  28.204  1.00  0.00    -0.550 OA
ENDBRANCH   3   4
ENDBRANCH   2   3
ENDBRANCH   1   2
BRANCH   1   7
ATOM      7  C   UNL     1       9.145   9.365  31.514  1.00  0.00     0.000 C 
BRANCH   7   8
ATOM      8  C   UNL     1       8.391  10.707  31.433  1.00  0.00    -0.000 C 
BRANCH   8   9
ATOM      9  C   UNL     1       7.123  10.762  32.312  1.00  0.00    -0.000 C 
BRANCH   9  10
ATOM     10  C   UNL     1       5.892  10.184  31.598  1.00  0.00    -0.003 C 
ATOM     11  C   UNL     1       4.604  10.805  32.130  1.00  0.00     0.004 C 
ENDBRANCH   9  10
ENDBRANCH   8   9
ENDBRANCH   7   8
ENDBRANCH   1   7
TORSDOF 7
ENDMDL
MODEL 6
REMARK VINA RESULT:    -3.730      3.678      4.630
REMARK INTER + INTRA:          -5.926
REMARK INTER:                  -5.152
REMARK INTRA:                  -0.774
REMARK UNBOUND:                -0.669
REMARK SMILES CCCCCCCCC(=O)[O-]
REMARK SMILES IDX 6 1 7 2 8 3 9 4 10 5 11 6 5 7 4 8 3 9 2 10 1 11
REMARK H PARENT
REMARK Flexibility Score: inf
ROOT
ATOM      1  C   UNL     1       6.661   7.500  27.803  1.00  0.00     0.000 C 
ENDROOT
BRANCH   1   2
ATOM      2  C   UNL     1       7.055   6.118  27.262  1.00  0.00     0.006 C 
BRANCH   2   3
ATOM      3  C   UNL     1       7.032   6.103  25.731  1.00  0.00     0.053 C 
BRANCH   3   4
ATOM      4  C   UNL     1       8.330   5.592  25.193  1.00  0.00     0.041 C 
ATOM      5  O   UNL     1       9.268   5.291  25.978  1.00  0.00    -0.550 OA
ATOM      6  O   UNL     1       8.523   5.494  23.820  1.00  0.00    -0.550 OA
ENDBRANCH   3   4
ENDBRANCH   2   3
ENDBRANCH   1   2
BRANCH   1   7
ATOM      7  C   UNL     1       7.003   8.641  26.830  1.00  0.00     0.000 C 
BRANCH   7   8
ATOM      8  C   UNL     1       8.191   9.524  27.259  1.00  0.00    -0.000 C 
BRANCH   8   9
ATOM      9  C   UNL     1       9.515   9.173  26.549  1.00  0.00    -0.000 C 
BRANCH   9  10
ATOM     10  C   UNL     1      10.414   8.269  27.406  1.00  0.00    -0.003 C 
ATOM     11  C   UNL     1      10.324   8.643  28.883  1.00  0.00     0.004 C 
ENDBRANCH   9  10
ENDBRANCH   8   9
ENDBRANCH   7   8
ENDBRANCH   1   7
TORSDOF 7
ENDMDL
MODEL 7
REMARK VINA RESULT:    -3.707      2.052      3.256
REMARK INTER + INTRA:          -5.893
REMARK INTER:                  -5.347
REMARK INTRA:                  -0.545
REMARK UNBOUND:                -0.669
REMARK SMILES CCCCCCCCC(=O)[O-]
REMARK SMILES IDX 6 1 7 2 8 3 9 4 10 5 11 6 5 7 4 8 3 9 2 10 1 11
REMARK H PARENT
REMARK Flexibility Score: inf
ROOT
ATOM      1  C   UNL     1       6.245   8.456  27.734  1.00  0.00     0.000 C 
ENDROOT
BRANCH   1   2
ATOM      2  C   UNL     1       7.718   8.807  27.993  1.00  0.00     0.006 C 
BRANCH   2   3
ATOM      3  C   UNL     1       7.907   9.362  29.407  1.00  0.00     0.053 C 
BRANCH   3   4
ATOM      4  C   UNL     1       9.265   9.016  29.929  1.00  0.00     0.041 C 
ATOM      5  O   UNL     1      10.231   8.871  29.134  1.00  0.00    -0.550 OA
ATOM      6  O   UNL     1       9.455   8.805  31.289  1.00  0.00    -0.550 OA
ENDBRANCH   3   4
ENDBRANCH   2   3
ENDBRANCH   1   2
BRANCH   1   7
ATOM      7  C   UNL     1       5.295   9.637  27.999  1.00  0.00     0.000 C 
BRANCH   7   8
ATOM      8  C   UNL     1       4.014   9.275  28.775  1.00  0.00    -0.000 C 
BRANCH   8   9
ATOM      9  C   UNL     1       4.266   8.888  30.248  1.00  0.00    -0.000 C 
BRANCH   9  10
ATOM     10  C   UNL     1       4.055  10.071  31.205  1.00  0.00    -0.003 C 
ATOM     11  C   UNL     1       5.353  10.441  31.918  1.00  0.00     0.004 C 
ENDBRANCH   9  10
ENDBRANCH   8   9
ENDBRANCH   7   8
ENDBRANCH   1   7
TORSDOF 7
ENDMDL
MODEL 8
REMARK VINA RESULT:    -3.661      1.696      2.334
REMARK INTER + INTRA:          -5.828
REMARK INTER:                  -5.136
REMARK INTRA:                  -0.691
REMARK UNBOUND:                -0.669
REMARK SMILES CCCCCCCCC(=O)[O-]
REMARK SMILES IDX 6 1 7 2 8 3 9 4 10 5 11 6 5 7 4 8 3 9 2 10 1 11
REMARK H PARENT
REMARK Flexibility Score: inf
ROOT
ATOM      1  C   UNL     1       5.380   8.106  29.015  1.00  0.00     0.000 C 
ENDROOT
BRANCH   1   2
ATOM      2  C   UNL     1       6.606   8.142  28.091  1.00  0.00     0.006 C 
BRANCH   2   3
ATOM      3  C   UNL     1       7.152   9.567  27.963  1.00  0.00     0.053 C 
BRANCH   3   4
ATOM      4  C   UNL     1       8.615   9.598  28.275  1.00  0.00     0.041 C 
ATOM      5  O   UNL     1       9.032   9.201  29.395  1.00  0.00    -0.550 OA
ATOM      6  O   UNL     1       9.513  10.110  27.348  1.00  0.00    -0.550 OA
ENDBRANCH   3   4
ENDBRANCH   2   3
ENDBRANCH   1   2
BRANCH   1   7
ATOM      7  C   UNL     1       4.863   9.509  29.376  1.00  0.00     0.000 C 
BRANCH   7   8
ATOM      8  C   UNL     1       4.069   9.588  30.694  1.00  0.00    -0.000 C 
BRANCH   8   9
ATOM      9  C   UNL     1       4.772  10.406  31.797  1.00  0.00    -0.000 C 
BRANCH   9  10
ATOM     10  C   UNL     1       6.138  10.943  31.344  1.00  0.00    -0.003 C 
ATOM     11  C   UNL     1       7.266  10.378  32.202  1.00  0.00     0.004 C 
ENDBRANCH   9  10
ENDBRANCH   8   9
ENDBRANCH   7   8
ENDBRANCH   1   7
TORSDOF 7
ENDMDL
MODEL 9
REMARK VINA RESULT:    -3.645      2.722      5.206
REMARK INTER + INTRA:          -5.805
REMARK INTER:                  -5.024
REMARK INTRA:                  -0.781
REMARK UNBOUND:                -0.669
REMARK SMILES CCCCCCCCC(=O)[O-]
REMARK SMILES IDX 6 1 7 2 8 3 9 4 10 5 11 6 5 7 4 8 3 9 2 10 1 11
REMARK H PARENT
REMARK Flexibility Score: inf
ROOT
ATOM      1  C   UNL     1      10.385   8.165  27.363  1.00  0.00     0.000 C 
ENDROOT
BRANCH   1   2
ATOM      2  C   UNL     1      10.566   8.815  28.743  1.00  0.00     0.006 C 
BRANCH   2   3
ATOM      3  C   UNL     1       9.479   8.346  29.714  1.00  0.00     0.053 C 
BRANCH   3   4
ATOM      4  C   UNL     1       8.774   9.519  30.317  1.00  0.00     0.041 C 
ATOM      5  O   UNL     1       8.319  10.433  29.580  1.00  0.00    -0.550 OA
ATOM      6  O   UNL     1       8.660   9.628  31.697  1.00  0.00    -0.550 OA
ENDBRANCH   3   4
ENDBRANCH   2   3
ENDBRANCH   1   2
BRANCH   1   7
ATOM      7  C   UNL     1       9.361   8.905  26.484  1.00  0.00     0.000 C 
BRANCH   7   8
ATOM      8  C   UNL     1       8.062   8.123  26.206  1.00  0.00    -0.000 C 
BRANCH   8   9
ATOM      9  C   UNL     1       6.818   8.719  26.897  1.00  0.00    -0.000 C 
BRANCH   9  10
ATOM     10  C   UNL     1       6.212   7.761  27.934  1.00  0.00    -0.003 C 
ATOM     11  C   UNL     1       5.344   8.512  28.938  1.00  0.00     0.004 C 
ENDBRANCH   9  10
ENDBRANCH   8   9
ENDBRANCH   7   8
ENDBRANCH   1   7
TORSDOF 7
ENDMDL
