MODEL 1
REMARK VINA RESULT:    -4.036      0.000      0.000
REMARK INTER + INTRA:          -5.968
REMARK INTER:                  -5.451
REMARK INTRA:                  -0.516
REMARK UNBOUND:                -0.516
REMARK SMILES O=C[C@H](O)[C@@H](O)[C@@H](O)CO
REMARK SMILES IDX 7 1 9 2 10 3 5 5 3 6 2 7 1 8 4 9 6 11 8 13
REMARK H PARENT 10 4 4 10 6 12 8 14
REMARK Flexibility Score: inf
ROOT
ATOM      1  C   UNL     1       5.358   5.329   2.187  1.00  0.00     0.171 C 
ENDROOT
BRANCH   1   2
ATOM      2  C   UNL     1       6.507   4.584   1.487  1.00  0.00     0.190 C 
BRANCH   2   3
ATOM      3  O   UNL     1       6.154   4.244   0.174  1.00  0.00    -0.394 OA
ATOM      4  H   UNL     1       5.219   4.556   0.051  1.00  0.00     0.210 HD
ENDBRANCH   2   3
ENDBRANCH   1   2
BRANCH   1   5
ATOM      5  C   UNL     1       4.936   6.662   1.505  1.00  0.00     0.181 C 
BRANCH   5   6
ATOM      6  C   UNL     1       3.695   7.352   2.140  1.00  0.00     0.209 C 
BRANCH   6   7
ATOM      7  C   UNL     1       3.785   8.854   2.048  1.00  0.00     0.258 C 
ATOM      8  O   UNL     1       3.789   9.408   0.961  1.00  0.00    -0.300 OA
ENDBRANCH   6   7
BRANCH   6   9
ATOM      9  O   UNL     1       3.555   6.970   3.486  1.00  0.00    -0.383 OA
ATOM     10  H   UNL     1       3.874   6.032   3.570  1.00  0.00     0.211 HD
ENDBRANCH   6   9
ENDBRANCH   5   6
BRANCH   5  11
ATOM     11  O   UNL     1       6.027   7.549   1.420  1.00  0.00    -0.387 OA
ATOM     12  H   UNL     1       6.529   7.343   0.589  1.00  0.00     0.211 HD
ENDBRANCH   5  11
ENDBRANCH   1   5
BRANCH   1  13
ATOM     13  O   UNL     1       4.250   4.470   2.273  1.00  0.00    -0.388 OA
ATOM     14  H   UNL     1       4.239   3.925   1.443  1.00  0.00     0.211 HD
ENDBRANCH   1  13
TORSDOF 8
ENDMDL
MODEL 2
REMARK VINA RESULT:    -4.005      1.116      3.743
REMARK INTER + INTRA:          -5.927
REMARK INTER:                  -5.226
REMARK INTRA:                  -0.700
REMARK UNBOUND:                -0.516
REMARK SMILES O=C[C@H](O)[C@@H](O)[C@@H](O)CO
REMARK SMILES IDX 7 1 9 2 10 3 5 5 3 6 2 7 1 8 4 9 6 11 8 13
REMARK H PARENT 10 4 4 10 6 12 8 14
REMARK Flexibility Score: inf
ROOT
ATOM      1  C   UNL     1       4.621   7.556   2.794  1.00  0.00     0.171 C 
ENDROOT
BRANCH   1   2
ATOM      2  C   UNL     1       4.012   8.342   1.620  1.00  0.00     0.190 C 
BRANCH   2   3
ATOM      3  O   UNL     1       3.732   7.491   0.542  1.00  0.00    -0.394 OA
ATOM      4  H   UNL     1       2.983   7.912   0.046  1.00  0.00     0.210 HD
ENDBRANCH   2   3
ENDBRANCH   1   2
BRANCH   1   5
ATOM      5  C   UNL     1       5.882   6.720   2.431  1.00  0.00     0.181 C 
BRANCH   5   6
ATOM      6  C   UNL     1       5.658   5.180   2.418  1.00  0.00     0.209 C 
BRANCH   6   7
ATOM      7  C   UNL     1       6.578   4.493   1.442  1.00  0.00     0.258 C 
ATOM      8  O   UNL     1       6.168   4.144   0.346  1.00  0.00    -0.300 OA
ENDBRANCH   6   7
BRANCH   6   9
ATOM      9  O   UNL     1       4.322   4.881   2.099  1.00  0.00    -0.383 OA
ATOM     10  H   UNL     1       3.827   4.752   2.951  1.00  0.00     0.211 HD
ENDBRANCH   6   9
ENDBRANCH   5   6
BRANCH   5  11
ATOM     11  O   UNL     1       6.449   7.164   1.221  1.00  0.00    -0.387 OA
ATOM     12  H   UNL     1       5.737   7.605   0.689  1.00  0.00     0.211 HD
ENDBRANCH   5  11
ENDBRANCH   1   5
BRANCH   1  13
ATOM     13  O   UNL     1       4.931   8.457   3.827  1.00  0.00    -0.388 OA
ATOM     14  H   UNL     1       5.322   9.264   3.400  1.00  0.00     0.211 HD
ENDBRANCH   1  13
TORSDOF 8
ENDMDL
MODEL 3
REMARK VINA RESULT:    -3.987      1.630      3.782
REMARK INTER + INTRA:          -5.902
REMARK INTER:                  -5.207
REMARK INTRA:                  -0.695
REMARK UNBOUND:                -0.516
REMARK SMILES O=C[C@H](O)[C@@H](O)[C@@H](O)CO
REMARK SMILES IDX 7 1 9 2 10 3 5 5 3 6 2 7 1 8 4 9 6 11 8 13
REMARK H PARENT 10 4 4 10 6 12 8 14
REMARK Flexibility Score: inf
ROOT
ATOM      1  C   UNL     1       4.781   6.147   1.580  1.00  0.00     0.171 C 
ENDROOT
BRANCH   1   2
ATOM      2  C   UNL     1       3.594   7.122   1.662  1.00  0.00     0.190 C 
BRANCH   2   3
ATOM      3  O   UNL     1       3.750   8.175   0.750  1.00  0.00    -0.394 OA
ATOM      4  H   UNL     1       4.713   8.416   0.768  1.00  0.00     0.210 HD
ENDBRANCH   2   3
ENDBRANCH   1   2
BRANCH   1   5
ATOM      5  C   UNL     1       6.120   6.702   2.147  1.00  0.00     0.181 C 
BRANCH   5   6
ATOM      6  C   UNL     1       7.295   5.683   2.149  1.00  0.00     0.209 C 
BRANCH   6   7
ATOM      7  C   UNL     1       8.626   6.370   1.985  1.00  0.00     0.258 C 
ATOM      8  O   UNL     1       8.992   6.760   0.888  1.00  0.00    -0.300 OA
ENDBRANCH   6   7
BRANCH   6   9
ATOM      9  O   UNL     1       7.125   4.734   1.125  1.00  0.00    -0.383 OA
ATOM     10  H   UNL     1       6.695   3.932   1.524  1.00  0.00     0.211 HD
ENDBRANCH   6   9
ENDBRANCH   5   6
BRANCH   5  11
ATOM     11  O   UNL     1       6.481   7.899   1.500  1.00  0.00    -0.387 OA
ATOM     12  H   UNL     1       5.927   8.633   1.874  1.00  0.00     0.211 HD
ENDBRANCH   5  11
ENDBRANCH   1   5
BRANCH   1  13
ATOM     13  O   UNL     1       4.437   4.961   2.250  1.00  0.00    -0.388 OA
ATOM     14  H   UNL     1       3.451   4.966   2.362  1.00  0.00     0.211 HD
ENDBRANCH   1  13
TORSDOF 8
ENDMDL
MODEL 4
REMARK VINA RESULT:    -3.962      1.383      2.187
REMARK INTER + INTRA:          -5.868
REMARK INTER:                  -5.199
REMARK INTRA:                  -0.669
REMARK UNBOUND:                -0.516
REMARK SMILES O=C[C@H](O)[C@@H](O)[C@@H](O)CO
REMARK SMILES IDX 7 1 9 2 10 3 5 5 3 6 2 7 1 8 4 9 6 11 8 13
REMARK H PARENT 10 4 4 10 6 12 8 14
REMARK Flexibility Score: inf
ROOT
ATOM      1  C   UNL     1       6.501   5.761   2.216  1.00  0.00     0.171 C 
ENDROOT
BRANCH   1   2
ATOM      2  C   UNL     1       6.640   4.423   1.471  1.00  0.00     0.190 C 
BRANCH   2   3
ATOM      3  O   UNL     1       6.015   4.483   0.218  1.00  0.00    -0.394 OA
ATOM      4  H   UNL     1       6.448   3.785  -0.340  1.00  0.00     0.210 HD
ENDBRANCH   2   3
ENDBRANCH   1   2
BRANCH   1   5
ATOM      5  C   UNL     1       5.043   6.141   2.605  1.00  0.00     0.181 C 
BRANCH   5   6
ATOM      6  C   UNL     1       4.488   7.404   1.887  1.00  0.00     0.209 C 
BRANCH   6   7
ATOM      7  C   UNL     1       3.341   8.017   2.648  1.00  0.00     0.258 C 
ATOM      8  O   UNL     1       2.556   7.311   3.261  1.00  0.00    -0.300 OA
ENDBRANCH   6   7
BRANCH   6   9
ATOM      9  O   UNL     1       4.070   7.084   0.583  1.00  0.00    -0.383 OA
ATOM     10  H   UNL     1       4.855   6.720   0.094  1.00  0.00     0.211 HD
ENDBRANCH   6   9
ENDBRANCH   5   6
BRANCH   5  11
ATOM     11  O   UNL     1       4.178   5.040   2.447  1.00  0.00    -0.387 OA
ATOM     12  H   UNL     1       4.699   4.212   2.610  1.00  0.00     0.211 HD
ENDBRANCH   5  11
ENDBRANCH   1   5
BRANCH   1  13
ATOM     13  O   UNL     1       7.303   5.720   3.369  1.00  0.00    -0.388 OA
ATOM     14  H   UNL     1       7.844   4.889   3.317  1.00  0.00     0.211 HD
ENDBRANCH   1  13
TORSDOF 8
ENDMDL
MODEL 5
REMARK VINA RESULT:    -3.903      1.478      1.785
REMARK INTER + INTRA:          -5.788
REMARK INTER:                  -5.317
REMARK INTRA:                  -0.471
REMARK UNBOUND:                -0.516
REMARK SMILES O=C[C@H](O)[C@@H](O)[C@@H](O)CO
REMARK SMILES IDX 7 1 9 2 10 3 5 5 3 6 2 7 1 8 4 9 6 11 8 13
REMARK H PARENT 10 4 4 10 6 12 8 14
REMARK Flexibility Score: inf
ROOT
ATOM      1  C   UNL     1       5.970   4.989   1.645  1.00  0.00     0.171 C 
ENDROOT
BRANCH   1   2
ATOM      2  C   UNL     1       7.395   5.370   2.082  1.00  0.00     0.190 C 
BRANCH   2   3
ATOM      3  O   UNL     1       8.049   6.092   1.074  1.00  0.00    -0.394 OA
ATOM      4  H   UNL     1       8.814   5.529   0.784  1.00  0.00     0.210 HD
ENDBRANCH   2   3
ENDBRANCH   1   2
BRANCH   1   5
ATOM      5  C   UNL     1       4.937   6.151   1.711  1.00  0.00     0.181 C 
BRANCH   5   6
ATOM      6  C   UNL     1       4.163   6.255   3.056  1.00  0.00     0.209 C 
BRANCH   6   7
ATOM      7  C   UNL     1       2.943   7.131   2.929  1.00  0.00     0.258 C 
ATOM      8  O   UNL     1       3.059   8.331   2.739  1.00  0.00    -0.300 OA
ENDBRANCH   6   7
BRANCH   6   9
ATOM      9  O   UNL     1       5.000   6.757   4.068  1.00  0.00    -0.383 OA
ATOM     10  H   UNL     1       5.692   7.325   3.636  1.00  0.00     0.211 HD
ENDBRANCH   6   9
ENDBRANCH   5   6
BRANCH   5  11
ATOM     11  O   UNL     1       5.539   7.378   1.371  1.00  0.00    -0.387 OA
ATOM     12  H   UNL     1       5.077   8.099   1.872  1.00  0.00     0.211 HD
ENDBRANCH   5  11
ENDBRANCH   1   5
BRANCH   1  13
ATOM     13  O   UNL     1       6.022   4.474   0.339  1.00  0.00    -0.388 OA
ATOM     14  H   UNL     1       6.975   4.481   0.061  1.00  0.00     0.211 HD
ENDBRANCH   1  13
TORSDOF 8
ENDMDL
MODEL 6
REMARK VINA RESULT:    -3.851      1.826      2.520
REMARK INTER + INTRA:          -5.718
REMARK INTER:                  -5.217
REMARK INTRA:                  -0.501
REMARK UNBOUND:                -0.516
REMARK SMILES O=C[C@H](O)[C@@H](O)[C@@H](O)CO
REMARK SMILES IDX 7 1 9 2 10 3 5 5 3 6 2 7 1 8 4 9 6 11 8 13
REMARK H PARENT 10 4 4 10 6 12 8 14
REMARK Flexibility Score: inf
ROOT
ATOM      1  C   UNL     1       5.532   5.256   2.037  1.00  0.00     0.171 C 
ENDROOT
BRANCH   1   2
ATOM      2  C   UNL     1       6.350   4.148   1.353  1.00  0.00     0.190 C 
BRANCH   2   3
ATOM      3  O   UNL     1       6.204   4.208  -0.040  1.00  0.00    -0.394 OA
ATOM      4  H   UNL     1       5.449   4.830  -0.211  1.00  0.00     0.210 HD
ENDBRANCH   2   3
ENDBRANCH   1   2
BRANCH   1   5
ATOM      5  C   UNL     1       6.351   6.178   2.985  1.00  0.00     0.181 C 
BRANCH   5   6
ATOM      6  C   UNL     1       7.257   7.214   2.261  1.00  0.00     0.209 C 
BRANCH   6   7
ATOM      7  C   UNL     1       6.639   8.589   2.260  1.00  0.00     0.258 C 
ATOM      8  O   UNL     1       5.592   8.796   1.668  1.00  0.00    -0.300 OA
ENDBRANCH   6   7
BRANCH   6   9
ATOM      9  O   UNL     1       7.507   6.808   0.938  1.00  0.00    -0.383 OA
ATOM     10  H   UNL     1       7.516   7.622   0.367  1.00  0.00     0.211 HD
ENDBRANCH   6   9
ENDBRANCH   5   6
BRANCH   5  11
ATOM     11  O   UNL     1       5.511   6.803   3.927  1.00  0.00    -0.387 OA
ATOM     12  H   UNL     1       4.583   6.486   3.773  1.00  0.00     0.211 HD
ENDBRANCH   5  11
ENDBRANCH   1   5
BRANCH   1  13
ATOM     13  O   UNL     1       4.906   6.032   1.046  1.00  0.00    -0.388 OA
ATOM     14  H   UNL     1       4.206   5.462   0.631  1.00  0.00     0.211 HD
ENDBRANCH   1  13
TORSDOF 8
ENDMDL
MODEL 7
REMARK VINA RESULT:    -3.834      4.790      7.015
REMARK INTER + INTRA:          -5.696
REMARK INTER:                  -4.811
REMARK INTRA:                  -0.885
REMARK UNBOUND:                -0.516
REMARK SMILES O=C[C@H](O)[C@@H](O)[C@@H](O)CO
REMARK SMILES IDX 7 1 9 2 10 3 5 5 3 6 2 7 1 8 4 9 6 11 8 13
REMARK H PARENT 10 4 4 10 6 12 8 14
REMARK Flexibility Score: inf
ROOT
ATOM      1  C   UNL     1      -1.087   8.244   5.394  1.00  0.00     0.171 C 
ENDROOT
BRANCH   1   2
ATOM      2  C   UNL     1      -1.404   7.556   6.733  1.00  0.00     0.190 C 
BRANCH   2   3
ATOM      3  O   UNL     1      -0.228   7.136   7.368  1.00  0.00    -0.394 OA
ATOM      4  H   UNL     1      -0.415   7.166   8.343  1.00  0.00     0.210 HD
ENDBRANCH   2   3
ENDBRANCH   1   2
BRANCH   1   5
ATOM      5  C   UNL     1      -0.507   7.301   4.300  1.00  0.00     0.181 C 
BRANCH   5   6
ATOM      6  C   UNL     1       0.946   7.635   3.858  1.00  0.00     0.209 C 
BRANCH   6   7
ATOM      7  C   UNL     1       1.949   6.716   4.507  1.00  0.00     0.258 C 
ATOM      8  O   UNL     1       1.994   6.607   5.722  1.00  0.00    -0.300 OA
ENDBRANCH   6   7
BRANCH   6   9
ATOM      9  O   UNL     1       1.259   8.970   4.169  1.00  0.00    -0.383 OA
ATOM     10  H   UNL     1       0.407   9.478   4.220  1.00  0.00     0.211 HD
ENDBRANCH   6   9
ENDBRANCH   5   6
BRANCH   5  11
ATOM     11  O   UNL     1      -0.628   5.951   4.684  1.00  0.00    -0.387 OA
ATOM     12  H   UNL     1      -0.940   5.925   5.626  1.00  0.00     0.211 HD
ENDBRANCH   5  11
ENDBRANCH   1   5
BRANCH   1  13
ATOM     13  O   UNL     1      -2.255   8.862   4.916  1.00  0.00    -0.388 OA
ATOM     14  H   UNL     1      -3.001   8.222   5.059  1.00  0.00     0.211 HD
ENDBRANCH   1  13
TORSDOF 8
ENDMDL
MODEL 8
REMARK VINA RESULT:    -3.789      5.152      6.785
REMARK INTER + INTRA:          -5.635
REMARK INTER:                  -4.668
REMARK INTRA:                  -0.967
REMARK UNBOUND:                -0.516
REMARK SMILES O=C[C@H](O)[C@@H](O)[C@@H](O)CO
REMARK SMILES IDX 7 1 9 2 10 3 5 5 3 6 2 7 1 8 4 9 6 11 8 13
REMARK H PARENT 10 4 4 10 6 12 8 14
REMARK Flexibility Score: inf
ROOT
ATOM      1  C   UNL     1      -1.296   8.001   5.288  1.00  0.00     0.171 C 
ENDROOT
BRANCH   1   2
ATOM      2  C   UNL     1      -1.476   6.879   4.252  1.00  0.00     0.190 C 
BRANCH   2   3
ATOM      3  O   UNL     1      -0.704   5.759   4.589  1.00  0.00    -0.394 OA
ATOM      4  H   UNL     1       0.191   6.108   4.841  1.00  0.00     0.210 HD
ENDBRANCH   2   3
ENDBRANCH   1   2
BRANCH   1   5
ATOM      5  C   UNL     1       0.145   8.581   5.374  1.00  0.00     0.181 C 
BRANCH   5   6
ATOM      6  C   UNL     1       1.015   7.993   6.521  1.00  0.00     0.209 C 
BRANCH   6   7
ATOM      7  C   UNL     1       2.201   7.232   5.986  1.00  0.00     0.258 C 
ATOM      8  O   UNL     1       2.046   6.160   5.424  1.00  0.00    -0.300 OA
ENDBRANCH   6   7
BRANCH   6   9
ATOM      9  O   UNL     1       0.243   7.148   7.339  1.00  0.00    -0.383 OA
ATOM     10  H   UNL     1      -0.693   7.481   7.321  1.00  0.00     0.211 HD
ENDBRANCH   6   9
ENDBRANCH   5   6
BRANCH   5  11
ATOM     11  O   UNL     1       0.801   8.482   4.132  1.00  0.00    -0.387 OA
ATOM     12  H   UNL     1       1.705   8.880   4.227  1.00  0.00     0.211 HD
ENDBRANCH   5  11
ENDBRANCH   1   5
BRANCH   1  13
ATOM     13  O   UNL     1      -2.206   9.032   4.999  1.00  0.00    -0.388 OA
ATOM     14  H   UNL     1      -3.032   8.602   4.655  1.00  0.00     0.211 HD
ENDBRANCH   1  13
TORSDOF 8
ENDMDL
MODEL 9
REMARK VINA RESULT:    -3.681      4.738      6.372
REMARK INTER + INTRA:          -5.488
REMARK INTER:                  -4.979
REMARK INTRA:                  -0.509
REMARK UNBOUND:                -0.516
REMARK SMILES O=C[C@H](O)[C@@H](O)[C@@H](O)CO
REMARK SMILES IDX 7 1 9 2 10 3 5 5 3 6 2 7 1 8 4 9 6 11 8 13
REMARK H PARENT 10 4 4 10 6 12 8 14
REMARK Flexibility Score: inf
ROOT
ATOM      1  C   UNL     1       1.256   7.555   4.028  1.00  0.00     0.171 C 
ENDROOT
BRANCH   1   2
ATOM      2  C   UNL     1       2.552   6.780   4.317  1.00  0.00     0.190 C 
BRANCH   2   3
ATOM      3  O   UNL     1       2.363   5.861   5.357  1.00  0.00    -0.394 OA
ATOM      4  H   UNL     1       1.854   5.103   4.966  1.00  0.00     0.210 HD
ENDBRANCH   2   3
ENDBRANCH   1   2
BRANCH   1   5
ATOM      5  C   UNL     1       0.079   7.238   4.995  1.00  0.00     0.181 C 
BRANCH   5   6
ATOM      6  C   UNL     1      -1.098   8.253   4.940  1.00  0.00     0.209 C 
BRANCH   6   7
ATOM      7  C   UNL     1      -1.903   8.240   6.214  1.00  0.00     0.258 C 
ATOM      8  O   UNL     1      -2.077   7.199   6.827  1.00  0.00    -0.300 OA
ENDBRANCH   6   7
BRANCH   6   9
ATOM      9  O   UNL     1      -1.939   7.972   3.848  1.00  0.00    -0.383 OA
ATOM     10  H   UNL     1      -2.783   7.587   4.206  1.00  0.00     0.211 HD
ENDBRANCH   6   9
ENDBRANCH   5   6
BRANCH   5  11
ATOM     11  O   UNL     1      -0.375   5.917   4.816  1.00  0.00    -0.387 OA
ATOM     12  H   UNL     1      -1.118   5.756   5.454  1.00  0.00     0.211 HD
ENDBRANCH   5  11
ENDBRANCH   1   5
BRANCH   1  13
ATOM     13  O   UNL     1       1.537   8.932   4.059  1.00  0.00    -0.388 OA
ATOM     14  H   UNL     1       2.403   9.040   4.532  1.00  0.00     0.211 HD
ENDBRANCH   1  13
TORSDOF 8
ENDMDL
