MODEL 1
REMARK VINA RESULT:    -4.295      0.000      0.000
REMARK INTER + INTRA:          -4.671
REMARK INTER:                  -4.547
REMARK INTRA:                  -0.124
REMARK UNBOUND:                -0.124
REMARK SMILES C=C(C)[C@@H]1CC=C(C)CC1
REMARK SMILES IDX 8 1 7 2 6 3 5 4 4 5 10 6 9 7 2 8 1 9 3 10
REMARK H PARENT
REMARK Flexibility Score: inf
ROOT
ATOM      1  C   UNL     1      38.875  20.625   0.343  1.00  0.00     0.039 C 
ATOM      2  C   UNL     1      39.943  20.322  -0.671  1.00  0.00    -0.077 C 
ATOM      3  C   UNL     1      41.168  20.869  -0.517  1.00  0.00    -0.027 C 
ATOM      4  C   UNL     1      42.319  20.583  -1.449  1.00  0.00     0.035 C 
ATOM      5  C   UNL     1      41.842  20.099  -2.830  1.00  0.00     0.018 C 
ATOM      6  C   UNL     1      40.797  18.986  -2.660  1.00  0.00     0.013 C 
ATOM      7  C   UNL     1      39.574  19.518  -1.903  1.00  0.00     0.031 C 
ENDROOT
BRANCH   5   8
ATOM      8  C   UNL     1      43.010  19.650  -3.700  1.00  0.00    -0.077 C 
ATOM      9  C   UNL     1      43.472  18.388  -3.654  1.00  0.00     0.008 C 
ATOM     10  C   UNL     1      43.669  20.624  -4.641  1.00  0.00     0.039 C 
ENDBRANCH   5   8
TORSDOF 1
ENDMDL
MODEL 2
REMARK VINA RESULT:    -4.194      0.559      1.665
REMARK INTER + INTRA:          -4.563
REMARK INTER:                  -4.442
REMARK INTRA:                  -0.121
REMARK UNBOUND:                -0.124
REMARK SMILES C=C(C)[C@@H]1CC=C(C)CC1
REMARK SMILES IDX 8 1 7 2 6 3 5 4 4 5 10 6 9 7 2 8 1 9 3 10
REMARK H PARENT
REMARK Flexibility Score: inf
ROOT
ATOM      1  C   UNL     1      39.286  20.589   0.234  1.00  0.00     0.039 C 
ATOM      2  C   UNL     1      40.306  20.331  -0.840  1.00  0.00    -0.077 C 
ATOM      3  C   UNL     1      39.911  19.756  -1.996  1.00  0.00    -0.027 C 
ATOM      4  C   UNL     1      40.847  19.506  -3.153  1.00  0.00     0.035 C 
ATOM      5  C   UNL     1      42.318  19.438  -2.704  1.00  0.00     0.018 C 
ATOM      6  C   UNL     1      42.642  20.636  -1.799  1.00  0.00     0.013 C 
ATOM      7  C   UNL     1      41.769  20.601  -0.540  1.00  0.00     0.031 C 
ENDROOT
BRANCH   5   8
ATOM      8  C   UNL     1      43.263  19.358  -3.897  1.00  0.00    -0.077 C 
ATOM      9  C   UNL     1      43.807  18.191  -4.283  1.00  0.00     0.008 C 
ATOM     10  C   UNL     1      43.603  20.603  -4.675  1.00  0.00     0.039 C 
ENDBRANCH   5   8
TORSDOF 1
ENDMDL
MODEL 3
REMARK VINA RESULT:    -4.143      0.995      1.661
REMARK INTER + INTRA:          -4.510
REMARK INTER:                  -4.388
REMARK INTRA:                  -0.121
REMARK UNBOUND:                -0.124
REMARK SMILES C=C(C)[C@@H]1CC=C(C)CC1
REMARK SMILES IDX 8 1 7 2 6 3 5 4 4 5 10 6 9 7 2 8 1 9 3 10
REMARK H PARENT
REMARK Flexibility Score: inf
ROOT
ATOM      1  C   UNL     1      40.009  20.327  -0.110  1.00  0.00     0.039 C 
ATOM      2  C   UNL     1      40.941  20.251  -1.288  1.00  0.00    -0.077 C 
ATOM      3  C   UNL     1      42.219  20.661  -1.140  1.00  0.00    -0.027 C 
ATOM      4  C   UNL     1      43.244  20.574  -2.244  1.00  0.00     0.035 C 
ATOM      5  C   UNL     1      42.592  20.519  -3.638  1.00  0.00     0.018 C 
ATOM      6  C   UNL     1      41.473  19.467  -3.648  1.00  0.00     0.013 C 
ATOM      7  C   UNL     1      40.383  19.842  -2.638  1.00  0.00     0.031 C 
ENDROOT
BRANCH   5   8
ATOM      8  C   UNL     1      43.624  20.258  -4.728  1.00  0.00    -0.077 C 
ATOM      9  C   UNL     1      44.097  21.254  -5.497  1.00  0.00     0.008 C 
ATOM     10  C   UNL     1      44.140  18.861  -4.960  1.00  0.00     0.039 C 
ENDBRANCH   5   8
TORSDOF 1
ENDMDL
MODEL 4
REMARK VINA RESULT:    -3.861      1.102      2.345
REMARK INTER + INTRA:          -4.211
REMARK INTER:                  -4.085
REMARK INTRA:                  -0.125
REMARK UNBOUND:                -0.124
REMARK SMILES C=C(C)[C@@H]1CC=C(C)CC1
REMARK SMILES IDX 8 1 7 2 6 3 5 4 4 5 10 6 9 7 2 8 1 9 3 10
REMARK H PARENT
REMARK Flexibility Score: inf
ROOT
ATOM      1  C   UNL     1      40.202  20.482  -0.162  1.00  0.00     0.039 C 
ATOM      2  C   UNL     1      41.044  20.290  -1.393  1.00  0.00    -0.077 C 
ATOM      3  C   UNL     1      40.516  19.640  -2.452  1.00  0.00    -0.027 C 
ATOM      4  C   UNL     1      41.260  19.444  -3.751  1.00  0.00     0.035 C 
ATOM      5  C   UNL     1      42.785  19.538  -3.566  1.00  0.00     0.018 C 
ATOM      6  C   UNL     1      43.135  20.792  -2.751  1.00  0.00     0.013 C 
ATOM      7  C   UNL     1      42.500  20.713  -1.358  1.00  0.00     0.031 C 
ENDROOT
BRANCH   5   8
ATOM      8  C   UNL     1      43.514  19.512  -4.904  1.00  0.00    -0.077 C 
ATOM      9  C   UNL     1      44.055  20.625  -5.428  1.00  0.00     0.008 C 
ATOM     10  C   UNL     1      43.645  18.219  -5.667  1.00  0.00     0.039 C 
ENDBRANCH   5   8
TORSDOF 1
ENDMDL
MODEL 5
REMARK VINA RESULT:    -3.791      1.138      4.725
REMARK INTER + INTRA:          -4.137
REMARK INTER:                  -4.013
REMARK INTRA:                  -0.125
REMARK UNBOUND:                -0.124
REMARK SMILES C=C(C)[C@@H]1CC=C(C)CC1
REMARK SMILES IDX 8 1 7 2 6 3 5 4 4 5 10 6 9 7 2 8 1 9 3 10
REMARK H PARENT
REMARK Flexibility Score: inf
ROOT
ATOM      1  C   UNL     1      44.698  18.834  -5.696  1.00  0.00     0.039 C 
ATOM      2  C   UNL     1      43.745  19.184  -4.588  1.00  0.00    -0.077 C 
ATOM      3  C   UNL     1      43.104  18.191  -3.935  1.00  0.00    -0.027 C 
ATOM      4  C   UNL     1      42.171  18.437  -2.775  1.00  0.00     0.035 C 
ATOM      5  C   UNL     1      41.605  19.869  -2.779  1.00  0.00     0.018 C 
ATOM      6  C   UNL     1      42.745  20.879  -2.975  1.00  0.00     0.013 C 
ATOM      7  C   UNL     1      43.433  20.646  -4.326  1.00  0.00     0.031 C 
ENDROOT
BRANCH   5   8
ATOM      8  C   UNL     1      40.806  20.157  -1.514  1.00  0.00    -0.077 C 
ATOM      9  C   UNL     1      41.360  20.790  -0.466  1.00  0.00     0.008 C 
ATOM     10  C   UNL     1      39.362  19.737  -1.421  1.00  0.00     0.039 C 
ENDBRANCH   5   8
TORSDOF 1
ENDMDL
MODEL 6
REMARK VINA RESULT:    -3.719      2.801      4.741
REMARK INTER + INTRA:          -4.061
REMARK INTER:                  -3.934
REMARK INTRA:                  -0.127
REMARK UNBOUND:                -0.124
REMARK SMILES C=C(C)[C@@H]1CC=C(C)CC1
REMARK SMILES IDX 8 1 7 2 6 3 5 4 4 5 10 6 9 7 2 8 1 9 3 10
REMARK H PARENT
REMARK Flexibility Score: inf
ROOT
ATOM      1  C   UNL     1      44.074  21.691  -5.858  1.00  0.00     0.039 C 
ATOM      2  C   UNL     1      43.821  20.504  -4.971  1.00  0.00    -0.077 C 
ATOM      3  C   UNL     1      44.271  19.290  -5.356  1.00  0.00    -0.027 C 
ATOM      4  C   UNL     1      44.114  18.049  -4.512  1.00  0.00     0.035 C 
ATOM      5  C   UNL     1      42.958  18.175  -3.504  1.00  0.00     0.018 C 
ATOM      6  C   UNL     1      43.063  19.512  -2.755  1.00  0.00     0.013 C 
ATOM      7  C   UNL     1      42.953  20.682  -3.740  1.00  0.00     0.031 C 
ENDROOT
BRANCH   5   8
ATOM      8  C   UNL     1      42.920  16.991  -2.545  1.00  0.00    -0.077 C 
ATOM      9  C   UNL     1      41.841  16.743  -1.782  1.00  0.00     0.008 C 
ATOM     10  C   UNL     1      44.105  16.066  -2.440  1.00  0.00     0.039 C 
ENDBRANCH   5   8
TORSDOF 1
ENDMDL
MODEL 7
REMARK VINA RESULT:    -3.663      1.241      4.744
REMARK INTER + INTRA:          -4.001
REMARK INTER:                  -3.879
REMARK INTRA:                  -0.122
REMARK UNBOUND:                -0.124
REMARK SMILES C=C(C)[C@@H]1CC=C(C)CC1
REMARK SMILES IDX 8 1 7 2 6 3 5 4 4 5 10 6 9 7 2 8 1 9 3 10
REMARK H PARENT
REMARK Flexibility Score: inf
ROOT
ATOM      1  C   UNL     1      45.030  18.830  -6.121  1.00  0.00     0.039 C 
ATOM      2  C   UNL     1      44.080  19.112  -4.991  1.00  0.00    -0.077 C 
ATOM      3  C   UNL     1      43.725  20.390  -4.736  1.00  0.00    -0.027 C 
ATOM      4  C   UNL     1      42.738  20.770  -3.660  1.00  0.00     0.035 C 
ATOM      5  C   UNL     1      42.622  19.690  -2.569  1.00  0.00     0.018 C 
ATOM      6  C   UNL     1      42.438  18.311  -3.221  1.00  0.00     0.013 C 
ATOM      7  C   UNL     1      43.654  17.968  -4.090  1.00  0.00     0.031 C 
ENDROOT
BRANCH   5   8
ATOM      8  C   UNL     1      41.501  20.005  -1.586  1.00  0.00    -0.077 C 
ATOM      9  C   UNL     1      41.733  20.703  -0.461  1.00  0.00     0.008 C 
ATOM     10  C   UNL     1      40.097  19.537  -1.868  1.00  0.00     0.039 C 
ENDBRANCH   5   8
TORSDOF 1
ENDMDL
MODEL 8
REMARK VINA RESULT:    -3.426      6.566      9.194
REMARK INTER + INTRA:          -3.751
REMARK INTER:                  -3.624
REMARK INTRA:                  -0.127
REMARK UNBOUND:                -0.124
REMARK SMILES C=C(C)[C@@H]1CC=C(C)CC1
REMARK SMILES IDX 8 1 7 2 6 3 5 4 4 5 10 6 9 7 2 8 1 9 3 10
REMARK H PARENT
REMARK Flexibility Score: inf
ROOT
ATOM      1  C   UNL     1      48.623  11.154  -1.762  1.00  0.00     0.039 C 
ATOM      2  C   UNL     1      48.286  12.442  -2.462  1.00  0.00    -0.077 C 
ATOM      3  C   UNL     1      49.075  12.864  -3.473  1.00  0.00    -0.027 C 
ATOM      4  C   UNL     1      48.791  14.113  -4.271  1.00  0.00     0.035 C 
ATOM      5  C   UNL     1      47.902  15.105  -3.500  1.00  0.00     0.018 C 
ATOM      6  C   UNL     1      46.688  14.369  -2.913  1.00  0.00     0.013 C 
ATOM      7  C   UNL     1      47.150  13.291  -1.925  1.00  0.00     0.031 C 
ENDROOT
BRANCH   5   8
ATOM      8  C   UNL     1      47.480  16.277  -4.378  1.00  0.00    -0.077 C 
ATOM      9  C   UNL     1      46.227  16.762  -4.344  1.00  0.00     0.008 C 
ATOM     10  C   UNL     1      48.477  16.923  -5.305  1.00  0.00     0.039 C 
ENDBRANCH   5   8
TORSDOF 1
ENDMDL
MODEL 9
REMARK VINA RESULT:    -3.362      7.622     10.086
REMARK INTER + INTRA:          -3.683
REMARK INTER:                  -3.554
REMARK INTRA:                  -0.129
REMARK UNBOUND:                -0.124
REMARK SMILES C=C(C)[C@@H]1CC=C(C)CC1
REMARK SMILES IDX 8 1 7 2 6 3 5 4 4 5 10 6 9 7 2 8 1 9 3 10
REMARK H PARENT
REMARK Flexibility Score: inf
ROOT
ATOM      1  C   UNL     1      51.458  15.993  -5.680  1.00  0.00     0.039 C 
ATOM      2  C   UNL     1      50.300  15.415  -4.914  1.00  0.00    -0.077 C 
ATOM      3  C   UNL     1      49.195  16.169  -4.728  1.00  0.00    -0.027 C 
ATOM      4  C   UNL     1      47.963  15.661  -4.021  1.00  0.00     0.035 C 
ATOM      5  C   UNL     1      48.276  14.480  -3.084  1.00  0.00     0.018 C 
ATOM      6  C   UNL     1      49.126  13.438  -3.826  1.00  0.00     0.013 C 
ATOM      7  C   UNL     1      50.460  14.055  -4.261  1.00  0.00     0.031 C 
ENDROOT
BRANCH   5   8
ATOM      8  C   UNL     1      47.003  13.868  -2.512  1.00  0.00    -0.077 C 
ATOM      9  C   UNL     1      45.795  14.159  -3.023  1.00  0.00     0.008 C 
ATOM     10  C   UNL     1      47.082  12.909  -1.351  1.00  0.00     0.039 C 
ENDBRANCH   5   8
TORSDOF 1
ENDMDL
