MODEL 1
REMARK VINA RESULT:    -3.811      0.000      0.000
REMARK INTER + INTRA:          -7.203
REMARK INTER:                  -6.151
REMARK INTRA:                  -1.052
REMARK UNBOUND:                -1.052
REMARK SMILES CCCCCCCCCCCCO
REMARK SMILES IDX 7 1 6 2 5 3 4 4 3 5 2 6 1 7 8 8 9 9 10 10 11 11 12 12 13 13
REMARK H PARENT 13 14
REMARK Flexibility Score: inf
ROOT
ATOM      1  C   UNL     1      -4.567   5.548 -24.423  1.00  0.00     0.000 C 
ENDROOT
BRANCH   1   2
ATOM      2  C   UNL     1      -5.973   4.927 -24.343  1.00  0.00    -0.000 C 
BRANCH   2   3
ATOM      3  C   UNL     1      -6.671   5.221 -23.005  1.00  0.00    -0.000 C 
BRANCH   3   4
ATOM      4  C   UNL     1      -6.207   4.292 -21.869  1.00  0.00    -0.000 C 
BRANCH   4   5
ATOM      5  C   UNL     1      -6.171   2.794 -22.223  1.00  0.00    -0.000 C 
BRANCH   5   6
ATOM      6  C   UNL     1      -5.329   1.966 -21.241  1.00  0.00    -0.003 C 
ATOM      7  C   UNL     1      -4.473   2.866 -20.356  1.00  0.00     0.004 C 
ENDBRANCH   5   6
ENDBRANCH   4   5
ENDBRANCH   3   4
ENDBRANCH   2   3
ENDBRANCH   1   2
BRANCH   1   8
ATOM      8  C   UNL     1      -3.484   4.518 -24.789  1.00  0.00     0.000 C 
BRANCH   8   9
ATOM      9  C   UNL     1      -2.888   3.826 -23.552  1.00  0.00     0.000 C 
BRANCH   9  10
ATOM     10  C   UNL     1      -1.404   4.175 -23.340  1.00  0.00     0.002 C 
BRANCH  10  11
ATOM     11  C   UNL     1      -0.850   5.092 -24.442  1.00  0.00     0.028 C 
BRANCH  11  12
ATOM     12  C   UNL     1      -0.579   6.517 -23.946  1.00  0.00     0.156 C 
BRANCH  12  13
ATOM     13  O   UNL     1      -0.560   6.544 -22.544  1.00  0.00    -0.396 OA
ATOM     14  H   UNL     1       0.387   6.434 -22.270  1.00  0.00     0.210 HD
ENDBRANCH  12  13
ENDBRANCH  11  12
ENDBRANCH  10  11
ENDBRANCH   9  10
ENDBRANCH   8   9
ENDBRANCH   1   8
TORSDOF 11
ENDMDL
MODEL 2
REMARK VINA RESULT:    -3.798      2.146      2.751
REMARK INTER + INTRA:          -7.182
REMARK INTER:                  -6.192
REMARK INTRA:                  -0.990
REMARK UNBOUND:                -1.052
REMARK SMILES CCCCCCCCCCCCO
REMARK SMILES IDX 7 1 6 2 5 3 4 4 3 5 2 6 1 7 8 8 9 9 10 10 11 11 12 12 13 13
REMARK H PARENT 13 14
REMARK Flexibility Score: inf
ROOT
ATOM      1  C   UNL     1      -4.964   4.215 -24.223  1.00  0.00     0.000 C 
ENDROOT
BRANCH   1   2
ATOM      2  C   UNL     1      -5.651   5.104 -23.172  1.00  0.00    -0.000 C 
BRANCH   2   3
ATOM      3  C   UNL     1      -6.244   4.291 -22.009  1.00  0.00    -0.000 C 
BRANCH   3   4
ATOM      4  C   UNL     1      -6.152   2.770 -22.233  1.00  0.00    -0.000 C 
BRANCH   4   5
ATOM      5  C   UNL     1      -5.330   2.003 -21.181  1.00  0.00    -0.000 C 
BRANCH   5   6
ATOM      6  C   UNL     1      -5.002   2.850 -19.942  1.00  0.00    -0.003 C 
ATOM      7  C   UNL     1      -5.137   2.029 -18.664  1.00  0.00     0.004 C 
ENDBRANCH   5   6
ENDBRANCH   4   5
ENDBRANCH   3   4
ENDBRANCH   2   3
ENDBRANCH   1   2
BRANCH   1   8
ATOM      8  C   UNL     1      -3.629   4.802 -24.716  1.00  0.00     0.000 C 
BRANCH   8   9
ATOM      9  C   UNL     1      -2.466   3.806 -24.584  1.00  0.00     0.000 C 
BRANCH   9  10
ATOM     10  C   UNL     1      -1.932   3.711 -23.143  1.00  0.00     0.002 C 
BRANCH  10  11
ATOM     11  C   UNL     1      -2.077   2.300 -22.553  1.00  0.00     0.028 C 
BRANCH  11  12
ATOM     12  C   UNL     1      -1.148   1.279 -23.222  1.00  0.00     0.156 C 
BRANCH  12  13
ATOM     13  O   UNL     1      -0.687   0.354 -22.276  1.00  0.00    -0.396 OA
ATOM     14  H   UNL     1      -0.799  -0.546 -22.680  1.00  0.00     0.210 HD
ENDBRANCH  12  13
ENDBRANCH  11  12
ENDBRANCH  10  11
ENDBRANCH   9  10
ENDBRANCH   8   9
ENDBRANCH   1   8
TORSDOF 11
ENDMDL
MODEL 3
REMARK VINA RESULT:    -3.775      1.441      2.857
REMARK INTER + INTRA:          -7.144
REMARK INTER:                  -6.404
REMARK INTRA:                  -0.740
REMARK UNBOUND:                -1.052
REMARK SMILES CCCCCCCCCCCCO
REMARK SMILES IDX 7 1 6 2 5 3 4 4 3 5 2 6 1 7 8 8 9 9 10 10 11 11 12 12 13 13
REMARK H PARENT 13 14
REMARK Flexibility Score: inf
ROOT
ATOM      1  C   UNL     1      -3.946   2.859 -21.134  1.00  0.00     0.000 C 
ENDROOT
BRANCH   1   2
ATOM      2  C   UNL     1      -5.474   3.010 -21.049  1.00  0.00    -0.000 C 
BRANCH   2   3
ATOM      3  C   UNL     1      -6.219   1.891 -21.795  1.00  0.00    -0.000 C 
BRANCH   3   4
ATOM      4  C   UNL     1      -7.220   2.428 -22.835  1.00  0.00    -0.000 C 
BRANCH   4   5
ATOM      5  C   UNL     1      -6.996   3.889 -23.265  1.00  0.00    -0.000 C 
BRANCH   5   6
ATOM      6  C   UNL     1      -8.125   4.827 -22.813  1.00  0.00    -0.003 C 
ATOM      7  C   UNL     1      -7.579   5.981 -21.977  1.00  0.00     0.004 C 
ENDBRANCH   5   6
ENDBRANCH   4   5
ENDBRANCH   3   4
ENDBRANCH   2   3
ENDBRANCH   1   2
BRANCH   1   8
ATOM      8  C   UNL     1      -3.367   3.409 -22.450  1.00  0.00     0.000 C 
BRANCH   8   9
ATOM      9  C   UNL     1      -2.013   2.775 -22.807  1.00  0.00     0.000 C 
BRANCH   9  10
ATOM     10  C   UNL     1      -1.324   3.482 -23.988  1.00  0.00     0.002 C 
BRANCH  10  11
ATOM     11  C   UNL     1      -1.730   4.959 -24.108  1.00  0.00     0.028 C 
BRANCH  11  12
ATOM     12  C   UNL     1      -0.551   5.916 -23.890  1.00  0.00     0.156 C 
BRANCH  12  13
ATOM     13  O   UNL     1      -0.612   6.471 -22.605  1.00  0.00    -0.396 OA
ATOM     14  H   UNL     1       0.319   6.701 -22.350  1.00  0.00     0.210 HD
ENDBRANCH  12  13
ENDBRANCH  11  12
ENDBRANCH  10  11
ENDBRANCH   9  10
ENDBRANCH   8   9
ENDBRANCH   1   8
TORSDOF 11
ENDMDL
MODEL 4
REMARK VINA RESULT:    -3.673      3.955      6.268
REMARK INTER + INTRA:          -6.980
REMARK INTER:                  -6.502
REMARK INTRA:                  -0.478
REMARK UNBOUND:                -1.052
REMARK SMILES CCCCCCCCCCCCO
REMARK SMILES IDX 7 1 6 2 5 3 4 4 3 5 2 6 1 7 8 8 9 9 10 10 11 11 12 12 13 13
REMARK H PARENT 13 14
REMARK Flexibility Score: inf
ROOT
ATOM      1  C   UNL     1      -1.353   2.826 -24.700  1.00  0.00     0.000 C 
ENDROOT
BRANCH   1   2
ATOM      2  C   UNL     1      -0.590   1.522 -24.409  1.00  0.00    -0.000 C 
BRANCH   2   3
ATOM      3  C   UNL     1      -0.851   0.990 -22.990  1.00  0.00    -0.000 C 
BRANCH   3   4
ATOM      4  C   UNL     1       0.264   0.057 -22.484  1.00  0.00    -0.000 C 
BRANCH   4   5
ATOM      5  C   UNL     1       1.631   0.242 -23.167  1.00  0.00    -0.000 C 
BRANCH   5   6
ATOM      6  C   UNL     1       2.719  -0.675 -22.588  1.00  0.00    -0.003 C 
ATOM      7  C   UNL     1       2.122  -1.985 -22.083  1.00  0.00     0.004 C 
ENDBRANCH   5   6
ENDBRANCH   4   5
ENDBRANCH   3   4
ENDBRANCH   2   3
ENDBRANCH   1   2
BRANCH   1   8
ATOM      8  C   UNL     1      -1.611   3.658 -23.431  1.00  0.00     0.000 C 
BRANCH   8   9
ATOM      9  C   UNL     1      -3.109   3.797 -23.115  1.00  0.00     0.000 C 
BRANCH   9  10
ATOM     10  C   UNL     1      -3.570   2.834 -22.006  1.00  0.00     0.002 C 
BRANCH  10  11
ATOM     11  C   UNL     1      -4.965   3.184 -21.464  1.00  0.00     0.028 C 
BRANCH  11  12
ATOM     12  C   UNL     1      -5.077   2.987 -19.947  1.00  0.00     0.156 C 
BRANCH  12  13
ATOM     13  O   UNL     1      -3.832   2.624 -19.415  1.00  0.00    -0.396 OA
ATOM     14  H   UNL     1      -3.808   2.971 -18.485  1.00  0.00     0.210 HD
ENDBRANCH  12  13
ENDBRANCH  11  12
ENDBRANCH  10  11
ENDBRANCH   9  10
ENDBRANCH   8   9
ENDBRANCH   1   8
TORSDOF 11
ENDMDL
MODEL 5
REMARK VINA RESULT:    -3.560      2.849      3.467
REMARK INTER + INTRA:          -6.798
REMARK INTER:                  -6.135
REMARK INTRA:                  -0.663
REMARK UNBOUND:                -1.052
REMARK SMILES CCCCCCCCCCCCO
REMARK SMILES IDX 7 1 6 2 5 3 4 4 3 5 2 6 1 7 8 8 9 9 10 10 11 11 12 12 13 13
REMARK H PARENT 13 14
REMARK Flexibility Score: inf
ROOT
ATOM      1  C   UNL     1      -2.933   3.794 -23.235  1.00  0.00     0.000 C 
ENDROOT
BRANCH   1   2
ATOM      2  C   UNL     1      -3.851   4.553 -24.208  1.00  0.00    -0.000 C 
BRANCH   2   3
ATOM      3  C   UNL     1      -5.339   4.411 -23.846  1.00  0.00    -0.000 C 
BRANCH   3   4
ATOM      4  C   UNL     1      -5.562   3.983 -22.384  1.00  0.00    -0.000 C 
BRANCH   4   5
ATOM      5  C   UNL     1      -6.202   2.595 -22.199  1.00  0.00    -0.000 C 
BRANCH   5   6
ATOM      6  C   UNL     1      -5.575   1.794 -21.048  1.00  0.00    -0.003 C 
ATOM      7  C   UNL     1      -4.730   2.692 -20.150  1.00  0.00     0.004 C 
ENDBRANCH   5   6
ENDBRANCH   4   5
ENDBRANCH   3   4
ENDBRANCH   2   3
ENDBRANCH   1   2
BRANCH   1   8
ATOM      8  C   UNL     1      -1.491   3.665 -23.758  1.00  0.00     0.000 C 
BRANCH   8   9
ATOM      9  C   UNL     1      -1.361   2.605 -24.864  1.00  0.00     0.000 C 
BRANCH   9  10
ATOM     10  C   UNL     1      -0.399   1.466 -24.479  1.00  0.00     0.002 C 
BRANCH  10  11
ATOM     11  C   UNL     1      -0.704   0.882 -23.090  1.00  0.00     0.028 C 
BRANCH  11  12
ATOM     12  C   UNL     1       0.514   0.201 -22.454  1.00  0.00     0.156 C 
BRANCH  12  13
ATOM     13  O   UNL     1       0.104  -0.886 -21.670  1.00  0.00    -0.396 OA
ATOM     14  H   UNL     1      -0.885  -0.832 -21.604  1.00  0.00     0.210 HD
ENDBRANCH  12  13
ENDBRANCH  11  12
ENDBRANCH  10  11
ENDBRANCH   9  10
ENDBRANCH   8   9
ENDBRANCH   1   8
TORSDOF 11
ENDMDL
MODEL 6
REMARK VINA RESULT:    -3.535      4.517      5.755
REMARK INTER + INTRA:          -6.757
REMARK INTER:                  -6.299
REMARK INTRA:                  -0.457
REMARK UNBOUND:                -1.052
REMARK SMILES CCCCCCCCCCCCO
REMARK SMILES IDX 7 1 6 2 5 3 4 4 3 5 2 6 1 7 8 8 9 9 10 10 11 11 12 12 13 13
REMARK H PARENT 13 14
REMARK Flexibility Score: inf
ROOT
ATOM      1  C   UNL     1      -0.228   1.514 -24.310  1.00  0.00     0.000 C 
ENDROOT
BRANCH   1   2
ATOM      2  C   UNL     1      -1.215   2.367 -25.125  1.00  0.00    -0.000 C 
BRANCH   2   3
ATOM      3  C   UNL     1      -1.868   3.477 -24.285  1.00  0.00    -0.000 C 
BRANCH   3   4
ATOM      4  C   UNL     1      -2.065   3.077 -22.811  1.00  0.00    -0.000 C 
BRANCH   4   5
ATOM      5  C   UNL     1      -3.467   3.354 -22.240  1.00  0.00    -0.000 C 
BRANCH   5   6
ATOM      6  C   UNL     1      -4.021   2.183 -21.415  1.00  0.00    -0.003 C 
ATOM      7  C   UNL     1      -5.023   2.670 -20.373  1.00  0.00     0.004 C 
ENDBRANCH   5   6
ENDBRANCH   4   5
ENDBRANCH   3   4
ENDBRANCH   2   3
ENDBRANCH   1   2
BRANCH   1   8
ATOM      8  C   UNL     1       1.068   1.207 -25.081  1.00  0.00     0.000 C 
BRANCH   8   9
ATOM      9  C   UNL     1       2.141   0.558 -24.191  1.00  0.00     0.000 C 
BRANCH   9  10
ATOM     10  C   UNL     1       1.577   0.079 -22.842  1.00  0.00     0.002 C 
BRANCH  10  11
ATOM     11  C   UNL     1       2.496  -0.937 -22.146  1.00  0.00     0.028 C 
BRANCH  11  12
ATOM     12  C   UNL     1       1.762  -2.223 -21.747  1.00  0.00     0.156 C 
BRANCH  12  13
ATOM     13  O   UNL     1       0.584  -1.911 -21.055  1.00  0.00    -0.396 OA
ATOM     14  H   UNL     1       0.854  -1.650 -20.136  1.00  0.00     0.210 HD
ENDBRANCH  12  13
ENDBRANCH  11  12
ENDBRANCH  10  11
ENDBRANCH   9  10
ENDBRANCH   8   9
ENDBRANCH   1   8
TORSDOF 11
ENDMDL
MODEL 7
REMARK VINA RESULT:    -3.503      3.478      4.534
REMARK INTER + INTRA:          -6.706
REMARK INTER:                  -6.266
REMARK INTRA:                  -0.440
REMARK UNBOUND:                -1.052
REMARK SMILES CCCCCCCCCCCCO
REMARK SMILES IDX 7 1 6 2 5 3 4 4 3 5 2 6 1 7 8 8 9 9 10 10 11 11 12 12 13 13
REMARK H PARENT 13 14
REMARK Flexibility Score: inf
ROOT
ATOM      1  C   UNL     1      -1.858   3.064 -22.652  1.00  0.00     0.000 C 
ENDROOT
BRANCH   1   2
ATOM      2  C   UNL     1      -3.381   3.251 -22.545  1.00  0.00    -0.000 C 
BRANCH   2   3
ATOM      3  C   UNL     1      -3.958   2.654 -21.251  1.00  0.00    -0.000 C 
BRANCH   3   4
ATOM      4  C   UNL     1      -5.492   2.763 -21.172  1.00  0.00    -0.000 C 
BRANCH   4   5
ATOM      5  C   UNL     1      -6.118   3.845 -22.070  1.00  0.00    -0.000 C 
BRANCH   5   6
ATOM      6  C   UNL     1      -6.705   3.278 -23.371  1.00  0.00    -0.003 C 
ATOM      7  C   UNL     1      -7.725   2.181 -23.081  1.00  0.00     0.004 C 
ENDBRANCH   5   6
ENDBRANCH   4   5
ENDBRANCH   3   4
ENDBRANCH   2   3
ENDBRANCH   1   2
BRANCH   1   8
ATOM      8  C   UNL     1      -1.390   2.815 -24.097  1.00  0.00     0.000 C 
BRANCH   8   9
ATOM      9  C   UNL     1      -0.675   1.464 -24.259  1.00  0.00     0.000 C 
BRANCH   9  10
ATOM     10  C   UNL     1      -0.555   0.698 -22.930  1.00  0.00     0.002 C 
BRANCH  10  11
ATOM     11  C   UNL     1       0.905   0.513 -22.486  1.00  0.00     0.028 C 
BRANCH  11  12
ATOM     12  C   UNL     1       1.287  -0.961 -22.305  1.00  0.00     0.156 C 
BRANCH  12  13
ATOM     13  O   UNL     1       0.510  -1.539 -21.292  1.00  0.00    -0.396 OA
ATOM     14  H   UNL     1       0.232  -2.433 -21.622  1.00  0.00     0.210 HD
ENDBRANCH  12  13
ENDBRANCH  11  12
ENDBRANCH  10  11
ENDBRANCH   9  10
ENDBRANCH   8   9
ENDBRANCH   1   8
TORSDOF 11
ENDMDL
MODEL 8
REMARK VINA RESULT:    -3.474      6.317      8.317
REMARK INTER + INTRA:          -6.658
REMARK INTER:                  -6.428
REMARK INTRA:                  -0.230
REMARK UNBOUND:                -1.052
REMARK SMILES CCCCCCCCCCCCO
REMARK SMILES IDX 7 1 6 2 5 3 4 4 3 5 2 6 1 7 8 8 9 9 10 10 11 11 12 12 13 13
REMARK H PARENT 13 14
REMARK Flexibility Score: inf
ROOT
ATOM      1  C   UNL     1       0.363   0.564 -23.192  1.00  0.00     0.000 C 
ENDROOT
BRANCH   1   2
ATOM      2  C   UNL     1       0.932  -0.361 -22.103  1.00  0.00    -0.000 C 
BRANCH   2   3
ATOM      3  C   UNL     1       2.242  -1.042 -22.534  1.00  0.00    -0.000 C 
BRANCH   3   4
ATOM      4  C   UNL     1       2.262  -2.551 -22.231  1.00  0.00    -0.000 C 
BRANCH   4   5
ATOM      5  C   UNL     1       3.619  -3.106 -21.760  1.00  0.00    -0.000 C 
BRANCH   5   6
ATOM      6  C   UNL     1       3.826  -4.581 -22.136  1.00  0.00    -0.003 C 
ATOM      7  C   UNL     1       4.633  -5.312 -21.067  1.00  0.00     0.004 C 
ENDBRANCH   5   6
ENDBRANCH   4   5
ENDBRANCH   3   4
ENDBRANCH   2   3
ENDBRANCH   1   2
BRANCH   1   8
ATOM      8  C   UNL     1      -1.067   1.038 -22.880  1.00  0.00     0.000 C 
BRANCH   8   9
ATOM      9  C   UNL     1      -1.371   2.422 -23.475  1.00  0.00     0.000 C 
BRANCH   9  10
ATOM     10  C   UNL     1      -2.435   3.190 -22.670  1.00  0.00     0.002 C 
BRANCH  10  11
ATOM     11  C   UNL     1      -3.342   2.257 -21.853  1.00  0.00     0.028 C 
BRANCH  11  12
ATOM     12  C   UNL     1      -4.210   3.014 -20.840  1.00  0.00     0.156 C 
BRANCH  12  13
ATOM     13  O   UNL     1      -4.010   2.497 -19.552  1.00  0.00    -0.396 OA
ATOM     14  H   UNL     1      -4.270   1.539 -19.587  1.00  0.00     0.210 HD
ENDBRANCH  12  13
ENDBRANCH  11  12
ENDBRANCH  10  11
ENDBRANCH   9  10
ENDBRANCH   8   9
ENDBRANCH   1   8
TORSDOF 11
ENDMDL
MODEL 9
REMARK VINA RESULT:    -3.323      2.106      5.464
REMARK INTER + INTRA:          -6.415
REMARK INTER:                  -5.779
REMARK INTRA:                  -0.637
REMARK UNBOUND:                -1.052
REMARK SMILES CCCCCCCCCCCCO
REMARK SMILES IDX 7 1 6 2 5 3 4 4 3 5 2 6 1 7 8 8 9 9 10 10 11 11 12 12 13 13
REMARK H PARENT 13 14
REMARK Flexibility Score: inf
ROOT
ATOM      1  C   UNL     1      -3.788   2.523 -21.389  1.00  0.00     0.000 C 
ENDROOT
BRANCH   1   2
ATOM      2  C   UNL     1      -3.132   3.368 -22.495  1.00  0.00    -0.000 C 
BRANCH   2   3
ATOM      3  C   UNL     1      -1.757   2.823 -22.915  1.00  0.00    -0.000 C 
BRANCH   3   4
ATOM      4  C   UNL     1      -1.472   3.008 -24.417  1.00  0.00    -0.000 C 
BRANCH   4   5
ATOM      5  C   UNL     1      -1.612   4.451 -24.936  1.00  0.00    -0.000 C 
BRANCH   5   6
ATOM      6  C   UNL     1      -0.325   5.274 -24.775  1.00  0.00    -0.003 C 
ATOM      7  C   UNL     1      -0.519   6.408 -23.774  1.00  0.00     0.004 C 
ENDBRANCH   5   6
ENDBRANCH   4   5
ENDBRANCH   3   4
ENDBRANCH   2   3
ENDBRANCH   1   2
BRANCH   1   8
ATOM      8  C   UNL     1      -5.208   3.004 -21.039  1.00  0.00     0.000 C 
BRANCH   8   9
ATOM      9  C   UNL     1      -6.234   2.644 -22.125  1.00  0.00     0.000 C 
BRANCH   9  10
ATOM     10  C   UNL     1      -6.819   3.888 -22.818  1.00  0.00     0.002 C 
BRANCH  10  11
ATOM     11  C   UNL     1      -6.680   5.158 -21.965  1.00  0.00     0.028 C 
BRANCH  11  12
ATOM     12  C   UNL     1      -6.587   6.433 -22.812  1.00  0.00     0.156 C 
BRANCH  12  13
ATOM     13  O   UNL     1      -6.308   7.536 -21.993  1.00  0.00    -0.396 OA
ATOM     14  H   UNL     1      -6.483   7.250 -21.059  1.00  0.00     0.210 HD
ENDBRANCH  12  13
ENDBRANCH  11  12
ENDBRANCH  10  11
ENDBRANCH   9  10
ENDBRANCH   8   9
ENDBRANCH   1   8
TORSDOF 11
ENDMDL
