MODEL 1
REMARK VINA RESULT:     9.589      0.000      0.000
REMARK INTER + INTRA:          11.123
REMARK INTER:                  11.270
REMARK INTRA:                  -0.148
REMARK UNBOUND:                -0.148
REMARK SMILES O=c1c(O)c(-c2ccc(O)cc2)oc2cc(O)cc(O)c12
REMARK SMILES IDX 5 1 3 2 2 3 1 4 21 5 19 6 18 7 16 8 15 9 14 10 13 11 6 12
REMARK SMILES IDX 7 13 8 14 9 15 12 16 11 17 10 18 4 20 20 22 17 24
REMARK H PARENT 10 19 4 21 20 23 17 25
REMARK Flexibility Score: inf
ROOT
ATOM      1  C   UNL     1     142.018 173.868 174.212  1.00  0.00     0.180 A 
ATOM      2  C   UNL     1     142.048 174.636 175.389  1.00  0.00     0.208 A 
ATOM      3  C   UNL     1     141.851 173.998 176.623  1.00  0.00     0.238 A 
ATOM      4  O   UNL     1     141.932 174.683 177.677  1.00  0.00    -0.285 OA
ATOM      5  C   UNL     1     141.613 172.603 176.666  1.00  0.00     0.111 A 
ATOM      6  C   UNL     1     141.362 171.860 177.859  1.00  0.00     0.134 A 
ATOM      7  C   UNL     1     141.270 170.464 177.796  1.00  0.00     0.093 A 
ATOM      8  C   UNL     1     141.354 169.791 176.578  1.00  0.00     0.123 A 
ATOM      9  C   UNL     1     141.540 170.513 175.398  1.00  0.00     0.094 A 
ATOM     10  C   UNL     1     141.672 171.903 175.434  1.00  0.00     0.146 A 
ATOM     11  O   UNL     1     141.859 172.551 174.290  1.00  0.00    -0.452 OA
ENDROOT
BRANCH   1  12
ATOM     12  C   UNL     1     142.192 174.472 172.872  1.00  0.00     0.021 A 
ATOM     13  C   UNL     1     143.443 174.997 172.506  1.00  0.00     0.016 A 
ATOM     14  C   UNL     1     143.636 175.551 171.237  1.00  0.00     0.047 A 
ATOM     15  C   UNL     1     142.584 175.574 170.313  1.00  0.00     0.115 A 
ATOM     16  C   UNL     1     141.146 174.480 171.930  1.00  0.00     0.016 A 
ATOM     17  C   UNL     1     141.342 175.035 170.661  1.00  0.00     0.047 A 
BRANCH  15  18
ATOM     18  O   UNL     1     142.763 176.124 169.045  1.00  0.00    -0.508 OA
ATOM     19  H   UNL     1     142.943 175.542 168.236  1.00  0.00     0.293 HD
ENDBRANCH  15  18
ENDBRANCH   1  12
BRANCH   2  20
ATOM     20  O   UNL     1     142.306 176.008 175.325  1.00  0.00    -0.502 OA
ATOM     21  H   UNL     1     141.893 176.607 174.619  1.00  0.00     0.293 HD
ENDBRANCH   2  20
BRANCH   6  22
ATOM     22  O   UNL     1     141.169 172.442 179.115  1.00  0.00    -0.507 OA
ATOM     23  H   UNL     1     141.199 171.943 179.991  1.00  0.00     0.293 HD
ENDBRANCH   6  22
BRANCH   8  24
ATOM     24  O   UNL     1     141.242 168.402 176.551  1.00  0.00    -0.508 OA
ATOM     25  H   UNL     1     142.006 167.815 176.238  1.00  0.00     0.293 HD
ENDBRANCH   8  24
TORSDOF 5
ENDMDL
MODEL 2
REMARK VINA RESULT:     9.622      1.810      6.867
REMARK INTER + INTRA:          11.162
REMARK INTER:                  11.435
REMARK INTRA:                  -0.273
REMARK UNBOUND:                -0.148
REMARK SMILES O=c1c(O)c(-c2ccc(O)cc2)oc2cc(O)cc(O)c12
REMARK SMILES IDX 5 1 3 2 2 3 1 4 21 5 19 6 18 7 16 8 15 9 14 10 13 11 6 12
REMARK SMILES IDX 7 13 8 14 9 15 12 16 11 17 10 18 4 20 20 22 17 24
REMARK H PARENT 10 19 4 21 20 23 17 25
REMARK Flexibility Score: inf
ROOT
ATOM      1  C   UNL     1     142.249 174.486 173.783  1.00  0.00     0.180 A 
ATOM      2  C   UNL     1     143.432 175.101 173.338  1.00  0.00     0.208 A 
ATOM      3  C   UNL     1     143.518 175.524 172.003  1.00  0.00     0.238 A 
ATOM      4  O   UNL     1     144.559 176.123 171.625  1.00  0.00    -0.285 OA
ATOM      5  C   UNL     1     142.427 175.314 171.125  1.00  0.00     0.111 A 
ATOM      6  C   UNL     1     142.421 175.667 169.742  1.00  0.00     0.134 A 
ATOM      7  C   UNL     1     141.240 175.532 169.001  1.00  0.00     0.093 A 
ATOM      8  C   UNL     1     140.087 174.997 169.574  1.00  0.00     0.123 A 
ATOM      9  C   UNL     1     140.100 174.593 170.910  1.00  0.00     0.094 A 
ATOM     10  C   UNL     1     141.252 174.749 171.684  1.00  0.00     0.146 A 
ATOM     11  O   UNL     1     141.219 174.362 172.954  1.00  0.00    -0.452 OA
ENDROOT
BRANCH   1  12
ATOM     12  C   UNL     1     142.092 173.990 175.170  1.00  0.00     0.021 A 
ATOM     13  C   UNL     1     142.372 172.644 175.460  1.00  0.00     0.016 A 
ATOM     14  C   UNL     1     142.253 172.161 176.766  1.00  0.00     0.047 A 
ATOM     15  C   UNL     1     141.868 173.021 177.802  1.00  0.00     0.115 A 
ATOM     16  C   UNL     1     141.726 174.853 176.220  1.00  0.00     0.016 A 
ATOM     17  C   UNL     1     141.608 174.367 177.526  1.00  0.00     0.047 A 
BRANCH  15  18
ATOM     18  O   UNL     1     141.745 172.551 179.108  1.00  0.00    -0.508 OA
ATOM     19  H   UNL     1     141.108 172.981 179.768  1.00  0.00     0.293 HD
ENDBRANCH  15  18
ENDBRANCH   1  12
BRANCH   2  20
ATOM     20  O   UNL     1     144.488 175.318 174.228  1.00  0.00    -0.502 OA
ATOM     21  H   UNL     1     145.458 175.188 173.963  1.00  0.00     0.293 HD
ENDBRANCH   2  20
BRANCH   6  22
ATOM     22  O   UNL     1     143.544 176.125 169.048  1.00  0.00    -0.507 OA
ATOM     23  H   UNL     1     143.549 176.395 168.076  1.00  0.00     0.293 HD
ENDBRANCH   6  22
BRANCH   8  24
ATOM     24  O   UNL     1     138.935 174.862 168.802  1.00  0.00    -0.508 OA
ATOM     25  H   UNL     1     138.100 175.402 168.997  1.00  0.00     0.293 HD
ENDBRANCH   8  24
TORSDOF 5
ENDMDL
MODEL 3
REMARK VINA RESULT:    12.279      1.643      6.835
REMARK INTER + INTRA:          14.284
REMARK INTER:                  14.522
REMARK INTRA:                  -0.238
REMARK UNBOUND:                -0.148
REMARK SMILES O=c1c(O)c(-c2ccc(O)cc2)oc2cc(O)cc(O)c12
REMARK SMILES IDX 5 1 3 2 2 3 1 4 21 5 19 6 18 7 16 8 15 9 14 10 13 11 6 12
REMARK SMILES IDX 7 13 8 14 9 15 12 16 11 17 10 18 4 20 20 22 17 24
REMARK H PARENT 10 19 4 21 20 23 17 25
REMARK Flexibility Score: inf
ROOT
ATOM      1  C   UNL     1     142.483 173.982 174.534  1.00  0.00     0.180 A 
ATOM      2  C   UNL     1     143.831 174.369 174.455  1.00  0.00     0.208 A 
ATOM      3  C   UNL     1     144.291 175.003 173.290  1.00  0.00     0.238 A 
ATOM      4  O   UNL     1     145.486 175.396 173.247  1.00  0.00    -0.285 OA
ATOM      5  C   UNL     1     143.400 175.229 172.212  1.00  0.00     0.111 A 
ATOM      6  C   UNL     1     143.767 175.827 170.969  1.00  0.00     0.134 A 
ATOM      7  C   UNL     1     142.775 176.120 170.025  1.00  0.00     0.093 A 
ATOM      8  C   UNL     1     141.443 175.778 170.250  1.00  0.00     0.123 A 
ATOM      9  C   UNL     1     141.082 175.139 171.437  1.00  0.00     0.094 A 
ATOM     10  C   UNL     1     142.043 174.866 172.414  1.00  0.00     0.146 A 
ATOM     11  O   UNL     1     141.656 174.266 173.534  1.00  0.00    -0.452 OA
ENDROOT
BRANCH   1  12
ATOM     12  C   UNL     1     141.931 173.287 175.719  1.00  0.00     0.021 A 
ATOM     13  C   UNL     1     141.744 171.895 175.680  1.00  0.00     0.016 A 
ATOM     14  C   UNL     1     141.246 171.215 176.795  1.00  0.00     0.047 A 
ATOM     15  C   UNL     1     140.943 171.916 177.969  1.00  0.00     0.115 A 
ATOM     16  C   UNL     1     141.644 173.981 176.909  1.00  0.00     0.016 A 
ATOM     17  C   UNL     1     141.146 173.298 178.024  1.00  0.00     0.047 A 
BRANCH  15  18
ATOM     18  O   UNL     1     140.446 171.250 179.087  1.00  0.00    -0.508 OA
ATOM     19  H   UNL     1     139.455 171.071 179.200  1.00  0.00     0.293 HD
ENDBRANCH  15  18
ENDBRANCH   1  12
BRANCH   2  20
ATOM     20  O   UNL     1     144.688 174.157 175.539  1.00  0.00    -0.502 OA
ATOM     21  H   UNL     1     145.681 173.991 175.423  1.00  0.00     0.293 HD
ENDBRANCH   2  20
BRANCH   6  22
ATOM     22  O   UNL     1     145.083 176.125 170.605  1.00  0.00    -0.507 OA
ATOM     23  H   UNL     1     145.721 176.677 171.158  1.00  0.00     0.293 HD
ENDBRANCH   6  22
BRANCH   8  24
ATOM     24  O   UNL     1     140.484 176.070 169.281  1.00  0.00    -0.508 OA
ATOM     25  H   UNL     1     140.729 176.147 168.301  1.00  0.00     0.293 HD
ENDBRANCH   8  24
TORSDOF 5
ENDMDL
