MODEL 1
REMARK VINA RESULT:    -5.088      0.000      0.000
REMARK INTER + INTRA:          -9.240
REMARK INTER:                  -8.062
REMARK INTRA:                  -1.178
REMARK UNBOUND:                -1.178
REMARK SMILES CCCCCCCCCCCC(=O)[O-]
REMARK SMILES IDX 7 1 8 2 9 3 10 4 11 5 12 6 13 7 14 8 6 9 5 10 4 11 3 12 2 13
REMARK SMILES IDX 1 14
REMARK H PARENT
REMARK Flexibility Score: inf
ROOT
ATOM      1  C   UNL     1       9.761  21.463  -8.682  1.00  0.00     0.000 C 
ENDROOT
BRANCH   1   2
ATOM      2  C   UNL     1       8.660  22.366  -9.255  1.00  0.00     0.000 C 
BRANCH   2   3
ATOM      3  C   UNL     1       8.743  23.780  -8.659  1.00  0.00     0.000 C 
BRANCH   3   4
ATOM      4  C   UNL     1       7.360  24.414  -8.443  1.00  0.00     0.006 C 
BRANCH   4   5
ATOM      5  C   UNL     1       6.515  23.655  -7.411  1.00  0.00     0.053 C 
BRANCH   5   6
ATOM      6  C   UNL     1       6.929  24.027  -6.023  1.00  0.00     0.041 C 
ATOM      7  O   UNL     1       7.507  23.185  -5.286  1.00  0.00    -0.550 OA
ATOM      8  O   UNL     1       6.634  25.289  -5.524  1.00  0.00    -0.550 OA
ENDBRANCH   5   6
ENDBRANCH   4   5
ENDBRANCH   3   4
ENDBRANCH   2   3
ENDBRANCH   1   2
BRANCH   1   9
ATOM      9  C   UNL     1      10.007  21.693  -7.181  1.00  0.00     0.000 C 
BRANCH   9  10
ATOM     10  C   UNL     1      11.446  22.096  -6.810  1.00  0.00    -0.000 C 
BRANCH  10  11
ATOM     11  C   UNL     1      12.431  21.948  -7.979  1.00  0.00    -0.000 C 
BRANCH  11  12
ATOM     12  C   UNL     1      13.528  23.019  -7.910  1.00  0.00    -0.000 C 
BRANCH  12  13
ATOM     13  C   UNL     1      13.007  24.423  -8.256  1.00  0.00    -0.003 C 
ATOM     14  C   UNL     1      12.169  24.443  -9.533  1.00  0.00     0.004 C 
ENDBRANCH  12  13
ENDBRANCH  11  12
ENDBRANCH  10  11
ENDBRANCH   9  10
ENDBRANCH   1   9
TORSDOF 10
ENDMDL
MODEL 2
REMARK VINA RESULT:    -4.974      1.070      2.577
REMARK INTER + INTRA:          -9.059
REMARK INTER:                  -7.997
REMARK INTRA:                  -1.062
REMARK UNBOUND:                -1.178
REMARK SMILES CCCCCCCCCCCC(=O)[O-]
REMARK SMILES IDX 7 1 8 2 9 3 10 4 11 5 12 6 13 7 14 8 6 9 5 10 4 11 3 12 2 13
REMARK SMILES IDX 1 14
REMARK H PARENT
REMARK Flexibility Score: inf
ROOT
ATOM      1  C   UNL     1      10.452  23.994  -9.035  1.00  0.00     0.000 C 
ENDROOT
BRANCH   1   2
ATOM      2  C   UNL     1       9.676  22.934  -9.830  1.00  0.00     0.000 C 
BRANCH   2   3
ATOM      3  C   UNL     1       8.207  22.878  -9.383  1.00  0.00     0.000 C 
BRANCH   3   4
ATOM      4  C   UNL     1       7.816  24.065  -8.489  1.00  0.00     0.006 C 
BRANCH   4   5
ATOM      5  C   UNL     1       6.570  23.782  -7.640  1.00  0.00     0.053 C 
BRANCH   5   6
ATOM      6  C   UNL     1       6.823  24.136  -6.209  1.00  0.00     0.041 C 
ATOM      7  O   UNL     1       6.670  25.322  -5.813  1.00  0.00    -0.550 OA
ATOM      8  O   UNL     1       7.274  23.167  -5.322  1.00  0.00    -0.550 OA
ENDBRANCH   5   6
ENDBRANCH   4   5
ENDBRANCH   3   4
ENDBRANCH   2   3
ENDBRANCH   1   2
BRANCH   1   9
ATOM      9  C   UNL     1      11.978  23.861  -9.185  1.00  0.00     0.000 C 
BRANCH   9  10
ATOM     10  C   UNL     1      12.727  23.464  -7.900  1.00  0.00    -0.000 C 
BRANCH  10  11
ATOM     11  C   UNL     1      12.199  22.164  -7.275  1.00  0.00    -0.000 C 
BRANCH  11  12
ATOM     12  C   UNL     1      12.515  20.957  -8.170  1.00  0.00    -0.000 C 
BRANCH  12  13
ATOM     13  C   UNL     1      11.425  19.876  -8.112  1.00  0.00    -0.003 C 
ATOM     14  C   UNL     1      10.155  20.354  -7.412  1.00  0.00     0.004 C 
ENDBRANCH  12  13
ENDBRANCH  11  12
ENDBRANCH  10  11
ENDBRANCH   9  10
ENDBRANCH   1   9
TORSDOF 10
ENDMDL
MODEL 3
REMARK VINA RESULT:    -4.933      2.800      5.215
REMARK INTER + INTRA:          -8.995
REMARK INTER:                  -7.662
REMARK INTRA:                  -1.333
REMARK UNBOUND:                -1.178
REMARK SMILES CCCCCCCCCCCC(=O)[O-]
REMARK SMILES IDX 7 1 8 2 9 3 10 4 11 5 12 6 13 7 14 8 6 9 5 10 4 11 3 12 2 13
REMARK SMILES IDX 1 14
REMARK H PARENT
REMARK Flexibility Score: inf
ROOT
ATOM      1  C   UNL     1       8.321  21.805  -5.338  1.00  0.00     0.000 C 
ENDROOT
BRANCH   1   2
ATOM      2  C   UNL     1       9.732  21.910  -5.935  1.00  0.00     0.000 C 
BRANCH   2   3
ATOM      3  C   UNL     1       9.896  20.956  -7.128  1.00  0.00     0.000 C 
BRANCH   3   4
ATOM      4  C   UNL     1      10.425  21.666  -8.385  1.00  0.00     0.006 C 
BRANCH   4   5
ATOM      5  C   UNL     1      11.214  22.940  -8.057  1.00  0.00     0.053 C 
BRANCH   5   6
ATOM      6  C   UNL     1      11.614  23.644  -9.314  1.00  0.00     0.041 C 
ATOM      7  O   UNL     1      12.460  24.576  -9.277  1.00  0.00    -0.550 OA
ATOM      8  O   UNL     1      11.017  23.304 -10.522  1.00  0.00    -0.550 OA
ENDBRANCH   5   6
ENDBRANCH   4   5
ENDBRANCH   3   4
ENDBRANCH   2   3
ENDBRANCH   1   2
BRANCH   1   9
ATOM      9  C   UNL     1       7.576  23.152  -5.315  1.00  0.00     0.000 C 
BRANCH   9  10
ATOM     10  C   UNL     1       6.698  23.433  -6.547  1.00  0.00    -0.000 C 
BRANCH  10  11
ATOM     11  C   UNL     1       7.172  24.649  -7.357  1.00  0.00    -0.000 C 
BRANCH  11  12
ATOM     12  C   UNL     1       7.604  24.231  -8.770  1.00  0.00    -0.000 C 
BRANCH  12  13
ATOM     13  C   UNL     1       6.667  23.182  -9.389  1.00  0.00    -0.003 C 
ATOM     14  C   UNL     1       7.399  22.198 -10.299  1.00  0.00     0.004 C 
ENDBRANCH  12  13
ENDBRANCH  11  12
ENDBRANCH  10  11
ENDBRANCH   9  10
ENDBRANCH   1   9
TORSDOF 10
ENDMDL
MODEL 4
REMARK VINA RESULT:    -4.933      2.719      5.398
REMARK INTER + INTRA:          -8.995
REMARK INTER:                  -7.752
REMARK INTRA:                  -1.243
REMARK UNBOUND:                -1.178
REMARK SMILES CCCCCCCCCCCC(=O)[O-]
REMARK SMILES IDX 7 1 8 2 9 3 10 4 11 5 12 6 13 7 14 8 6 9 5 10 4 11 3 12 2 13
REMARK SMILES IDX 1 14
REMARK H PARENT
REMARK Flexibility Score: inf
ROOT
ATOM      1  C   UNL     1       7.672  22.299 -10.104  1.00  0.00     0.000 C 
ENDROOT
BRANCH   1   2
ATOM      2  C   UNL     1       9.133  22.653  -9.789  1.00  0.00     0.000 C 
BRANCH   2   3
ATOM      3  C   UNL     1       9.650  21.839  -8.593  1.00  0.00     0.000 C 
BRANCH   3   4
ATOM      4  C   UNL     1      10.637  22.630  -7.720  1.00  0.00     0.006 C 
BRANCH   4   5
ATOM      5  C   UNL     1      12.074  22.573  -8.252  1.00  0.00     0.053 C 
BRANCH   5   6
ATOM      6  C   UNL     1      12.572  23.950  -8.561  1.00  0.00     0.041 C 
ATOM      7  O   UNL     1      12.047  24.620  -9.489  1.00  0.00    -0.550 OA
ATOM      8  O   UNL     1      13.648  24.474  -7.856  1.00  0.00    -0.550 OA
ENDBRANCH   5   6
ENDBRANCH   4   5
ENDBRANCH   3   4
ENDBRANCH   2   3
ENDBRANCH   1   2
BRANCH   1   9
ATOM      9  C   UNL     1       6.663  23.211  -9.383  1.00  0.00     0.000 C 
BRANCH   9  10
ATOM     10  C   UNL     1       7.225  24.570  -8.925  1.00  0.00    -0.000 C 
BRANCH  10  11
ATOM     11  C   UNL     1       7.070  24.805  -7.415  1.00  0.00    -0.000 C 
BRANCH  11  12
ATOM     12  C   UNL     1       6.708  23.500  -6.692  1.00  0.00    -0.000 C 
BRANCH  12  13
ATOM     13  C   UNL     1       7.359  23.393  -5.304  1.00  0.00    -0.003 C 
ATOM     14  C   UNL     1       8.187  22.120  -5.135  1.00  0.00     0.004 C 
ENDBRANCH  12  13
ENDBRANCH  11  12
ENDBRANCH  10  11
ENDBRANCH   9  10
ENDBRANCH   1   9
TORSDOF 10
ENDMDL
MODEL 5
REMARK VINA RESULT:    -4.911      3.452      5.644
REMARK INTER + INTRA:          -8.960
REMARK INTER:                  -7.505
REMARK INTRA:                  -1.455
REMARK UNBOUND:                -1.178
REMARK SMILES CCCCCCCCCCCC(=O)[O-]
REMARK SMILES IDX 7 1 8 2 9 3 10 4 11 5 12 6 13 7 14 8 6 9 5 10 4 11 3 12 2 13
REMARK SMILES IDX 1 14
REMARK H PARENT
REMARK Flexibility Score: inf
ROOT
ATOM      1  C   UNL     1      11.348  23.040  -9.743  1.00  0.00     0.000 C 
ENDROOT
BRANCH   1   2
ATOM      2  C   UNL     1      12.044  24.379  -9.459  1.00  0.00     0.000 C 
BRANCH   2   3
ATOM      3  C   UNL     1      12.939  24.280  -8.214  1.00  0.00     0.000 C 
BRANCH   3   4
ATOM      4  C   UNL     1      13.316  22.830  -7.872  1.00  0.00     0.006 C 
BRANCH   4   5
ATOM      5  C   UNL     1      13.561  22.620  -6.372  1.00  0.00     0.053 C 
BRANCH   5   6
ATOM      6  C   UNL     1      14.922  23.111  -5.991  1.00  0.00     0.041 C 
ATOM      7  O   UNL     1      15.066  23.874  -5.000  1.00  0.00    -0.550 OA
ATOM      8  O   UNL     1      16.025  22.764  -6.760  1.00  0.00    -0.550 OA
ENDBRANCH   5   6
ENDBRANCH   4   5
ENDBRANCH   3   4
ENDBRANCH   2   3
ENDBRANCH   1   2
BRANCH   1   9
ATOM      9  C   UNL     1       9.814  23.156  -9.786  1.00  0.00     0.000 C 
BRANCH   9  10
ATOM     10  C   UNL     1       9.061  22.206  -8.837  1.00  0.00    -0.000 C 
BRANCH  10  11
ATOM     11  C   UNL     1       9.351  22.485  -7.355  1.00  0.00    -0.000 C 
BRANCH  11  12
ATOM     12  C   UNL     1      10.147  21.333  -6.725  1.00  0.00    -0.000 C 
BRANCH  12  13
ATOM     13  C   UNL     1      10.156  20.072  -7.604  1.00  0.00    -0.003 C 
ATOM     14  C   UNL     1      11.565  19.656  -8.024  1.00  0.00     0.004 C 
ENDBRANCH  12  13
ENDBRANCH  11  12
ENDBRANCH  10  11
ENDBRANCH   9  10
ENDBRANCH   1   9
TORSDOF 10
ENDMDL
MODEL 6
REMARK VINA RESULT:    -4.895      1.782      3.397
REMARK INTER + INTRA:          -8.935
REMARK INTER:                  -8.377
REMARK INTRA:                  -0.558
REMARK UNBOUND:                -1.178
REMARK SMILES CCCCCCCCCCCC(=O)[O-]
REMARK SMILES IDX 7 1 8 2 9 3 10 4 11 5 12 6 13 7 14 8 6 9 5 10 4 11 3 12 2 13
REMARK SMILES IDX 1 14
REMARK H PARENT
REMARK Flexibility Score: inf
ROOT
ATOM      1  C   UNL     1       5.317  22.204 -10.182  1.00  0.00     0.000 C 
ENDROOT
BRANCH   1   2
ATOM      2  C   UNL     1       4.507  23.223  -9.367  1.00  0.00     0.000 C 
BRANCH   2   3
ATOM      3  C   UNL     1       3.952  22.584  -8.084  1.00  0.00     0.000 C 
BRANCH   3   4
ATOM      4  C   UNL     1       4.749  22.984  -6.832  1.00  0.00     0.006 C 
BRANCH   4   5
ATOM      5  C   UNL     1       6.071  23.684  -7.170  1.00  0.00     0.053 C 
BRANCH   5   6
ATOM      6  C   UNL     1       6.781  24.092  -5.918  1.00  0.00     0.041 C 
ATOM      7  O   UNL     1       7.482  23.257  -5.286  1.00  0.00    -0.550 OA
ATOM      8  O   UNL     1       6.629  25.380  -5.421  1.00  0.00    -0.550 OA
ENDBRANCH   5   6
ENDBRANCH   4   5
ENDBRANCH   3   4
ENDBRANCH   2   3
ENDBRANCH   1   2
BRANCH   1   9
ATOM      9  C   UNL     1       6.674  22.754 -10.654  1.00  0.00     0.000 C 
BRANCH   9  10
ATOM     10  C   UNL     1       7.906  22.078 -10.025  1.00  0.00    -0.000 C 
BRANCH  10  11
ATOM     11  C   UNL     1       8.927  23.085  -9.473  1.00  0.00    -0.000 C 
BRANCH  11  12
ATOM     12  C   UNL     1      10.363  22.595  -9.711  1.00  0.00    -0.000 C 
BRANCH  12  13
ATOM     13  C   UNL     1      11.253  23.667 -10.359  1.00  0.00    -0.003 C 
ATOM     14  C   UNL     1      12.066  24.458  -9.336  1.00  0.00     0.004 C 
ENDBRANCH  12  13
ENDBRANCH  11  12
ENDBRANCH  10  11
ENDBRANCH   9  10
ENDBRANCH   1   9
TORSDOF 10
ENDMDL
MODEL 7
REMARK VINA RESULT:    -4.855      2.066      5.282
REMARK INTER + INTRA:          -8.871
REMARK INTER:                  -7.998
REMARK INTRA:                  -0.873
REMARK UNBOUND:                -1.178
REMARK SMILES CCCCCCCCCCCC(=O)[O-]
REMARK SMILES IDX 7 1 8 2 9 3 10 4 11 5 12 6 13 7 14 8 6 9 5 10 4 11 3 12 2 13
REMARK SMILES IDX 1 14
REMARK H PARENT
REMARK Flexibility Score: inf
ROOT
ATOM      1  C   UNL     1      10.967  23.310 -10.228  1.00  0.00     0.000 C 
ENDROOT
BRANCH   1   2
ATOM      2  C   UNL     1      11.452  24.371  -9.230  1.00  0.00     0.000 C 
BRANCH   2   3
ATOM      3  C   UNL     1      12.659  23.860  -8.427  1.00  0.00     0.000 C 
BRANCH   3   4
ATOM      4  C   UNL     1      12.519  22.382  -8.027  1.00  0.00     0.006 C 
BRANCH   4   5
ATOM      5  C   UNL     1      11.893  22.201  -6.638  1.00  0.00     0.053 C 
BRANCH   5   6
ATOM      6  C   UNL     1      10.607  21.445  -6.740  1.00  0.00     0.041 C 
ATOM      7  O   UNL     1      10.509  20.463  -7.522  1.00  0.00    -0.550 OA
ATOM      8  O   UNL     1       9.500  21.853  -6.006  1.00  0.00    -0.550 OA
ENDBRANCH   5   6
ENDBRANCH   4   5
ENDBRANCH   3   4
ENDBRANCH   2   3
ENDBRANCH   1   2
BRANCH   1   9
ATOM      9  C   UNL     1       9.558  22.782  -9.906  1.00  0.00     0.000 C 
BRANCH   9  10
ATOM     10  C   UNL     1       8.745  23.649  -8.928  1.00  0.00    -0.000 C 
BRANCH  10  11
ATOM     11  C   UNL     1       7.228  23.515  -9.126  1.00  0.00    -0.000 C 
BRANCH  11  12
ATOM     12  C   UNL     1       6.906  22.468 -10.203  1.00  0.00    -0.000 C 
BRANCH  12  13
ATOM     13  C   UNL     1       5.396  22.291 -10.423  1.00  0.00    -0.003 C 
ATOM     14  C   UNL     1       4.566  22.756  -9.228  1.00  0.00     0.004 C 
ENDBRANCH  12  13
ENDBRANCH  11  12
ENDBRANCH  10  11
ENDBRANCH   9  10
ENDBRANCH   1   9
TORSDOF 10
ENDMDL
MODEL 8
REMARK VINA RESULT:    -4.846      2.470      2.822
REMARK INTER + INTRA:          -8.857
REMARK INTER:                  -7.867
REMARK INTRA:                  -0.989
REMARK UNBOUND:                -1.178
REMARK SMILES CCCCCCCCCCCC(=O)[O-]
REMARK SMILES IDX 7 1 8 2 9 3 10 4 11 5 12 6 13 7 14 8 6 9 5 10 4 11 3 12 2 13
REMARK SMILES IDX 1 14
REMARK H PARENT
REMARK Flexibility Score: inf
ROOT
ATOM      1  C   UNL     1       9.658  21.976  -7.087  1.00  0.00     0.000 C 
ENDROOT
BRANCH   1   2
ATOM      2  C   UNL     1       8.848  22.872  -8.036  1.00  0.00     0.000 C 
BRANCH   2   3
ATOM      3  C   UNL     1       8.906  22.339  -9.476  1.00  0.00     0.000 C 
BRANCH   3   4
ATOM      4  C   UNL     1       7.537  22.371 -10.174  1.00  0.00     0.006 C 
BRANCH   4   5
ATOM      5  C   UNL     1       6.517  23.249  -9.438  1.00  0.00     0.053 C 
BRANCH   5   6
ATOM      6  C   UNL     1       5.152  23.064 -10.021  1.00  0.00     0.041 C 
ATOM      7  O   UNL     1       4.994  23.046 -11.270  1.00  0.00    -0.550 OA
ATOM      8  O   UNL     1       4.048  22.961  -9.185  1.00  0.00    -0.550 OA
ENDBRANCH   5   6
ENDBRANCH   4   5
ENDBRANCH   3   4
ENDBRANCH   2   3
ENDBRANCH   1   2
BRANCH   1   9
ATOM      9  C   UNL     1      10.393  20.838  -7.816  1.00  0.00     0.000 C 
BRANCH   9  10
ATOM     10  C   UNL     1      11.922  20.998  -7.900  1.00  0.00    -0.000 C 
BRANCH  10  11
ATOM     11  C   UNL     1      12.448  22.180  -7.072  1.00  0.00    -0.000 C 
BRANCH  11  12
ATOM     12  C   UNL     1      13.563  22.922  -7.823  1.00  0.00    -0.000 C 
BRANCH  12  13
ATOM     13  C   UNL     1      13.157  24.349  -8.223  1.00  0.00    -0.003 C 
ATOM     14  C   UNL     1      12.054  24.376  -9.280  1.00  0.00     0.004 C 
ENDBRANCH  12  13
ENDBRANCH  11  12
ENDBRANCH  10  11
ENDBRANCH   9  10
ENDBRANCH   1   9
TORSDOF 10
ENDMDL
MODEL 9
REMARK VINA RESULT:    -4.823      2.513      3.413
REMARK INTER + INTRA:          -8.820
REMARK INTER:                  -7.787
REMARK INTRA:                  -1.032
REMARK UNBOUND:                -1.178
REMARK SMILES CCCCCCCCCCCC(=O)[O-]
REMARK SMILES IDX 7 1 8 2 9 3 10 4 11 5 12 6 13 7 14 8 6 9 5 10 4 11 3 12 2 13
REMARK SMILES IDX 1 14
REMARK H PARENT
REMARK Flexibility Score: inf
ROOT
ATOM      1  C   UNL     1      10.764  23.197 -10.166  1.00  0.00     0.000 C 
ENDROOT
BRANCH   1   2
ATOM      2  C   UNL     1       9.305  22.825  -9.866  1.00  0.00     0.000 C 
BRANCH   2   3
ATOM      3  C   UNL     1       8.761  23.641  -8.684  1.00  0.00     0.000 C 
BRANCH   3   4
ATOM      4  C   UNL     1       7.227  23.726  -8.680  1.00  0.00     0.006 C 
BRANCH   4   5
ATOM      5  C   UNL     1       6.590  22.988  -9.864  1.00  0.00     0.053 C 
BRANCH   5   6
ATOM      6  C   UNL     1       5.133  23.313  -9.959  1.00  0.00     0.041 C 
ATOM      7  O   UNL     1       4.289  22.638  -9.310  1.00  0.00    -0.550 OA
ATOM      8  O   UNL     1       4.700  24.329 -10.801  1.00  0.00    -0.550 OA
ENDBRANCH   5   6
ENDBRANCH   4   5
ENDBRANCH   3   4
ENDBRANCH   2   3
ENDBRANCH   1   2
BRANCH   1   9
ATOM      9  C   UNL     1      11.373  24.138  -9.111  1.00  0.00     0.000 C 
BRANCH   9  10
ATOM     10  C   UNL     1      12.513  23.529  -8.274  1.00  0.00    -0.000 C 
BRANCH  10  11
ATOM     11  C   UNL     1      12.072  22.301  -7.465  1.00  0.00    -0.000 C 
BRANCH  11  12
ATOM     12  C   UNL     1      12.566  21.004  -8.124  1.00  0.00    -0.000 C 
BRANCH  12  13
ATOM     13  C   UNL     1      11.499  19.899  -8.126  1.00  0.00    -0.003 C 
ATOM     14  C   UNL     1      10.189  20.340  -7.475  1.00  0.00     0.004 C 
ENDBRANCH  12  13
ENDBRANCH  11  12
ENDBRANCH  10  11
ENDBRANCH   9  10
ENDBRANCH   1   9
TORSDOF 10
ENDMDL
