MODEL 1
REMARK VINA RESULT:    -3.725      0.000      0.000
REMARK INTER + INTRA:          -9.087
REMARK INTER:                  -6.775
REMARK INTRA:                  -2.312
REMARK UNBOUND:                -2.312
REMARK SMILES CCCCCCCCCCCCCCCC(=O)[O-]
REMARK SMILES IDX 9 1 10 2 11 3 12 4 13 5 14 6 15 7 16 8 17 9 18 10 8 11 7 12
REMARK SMILES IDX 6 13 5 14 4 15 3 16 2 17 1 18
REMARK H PARENT
REMARK Flexibility Score: inf
ROOT
ATOM      1  C   UNL     1       9.052 -28.328 -28.176  1.00  0.00     0.000 C 
ENDROOT
BRANCH   1   2
ATOM      2  C   UNL     1       8.490 -27.276 -27.203  1.00  0.00     0.000 C 
BRANCH   2   3
ATOM      3  C   UNL     1       9.591 -26.592 -26.376  1.00  0.00     0.000 C 
BRANCH   3   4
ATOM      4  C   UNL     1      10.310 -25.477 -27.152  1.00  0.00     0.000 C 
BRANCH   4   5
ATOM      5  C   UNL     1      11.832 -25.652 -27.078  1.00  0.00     0.000 C 
BRANCH   5   6
ATOM      6  C   UNL     1      12.201 -27.026 -26.500  1.00  0.00     0.006 C 
BRANCH   6   7
ATOM      7  C   UNL     1      13.134 -27.815 -27.429  1.00  0.00     0.053 C 
BRANCH   7   8
ATOM      8  C   UNL     1      14.521 -27.909 -26.872  1.00  0.00     0.041 C 
ATOM      9  O   UNL     1      15.267 -26.896 -26.850  1.00  0.00    -0.550 OA
ATOM     10  O   UNL     1      14.979 -29.111 -26.347  1.00  0.00    -0.550 OA
ENDBRANCH   7   8
ENDBRANCH   6   7
ENDBRANCH   5   6
ENDBRANCH   4   5
ENDBRANCH   3   4
ENDBRANCH   2   3
ENDBRANCH   1   2
BRANCH   1  11
ATOM     11  C   UNL     1       9.148 -27.814 -29.625  1.00  0.00     0.000 C 
BRANCH  11  12
ATOM     12  C   UNL     1      10.573 -27.748 -30.201  1.00  0.00    -0.000 C 
BRANCH  12  13
ATOM     13  C   UNL     1      10.873 -26.414 -30.904  1.00  0.00    -0.000 C 
BRANCH  13  14
ATOM     14  C   UNL     1       9.731 -25.394 -30.761  1.00  0.00    -0.000 C 
BRANCH  14  15
ATOM     15  C   UNL     1      10.222 -23.935 -30.638  1.00  0.00    -0.000 C 
BRANCH  15  16
ATOM     16  C   UNL     1      11.710 -23.854 -30.251  1.00  0.00    -0.000 C 
BRANCH  16  17
ATOM     17  C   UNL     1      12.537 -23.038 -31.258  1.00  0.00    -0.003 C 
ATOM     18  C   UNL     1      12.103 -23.268 -32.704  1.00  0.00     0.004 C 
ENDBRANCH  16  17
ENDBRANCH  15  16
ENDBRANCH  14  15
ENDBRANCH  13  14
ENDBRANCH  12  13
ENDBRANCH  11  12
ENDBRANCH   1  11
TORSDOF 14
ENDMDL
MODEL 2
REMARK VINA RESULT:    -3.712      2.522      3.815
REMARK INTER + INTRA:          -9.062
REMARK INTER:                  -6.753
REMARK INTRA:                  -2.310
REMARK UNBOUND:                -2.312
REMARK SMILES CCCCCCCCCCCCCCCC(=O)[O-]
REMARK SMILES IDX 9 1 10 2 11 3 12 4 13 5 14 6 15 7 16 8 17 9 18 10 8 11 7 12
REMARK SMILES IDX 6 13 5 14 4 15 3 16 2 17 1 18
REMARK H PARENT
REMARK Flexibility Score: inf
ROOT
ATOM      1  C   UNL     1      11.334 -29.494 -28.078  1.00  0.00     0.000 C 
ENDROOT
BRANCH   1   2
ATOM      2  C   UNL     1      11.889 -29.128 -26.690  1.00  0.00     0.000 C 
BRANCH   2   3
ATOM      3  C   UNL     1      12.945 -28.012 -26.753  1.00  0.00     0.000 C 
BRANCH   3   4
ATOM      4  C   UNL     1      12.460 -26.780 -27.533  1.00  0.00     0.000 C 
BRANCH   4   5
ATOM      5  C   UNL     1      11.937 -25.698 -26.580  1.00  0.00     0.000 C 
BRANCH   5   6
ATOM      6  C   UNL     1      10.425 -25.494 -26.755  1.00  0.00     0.006 C 
BRANCH   6   7
ATOM      7  C   UNL     1       9.609 -26.305 -25.741  1.00  0.00     0.053 C 
BRANCH   7   8
ATOM      8  C   UNL     1       9.706 -25.728 -24.362  1.00  0.00     0.041 C 
ATOM      9  O   UNL     1      10.280 -26.370 -23.444  1.00  0.00    -0.550 OA
ATOM     10  O   UNL     1       9.190 -24.465 -24.099  1.00  0.00    -0.550 OA
ENDBRANCH   7   8
ENDBRANCH   6   7
ENDBRANCH   5   6
ENDBRANCH   4   5
ENDBRANCH   3   4
ENDBRANCH   2   3
ENDBRANCH   1   2
BRANCH   1  11
ATOM     11  C   UNL     1       9.875 -29.984 -28.031  1.00  0.00     0.000 C 
BRANCH  11  12
ATOM     12  C   UNL     1       8.991 -29.515 -29.200  1.00  0.00    -0.000 C 
BRANCH  12  13
ATOM     13  C   UNL     1       8.335 -28.148 -28.943  1.00  0.00    -0.000 C 
BRANCH  13  14
ATOM     14  C   UNL     1       9.177 -26.973 -29.468  1.00  0.00    -0.000 C 
BRANCH  14  15
ATOM     15  C   UNL     1      10.097 -27.355 -30.648  1.00  0.00    -0.000 C 
BRANCH  15  16
ATOM     16  C   UNL     1      11.000 -26.187 -31.082  1.00  0.00    -0.000 C 
BRANCH  16  17
ATOM     17  C   UNL     1      10.599 -24.856 -30.424  1.00  0.00    -0.003 C 
ATOM     18  C   UNL     1      11.802 -23.975 -30.091  1.00  0.00     0.004 C 
ENDBRANCH  16  17
ENDBRANCH  15  16
ENDBRANCH  14  15
ENDBRANCH  13  14
ENDBRANCH  12  13
ENDBRANCH  11  12
ENDBRANCH   1  11
TORSDOF 14
ENDMDL
MODEL 3
REMARK VINA RESULT:    -3.687      3.480      4.186
REMARK INTER + INTRA:          -9.017
REMARK INTER:                  -7.731
REMARK INTRA:                  -1.286
REMARK UNBOUND:                -2.312
REMARK SMILES CCCCCCCCCCCCCCCC(=O)[O-]
REMARK SMILES IDX 9 1 10 2 11 3 12 4 13 5 14 6 15 7 16 8 17 9 18 10 8 11 7 12
REMARK SMILES IDX 6 13 5 14 4 15 3 16 2 17 1 18
REMARK H PARENT
REMARK Flexibility Score: inf
ROOT
ATOM      1  C   UNL     1       8.627 -28.366 -28.069  1.00  0.00     0.000 C 
ENDROOT
BRANCH   1   2
ATOM      2  C   UNL     1       8.413 -27.087 -27.240  1.00  0.00     0.000 C 
BRANCH   2   3
ATOM      3  C   UNL     1       9.481 -26.908 -26.149  1.00  0.00     0.000 C 
BRANCH   3   4
ATOM      4  C   UNL     1      10.443 -25.746 -26.443  1.00  0.00     0.000 C 
BRANCH   4   5
ATOM      5  C   UNL     1      10.536 -24.794 -25.245  1.00  0.00     0.000 C 
BRANCH   5   6
ATOM      6  C   UNL     1       9.443 -25.101 -24.211  1.00  0.00     0.006 C 
BRANCH   6   7
ATOM      7  C   UNL     1       9.932 -24.897 -22.771  1.00  0.00     0.053 C 
BRANCH   7   8
ATOM      8  C   UNL     1       9.373 -23.646 -22.168  1.00  0.00     0.041 C 
ATOM      9  O   UNL     1       9.223 -23.554 -20.921  1.00  0.00    -0.550 OA
ATOM     10  O   UNL     1       9.044 -22.568 -22.980  1.00  0.00    -0.550 OA
ENDBRANCH   7   8
ENDBRANCH   6   7
ENDBRANCH   5   6
ENDBRANCH   4   5
ENDBRANCH   3   4
ENDBRANCH   2   3
ENDBRANCH   1   2
BRANCH   1  11
ATOM     11  C   UNL     1       8.988 -28.075 -29.538  1.00  0.00     0.000 C 
BRANCH  11  12
ATOM     12  C   UNL     1      10.467 -27.732 -29.790  1.00  0.00    -0.000 C 
BRANCH  12  13
ATOM     13  C   UNL     1      10.653 -26.421 -30.572  1.00  0.00    -0.000 C 
BRANCH  13  14
ATOM     14  C   UNL     1       9.763 -25.282 -30.048  1.00  0.00    -0.000 C 
BRANCH  14  15
ATOM     15  C   UNL     1       9.537 -24.154 -31.078  1.00  0.00    -0.000 C 
BRANCH  15  16
ATOM     16  C   UNL     1      10.650 -24.107 -32.140  1.00  0.00    -0.000 C 
BRANCH  16  17
ATOM     17  C   UNL     1      11.768 -23.116 -31.778  1.00  0.00    -0.003 C 
ATOM     18  C   UNL     1      11.240 -21.842 -31.122  1.00  0.00     0.004 C 
ENDBRANCH  16  17
ENDBRANCH  15  16
ENDBRANCH  14  15
ENDBRANCH  13  14
ENDBRANCH  12  13
ENDBRANCH  11  12
ENDBRANCH   1  11
TORSDOF 14
ENDMDL
MODEL 4
REMARK VINA RESULT:    -3.680      2.306      5.457
REMARK INTER + INTRA:          -9.003
REMARK INTER:                  -7.046
REMARK INTRA:                  -1.957
REMARK UNBOUND:                -2.312
REMARK SMILES CCCCCCCCCCCCCCCC(=O)[O-]
REMARK SMILES IDX 9 1 10 2 11 3 12 4 13 5 14 6 15 7 16 8 17 9 18 10 8 11 7 12
REMARK SMILES IDX 6 13 5 14 4 15 3 16 2 17 1 18
REMARK H PARENT
REMARK Flexibility Score: inf
ROOT
ATOM      1  C   UNL     1      11.086 -25.946 -30.302  1.00  0.00     0.000 C 
ENDROOT
BRANCH   1   2
ATOM      2  C   UNL     1       9.906 -24.999 -30.018  1.00  0.00     0.000 C 
BRANCH   2   3
ATOM      3  C   UNL     1       9.360 -24.340 -31.295  1.00  0.00     0.000 C 
BRANCH   3   4
ATOM      4  C   UNL     1      10.177 -24.700 -32.546  1.00  0.00     0.000 C 
BRANCH   4   5
ATOM      5  C   UNL     1      10.845 -23.455 -33.142  1.00  0.00     0.000 C 
BRANCH   5   6
ATOM      6  C   UNL     1      12.318 -23.364 -32.718  1.00  0.00     0.006 C 
BRANCH   6   7
ATOM      7  C   UNL     1      12.542 -22.321 -31.615  1.00  0.00     0.053 C 
BRANCH   7   8
ATOM      8  C   UNL     1      13.820 -22.565 -30.874  1.00  0.00     0.041 C 
ATOM      9  O   UNL     1      13.800 -22.831 -29.643  1.00  0.00    -0.550 OA
ATOM     10  O   UNL     1      15.034 -22.528 -31.549  1.00  0.00    -0.550 OA
ENDBRANCH   7   8
ENDBRANCH   6   7
ENDBRANCH   5   6
ENDBRANCH   4   5
ENDBRANCH   3   4
ENDBRANCH   2   3
ENDBRANCH   1   2
BRANCH   1  11
ATOM     11  C   UNL     1      10.695 -27.433 -30.218  1.00  0.00     0.000 C 
BRANCH  11  12
ATOM     12  C   UNL     1       9.305 -27.709 -29.620  1.00  0.00    -0.000 C 
BRANCH  12  13
ATOM     13  C   UNL     1       9.359 -28.089 -28.131  1.00  0.00    -0.000 C 
BRANCH  13  14
ATOM     14  C   UNL     1       8.495 -27.173 -27.248  1.00  0.00    -0.000 C 
BRANCH  14  15
ATOM     15  C   UNL     1       9.270 -26.547 -26.068  1.00  0.00    -0.000 C 
BRANCH  15  16
ATOM     16  C   UNL     1      10.491 -25.737 -26.539  1.00  0.00    -0.000 C 
BRANCH  16  17
ATOM     17  C   UNL     1      11.820 -26.337 -26.052  1.00  0.00    -0.003 C 
ATOM     18  C   UNL     1      12.778 -26.659 -27.197  1.00  0.00     0.004 C 
ENDBRANCH  16  17
ENDBRANCH  15  16
ENDBRANCH  14  15
ENDBRANCH  13  14
ENDBRANCH  12  13
ENDBRANCH  11  12
ENDBRANCH   1  11
TORSDOF 14
ENDMDL
MODEL 5
REMARK VINA RESULT:    -3.657      4.367      5.207
REMARK INTER + INTRA:          -8.963
REMARK INTER:                  -7.831
REMARK INTRA:                  -1.132
REMARK UNBOUND:                -2.312
REMARK SMILES CCCCCCCCCCCCCCCC(=O)[O-]
REMARK SMILES IDX 9 1 10 2 11 3 12 4 13 5 14 6 15 7 16 8 17 9 18 10 8 11 7 12
REMARK SMILES IDX 6 13 5 14 4 15 3 16 2 17 1 18
REMARK H PARENT
REMARK Flexibility Score: inf
ROOT
ATOM      1  C   UNL     1       9.475 -27.270 -26.630  1.00  0.00     0.000 C 
ENDROOT
BRANCH   1   2
ATOM      2  C   UNL     1       9.854 -25.852 -26.166  1.00  0.00     0.000 C 
BRANCH   2   3
ATOM      3  C   UNL     1       9.451 -25.583 -24.707  1.00  0.00     0.000 C 
BRANCH   3   4
ATOM      4  C   UNL     1       9.896 -24.197 -24.214  1.00  0.00     0.000 C 
BRANCH   4   5
ATOM      5  C   UNL     1       9.090 -23.768 -22.982  1.00  0.00     0.000 C 
BRANCH   5   6
ATOM      6  C   UNL     1       9.954 -23.815 -21.714  1.00  0.00     0.006 C 
BRANCH   6   7
ATOM      7  C   UNL     1       9.108 -23.919 -20.439  1.00  0.00     0.053 C 
BRANCH   7   8
ATOM      8  C   UNL     1       9.116 -25.308 -19.880  1.00  0.00     0.041 C 
ATOM      9  O   UNL     1      10.136 -26.036 -20.002  1.00  0.00    -0.550 OA
ATOM     10  O   UNL     1       8.007 -25.790 -19.196  1.00  0.00    -0.550 OA
ENDBRANCH   7   8
ENDBRANCH   6   7
ENDBRANCH   5   6
ENDBRANCH   4   5
ENDBRANCH   3   4
ENDBRANCH   2   3
ENDBRANCH   1   2
BRANCH   1  11
ATOM     11  C   UNL     1       8.215 -27.296 -27.515  1.00  0.00     0.000 C 
BRANCH  11  12
ATOM     12  C   UNL     1       8.345 -28.117 -28.810  1.00  0.00    -0.000 C 
BRANCH  12  13
ATOM     13  C   UNL     1       9.806 -28.340 -29.233  1.00  0.00    -0.000 C 
BRANCH  13  14
ATOM     14  C   UNL     1      10.253 -27.394 -30.359  1.00  0.00    -0.000 C 
BRANCH  14  15
ATOM     15  C   UNL     1      10.977 -26.129 -29.848  1.00  0.00    -0.000 C 
BRANCH  15  16
ATOM     16  C   UNL     1      10.026 -24.925 -29.726  1.00  0.00    -0.000 C 
BRANCH  16  17
ATOM     17  C   UNL     1       9.514 -24.437 -31.091  1.00  0.00    -0.003 C 
ATOM     18  C   UNL     1      10.639 -23.958 -32.007  1.00  0.00     0.004 C 
ENDBRANCH  16  17
ENDBRANCH  15  16
ENDBRANCH  14  15
ENDBRANCH  13  14
ENDBRANCH  12  13
ENDBRANCH  11  12
ENDBRANCH   1  11
TORSDOF 14
ENDMDL
MODEL 6
REMARK VINA RESULT:    -3.613      2.776      5.527
REMARK INTER + INTRA:          -8.882
REMARK INTER:                  -6.592
REMARK INTRA:                  -2.290
REMARK UNBOUND:                -2.312
REMARK SMILES CCCCCCCCCCCCCCCC(=O)[O-]
REMARK SMILES IDX 9 1 10 2 11 3 12 4 13 5 14 6 15 7 16 8 17 9 18 10 8 11 7 12
REMARK SMILES IDX 6 13 5 14 4 15 3 16 2 17 1 18
REMARK H PARENT
REMARK Flexibility Score: inf
ROOT
ATOM      1  C   UNL     1       8.414 -27.098 -27.660  1.00  0.00     0.000 C 
ENDROOT
BRANCH   1   2
ATOM      2  C   UNL     1       8.844 -28.527 -28.040  1.00  0.00     0.000 C 
BRANCH   2   3
ATOM      3  C   UNL     1       9.867 -28.548 -29.186  1.00  0.00     0.000 C 
BRANCH   3   4
ATOM      4  C   UNL     1       9.582 -27.483 -30.257  1.00  0.00     0.000 C 
BRANCH   4   5
ATOM      5  C   UNL     1      10.874 -27.057 -30.964  1.00  0.00     0.000 C 
BRANCH   5   6
ATOM      6  C   UNL     1      10.635 -25.830 -31.856  1.00  0.00     0.006 C 
BRANCH   6   7
ATOM      7  C   UNL     1      10.263 -24.584 -31.042  1.00  0.00     0.053 C 
BRANCH   7   8
ATOM      8  C   UNL     1      11.158 -23.426 -31.362  1.00  0.00     0.041 C 
ATOM      9  O   UNL     1      10.995 -22.319 -30.784  1.00  0.00    -0.550 OA
ATOM     10  O   UNL     1      12.192 -23.578 -32.276  1.00  0.00    -0.550 OA
ENDBRANCH   7   8
ENDBRANCH   6   7
ENDBRANCH   5   6
ENDBRANCH   4   5
ENDBRANCH   3   4
ENDBRANCH   2   3
ENDBRANCH   1   2
BRANCH   1  11
ATOM     11  C   UNL     1       8.873 -26.690 -26.248  1.00  0.00     0.000 C 
BRANCH  11  12
ATOM     12  C   UNL     1      10.271 -26.051 -26.175  1.00  0.00    -0.000 C 
BRANCH  12  13
ATOM     13  C   UNL     1      10.645 -25.284 -27.454  1.00  0.00    -0.000 C 
BRANCH  13  14
ATOM     14  C   UNL     1      12.086 -25.559 -27.916  1.00  0.00    -0.000 C 
BRANCH  14  15
ATOM     15  C   UNL     1      12.898 -26.415 -26.920  1.00  0.00    -0.000 C 
BRANCH  15  16
ATOM     16  C   UNL     1      13.259 -27.794 -27.499  1.00  0.00    -0.000 C 
BRANCH  16  17
ATOM     17  C   UNL     1      12.561 -28.946 -26.757  1.00  0.00    -0.003 C 
ATOM     18  C   UNL     1      13.526 -29.773 -25.909  1.00  0.00     0.004 C 
ENDBRANCH  16  17
ENDBRANCH  15  16
ENDBRANCH  14  15
ENDBRANCH  13  14
ENDBRANCH  12  13
ENDBRANCH  11  12
ENDBRANCH   1  11
TORSDOF 14
ENDMDL
MODEL 7
REMARK VINA RESULT:    -3.587      3.047      5.492
REMARK INTER + INTRA:          -8.835
REMARK INTER:                  -6.869
REMARK INTRA:                  -1.966
REMARK UNBOUND:                -2.312
REMARK SMILES CCCCCCCCCCCCCCCC(=O)[O-]
REMARK SMILES IDX 9 1 10 2 11 3 12 4 13 5 14 6 15 7 16 8 17 9 18 10 8 11 7 12
REMARK SMILES IDX 6 13 5 14 4 15 3 16 2 17 1 18
REMARK H PARENT
REMARK Flexibility Score: inf
ROOT
ATOM      1  C   UNL     1       9.573 -29.460 -28.288  1.00  0.00     0.000 C 
ENDROOT
BRANCH   1   2
ATOM      2  C   UNL     1       9.002 -28.705 -29.501  1.00  0.00     0.000 C 
BRANCH   2   3
ATOM      3  C   UNL     1       9.499 -27.252 -29.578  1.00  0.00     0.000 C 
BRANCH   3   4
ATOM      4  C   UNL     1      10.537 -27.038 -30.691  1.00  0.00     0.000 C 
BRANCH   4   5
ATOM      5  C   UNL     1      10.357 -25.666 -31.352  1.00  0.00     0.000 C 
BRANCH   5   6
ATOM      6  C   UNL     1      10.330 -24.547 -30.301  1.00  0.00     0.006 C 
BRANCH   6   7
ATOM      7  C   UNL     1      11.650 -23.767 -30.249  1.00  0.00     0.053 C 
BRANCH   7   8
ATOM      8  C   UNL     1      11.602 -22.539 -31.105  1.00  0.00     0.041 C 
ATOM      9  O   UNL     1      11.572 -21.397 -30.575  1.00  0.00    -0.550 OA
ATOM     10  O   UNL     1      11.620 -22.654 -32.489  1.00  0.00    -0.550 OA
ENDBRANCH   7   8
ENDBRANCH   6   7
ENDBRANCH   5   6
ENDBRANCH   4   5
ENDBRANCH   3   4
ENDBRANCH   2   3
ENDBRANCH   1   2
BRANCH   1  11
ATOM     11  C   UNL     1      11.113 -29.484 -28.267  1.00  0.00     0.000 C 
BRANCH  11  12
ATOM     12  C   UNL     1      11.762 -28.711 -27.106  1.00  0.00    -0.000 C 
BRANCH  12  13
ATOM     13  C   UNL     1      12.933 -27.823 -27.559  1.00  0.00    -0.000 C 
BRANCH  13  14
ATOM     14  C   UNL     1      12.551 -26.337 -27.660  1.00  0.00    -0.000 C 
BRANCH  14  15
ATOM     15  C   UNL     1      11.829 -25.801 -26.404  1.00  0.00    -0.000 C 
BRANCH  15  16
ATOM     16  C   UNL     1      10.341 -25.511 -26.669  1.00  0.00    -0.000 C 
BRANCH  16  17
ATOM     17  C   UNL     1       9.423 -26.099 -25.585  1.00  0.00    -0.003 C 
ATOM     18  C   UNL     1       9.964 -25.885 -24.172  1.00  0.00     0.004 C 
ENDBRANCH  16  17
ENDBRANCH  15  16
ENDBRANCH  14  15
ENDBRANCH  13  14
ENDBRANCH  12  13
ENDBRANCH  11  12
ENDBRANCH   1  11
TORSDOF 14
ENDMDL
MODEL 8
REMARK VINA RESULT:    -3.580      2.844      5.385
REMARK INTER + INTRA:          -8.822
REMARK INTER:                  -6.700
REMARK INTRA:                  -2.123
REMARK UNBOUND:                -2.312
REMARK SMILES CCCCCCCCCCCCCCCC(=O)[O-]
REMARK SMILES IDX 9 1 10 2 11 3 12 4 13 5 14 6 15 7 16 8 17 9 18 10 8 11 7 12
REMARK SMILES IDX 6 13 5 14 4 15 3 16 2 17 1 18
REMARK H PARENT
REMARK Flexibility Score: inf
ROOT
ATOM      1  C   UNL     1       9.817 -29.888 -27.879  1.00  0.00     0.000 C 
ENDROOT
BRANCH   1   2
ATOM      2  C   UNL     1       8.800 -29.650 -29.009  1.00  0.00     0.000 C 
BRANCH   2   3
ATOM      3  C   UNL     1       8.342 -28.184 -29.089  1.00  0.00     0.000 C 
BRANCH   3   4
ATOM      4  C   UNL     1       8.541 -27.427 -27.767  1.00  0.00     0.000 C 
BRANCH   4   5
ATOM      5  C   UNL     1       9.484 -26.233 -27.955  1.00  0.00     0.000 C 
BRANCH   5   6
ATOM      6  C   UNL     1       9.588 -25.841 -29.436  1.00  0.00     0.006 C 
BRANCH   6   7
ATOM      7  C   UNL     1      11.043 -25.778 -29.920  1.00  0.00     0.053 C 
BRANCH   7   8
ATOM      8  C   UNL     1      11.133 -25.840 -31.413  1.00  0.00     0.041 C 
ATOM      9  O   UNL     1      11.051 -26.947 -32.009  1.00  0.00    -0.550 OA
ATOM     10  O   UNL     1      11.279 -24.673 -32.151  1.00  0.00    -0.550 OA
ENDBRANCH   7   8
ENDBRANCH   6   7
ENDBRANCH   5   6
ENDBRANCH   4   5
ENDBRANCH   3   4
ENDBRANCH   2   3
ENDBRANCH   1   2
BRANCH   1  11
ATOM     11  C   UNL     1      11.268 -29.600 -28.307  1.00  0.00     0.000 C 
BRANCH  11  12
ATOM     12  C   UNL     1      12.195 -29.111 -27.180  1.00  0.00    -0.000 C 
BRANCH  12  13
ATOM     13  C   UNL     1      12.745 -27.697 -27.429  1.00  0.00    -0.000 C 
BRANCH  13  14
ATOM     14  C   UNL     1      12.721 -26.816 -26.169  1.00  0.00    -0.000 C 
BRANCH  14  15
ATOM     15  C   UNL     1      12.269 -27.571 -24.900  1.00  0.00    -0.000 C 
BRANCH  15  16
ATOM     16  C   UNL     1      10.880 -27.117 -24.418  1.00  0.00    -0.000 C 
BRANCH  16  17
ATOM     17  C   UNL     1      10.783 -25.592 -24.251  1.00  0.00    -0.003 C 
ATOM     18  C   UNL     1       9.369 -25.061 -24.480  1.00  0.00     0.004 C 
ENDBRANCH  16  17
ENDBRANCH  15  16
ENDBRANCH  14  15
ENDBRANCH  13  14
ENDBRANCH  12  13
ENDBRANCH  11  12
ENDBRANCH   1  11
TORSDOF 14
ENDMDL
MODEL 9
REMARK VINA RESULT:    -3.579      3.343      6.047
REMARK INTER + INTRA:          -8.820
REMARK INTER:                  -6.967
REMARK INTRA:                  -1.853
REMARK UNBOUND:                -2.312
REMARK SMILES CCCCCCCCCCCCCCCC(=O)[O-]
REMARK SMILES IDX 9 1 10 2 11 3 12 4 13 5 14 6 15 7 16 8 17 9 18 10 8 11 7 12
REMARK SMILES IDX 6 13 5 14 4 15 3 16 2 17 1 18
REMARK H PARENT
REMARK Flexibility Score: inf
ROOT
ATOM      1  C   UNL     1      11.045 -26.243 -31.471  1.00  0.00     0.000 C 
ENDROOT
BRANCH   1   2
ATOM      2  C   UNL     1       9.950 -25.164 -31.566  1.00  0.00     0.000 C 
BRANCH   2   3
ATOM      3  C   UNL     1      10.213 -23.975 -30.629  1.00  0.00     0.000 C 
BRANCH   3   4
ATOM      4  C   UNL     1      11.710 -23.721 -30.396  1.00  0.00     0.000 C 
BRANCH   4   5
ATOM      5  C   UNL     1      12.041 -22.230 -30.527  1.00  0.00     0.000 C 
BRANCH   5   6
ATOM      6  C   UNL     1      11.393 -21.630 -31.782  1.00  0.00     0.006 C 
BRANCH   6   7
ATOM      7  C   UNL     1      12.366 -21.573 -32.967  1.00  0.00     0.053 C 
BRANCH   7   8
ATOM      8  C   UNL     1      12.196 -22.748 -33.880  1.00  0.00     0.041 C 
ATOM      9  O   UNL     1      11.045 -23.112 -34.241  1.00  0.00    -0.550 OA
ATOM     10  O   UNL     1      13.311 -23.425 -34.358  1.00  0.00    -0.550 OA
ENDBRANCH   7   8
ENDBRANCH   6   7
ENDBRANCH   5   6
ENDBRANCH   4   5
ENDBRANCH   3   4
ENDBRANCH   2   3
ENDBRANCH   1   2
BRANCH   1  11
ATOM     11  C   UNL     1      10.703 -27.356 -30.464  1.00  0.00     0.000 C 
BRANCH  11  12
ATOM     12  C   UNL     1       9.201 -27.552 -30.193  1.00  0.00    -0.000 C 
BRANCH  12  13
ATOM     13  C   UNL     1       8.904 -28.792 -29.334  1.00  0.00    -0.000 C 
BRANCH  13  14
ATOM     14  C   UNL     1       9.142 -28.550 -27.834  1.00  0.00    -0.000 C 
BRANCH  14  15
ATOM     15  C   UNL     1       8.442 -27.283 -27.297  1.00  0.00    -0.000 C 
BRANCH  15  16
ATOM     16  C   UNL     1       9.392 -26.403 -26.465  1.00  0.00    -0.000 C 
BRANCH  16  17
ATOM     17  C   UNL     1      10.290 -25.515 -27.341  1.00  0.00    -0.003 C 
ATOM     18  C   UNL     1      11.735 -25.466 -26.848  1.00  0.00     0.004 C 
ENDBRANCH  16  17
ENDBRANCH  15  16
ENDBRANCH  14  15
ENDBRANCH  13  14
ENDBRANCH  12  13
ENDBRANCH  11  12
ENDBRANCH   1  11
TORSDOF 14
ENDMDL
