MODEL 1
REMARK VINA RESULT:    -5.260      0.000      0.000
REMARK INTER + INTRA:          -5.795
REMARK INTER:                  -5.568
REMARK INTRA:                  -0.228
REMARK UNBOUND:                -0.228
REMARK SMILES O=c1cc(-c2ccccc2)oc2ccccc12
REMARK SMILES IDX 4 1 3 2 2 3 1 4 17 5 16 6 15 7 14 8 13 9 12 10 11 11 5 12
REMARK SMILES IDX 8 13 7 14 9 15 6 16 10 17
REMARK H PARENT
REMARK Flexibility Score: inf
ROOT
ATOM      1  C   UNL     1       8.836 -30.387  15.067  1.00  0.00     0.138 A 
ATOM      2  C   UNL     1       9.046 -29.521  13.973  1.00  0.00     0.100 A 
ATOM      3  C   UNL     1       9.832 -29.944  12.901  1.00  0.00     0.193 A 
ATOM      4  O   UNL     1      10.020 -29.168  11.923  1.00  0.00    -0.289 OA
ATOM      5  C   UNL     1      10.404 -31.223  12.925  1.00  0.00     0.065 A 
ATOM      6  C   UNL     1      11.208 -31.710  11.878  1.00  0.00     0.016 A 
ATOM      7  C   UNL     1      11.753 -32.995  11.954  1.00  0.00     0.001 A 
ATOM      8  C   UNL     1      11.503 -33.800  13.069  1.00  0.00     0.004 A 
ATOM      9  C   UNL     1      10.707 -33.325  14.115  1.00  0.00     0.048 A 
ATOM     10  C   UNL     1      10.155 -32.040  14.048  1.00  0.00     0.138 A 
ATOM     11  O   UNL     1       9.400 -31.596  15.047  1.00  0.00    -0.456 OA
ENDROOT
BRANCH   1  12
ATOM     12  C   UNL     1       8.007 -30.014  16.254  1.00  0.00     0.017 A 
ATOM     13  C   UNL     1       6.524 -29.307  18.550  1.00  0.00     0.000 A 
ATOM     14  C   UNL     1       7.906 -29.471  18.634  1.00  0.00     0.001 A 
ATOM     15  C   UNL     1       5.875 -29.494  17.329  1.00  0.00     0.001 A 
ATOM     16  C   UNL     1       8.643 -29.820  17.498  1.00  0.00     0.012 A 
ATOM     17  C   UNL     1       6.605 -29.844  16.188  1.00  0.00     0.012 A 
ENDBRANCH   1  12
TORSDOF 1
ENDMDL
MODEL 2
REMARK VINA RESULT:    -4.678      1.459      5.941
REMARK INTER + INTRA:          -5.179
REMARK INTER:                  -4.950
REMARK INTRA:                  -0.229
REMARK UNBOUND:                -0.228
REMARK SMILES O=c1cc(-c2ccccc2)oc2ccccc12
REMARK SMILES IDX 4 1 3 2 2 3 1 4 17 5 16 6 15 7 14 8 13 9 12 10 11 11 5 12
REMARK SMILES IDX 8 13 7 14 9 15 6 16 10 17
REMARK H PARENT
REMARK Flexibility Score: inf
ROOT
ATOM      1  C   UNL     1       9.086 -31.691  14.102  1.00  0.00     0.138 A 
ATOM      2  C   UNL     1       7.928 -31.272  13.412  1.00  0.00     0.100 A 
ATOM      3  C   UNL     1       6.912 -30.617  14.107  1.00  0.00     0.193 A 
ATOM      4  O   UNL     1       5.877 -30.242  13.490  1.00  0.00    -0.289 OA
ATOM      5  C   UNL     1       7.053 -30.384  15.482  1.00  0.00     0.065 A 
ATOM      6  C   UNL     1       6.066 -29.729  16.242  1.00  0.00     0.016 A 
ATOM      7  C   UNL     1       6.260 -29.524  17.611  1.00  0.00     0.001 A 
ATOM      8  C   UNL     1       7.432 -29.966  18.230  1.00  0.00     0.004 A 
ATOM      9  C   UNL     1       8.418 -30.617  17.484  1.00  0.00     0.048 A 
ATOM     10  C   UNL     1       8.235 -30.828  16.112  1.00  0.00     0.138 A 
ATOM     11  O   UNL     1       9.178 -31.449  15.410  1.00  0.00    -0.456 OA
ENDROOT
BRANCH   1  12
ATOM     12  C   UNL     1      10.221 -32.399  13.434  1.00  0.00     0.017 A 
ATOM     13  C   UNL     1      12.342 -33.815  12.224  1.00  0.00     0.000 A 
ATOM     14  C   UNL     1      11.532 -34.444  13.169  1.00  0.00     0.001 A 
ATOM     15  C   UNL     1      12.102 -32.486  11.877  1.00  0.00     0.001 A 
ATOM     16  C   UNL     1      10.481 -33.744  13.770  1.00  0.00     0.012 A 
ATOM     17  C   UNL     1      11.052 -31.779  12.473  1.00  0.00     0.012 A 
ENDBRANCH   1  12
TORSDOF 1
ENDMDL
MODEL 3
REMARK VINA RESULT:    -4.477      2.685      5.115
REMARK INTER + INTRA:          -4.967
REMARK INTER:                  -4.734
REMARK INTRA:                  -0.232
REMARK UNBOUND:                -0.228
REMARK SMILES O=c1cc(-c2ccccc2)oc2ccccc12
REMARK SMILES IDX 4 1 3 2 2 3 1 4 17 5 16 6 15 7 14 8 13 9 12 10 11 11 5 12
REMARK SMILES IDX 8 13 7 14 9 15 6 16 10 17
REMARK H PARENT
REMARK Flexibility Score: inf
ROOT
ATOM      1  C   UNL     1       8.230 -30.959  14.466  1.00  0.00     0.138 A 
ATOM      2  C   UNL     1       9.321 -30.274  13.890  1.00  0.00     0.100 A 
ATOM      3  C   UNL     1      10.042 -29.359  14.658  1.00  0.00     0.193 A 
ATOM      4  O   UNL     1      11.018 -28.747  14.142  1.00  0.00    -0.289 OA
ATOM      5  C   UNL     1       9.672 -29.132  15.991  1.00  0.00     0.065 A 
ATOM      6  C   UNL     1      10.356 -28.223  16.819  1.00  0.00     0.016 A 
ATOM      7  C   UNL     1       9.944 -28.034  18.141  1.00  0.00     0.001 A 
ATOM      8  C   UNL     1       8.853 -28.747  18.646  1.00  0.00     0.004 A 
ATOM      9  C   UNL     1       8.167 -29.652  17.831  1.00  0.00     0.048 A 
ATOM     10  C   UNL     1       8.571 -29.849  16.506  1.00  0.00     0.138 A 
ATOM     11  O   UNL     1       7.913 -30.711  15.738  1.00  0.00    -0.456 OA
ENDROOT
BRANCH   1  12
ATOM     12  C   UNL     1       7.405 -31.955  13.715  1.00  0.00     0.017 A 
ATOM     13  C   UNL     1       5.875 -33.905  12.363  1.00  0.00     0.000 A 
ATOM     14  C   UNL     1       6.613 -34.256  13.493  1.00  0.00     0.001 A 
ATOM     15  C   UNL     1       5.895 -32.589  11.902  1.00  0.00     0.001 A 
ATOM     16  C   UNL     1       7.371 -33.292  14.165  1.00  0.00     0.012 A 
ATOM     17  C   UNL     1       6.651 -31.618  12.568  1.00  0.00     0.012 A 
ENDBRANCH   1  12
TORSDOF 1
ENDMDL
MODEL 4
REMARK VINA RESULT:    -4.463      1.587      2.504
REMARK INTER + INTRA:          -4.952
REMARK INTER:                  -4.724
REMARK INTRA:                  -0.228
REMARK UNBOUND:                -0.228
REMARK SMILES O=c1cc(-c2ccccc2)oc2ccccc12
REMARK SMILES IDX 4 1 3 2 2 3 1 4 17 5 16 6 15 7 14 8 13 9 12 10 11 11 5 12
REMARK SMILES IDX 8 13 7 14 9 15 6 16 10 17
REMARK H PARENT
REMARK Flexibility Score: inf
ROOT
ATOM      1  C   UNL     1       8.260 -31.930  15.306  1.00  0.00     0.138 A 
ATOM      2  C   UNL     1       7.714 -33.191  14.984  1.00  0.00     0.100 A 
ATOM      3  C   UNL     1       8.352 -33.996  14.039  1.00  0.00     0.193 A 
ATOM      4  O   UNL     1       7.863 -35.123  13.751  1.00  0.00    -0.289 OA
ATOM      5  C   UNL     1       9.526 -33.541  13.423  1.00  0.00     0.065 A 
ATOM      6  C   UNL     1      10.217 -34.303  12.462  1.00  0.00     0.016 A 
ATOM      7  C   UNL     1      11.384 -33.799  11.879  1.00  0.00     0.001 A 
ATOM      8  C   UNL     1      11.868 -32.541  12.246  1.00  0.00     0.004 A 
ATOM      9  C   UNL     1      11.188 -31.778  13.199  1.00  0.00     0.048 A 
ATOM     10  C   UNL     1      10.019 -32.271  13.790  1.00  0.00     0.138 A 
ATOM     11  O   UNL     1       9.379 -31.538  14.694  1.00  0.00    -0.456 OA
ENDROOT
BRANCH   1  12
ATOM     12  C   UNL     1       7.642 -31.006  16.306  1.00  0.00     0.017 A 
ATOM     13  C   UNL     1       6.552 -29.277  18.253  1.00  0.00     0.000 A 
ATOM     14  C   UNL     1       7.768 -29.917  18.490  1.00  0.00     0.001 A 
ATOM     15  C   UNL     1       5.875 -29.493  17.053  1.00  0.00     0.001 A 
ATOM     16  C   UNL     1       8.310 -30.774  17.527  1.00  0.00     0.012 A 
ATOM     17  C   UNL     1       6.411 -30.348  16.085  1.00  0.00     0.012 A 
ENDBRANCH   1  12
TORSDOF 1
ENDMDL
MODEL 5
REMARK VINA RESULT:    -4.418      2.586      2.960
REMARK INTER + INTRA:          -4.904
REMARK INTER:                  -4.672
REMARK INTRA:                  -0.232
REMARK UNBOUND:                -0.228
REMARK SMILES O=c1cc(-c2ccccc2)oc2ccccc12
REMARK SMILES IDX 4 1 3 2 2 3 1 4 17 5 16 6 15 7 14 8 13 9 12 10 11 11 5 12
REMARK SMILES IDX 8 13 7 14 9 15 6 16 10 17
REMARK H PARENT
REMARK Flexibility Score: inf
ROOT
ATOM      1  C   UNL     1       8.007 -30.588  15.201  1.00  0.00     0.138 A 
ATOM      2  C   UNL     1       7.479 -29.918  14.078  1.00  0.00     0.100 A 
ATOM      3  C   UNL     1       7.081 -30.653  12.961  1.00  0.00     0.193 A 
ATOM      4  O   UNL     1       6.609 -30.052  11.956  1.00  0.00    -0.289 OA
ATOM      5  C   UNL     1       7.213 -32.049  12.969  1.00  0.00     0.065 A 
ATOM      6  C   UNL     1       6.833 -32.849  11.875  1.00  0.00     0.016 A 
ATOM      7  C   UNL     1       6.987 -34.237  11.938  1.00  0.00     0.001 A 
ATOM      8  C   UNL     1       7.518 -34.835  13.084  1.00  0.00     0.004 A 
ATOM      9  C   UNL     1       7.899 -34.048  14.174  1.00  0.00     0.048 A 
ATOM     10  C   UNL     1       7.749 -32.658  14.123  1.00  0.00     0.138 A 
ATOM     11  O   UNL     1       8.115 -31.917  15.165  1.00  0.00    -0.456 OA
ENDROOT
BRANCH   1  12
ATOM     12  C   UNL     1       8.455 -29.878  16.438  1.00  0.00     0.017 A 
ATOM     13  C   UNL     1       9.232 -28.585  18.824  1.00  0.00     0.000 A 
ATOM     14  C   UNL     1       8.175 -29.493  18.835  1.00  0.00     0.001 A 
ATOM     15  C   UNL     1       9.905 -28.315  17.632  1.00  0.00     0.001 A 
ATOM     16  C   UNL     1       7.788 -30.135  17.654  1.00  0.00     0.012 A 
ATOM     17  C   UNL     1       9.525 -28.954  16.447  1.00  0.00     0.012 A 
ENDBRANCH   1  12
TORSDOF 1
ENDMDL
MODEL 6
REMARK VINA RESULT:    -4.245      1.154      1.695
REMARK INTER + INTRA:          -4.721
REMARK INTER:                  -4.495
REMARK INTRA:                  -0.227
REMARK UNBOUND:                -0.228
REMARK SMILES O=c1cc(-c2ccccc2)oc2ccccc12
REMARK SMILES IDX 4 1 3 2 2 3 1 4 17 5 16 6 15 7 14 8 13 9 12 10 11 11 5 12
REMARK SMILES IDX 8 13 7 14 9 15 6 16 10 17
REMARK H PARENT
REMARK Flexibility Score: inf
ROOT
ATOM      1  C   UNL     1       8.774 -30.889  14.996  1.00  0.00     0.138 A 
ATOM      2  C   UNL     1       9.677 -30.210  14.151  1.00  0.00     0.100 A 
ATOM      3  C   UNL     1      10.339 -30.912  13.143  1.00  0.00     0.193 A 
ATOM      4  O   UNL     1      11.147 -30.304  12.388  1.00  0.00    -0.289 OA
ATOM      5  C   UNL     1      10.098 -32.284  12.984  1.00  0.00     0.065 A 
ATOM      6  C   UNL     1      10.732 -33.050  11.989  1.00  0.00     0.016 A 
ATOM      7  C   UNL     1      10.454 -34.416  11.875  1.00  0.00     0.001 A 
ATOM      8  C   UNL     1       9.547 -35.024  12.747  1.00  0.00     0.004 A 
ATOM      9  C   UNL     1       8.912 -34.271  13.739  1.00  0.00     0.048 A 
ATOM     10  C   UNL     1       9.183 -32.903  13.862  1.00  0.00     0.138 A 
ATOM     11  O   UNL     1       8.575 -32.195  14.808  1.00  0.00    -0.456 OA
ENDROOT
BRANCH   1  12
ATOM     12  C   UNL     1       8.024 -30.213  16.098  1.00  0.00     0.017 A 
ATOM     13  C   UNL     1       6.524 -28.948  18.128  1.00  0.00     0.000 A 
ATOM     14  C   UNL     1       5.892 -29.392  16.967  1.00  0.00     0.001 A 
ATOM     15  C   UNL     1       7.898 -29.129  18.284  1.00  0.00     0.001 A 
ATOM     16  C   UNL     1       6.633 -30.020  15.961  1.00  0.00     0.012 A 
ATOM     17  C   UNL     1       8.646 -29.755  17.282  1.00  0.00     0.012 A 
ENDBRANCH   1  12
TORSDOF 1
ENDMDL
MODEL 7
REMARK VINA RESULT:    -4.142      3.161      4.470
REMARK INTER + INTRA:          -4.612
REMARK INTER:                  -4.351
REMARK INTRA:                  -0.261
REMARK UNBOUND:                -0.228
REMARK SMILES O=c1cc(-c2ccccc2)oc2ccccc12
REMARK SMILES IDX 4 1 3 2 2 3 1 4 17 5 16 6 15 7 14 8 13 9 12 10 11 11 5 12
REMARK SMILES IDX 8 13 7 14 9 15 6 16 10 17
REMARK H PARENT
REMARK Flexibility Score: inf
ROOT
ATOM      1  C   UNL     1       7.815 -31.467  16.321  1.00  0.00     0.138 A 
ATOM      2  C   UNL     1       7.291 -32.516  17.106  1.00  0.00     0.100 A 
ATOM      3  C   UNL     1       6.666 -33.596  16.483  1.00  0.00     0.193 A 
ATOM      4  O   UNL     1       6.197 -34.534  17.185  1.00  0.00    -0.289 OA
ATOM      5  C   UNL     1       6.566 -33.625  15.085  1.00  0.00     0.065 A 
ATOM      6  C   UNL     1       5.947 -34.683  14.394  1.00  0.00     0.016 A 
ATOM      7  C   UNL     1       5.875 -34.660  12.998  1.00  0.00     0.001 A 
ATOM      8  C   UNL     1       6.416 -33.587  12.284  1.00  0.00     0.004 A 
ATOM      9  C   UNL     1       7.032 -32.531  12.961  1.00  0.00     0.048 A 
ATOM     10  C   UNL     1       7.110 -32.544  14.358  1.00  0.00     0.138 A 
ATOM     11  O   UNL     1       7.697 -31.536  14.994  1.00  0.00    -0.456 OA
ENDROOT
BRANCH   1  12
ATOM     12  C   UNL     1       8.501 -30.275  16.908  1.00  0.00     0.017 A 
ATOM     13  C   UNL     1       9.836 -28.006  17.927  1.00  0.00     0.000 A 
ATOM     14  C   UNL     1      10.011 -28.379  16.595  1.00  0.00     0.001 A 
ATOM     15  C   UNL     1       9.000 -28.755  18.755  1.00  0.00     0.001 A 
ATOM     16  C   UNL     1       9.351 -29.502  16.088  1.00  0.00     0.012 A 
ATOM     17  C   UNL     1       8.336 -29.880  18.255  1.00  0.00     0.012 A 
ENDBRANCH   1  12
TORSDOF 1
ENDMDL
MODEL 8
REMARK VINA RESULT:    -3.824      3.228      4.038
REMARK INTER + INTRA:          -4.276
REMARK INTER:                  -4.016
REMARK INTRA:                  -0.260
REMARK UNBOUND:                -0.228
REMARK SMILES O=c1cc(-c2ccccc2)oc2ccccc12
REMARK SMILES IDX 4 1 3 2 2 3 1 4 17 5 16 6 15 7 14 8 13 9 12 10 11 11 5 12
REMARK SMILES IDX 8 13 7 14 9 15 6 16 10 17
REMARK H PARENT
REMARK Flexibility Score: inf
ROOT
ATOM      1  C   UNL     1       7.337 -32.222  15.037  1.00  0.00     0.138 A 
ATOM      2  C   UNL     1       6.405 -32.003  14.000  1.00  0.00     0.100 A 
ATOM      3  C   UNL     1       6.710 -31.105  12.978  1.00  0.00     0.193 A 
ATOM      4  O   UNL     1       5.875 -30.910  12.051  1.00  0.00    -0.289 OA
ATOM      5  C   UNL     1       7.938 -30.430  12.994  1.00  0.00     0.065 A 
ATOM      6  C   UNL     1       8.308 -29.511  11.994  1.00  0.00     0.016 A 
ATOM      7  C   UNL     1       9.546 -28.866  12.061  1.00  0.00     0.001 A 
ATOM      8  C   UNL     1      10.421 -29.131  13.118  1.00  0.00     0.004 A 
ATOM      9  C   UNL     1      10.063 -30.042  14.115  1.00  0.00     0.048 A 
ATOM     10  C   UNL     1       8.826 -30.693  14.059  1.00  0.00     0.138 A 
ATOM     11  O   UNL     1       8.493 -31.558  15.012  1.00  0.00    -0.456 OA
ENDROOT
BRANCH   1  12
ATOM     12  C   UNL     1       7.090 -33.167  16.169  1.00  0.00     0.017 A 
ATOM     13  C   UNL     1       6.561 -35.001  18.249  1.00  0.00     0.000 A 
ATOM     14  C   UNL     1       5.905 -35.125  17.025  1.00  0.00     0.001 A 
ATOM     15  C   UNL     1       7.479 -33.969  18.444  1.00  0.00     0.001 A 
ATOM     16  C   UNL     1       6.166 -34.218  15.993  1.00  0.00     0.012 A 
ATOM     17  C   UNL     1       7.745 -33.057  17.416  1.00  0.00     0.012 A 
ENDBRANCH   1  12
TORSDOF 1
ENDMDL
