MODEL 1
REMARK VINA RESULT:    -3.788      0.000      0.000
REMARK INTER + INTRA:          -3.898
REMARK INTER:                  -3.898
REMARK INTRA:                   0.000
REMARK UNBOUND:                 0.000
REMARK SMILES CC1(C)[C@H]2CC[C@](C)(C2)[C@H]1O
REMARK SMILES IDX 1 1 2 2 4 3 5 4 6 5 7 6 9 7 10 8 8 9 3 10 11 11
REMARK H PARENT 11 12
REMARK Flexibility Score: inf
ROOT
ATOM      1  C   UNL     1     116.662 116.351 115.235  1.00  0.00     0.014 C 
ATOM      2  C   UNL     1     116.495 116.279 116.772  1.00  0.00    -0.006 C 
ATOM      3  C   UNL     1     116.836 117.667 117.418  1.00  0.00    -0.002 C 
ATOM      4  C   UNL     1     116.425 117.706 118.905  1.00  0.00     0.005 C 
ATOM      5  C   UNL     1     117.404 116.715 119.554  1.00  0.00     0.010 C 
ATOM      6  C   UNL     1     118.325 116.322 118.374  1.00  0.00    -0.006 C 
ATOM      7  C   UNL     1     118.347 117.602 117.567  1.00  0.00     0.013 C 
ATOM      8  C   UNL     1     117.588 115.358 117.410  1.00  0.00     0.126 C 
ATOM      9  C   UNL     1     119.711 115.833 118.806  1.00  0.00     0.014 C 
ATOM     10  C   UNL     1     115.043 115.810 117.058  1.00  0.00     0.014 C 
ENDROOT
BRANCH   8  11
ATOM     11  O   UNL     1     117.064 114.249 118.098  1.00  0.00    -0.392 OA
ATOM     12  H   UNL     1     116.183 114.054 117.684  1.00  0.00     0.211 HD
ENDBRANCH   8  11
TORSDOF 1
ENDMDL
MODEL 2
REMARK VINA RESULT:    -3.787      1.590      2.414
REMARK INTER + INTRA:          -3.897
REMARK INTER:                  -3.897
REMARK INTRA:                   0.000
REMARK UNBOUND:                 0.000
REMARK SMILES CC1(C)[C@H]2CC[C@](C)(C2)[C@H]1O
REMARK SMILES IDX 1 1 2 2 4 3 5 4 6 5 7 6 9 7 10 8 8 9 3 10 11 11
REMARK H PARENT 11 12
REMARK Flexibility Score: inf
ROOT
ATOM      1  C   UNL     1     116.889 116.623 115.246  1.00  0.00     0.014 C 
ATOM      2  C   UNL     1     116.938 116.477 116.786  1.00  0.00    -0.006 C 
ATOM      3  C   UNL     1     115.542 116.829 117.406  1.00  0.00    -0.002 C 
ATOM      4  C   UNL     1     115.480 116.438 118.898  1.00  0.00     0.005 C 
ATOM      5  C   UNL     1     116.463 117.425 119.548  1.00  0.00     0.010 C 
ATOM      6  C   UNL     1     116.875 118.330 118.362  1.00  0.00    -0.006 C 
ATOM      7  C   UNL     1     115.607 118.341 117.536  1.00  0.00     0.013 C 
ATOM      8  C   UNL     1     117.851 117.578 117.422  1.00  0.00     0.126 C 
ATOM      9  C   UNL     1     117.359 119.720 118.782  1.00  0.00     0.014 C 
ATOM     10  C   UNL     1     117.401 115.029 117.098  1.00  0.00     0.014 C 
ENDROOT
BRANCH   8  11
ATOM     11  O   UNL     1     118.949 117.062 118.134  1.00  0.00    -0.392 OA
ATOM     12  H   UNL     1     119.747 117.565 117.822  1.00  0.00     0.211 HD
ENDBRANCH   8  11
TORSDOF 1
ENDMDL
MODEL 3
REMARK VINA RESULT:    -3.782      1.979      3.414
REMARK INTER + INTRA:          -3.893
REMARK INTER:                  -3.893
REMARK INTRA:                   0.000
REMARK UNBOUND:                 0.000
REMARK SMILES CC1(C)[C@H]2CC[C@](C)(C2)[C@H]1O
REMARK SMILES IDX 1 1 2 2 4 3 5 4 6 5 7 6 9 7 10 8 8 9 3 10 11 11
REMARK H PARENT 11 12
REMARK Flexibility Score: inf
ROOT
ATOM      1  C   UNL     1     116.497 116.877 115.256  1.00  0.00     0.014 C 
ATOM      2  C   UNL     1     116.683 116.937 116.792  1.00  0.00    -0.006 C 
ATOM      3  C   UNL     1     116.326 115.552 117.433  1.00  0.00    -0.002 C 
ATOM      4  C   UNL     1     116.754 115.496 118.915  1.00  0.00     0.005 C 
ATOM      5  C   UNL     1     115.800 116.500 119.582  1.00  0.00     0.010 C 
ATOM      6  C   UNL     1     114.872 116.916 118.416  1.00  0.00    -0.006 C 
ATOM      7  C   UNL     1     114.819 115.641 117.602  1.00  0.00     0.013 C 
ATOM      8  C   UNL     1     115.613 117.873 117.448  1.00  0.00     0.126 C 
ATOM      9  C   UNL     1     113.500 117.426 118.867  1.00  0.00     0.014 C 
ATOM     10  C   UNL     1     118.146 117.380 117.062  1.00  0.00     0.014 C 
ENDROOT
BRANCH   8  11
ATOM     11  O   UNL     1     116.165 118.968 118.136  1.00  0.00    -0.392 OA
ATOM     12  H   UNL     1     117.100 118.718 118.359  1.00  0.00     0.211 HD
ENDBRANCH   8  11
TORSDOF 1
ENDMDL
MODEL 4
REMARK VINA RESULT:    -3.760      1.557      2.364
REMARK INTER + INTRA:          -3.870
REMARK INTER:                  -3.870
REMARK INTRA:                   0.000
REMARK UNBOUND:                 0.000
REMARK SMILES CC1(C)[C@H]2CC[C@](C)(C2)[C@H]1O
REMARK SMILES IDX 1 1 2 2 4 3 5 4 6 5 7 6 9 7 10 8 8 9 3 10 11 11
REMARK H PARENT 11 12
REMARK Flexibility Score: inf
ROOT
ATOM      1  C   UNL     1     116.374 116.485 115.238  1.00  0.00     0.014 C 
ATOM      2  C   UNL     1     116.341 116.676 116.774  1.00  0.00    -0.006 C 
ATOM      3  C   UNL     1     117.747 116.354 117.389  1.00  0.00    -0.002 C 
ATOM      4  C   UNL     1     117.821 116.790 118.867  1.00  0.00     0.005 C 
ATOM      5  C   UNL     1     116.854 115.814 119.557  1.00  0.00     0.010 C 
ATOM      6  C   UNL     1     116.437 114.872 118.404  1.00  0.00    -0.006 C 
ATOM      7  C   UNL     1     117.696 114.846 117.564  1.00  0.00     0.013 C 
ATOM      8  C   UNL     1     115.444 115.587 117.453  1.00  0.00     0.126 C 
ATOM      9  C   UNL     1     115.968 113.491 118.870  1.00  0.00     0.014 C 
ATOM     10  C   UNL     1     115.869 118.129 117.048  1.00  0.00     0.014 C 
ENDROOT
BRANCH   8  11
ATOM     11  O   UNL     1     114.349 116.115 118.161  1.00  0.00    -0.392 OA
ATOM     12  H   UNL     1     114.640 116.193 119.107  1.00  0.00     0.211 HD
ENDBRANCH   8  11
TORSDOF 1
ENDMDL
MODEL 5
REMARK VINA RESULT:    -3.681      1.283      2.939
REMARK INTER + INTRA:          -3.789
REMARK INTER:                  -3.789
REMARK INTRA:                   0.000
REMARK UNBOUND:                 0.000
REMARK SMILES CC1(C)[C@H]2CC[C@](C)(C2)[C@H]1O
REMARK SMILES IDX 1 1 2 2 4 3 5 4 6 5 7 6 9 7 10 8 8 9 3 10 11 11
REMARK H PARENT 11 12
REMARK Flexibility Score: inf
ROOT
ATOM      1  C   UNL     1     115.879 118.852 118.750  1.00  0.00     0.014 C 
ATOM      2  C   UNL     1     116.198 117.349 118.559  1.00  0.00    -0.006 C 
ATOM      3  C   UNL     1     117.738 117.146 118.347  1.00  0.00    -0.002 C 
ATOM      4  C   UNL     1     118.119 115.652 118.421  1.00  0.00     0.005 C 
ATOM      5  C   UNL     1     117.464 115.072 117.157  1.00  0.00     0.010 C 
ATOM      6  C   UNL     1     116.890 116.329 116.462  1.00  0.00    -0.006 C 
ATOM      7  C   UNL     1     117.902 117.383 116.855  1.00  0.00     0.013 C 
ATOM      8  C   UNL     1     115.621 116.825 117.201  1.00  0.00     0.126 C 
ATOM      9  C   UNL     1     116.708 116.172 114.949  1.00  0.00     0.014 C 
ATOM     10  C   UNL     1     115.645 116.599 119.800  1.00  0.00     0.014 C 
ENDROOT
BRANCH   8  11
ATOM     11  O   UNL     1     114.679 115.792 117.347  1.00  0.00    -0.392 OA
ATOM     12  H   UNL     1     113.924 116.014 116.741  1.00  0.00     0.211 HD
ENDBRANCH   8  11
TORSDOF 1
ENDMDL
MODEL 6
REMARK VINA RESULT:    -3.674      1.658      3.252
REMARK INTER + INTRA:          -3.782
REMARK INTER:                  -3.782
REMARK INTRA:                   0.000
REMARK UNBOUND:                 0.000
REMARK SMILES CC1(C)[C@H]2CC[C@](C)(C2)[C@H]1O
REMARK SMILES IDX 1 1 2 2 4 3 5 4 6 5 7 6 9 7 10 8 8 9 3 10 11 11
REMARK H PARENT 11 12
REMARK Flexibility Score: inf
ROOT
ATOM      1  C   UNL     1     117.657 114.597 118.802  1.00  0.00     0.014 C 
ATOM      2  C   UNL     1     117.197 116.051 118.536  1.00  0.00    -0.006 C 
ATOM      3  C   UNL     1     115.646 116.095 118.313  1.00  0.00    -0.002 C 
ATOM      4  C   UNL     1     115.124 117.548 118.313  1.00  0.00     0.005 C 
ATOM      5  C   UNL     1     115.726 118.125 117.023  1.00  0.00     0.010 C 
ATOM      6  C   UNL     1     116.423 116.897 116.390  1.00  0.00    -0.006 C 
ATOM      7  C   UNL     1     115.513 115.771 116.835  1.00  0.00     0.013 C 
ATOM      8  C   UNL     1     117.729 116.561 117.154  1.00  0.00     0.126 C 
ATOM      9  C   UNL     1     116.597 116.996 114.872  1.00  0.00     0.014 C 
ATOM     10  C   UNL     1     117.669 116.911 119.739  1.00  0.00     0.014 C 
ENDROOT
BRANCH   8  11
ATOM     11  O   UNL     1     118.567 117.686 117.250  1.00  0.00    -0.392 OA
ATOM     12  H   UNL     1     117.995 118.437 117.558  1.00  0.00     0.211 HD
ENDBRANCH   8  11
TORSDOF 1
ENDMDL
MODEL 7
REMARK VINA RESULT:    -3.667      1.714      3.440
REMARK INTER + INTRA:          -3.774
REMARK INTER:                  -3.774
REMARK INTRA:                   0.000
REMARK UNBOUND:                 0.000
REMARK SMILES CC1(C)[C@H]2CC[C@](C)(C2)[C@H]1O
REMARK SMILES IDX 1 1 2 2 4 3 5 4 6 5 7 6 9 7 10 8 8 9 3 10 11 11
REMARK H PARENT 11 12
REMARK Flexibility Score: inf
ROOT
ATOM      1  C   UNL     1     118.570 117.551 119.006  1.00  0.00     0.014 C 
ATOM      2  C   UNL     1     117.114 117.140 118.678  1.00  0.00    -0.006 C 
ATOM      3  C   UNL     1     117.028 115.592 118.447  1.00  0.00    -0.002 C 
ATOM      4  C   UNL     1     115.560 115.118 118.385  1.00  0.00     0.005 C 
ATOM      5  C   UNL     1     115.057 115.743 117.074  1.00  0.00     0.010 C 
ATOM      6  C   UNL     1     116.334 116.400 116.496  1.00  0.00    -0.006 C 
ATOM      7  C   UNL     1     117.408 115.452 116.984  1.00  0.00     0.013 C 
ATOM      8  C   UNL     1     116.680 117.692 117.279  1.00  0.00     0.126 C 
ATOM      9  C   UNL     1     116.303 116.581 114.976  1.00  0.00     0.014 C 
ATOM     10  C   UNL     1     116.220 117.637 119.846  1.00  0.00     0.014 C 
ENDROOT
BRANCH   8  11
ATOM     11  O   UNL     1     115.581 118.567 117.331  1.00  0.00    -0.392 OA
ATOM     12  H   UNL     1     114.975 118.215 118.035  1.00  0.00     0.211 HD
ENDBRANCH   8  11
TORSDOF 1
ENDMDL
MODEL 8
REMARK VINA RESULT:    -3.663      1.312      2.707
REMARK INTER + INTRA:          -3.770
REMARK INTER:                  -3.770
REMARK INTRA:                   0.000
REMARK UNBOUND:                 0.000
REMARK SMILES CC1(C)[C@H]2CC[C@](C)(C2)[C@H]1O
REMARK SMILES IDX 1 1 2 2 4 3 5 4 6 5 7 6 9 7 10 8 8 9 3 10 11 11
REMARK H PARENT 11 12
REMARK Flexibility Score: inf
ROOT
ATOM      1  C   UNL     1     114.559 115.739 118.942  1.00  0.00     0.014 C 
ATOM      2  C   UNL     1     116.039 116.110 118.681  1.00  0.00    -0.006 C 
ATOM      3  C   UNL     1     116.180 117.658 118.481  1.00  0.00    -0.002 C 
ATOM      4  C   UNL     1     117.663 118.088 118.487  1.00  0.00     0.005 C 
ATOM      5  C   UNL     1     118.200 117.470 117.186  1.00  0.00     0.010 C 
ATOM      6  C   UNL     1     116.929 116.862 116.546  1.00  0.00    -0.006 C 
ATOM      7  C   UNL     1     115.864 117.834 117.006  1.00  0.00     0.013 C 
ATOM      8  C   UNL     1     116.513 115.568 117.290  1.00  0.00     0.126 C 
ATOM      9  C   UNL     1     117.016 116.705 115.025  1.00  0.00     0.014 C 
ATOM     10  C   UNL     1     116.868 115.566 119.875  1.00  0.00     0.014 C 
ENDROOT
BRANCH   8  11
ATOM     11  O   UNL     1     117.582 114.659 117.371  1.00  0.00    -0.392 OA
ATOM     12  H   UNL     1     118.218 114.910 116.650  1.00  0.00     0.211 HD
ENDBRANCH   8  11
TORSDOF 1
ENDMDL
MODEL 9
REMARK VINA RESULT:    -3.506      1.868      3.007
REMARK INTER + INTRA:          -3.608
REMARK INTER:                  -3.608
REMARK INTRA:                   0.000
REMARK UNBOUND:                 0.000
REMARK SMILES CC1(C)[C@H]2CC[C@](C)(C2)[C@H]1O
REMARK SMILES IDX 1 1 2 2 4 3 5 4 6 5 7 6 9 7 10 8 8 9 3 10 11 11
REMARK H PARENT 11 12
REMARK Flexibility Score: inf
ROOT
ATOM      1  C   UNL     1     114.443 117.297 119.381  1.00  0.00     0.014 C 
ATOM      2  C   UNL     1     115.466 117.628 118.267  1.00  0.00    -0.006 C 
ATOM      3  C   UNL     1     115.464 116.498 117.180  1.00  0.00    -0.002 C 
ATOM      4  C   UNL     1     116.268 116.924 115.933  1.00  0.00     0.005 C 
ATOM      5  C   UNL     1     117.712 116.967 116.458  1.00  0.00     0.010 C 
ATOM      6  C   UNL     1     117.564 116.449 117.909  1.00  0.00    -0.006 C 
ATOM      7  C   UNL     1     116.418 115.471 117.765  1.00  0.00     0.013 C 
ATOM      8  C   UNL     1     116.931 117.539 118.811  1.00  0.00     0.126 C 
ATOM      9  C   UNL     1     118.843 115.832 118.481  1.00  0.00     0.014 C 
ATOM     10  C   UNL     1     115.096 119.025 117.701  1.00  0.00     0.014 C 
ENDROOT
BRANCH   8  11
ATOM     11  O   UNL     1     117.642 118.749 118.724  1.00  0.00    -0.392 OA
ATOM     12  H   UNL     1     118.551 118.517 118.399  1.00  0.00     0.211 HD
ENDBRANCH   8  11
TORSDOF 1
ENDMDL
