MODEL 1
REMARK VINA RESULT:    13.514      0.000      0.000
REMARK INTER + INTRA:          26.049
REMARK INTER:                  21.414
REMARK INTRA:                   4.635
REMARK UNBOUND:                 4.635
REMARK SMILES C[C@@H]1O[C@@H](O[C@H]2[C@@H](Oc3cc(O)c4c(c3)O[C@H](c3ccc(O)cc3)CC4=O)O[C@@H](CO)[C@@H](O)[C@H]2O)[C@H](O)[C@@H](O)[C@@H]1O
REMARK SMILES IDX 6 1 34 2 32 3 29 4 28 5 7 6 5 7 4 8 1 9 2 10 40 11 3 12
REMARK SMILES IDX 38 13 36 14 41 15 39 17 37 19 35 21 8 23 9 24 10 25 15 26
REMARK SMILES IDX 11 27 14 28 13 29 16 30 26 31 17 32 27 33 25 34 12 35 18 37
REMARK SMILES IDX 19 38 24 39 20 40 23 41 21 42 22 43 33 45 30 47 31 48
REMARK H PARENT 41 16 39 18 37 20 35 22 12 36 22 44 33 46 31 49
REMARK Flexibility Score: inf
ROOT
ATOM      1  C   UNL     1       7.729 -31.326  14.502  1.00  0.00     0.221 C 
ATOM      2  C   UNL     1       8.090 -32.796  14.697  1.00  0.00     0.181 C 
ATOM      3  C   UNL     1       6.836 -33.654  14.489  1.00  0.00     0.177 C 
ATOM      4  C   UNL     1       6.109 -33.319  13.162  1.00  0.00     0.179 C 
ATOM      5  O   UNL     1       5.875 -31.923  12.981  1.00  0.00    -0.332 OA
ATOM      6  C   UNL     1       7.027 -31.103  13.147  1.00  0.00     0.339 C 
ENDROOT
BRANCH   1   7
ATOM      7  O   UNL     1       8.905 -30.523  14.578  1.00  0.00    -0.337 OA
BRANCH   7   8
ATOM      8  C   UNL     1       8.809 -29.522  15.584  1.00  0.00     0.282 C 
ATOM      9  C   UNL     1       9.884 -27.207  17.108  1.00  0.00     0.041 C 
ATOM     10  C   UNL     1       9.994 -28.701  17.470  1.00  0.00     0.150 C 
ATOM     11  C   UNL     1       8.967 -29.201  18.530  1.00  0.00     0.174 C 
ATOM     12  O   UNL     1      10.024 -29.540  16.324  1.00  0.00    -0.344 OA
ATOM     13  C   UNL     1       7.911 -30.161  17.924  1.00  0.00     0.179 C 
ATOM     14  C   UNL     1       7.550 -29.800  16.469  1.00  0.00     0.202 C 
BRANCH  11  15
ATOM     15  O   UNL     1       8.367 -28.133  19.229  1.00  0.00    -0.388 OA
ATOM     16  H   UNL     1       7.416 -28.082  18.953  1.00  0.00     0.211 HD
ENDBRANCH  11  15
BRANCH  13  17
ATOM     17  O   UNL     1       8.339 -31.500  18.012  1.00  0.00    -0.387 OA
ATOM     18  H   UNL     1       8.492 -31.838  17.091  1.00  0.00     0.211 HD
ENDBRANCH  13  17
BRANCH  14  19
ATOM     19  O   UNL     1       6.705 -28.676  16.466  1.00  0.00    -0.385 OA
ATOM     20  H   UNL     1       7.260 -27.892  16.700  1.00  0.00     0.211 HD
ENDBRANCH  14  19
ENDBRANCH   7   8
ENDBRANCH   1   7
BRANCH   2  21
ATOM     21  O   UNL     1       9.111 -33.169  13.808  1.00  0.00    -0.387 OA
ATOM     22  H   UNL     1       9.376 -34.099  14.034  1.00  0.00     0.211 HD
ENDBRANCH   2  21
BRANCH   6  23
ATOM     23  O   UNL     1       7.934 -31.256  12.048  1.00  0.00    -0.462 OA
BRANCH  23  24
ATOM     24  C   UNL     1       9.332 -31.331  12.185  1.00  0.00     0.130 A 
ATOM     25  C   UNL     1      10.046 -32.522  11.954  1.00  0.00     0.093 A 
ATOM     26  C   UNL     1      10.022 -30.192  12.610  1.00  0.00     0.094 A 
ATOM     27  C   UNL     1      11.426 -32.582  12.179  1.00  0.00     0.133 A 
ATOM     28  C   UNL     1      11.391 -30.258  12.893  1.00  0.00     0.138 A 
ATOM     29  C   UNL     1      12.110 -31.443  12.656  1.00  0.00     0.102 A 
ATOM     30  O   UNL     1      12.043 -29.146  13.444  1.00  0.00    -0.484 OA
ATOM     31  C   UNL     1      13.568 -31.441  12.925  1.00  0.00     0.174 C 
ATOM     32  C   UNL     1      13.277 -29.280  14.154  1.00  0.00     0.211 C 
ATOM     33  O   UNL     1      14.255 -32.486  12.771  1.00  0.00    -0.294 OA
ATOM     34  C   UNL     1      14.247 -30.166  13.342  1.00  0.00     0.131 C 
BRANCH  27  35
ATOM     35  O   UNL     1      12.109 -33.774  11.936  1.00  0.00    -0.507 OA
ATOM     36  H   UNL     1      11.780 -34.447  11.254  1.00  0.00     0.293 HD
ENDBRANCH  27  35
BRANCH  32  37
ATOM     37  C   UNL     1      13.817 -27.903  14.509  1.00  0.00    -0.007 A 
ATOM     38  C   UNL     1      14.271 -27.674  15.821  1.00  0.00     0.011 A 
ATOM     39  C   UNL     1      13.994 -26.884  13.548  1.00  0.00     0.011 A 
ATOM     40  C   UNL     1      14.855 -26.454  16.173  1.00  0.00     0.046 A 
ATOM     41  C   UNL     1      14.588 -25.670  13.903  1.00  0.00     0.046 A 
ATOM     42  C   UNL     1      15.021 -25.453  15.215  1.00  0.00     0.115 A 
BRANCH  42  43
ATOM     43  O   UNL     1      15.621 -24.250  15.576  1.00  0.00    -0.508 OA
ATOM     44  H   UNL     1      16.211 -24.175  16.397  1.00  0.00     0.293 HD
ENDBRANCH  42  43
ENDBRANCH  32  37
ENDBRANCH  23  24
ENDBRANCH   6  23
BRANCH   3  45
ATOM     45  O   UNL     1       7.171 -35.017  14.560  1.00  0.00    -0.387 OA
ATOM     46  H   UNL     1       7.535 -35.177  15.474  1.00  0.00     0.211 HD
ENDBRANCH   3  45
BRANCH   4  47
ATOM     47  C   UNL     1       6.719 -33.994  11.917  1.00  0.00     0.191 C 
BRANCH  47  48
ATOM     48  O   UNL     1       7.637 -34.974  12.309  1.00  0.00    -0.394 OA
ATOM     49  H   UNL     1       7.600 -35.007  13.302  1.00  0.00     0.210 HD
ENDBRANCH  47  48
ENDBRANCH   4  47
TORSDOF 14
ENDMDL
MODEL 2
REMARK VINA RESULT:    13.543      1.343      1.787
REMARK INTER + INTRA:          26.096
REMARK INTER:                  10.582
REMARK INTRA:                  15.515
REMARK UNBOUND:                 4.635
REMARK SMILES C[C@@H]1O[C@@H](O[C@H]2[C@@H](Oc3cc(O)c4c(c3)O[C@H](c3ccc(O)cc3)CC4=O)O[C@@H](CO)[C@@H](O)[C@H]2O)[C@H](O)[C@@H](O)[C@@H]1O
REMARK SMILES IDX 6 1 34 2 32 3 29 4 28 5 7 6 5 7 4 8 1 9 2 10 40 11 3 12
REMARK SMILES IDX 38 13 36 14 41 15 39 17 37 19 35 21 8 23 9 24 10 25 15 26
REMARK SMILES IDX 11 27 14 28 13 29 16 30 26 31 17 32 27 33 25 34 12 35 18 37
REMARK SMILES IDX 19 38 24 39 20 40 23 41 21 42 22 43 33 45 30 47 31 48
REMARK H PARENT 41 16 39 18 37 20 35 22 12 36 22 44 33 46 31 49
REMARK Flexibility Score: inf
ROOT
ATOM      1  C   UNL     1       6.872 -31.072  16.133  1.00  0.00     0.221 C 
ATOM      2  C   UNL     1       8.252 -31.716  16.246  1.00  0.00     0.181 C 
ATOM      3  C   UNL     1       8.086 -33.215  16.521  1.00  0.00     0.177 C 
ATOM      4  C   UNL     1       7.118 -33.892  15.518  1.00  0.00     0.179 C 
ATOM      5  O   UNL     1       5.876 -33.203  15.377  1.00  0.00    -0.332 OA
ATOM      6  C   UNL     1       5.999 -31.812  15.100  1.00  0.00     0.339 C 
ENDROOT
BRANCH   1   7
ATOM      7  O   UNL     1       7.006 -29.701  15.765  1.00  0.00    -0.337 OA
BRANCH   7   8
ATOM      8  C   UNL     1       7.681 -28.941  16.758  1.00  0.00     0.282 C 
ATOM      9  C   UNL     1       9.989 -27.338  17.733  1.00  0.00     0.041 C 
ATOM     10  C   UNL     1       9.763 -28.854  17.897  1.00  0.00     0.150 C 
ATOM     11  C   UNL     1       9.200 -29.291  19.283  1.00  0.00     0.174 C 
ATOM     12  O   UNL     1       9.021 -29.416  16.824  1.00  0.00    -0.344 OA
ATOM     13  C   UNL     1       7.741 -29.808  19.194  1.00  0.00     0.179 C 
ATOM     14  C   UNL     1       6.919 -29.072  18.116  1.00  0.00     0.202 C 
BRANCH  11  15
ATOM     15  O   UNL     1       9.340 -28.277  20.254  1.00  0.00    -0.388 OA
ATOM     16  H   UNL     1      10.106 -27.706  19.992  1.00  0.00     0.211 HD
ENDBRANCH  11  15
BRANCH  13  17
ATOM     17  O   UNL     1       7.713 -31.199  18.977  1.00  0.00    -0.387 OA
ATOM     18  H   UNL     1       7.310 -31.630  19.775  1.00  0.00     0.211 HD
ENDBRANCH  13  17
BRANCH  14  19
ATOM     19  O   UNL     1       6.564 -27.799  18.594  1.00  0.00    -0.385 OA
ATOM     20  H   UNL     1       7.285 -27.504  19.204  1.00  0.00     0.211 HD
ENDBRANCH  14  19
ENDBRANCH   7   8
ENDBRANCH   1   7
BRANCH   2  21
ATOM     21  O   UNL     1       8.991 -31.495  15.072  1.00  0.00    -0.387 OA
ATOM     22  H   UNL     1       9.271 -32.383  14.727  1.00  0.00     0.211 HD
ENDBRANCH   2  21
BRANCH   6  23
ATOM     23  O   UNL     1       6.458 -31.589  13.761  1.00  0.00    -0.462 OA
BRANCH  23  24
ATOM     24  C   UNL     1       7.800 -31.708  13.357  1.00  0.00     0.130 A 
ATOM     25  C   UNL     1       8.308 -32.884  12.773  1.00  0.00     0.093 A 
ATOM     26  C   UNL     1       8.664 -30.634  13.592  1.00  0.00     0.094 A 
ATOM     27  C   UNL     1       9.666 -32.996  12.460  1.00  0.00     0.133 A 
ATOM     28  C   UNL     1      10.034 -30.758  13.336  1.00  0.00     0.138 A 
ATOM     29  C   UNL     1      10.544 -31.928  12.744  1.00  0.00     0.102 A 
ATOM     30  O   UNL     1      10.907 -29.723  13.698  1.00  0.00    -0.484 OA
ATOM     31  C   UNL     1      11.995 -31.985  12.447  1.00  0.00     0.174 C 
ATOM     32  C   UNL     1      12.306 -29.956  13.881  1.00  0.00     0.211 C 
ATOM     33  O   UNL     1      12.515 -33.023  11.956  1.00  0.00    -0.294 OA
ATOM     34  C   UNL     1      12.853 -30.774  12.691  1.00  0.00     0.131 C 
BRANCH  27  35
ATOM     35  O   UNL     1      10.140 -34.171  11.876  1.00  0.00    -0.507 OA
ATOM     36  H   UNL     1       9.521 -34.937  11.641  1.00  0.00     0.293 HD
ENDBRANCH  27  35
BRANCH  32  37
ATOM     37  C   UNL     1      13.019 -28.634  14.127  1.00  0.00    -0.007 A 
ATOM     38  C   UNL     1      13.274 -28.243  15.454  1.00  0.00     0.011 A 
ATOM     39  C   UNL     1      13.540 -27.844  13.080  1.00  0.00     0.011 A 
ATOM     40  C   UNL     1      14.000 -27.082  15.730  1.00  0.00     0.046 A 
ATOM     41  C   UNL     1      14.274 -26.689  13.361  1.00  0.00     0.046 A 
ATOM     42  C   UNL     1      14.508 -26.306  14.686  1.00  0.00     0.115 A 
BRANCH  42  43
ATOM     43  O   UNL     1      15.245 -25.162  14.976  1.00  0.00    -0.508 OA
ATOM     44  H   UNL     1      14.900 -24.235  14.754  1.00  0.00     0.293 HD
ENDBRANCH  42  43
ENDBRANCH  32  37
ENDBRANCH  23  24
ENDBRANCH   6  23
BRANCH   3  45
ATOM     45  O   UNL     1       9.342 -33.844  16.523  1.00  0.00    -0.387 OA
ATOM     46  H   UNL     1       9.869 -33.438  15.779  1.00  0.00     0.211 HD
ENDBRANCH   3  45
BRANCH   4  47
ATOM     47  C   UNL     1       7.759 -34.260  14.166  1.00  0.00     0.191 C 
BRANCH  47  48
ATOM     48  O   UNL     1       6.778 -34.725  13.284  1.00  0.00    -0.394 OA
ATOM     49  H   UNL     1       7.050 -35.644  13.025  1.00  0.00     0.210 HD
ENDBRANCH  47  48
ENDBRANCH   4  47
TORSDOF 14
ENDMDL
