MODEL 1
REMARK VINA RESULT:    -4.620      0.000      0.000
REMARK INTER + INTRA:          -5.052
REMARK INTER:                  -5.025
REMARK INTRA:                  -0.027
REMARK UNBOUND:                -0.027
REMARK SMILES O=C([O-])c1ccc(O)cc1
REMARK SMILES IDX 4 1 5 2 10 3 6 4 9 5 7 6 2 7 1 8 3 9 8 10
REMARK H PARENT 8 11
REMARK Flexibility Score: inf
ROOT
ATOM      1  C   UNL     1      21.241   0.280 -20.593  1.00  0.00    -0.003 A 
ATOM      2  C   UNL     1      19.962  -0.302 -20.656  1.00  0.00     0.014 A 
ATOM      3  C   UNL     1      21.869   0.410 -19.341  1.00  0.00     0.014 A 
ATOM      4  C   UNL     1      19.326  -0.745 -19.491  1.00  0.00     0.047 A 
ATOM      5  C   UNL     1      21.231  -0.036 -18.178  1.00  0.00     0.047 A 
ATOM      6  C   UNL     1      19.958  -0.614 -18.251  1.00  0.00     0.115 A 
ENDROOT
BRANCH   1   7
ATOM      7  C   UNL     1      21.909   0.749 -21.826  1.00  0.00     0.071 C 
ATOM      8  O   UNL     1      21.952   1.977 -22.104  1.00  0.00    -0.545 OA
ATOM      9  O   UNL     1      22.501  -0.160 -22.696  1.00  0.00    -0.545 OA
ENDBRANCH   1   7
BRANCH   6  10
ATOM     10  O   UNL     1      19.313  -1.060 -17.100  1.00  0.00    -0.508 OA
ATOM     11  H   UNL     1      18.341  -0.840 -16.919  1.00  0.00     0.293 HD
ENDBRANCH   6  10
TORSDOF 2
ENDMDL
MODEL 2
REMARK VINA RESULT:    -4.450      1.766      4.029
REMARK INTER + INTRA:          -4.867
REMARK INTER:                  -4.838
REMARK INTRA:                  -0.029
REMARK UNBOUND:                -0.027
REMARK SMILES O=C([O-])c1ccc(O)cc1
REMARK SMILES IDX 4 1 5 2 10 3 6 4 9 5 7 6 2 7 1 8 3 9 8 10
REMARK H PARENT 8 11
REMARK Flexibility Score: inf
ROOT
ATOM      1  C   UNL     1      21.535  -0.178 -18.943  1.00  0.00    -0.003 A 
ATOM      2  C   UNL     1      21.048  -1.426 -19.369  1.00  0.00     0.014 A 
ATOM      3  C   UNL     1      21.925   0.767 -19.910  1.00  0.00     0.014 A 
ATOM      4  C   UNL     1      20.951  -1.722 -20.733  1.00  0.00     0.047 A 
ATOM      5  C   UNL     1      21.827   0.469 -21.273  1.00  0.00     0.047 A 
ATOM      6  C   UNL     1      21.340  -0.777 -21.687  1.00  0.00     0.115 A 
ENDROOT
BRANCH   1   7
ATOM      7  C   UNL     1      21.636   0.131 -17.500  1.00  0.00     0.071 C 
ATOM      8  O   UNL     1      20.612   0.107 -16.767  1.00  0.00    -0.545 OA
ATOM      9  O   UNL     1      22.863   0.453 -16.933  1.00  0.00    -0.545 OA
ENDBRANCH   1   7
BRANCH   6  10
ATOM     10  O   UNL     1      21.238  -1.085 -23.042  1.00  0.00    -0.508 OA
ATOM     11  H   UNL     1      21.120  -2.040 -23.360  1.00  0.00     0.293 HD
ENDBRANCH   6  10
TORSDOF 2
ENDMDL
MODEL 3
REMARK VINA RESULT:    -4.366      1.133      4.489
REMARK INTER + INTRA:          -4.776
REMARK INTER:                  -4.740
REMARK INTRA:                  -0.036
REMARK UNBOUND:                -0.027
REMARK SMILES O=C([O-])c1ccc(O)cc1
REMARK SMILES IDX 4 1 5 2 10 3 6 4 9 5 7 6 2 7 1 8 3 9 8 10
REMARK H PARENT 8 11
REMARK Flexibility Score: inf
ROOT
ATOM      1  C   UNL     1      20.597  -0.556 -19.616  1.00  0.00    -0.003 A 
ATOM      2  C   UNL     1      21.359   0.626 -19.605  1.00  0.00     0.014 A 
ATOM      3  C   UNL     1      20.523  -1.308 -20.803  1.00  0.00     0.014 A 
ATOM      4  C   UNL     1      22.033   1.046 -20.757  1.00  0.00     0.047 A 
ATOM      5  C   UNL     1      21.199  -0.886 -21.952  1.00  0.00     0.047 A 
ATOM      6  C   UNL     1      21.956   0.292 -21.932  1.00  0.00     0.115 A 
ENDROOT
BRANCH   1   7
ATOM      7  C   UNL     1      19.884  -0.997 -18.397  1.00  0.00     0.071 C 
ATOM      8  O   UNL     1      19.387  -2.152 -18.328  1.00  0.00    -0.545 OA
ATOM      9  O   UNL     1      19.754  -0.142 -17.309  1.00  0.00    -0.545 OA
ENDBRANCH   1   7
BRANCH   6  10
ATOM     10  O   UNL     1      22.632   0.722 -23.071  1.00  0.00    -0.508 OA
ATOM     11  H   UNL     1      22.661   1.701 -23.331  1.00  0.00     0.293 HD
ENDBRANCH   6  10
TORSDOF 2
ENDMDL
MODEL 4
REMARK VINA RESULT:    -4.362      1.125      4.170
REMARK INTER + INTRA:          -4.772
REMARK INTER:                  -4.737
REMARK INTRA:                  -0.036
REMARK UNBOUND:                -0.027
REMARK SMILES O=C([O-])c1ccc(O)cc1
REMARK SMILES IDX 4 1 5 2 10 3 6 4 9 5 7 6 2 7 1 8 3 9 8 10
REMARK H PARENT 8 11
REMARK Flexibility Score: inf
ROOT
ATOM      1  C   UNL     1      20.594  -0.509 -19.593  1.00  0.00    -0.003 A 
ATOM      2  C   UNL     1      20.518  -1.279 -20.768  1.00  0.00     0.014 A 
ATOM      3  C   UNL     1      21.367   0.667 -19.599  1.00  0.00     0.014 A 
ATOM      4  C   UNL     1      21.200  -0.881 -21.922  1.00  0.00     0.047 A 
ATOM      5  C   UNL     1      22.047   1.062 -20.755  1.00  0.00     0.047 A 
ATOM      6  C   UNL     1      21.965   0.289 -21.919  1.00  0.00     0.115 A 
ENDROOT
BRANCH   1   7
ATOM      7  C   UNL     1      19.872  -0.933 -18.374  1.00  0.00     0.071 C 
ATOM      8  O   UNL     1      19.741  -0.143 -17.400  1.00  0.00    -0.545 OA
ATOM      9  O   UNL     1      19.327  -2.208 -18.285  1.00  0.00    -0.545 OA
ENDBRANCH   1   7
BRANCH   6  10
ATOM     10  O   UNL     1      22.639   0.673 -23.077  1.00  0.00    -0.508 OA
ATOM     11  H   UNL     1      23.151   1.546 -23.126  1.00  0.00     0.293 HD
ENDBRANCH   6  10
TORSDOF 2
ENDMDL
MODEL 5
REMARK VINA RESULT:    -4.330      0.988      2.033
REMARK INTER + INTRA:          -4.737
REMARK INTER:                  -4.703
REMARK INTRA:                  -0.033
REMARK UNBOUND:                -0.027
REMARK SMILES O=C([O-])c1ccc(O)cc1
REMARK SMILES IDX 4 1 5 2 10 3 6 4 9 5 7 6 2 7 1 8 3 9 8 10
REMARK H PARENT 8 11
REMARK Flexibility Score: inf
ROOT
ATOM      1  C   UNL     1      20.784  -0.427 -20.231  1.00  0.00    -0.003 A 
ATOM      2  C   UNL     1      21.554  -0.043 -19.118  1.00  0.00     0.014 A 
ATOM      3  C   UNL     1      19.460  -0.857 -20.027  1.00  0.00     0.014 A 
ATOM      4  C   UNL     1      21.009  -0.087 -17.830  1.00  0.00     0.047 A 
ATOM      5  C   UNL     1      18.919  -0.900 -18.738  1.00  0.00     0.047 A 
ATOM      6  C   UNL     1      19.692  -0.515 -17.637  1.00  0.00     0.115 A 
ENDROOT
BRANCH   1   7
ATOM      7  C   UNL     1      21.363  -0.380 -21.591  1.00  0.00     0.071 C 
ATOM      8  O   UNL     1      20.985  -1.193 -22.476  1.00  0.00    -0.545 OA
ATOM      9  O   UNL     1      22.333   0.562 -21.912  1.00  0.00    -0.545 OA
ENDBRANCH   1   7
BRANCH   6  10
ATOM     10  O   UNL     1      19.164  -0.554 -16.348  1.00  0.00    -0.508 OA
ATOM     11  H   UNL     1      19.291   0.214 -15.701  1.00  0.00     0.293 HD
ENDBRANCH   6  10
TORSDOF 2
ENDMDL
MODEL 6
REMARK VINA RESULT:    -4.248      0.811      4.516
REMARK INTER + INTRA:          -4.648
REMARK INTER:                  -4.618
REMARK INTRA:                  -0.031
REMARK UNBOUND:                -0.027
REMARK SMILES O=C([O-])c1ccc(O)cc1
REMARK SMILES IDX 4 1 5 2 10 3 6 4 9 5 7 6 2 7 1 8 3 9 8 10
REMARK H PARENT 8 11
REMARK Flexibility Score: inf
ROOT
ATOM      1  C   UNL     1      20.059  -0.431 -18.578  1.00  0.00    -0.003 A 
ATOM      2  C   UNL     1      21.285   0.257 -18.526  1.00  0.00     0.014 A 
ATOM      3  C   UNL     1      19.527  -0.781 -19.832  1.00  0.00     0.014 A 
ATOM      4  C   UNL     1      21.964   0.587 -19.704  1.00  0.00     0.047 A 
ATOM      5  C   UNL     1      20.209  -0.450 -21.008  1.00  0.00     0.047 A 
ATOM      6  C   UNL     1      21.429   0.235 -20.947  1.00  0.00     0.115 A 
ENDROOT
BRANCH   1   7
ATOM      7  C   UNL     1      19.344  -0.778 -17.331  1.00  0.00     0.071 C 
ATOM      8  O   UNL     1      19.166   0.089 -16.433  1.00  0.00    -0.545 OA
ATOM      9  O   UNL     1      18.857  -2.064 -17.131  1.00  0.00    -0.545 OA
ENDBRANCH   1   7
BRANCH   6  10
ATOM     10  O   UNL     1      22.116   0.570 -22.111  1.00  0.00    -0.508 OA
ATOM     11  H   UNL     1      22.655   1.424 -22.180  1.00  0.00     0.293 HD
ENDBRANCH   6  10
TORSDOF 2
ENDMDL
MODEL 7
REMARK VINA RESULT:    -4.074     17.280     18.156
REMARK INTER + INTRA:          -4.459
REMARK INTER:                  -4.432
REMARK INTRA:                  -0.027
REMARK UNBOUND:                -0.027
REMARK SMILES O=C([O-])c1ccc(O)cc1
REMARK SMILES IDX 4 1 5 2 10 3 6 4 9 5 7 6 2 7 1 8 3 9 8 10
REMARK H PARENT 8 11
REMARK Flexibility Score: inf
ROOT
ATOM      1  C   UNL     1       8.653  -6.927  -8.936  1.00  0.00    -0.003 A 
ATOM      2  C   UNL     1      10.048  -6.949  -8.758  1.00  0.00     0.014 A 
ATOM      3  C   UNL     1       7.871  -6.127  -8.084  1.00  0.00     0.014 A 
ATOM      4  C   UNL     1      10.647  -6.186  -7.750  1.00  0.00     0.047 A 
ATOM      5  C   UNL     1       8.472  -5.365  -7.077  1.00  0.00     0.047 A 
ATOM      6  C   UNL     1       9.862  -5.393  -6.908  1.00  0.00     0.115 A 
ENDROOT
BRANCH   1   7
ATOM      7  C   UNL     1       8.024  -7.735 -10.003  1.00  0.00     0.071 C 
ATOM      8  O   UNL     1       7.446  -8.820  -9.727  1.00  0.00    -0.545 OA
ATOM      9  O   UNL     1       8.060  -7.309 -11.325  1.00  0.00    -0.545 OA
ENDBRANCH   1   7
BRANCH   6  10
ATOM     10  O   UNL     1      10.472  -4.639  -5.908  1.00  0.00    -0.508 OA
ATOM     11  H   UNL     1       9.940  -4.255  -5.136  1.00  0.00     0.293 HD
ENDBRANCH   6  10
TORSDOF 2
ENDMDL
MODEL 8
REMARK VINA RESULT:    -4.042     18.963     19.911
REMARK INTER + INTRA:          -4.424
REMARK INTER:                  -4.396
REMARK INTRA:                  -0.028
REMARK UNBOUND:                -0.027
REMARK SMILES O=C([O-])c1ccc(O)cc1
REMARK SMILES IDX 4 1 5 2 10 3 6 4 9 5 7 6 2 7 1 8 3 9 8 10
REMARK H PARENT 8 11
REMARK Flexibility Score: inf
ROOT
ATOM      1  C   UNL     1       4.956   5.155  -9.563  1.00  0.00    -0.003 A 
ATOM      2  C   UNL     1       4.085   5.075  -8.462  1.00  0.00     0.014 A 
ATOM      3  C   UNL     1       6.159   4.427  -9.534  1.00  0.00     0.014 A 
ATOM      4  C   UNL     1       4.410   4.283  -7.356  1.00  0.00     0.047 A 
ATOM      5  C   UNL     1       6.481   3.635  -8.427  1.00  0.00     0.047 A 
ATOM      6  C   UNL     1       5.608   3.561  -7.335  1.00  0.00     0.115 A 
ENDROOT
BRANCH   1   7
ATOM      7  C   UNL     1       4.609   5.995 -10.730  1.00  0.00     0.071 C 
ATOM      8  O   UNL     1       4.663   7.251 -10.654  1.00  0.00    -0.545 OA
ATOM      9  O   UNL     1       4.218   5.409 -11.928  1.00  0.00    -0.545 OA
ENDBRANCH   1   7
BRANCH   6  10
ATOM     10  O   UNL     1       5.919   2.776  -6.227  1.00  0.00    -0.508 OA
ATOM     11  H   UNL     1       5.949   1.766  -6.287  1.00  0.00     0.293 HD
ENDBRANCH   6  10
TORSDOF 2
ENDMDL
MODEL 9
REMARK VINA RESULT:    -3.936     18.004     19.630
REMARK INTER + INTRA:          -4.309
REMARK INTER:                  -4.274
REMARK INTRA:                  -0.034
REMARK UNBOUND:                -0.027
REMARK SMILES O=C([O-])c1ccc(O)cc1
REMARK SMILES IDX 4 1 5 2 10 3 6 4 9 5 7 6 2 7 1 8 3 9 8 10
REMARK H PARENT 8 11
REMARK Flexibility Score: inf
ROOT
ATOM      1  C   UNL     1       8.033  -6.177  -7.449  1.00  0.00    -0.003 A 
ATOM      2  C   UNL     1       8.340  -5.003  -6.739  1.00  0.00     0.014 A 
ATOM      3  C   UNL     1       7.679  -7.334  -6.731  1.00  0.00     0.014 A 
ATOM      4  C   UNL     1       8.292  -4.986  -5.341  1.00  0.00     0.047 A 
ATOM      5  C   UNL     1       7.632  -7.314  -5.333  1.00  0.00     0.047 A 
ATOM      6  C   UNL     1       7.939  -6.140  -4.635  1.00  0.00     0.115 A 
ENDROOT
BRANCH   1   7
ATOM      7  C   UNL     1       8.085  -6.192  -8.927  1.00  0.00     0.071 C 
ATOM      8  O   UNL     1       8.260  -7.272  -9.551  1.00  0.00    -0.545 OA
ATOM      9  O   UNL     1       7.942  -5.013  -9.649  1.00  0.00    -0.545 OA
ENDBRANCH   1   7
BRANCH   6  10
ATOM     10  O   UNL     1       7.896  -6.108  -3.243  1.00  0.00    -0.508 OA
ATOM     11  H   UNL     1       7.692  -6.939  -2.701  1.00  0.00     0.293 HD
ENDBRANCH   6  10
TORSDOF 2
ENDMDL
