MODEL 1
REMARK VINA RESULT:    -4.438      0.000      0.000
REMARK INTER + INTRA:          -5.483
REMARK INTER:                  -5.217
REMARK INTRA:                  -0.266
REMARK UNBOUND:                -0.266
REMARK SMILES C=CC(C)=CCC=C(C)C
REMARK SMILES IDX 5 1 3 2 4 3 6 4 7 5 9 6 8 7 10 8 2 9 1 10
REMARK H PARENT
REMARK Flexibility Score: inf
ROOT
ATOM      1  C   UNL     1       8.729   1.562  24.296  1.00  0.00    -0.020 C 
ATOM      2  C   UNL     1       7.958   1.680  23.195  1.00  0.00    -0.055 C 
ATOM      3  C   UNL     1       6.531   2.148  23.358  1.00  0.00     0.044 C 
ENDROOT
BRANCH   1   4
ATOM      4  C   UNL     1      10.164   1.106  24.295  1.00  0.00     0.055 C 
BRANCH   4   5
ATOM      5  C   UNL     1      10.552   0.498  25.622  1.00  0.00    -0.024 C 
ATOM      6  C   UNL     1      12.346  -0.881  24.567  1.00  0.00     0.039 C 
ATOM      7  C   UNL     1      11.544  -0.408  25.753  1.00  0.00    -0.080 C 
ATOM      8  C   UNL     1      11.876  -0.975  27.110  1.00  0.00     0.039 C 
ENDBRANCH   4   5
ENDBRANCH   1   4
BRANCH   2   9
ATOM      9  C   UNL     1       8.481   1.354  21.836  1.00  0.00    -0.005 C 
ATOM     10  C   UNL     1       8.185   0.228  21.185  1.00  0.00     0.009 C 
ENDBRANCH   2   9
TORSDOF 3
ENDMDL
MODEL 2
REMARK VINA RESULT:    -4.347      0.508      5.139
REMARK INTER + INTRA:          -5.376
REMARK INTER:                  -5.125
REMARK INTRA:                  -0.251
REMARK UNBOUND:                -0.266
REMARK SMILES C=CC(C)=CCC=C(C)C
REMARK SMILES IDX 5 1 3 2 4 3 6 4 7 5 9 6 8 7 10 8 2 9 1 10
REMARK H PARENT
REMARK Flexibility Score: inf
ROOT
ATOM      1  C   UNL     1      10.500   0.481  25.724  1.00  0.00    -0.020 C 
ATOM      2  C   UNL     1      11.496  -0.413  25.906  1.00  0.00    -0.055 C 
ATOM      3  C   UNL     1      11.725  -0.968  27.291  1.00  0.00     0.044 C 
ENDROOT
BRANCH   1   4
ATOM      4  C   UNL     1      10.153   1.124  24.407  1.00  0.00     0.055 C 
BRANCH   4   5
ATOM      5  C   UNL     1       8.695   1.513  24.351  1.00  0.00    -0.024 C 
ATOM      6  C   UNL     1       8.695   1.497  21.855  1.00  0.00     0.039 C 
ATOM      7  C   UNL     1       8.024   1.685  23.192  1.00  0.00    -0.080 C 
ATOM      8  C   UNL     1       6.569   2.076  23.211  1.00  0.00     0.039 C 
ENDBRANCH   4   5
ENDBRANCH   1   4
BRANCH   2   9
ATOM      9  C   UNL     1      12.368  -0.851  24.777  1.00  0.00    -0.005 C 
ATOM     10  C   UNL     1      13.697  -0.735  24.788  1.00  0.00     0.009 C 
ENDBRANCH   2   9
TORSDOF 3
ENDMDL
MODEL 3
REMARK VINA RESULT:    -4.333      7.857     10.321
REMARK INTER + INTRA:          -5.359
REMARK INTER:                  -5.099
REMARK INTRA:                  -0.259
REMARK UNBOUND:                -0.266
REMARK SMILES C=CC(C)=CCC=C(C)C
REMARK SMILES IDX 5 1 3 2 4 3 6 4 7 5 9 6 8 7 10 8 2 9 1 10
REMARK H PARENT
REMARK Flexibility Score: inf
ROOT
ATOM      1  C   UNL     1       4.225  -1.777  14.486  1.00  0.00    -0.020 C 
ATOM      2  C   UNL     1       3.069  -1.080  14.462  1.00  0.00    -0.055 C 
ATOM      3  C   UNL     1       2.509  -0.653  13.126  1.00  0.00     0.044 C 
ENDROOT
BRANCH   1   4
ATOM      4  C   UNL     1       4.907  -2.268  15.735  1.00  0.00     0.055 C 
BRANCH   4   5
ATOM      5  C   UNL     1       6.408  -2.277  15.578  1.00  0.00    -0.024 C 
ATOM      6  C   UNL     1       6.756  -2.386  18.048  1.00  0.00     0.039 C 
ATOM      7  C   UNL     1       7.257  -2.330  16.626  1.00  0.00    -0.080 C 
ATOM      8  C   UNL     1       8.746  -2.333  16.395  1.00  0.00     0.039 C 
ENDBRANCH   4   5
ENDBRANCH   1   4
BRANCH   2   9
ATOM      9  C   UNL     1       2.347  -0.722  15.718  1.00  0.00    -0.005 C 
ATOM     10  C   UNL     1       1.259  -1.363  16.148  1.00  0.00     0.009 C 
ENDBRANCH   2   9
TORSDOF 3
ENDMDL
MODEL 4
REMARK VINA RESULT:    -4.326      1.353      2.562
REMARK INTER + INTRA:          -5.351
REMARK INTER:                  -4.774
REMARK INTRA:                  -0.577
REMARK UNBOUND:                -0.266
REMARK SMILES C=CC(C)=CCC=C(C)C
REMARK SMILES IDX 5 1 3 2 4 3 6 4 7 5 9 6 8 7 10 8 2 9 1 10
REMARK H PARENT
REMARK Flexibility Score: inf
ROOT
ATOM      1  C   UNL     1       9.514   0.751  22.831  1.00  0.00    -0.020 C 
ATOM      2  C   UNL     1       8.377   1.024  22.156  1.00  0.00    -0.055 C 
ATOM      3  C   UNL     1       7.967   0.105  21.030  1.00  0.00     0.044 C 
ENDROOT
BRANCH   1   4
ATOM      4  C   UNL     1      10.054   1.573  23.972  1.00  0.00     0.055 C 
BRANCH   4   5
ATOM      5  C   UNL     1      10.348   0.714  25.179  1.00  0.00    -0.024 C 
ATOM      6  C   UNL     1       8.256   1.453  26.324  1.00  0.00     0.039 C 
ATOM      7  C   UNL     1       9.534   0.655  26.254  1.00  0.00    -0.080 C 
ATOM      8  C   UNL     1       9.891  -0.223  27.426  1.00  0.00     0.039 C 
ENDBRANCH   4   5
ENDBRANCH   1   4
BRANCH   2   9
ATOM      9  C   UNL     1       7.532   2.206  22.495  1.00  0.00    -0.005 C 
ATOM     10  C   UNL     1       6.427   2.131  23.238  1.00  0.00     0.009 C 
ENDBRANCH   2   9
TORSDOF 3
ENDMDL
MODEL 5
REMARK VINA RESULT:    -4.296      6.207      9.970
REMARK INTER + INTRA:          -5.316
REMARK INTER:                  -4.729
REMARK INTRA:                  -0.587
REMARK UNBOUND:                -0.266
REMARK SMILES C=CC(C)=CCC=C(C)C
REMARK SMILES IDX 5 1 3 2 4 3 6 4 7 5 9 6 8 7 10 8 2 9 1 10
REMARK H PARENT
REMARK Flexibility Score: inf
ROOT
ATOM      1  C   UNL     1       4.608  -2.143  18.636  1.00  0.00    -0.020 C 
ATOM      2  C   UNL     1       5.948  -2.006  18.741  1.00  0.00    -0.055 C 
ATOM      3  C   UNL     1       6.503  -1.190  19.884  1.00  0.00     0.044 C 
ENDROOT
BRANCH   1   4
ATOM      4  C   UNL     1       3.907  -2.920  17.553  1.00  0.00     0.055 C 
BRANCH   4   5
ATOM      5  C   UNL     1       2.968  -2.041  16.763  1.00  0.00    -0.024 C 
ATOM      6  C   UNL     1       4.606  -1.823  14.891  1.00  0.00     0.039 C 
ATOM      7  C   UNL     1       3.279  -1.537  15.549  1.00  0.00    -0.080 C 
ATOM      8  C   UNL     1       2.293  -0.665  14.817  1.00  0.00     0.039 C 
ENDBRANCH   4   5
ENDBRANCH   1   4
BRANCH   2   9
ATOM      9  C   UNL     1       6.877  -2.634  17.757  1.00  0.00    -0.005 C 
ATOM     10  C   UNL     1       7.885  -1.979  17.178  1.00  0.00     0.009 C 
ENDBRANCH   2   9
TORSDOF 3
ENDMDL
MODEL 6
REMARK VINA RESULT:    -4.284      7.073     11.066
REMARK INTER + INTRA:          -5.301
REMARK INTER:                  -5.045
REMARK INTRA:                  -0.256
REMARK UNBOUND:                -0.266
REMARK SMILES C=CC(C)=CCC=C(C)C
REMARK SMILES IDX 5 1 3 2 4 3 6 4 7 5 9 6 8 7 10 8 2 9 1 10
REMARK H PARENT
REMARK Flexibility Score: inf
ROOT
ATOM      1  C   UNL     1       6.406  -2.109  15.564  1.00  0.00    -0.020 C 
ATOM      2  C   UNL     1       7.245  -2.306  16.603  1.00  0.00    -0.055 C 
ATOM      3  C   UNL     1       8.729  -2.138  16.375  1.00  0.00     0.044 C 
ENDROOT
BRANCH   1   4
ATOM      4  C   UNL     1       4.907  -2.242  15.634  1.00  0.00     0.055 C 
BRANCH   4   5
ATOM      5  C   UNL     1       4.250  -1.750  14.366  1.00  0.00    -0.024 C 
ATOM      6  C   UNL     1       2.389  -0.680  15.641  1.00  0.00     0.039 C 
ATOM      7  C   UNL     1       3.103  -1.038  14.361  1.00  0.00    -0.080 C 
ATOM      8  C   UNL     1       2.502  -0.581  13.057  1.00  0.00     0.039 C 
ENDBRANCH   4   5
ENDBRANCH   1   4
BRANCH   2   9
ATOM      9  C   UNL     1       6.741  -2.689  17.953  1.00  0.00    -0.005 C 
ATOM     10  C   UNL     1       6.522  -1.810  18.932  1.00  0.00     0.009 C 
ENDBRANCH   2   9
TORSDOF 3
ENDMDL
MODEL 7
REMARK VINA RESULT:    -4.241     15.059     17.529
REMARK INTER + INTRA:          -5.251
REMARK INTER:                  -4.646
REMARK INTRA:                  -0.605
REMARK UNBOUND:                -0.266
REMARK SMILES C=CC(C)=CCC=C(C)C
REMARK SMILES IDX 5 1 3 2 4 3 6 4 7 5 9 6 8 7 10 8 2 9 1 10
REMARK H PARENT
REMARK Flexibility Score: inf
ROOT
ATOM      1  C   UNL     1      -1.170  -6.535  11.590  1.00  0.00    -0.020 C 
ATOM      2  C   UNL     1      -1.155  -6.405  10.246  1.00  0.00    -0.055 C 
ATOM      3  C   UNL     1      -2.098  -7.254   9.428  1.00  0.00     0.044 C 
ENDROOT
BRANCH   1   4
ATOM      4  C   UNL     1      -0.290  -5.763  12.537  1.00  0.00     0.055 C 
BRANCH   4   5
ATOM      5  C   UNL     1      -0.936  -4.463  12.954  1.00  0.00    -0.024 C 
ATOM      6  C   UNL     1       1.179  -3.190  12.578  1.00  0.00     0.039 C 
ATOM      7  C   UNL     1      -0.273  -3.287  12.975  1.00  0.00    -0.080 C 
ATOM      8  C   UNL     1      -0.980  -2.027  13.404  1.00  0.00     0.039 C 
ENDBRANCH   4   5
ENDBRANCH   1   4
BRANCH   2   9
ATOM      9  C   UNL     1      -0.231  -5.454   9.563  1.00  0.00    -0.005 C 
ATOM     10  C   UNL     1      -0.648  -4.390   8.875  1.00  0.00     0.009 C 
ENDBRANCH   2   9
TORSDOF 3
ENDMDL
MODEL 8
REMARK VINA RESULT:    -4.102      7.449      9.389
REMARK INTER + INTRA:          -5.087
REMARK INTER:                  -4.651
REMARK INTRA:                  -0.436
REMARK UNBOUND:                -0.266
REMARK SMILES C=CC(C)=CCC=C(C)C
REMARK SMILES IDX 5 1 3 2 4 3 6 4 7 5 9 6 8 7 10 8 2 9 1 10
REMARK H PARENT
REMARK Flexibility Score: inf
ROOT
ATOM      1  C   UNL     1       6.894  -2.183  18.335  1.00  0.00    -0.020 C 
ATOM      2  C   UNL     1       7.236  -2.363  17.042  1.00  0.00    -0.055 C 
ATOM      3  C   UNL     1       8.680  -2.658  16.710  1.00  0.00     0.044 C 
ENDROOT
BRANCH   1   4
ATOM      4  C   UNL     1       5.501  -1.880  18.821  1.00  0.00     0.055 C 
BRANCH   4   5
ATOM      5  C   UNL     1       4.650  -3.127  18.867  1.00  0.00    -0.024 C 
ATOM      6  C   UNL     1       2.889  -2.083  17.437  1.00  0.00     0.039 C 
ATOM      7  C   UNL     1       3.459  -3.227  18.239  1.00  0.00    -0.080 C 
ATOM      8  C   UNL     1       2.661  -4.502  18.329  1.00  0.00     0.039 C 
ENDBRANCH   4   5
ENDBRANCH   1   4
BRANCH   2   9
ATOM      9  C   UNL     1       6.227  -2.272  15.946  1.00  0.00    -0.005 C 
ATOM     10  C   UNL     1       6.516  -1.847  14.715  1.00  0.00     0.009 C 
ENDBRANCH   2   9
TORSDOF 3
ENDMDL
MODEL 9
REMARK VINA RESULT:    -4.096      8.137     11.045
REMARK INTER + INTRA:          -5.080
REMARK INTER:                  -4.472
REMARK INTRA:                  -0.608
REMARK UNBOUND:                -0.266
REMARK SMILES C=CC(C)=CCC=C(C)C
REMARK SMILES IDX 5 1 3 2 4 3 6 4 7 5 9 6 8 7 10 8 2 9 1 10
REMARK H PARENT
REMARK Flexibility Score: inf
ROOT
ATOM      1  C   UNL     1       3.085  -3.564  18.090  1.00  0.00    -0.020 C 
ATOM      2  C   UNL     1       4.315  -3.654  18.639  1.00  0.00    -0.055 C 
ATOM      3  C   UNL     1       4.681  -4.913  19.389  1.00  0.00     0.044 C 
ENDROOT
BRANCH   1   4
ATOM      4  C   UNL     1       2.574  -2.376  17.318  1.00  0.00     0.055 C 
BRANCH   4   5
ATOM      5  C   UNL     1       2.130  -2.770  15.929  1.00  0.00    -0.024 C 
ATOM      6  C   UNL     1       4.238  -1.902  14.912  1.00  0.00     0.039 C 
ATOM      7  C   UNL     1       2.882  -2.557  14.829  1.00  0.00    -0.080 C 
ATOM      8  C   UNL     1       2.375  -2.975  13.473  1.00  0.00     0.039 C 
ENDBRANCH   4   5
ENDBRANCH   1   4
BRANCH   2   9
ATOM      9  C   UNL     1       5.305  -2.544  18.525  1.00  0.00    -0.005 C 
ATOM     10  C   UNL     1       6.465  -2.658  17.875  1.00  0.00     0.009 C 
ENDBRANCH   2   9
TORSDOF 3
ENDMDL
