MODEL 1
REMARK VINA RESULT:    -3.466      0.000      0.000
REMARK INTER + INTRA:          -8.464
REMARK INTER:                  -6.303
REMARK INTRA:                  -2.161
REMARK UNBOUND:                -2.161
REMARK SMILES CCCCCCCCCCCCCC[C@@H](C)C(=O)[O-]
REMARK SMILES IDX 9 1 10 2 11 3 12 4 13 5 14 6 15 7 16 8 17 9 18 10 19 11 8 12
REMARK SMILES IDX 7 13 6 14 5 15 4 16 3 17 2 18 1 19
REMARK H PARENT
REMARK Flexibility Score: inf
ROOT
ATOM      1  C   UNL     1      18.237   0.763  39.864  1.00  0.00     0.000 C 
ENDROOT
BRANCH   1   2
ATOM      2  C   UNL     1      17.909   2.153  40.430  1.00  0.00     0.000 C 
BRANCH   2   3
ATOM      3  C   UNL     1      16.426   2.311  40.797  1.00  0.00     0.000 C 
BRANCH   3   4
ATOM      4  C   UNL     1      15.770   3.516  40.098  1.00  0.00     0.000 C 
BRANCH   4   5
ATOM      5  C   UNL     1      16.055   3.550  38.587  1.00  0.00     0.001 C 
BRANCH   5   6
ATOM      6  C   UNL     1      14.901   2.956  37.753  1.00  0.00     0.009 C 
BRANCH   6   7
ATOM      7  C   UNL     1      14.966   1.421  37.585  1.00  0.00     0.032 C 
ATOM      8  C   UNL     1      13.710   0.714  38.116  1.00  0.00     0.014 C 
BRANCH   7   9
ATOM      9  C   UNL     1      15.279   1.029  36.165  1.00  0.00     0.044 C 
ATOM     10  O   UNL     1      14.918  -0.089  35.706  1.00  0.00    -0.550 OA
ATOM     11  O   UNL     1      15.929   1.929  35.331  1.00  0.00    -0.550 OA
ENDBRANCH   7   9
ENDBRANCH   6   7
ENDBRANCH   5   6
ENDBRANCH   4   5
ENDBRANCH   3   4
ENDBRANCH   2   3
ENDBRANCH   1   2
BRANCH   1  12
ATOM     12  C   UNL     1      19.741   0.618  39.601  1.00  0.00     0.000 C 
BRANCH  12  13
ATOM     13  C   UNL     1      20.358  -0.457  40.503  1.00  0.00    -0.000 C 
BRANCH  13  14
ATOM     14  C   UNL     1      19.297  -1.463  40.966  1.00  0.00    -0.000 C 
BRANCH  14  15
ATOM     15  C   UNL     1      19.485  -1.822  42.445  1.00  0.00    -0.000 C 
BRANCH  15  16
ATOM     16  C   UNL     1      19.876  -0.585  43.266  1.00  0.00    -0.000 C 
BRANCH  16  17
ATOM     17  C   UNL     1      18.655   0.207  43.761  1.00  0.00    -0.000 C 
BRANCH  17  18
ATOM     18  C   UNL     1      18.896   1.723  43.763  1.00  0.00    -0.003 C 
ATOM     19  C   UNL     1      20.306   2.055  43.279  1.00  0.00     0.004 C 
ENDBRANCH  17  18
ENDBRANCH  16  17
ENDBRANCH  15  16
ENDBRANCH  14  15
ENDBRANCH  13  14
ENDBRANCH  12  13
ENDBRANCH   1  12
TORSDOF 14
ENDMDL
MODEL 2
REMARK VINA RESULT:    -3.442      1.535      3.543
REMARK INTER + INTRA:          -8.420
REMARK INTER:                  -6.882
REMARK INTRA:                  -1.538
REMARK UNBOUND:                -2.161
REMARK SMILES CCCCCCCCCCCCCC[C@@H](C)C(=O)[O-]
REMARK SMILES IDX 9 1 10 2 11 3 12 4 13 5 14 6 15 7 16 8 17 9 18 10 19 11 8 12
REMARK SMILES IDX 7 13 6 14 5 15 4 16 3 17 2 18 1 19
REMARK H PARENT
REMARK Flexibility Score: inf
ROOT
ATOM      1  C   UNL     1      15.880   3.460  40.200  1.00  0.00     0.000 C 
ENDROOT
BRANCH   1   2
ATOM      2  C   UNL     1      15.809   2.947  38.754  1.00  0.00     0.000 C 
BRANCH   2   3
ATOM      3  C   UNL     1      14.395   2.502  38.350  1.00  0.00     0.000 C 
BRANCH   3   4
ATOM      4  C   UNL     1      14.355   1.048  37.844  1.00  0.00     0.000 C 
BRANCH   4   5
ATOM      5  C   UNL     1      15.758   0.434  37.702  1.00  0.00     0.001 C 
BRANCH   5   6
ATOM      6  C   UNL     1      16.027  -0.109  36.283  1.00  0.00     0.009 C 
BRANCH   6   7
ATOM      7  C   UNL     1      15.386   0.727  35.153  1.00  0.00     0.032 C 
ATOM      8  C   UNL     1      16.225   1.960  34.780  1.00  0.00     0.014 C 
BRANCH   7   9
ATOM      9  C   UNL     1      15.059  -0.119  33.951  1.00  0.00     0.044 C 
ATOM     10  O   UNL     1      13.884  -0.177  33.499  1.00  0.00    -0.550 OA
ATOM     11  O   UNL     1      16.074  -0.806  33.298  1.00  0.00    -0.550 OA
ENDBRANCH   7   9
ENDBRANCH   6   7
ENDBRANCH   5   6
ENDBRANCH   4   5
ENDBRANCH   3   4
ENDBRANCH   2   3
ENDBRANCH   1   2
BRANCH   1  12
ATOM     12  C   UNL     1      16.483   2.400  41.130  1.00  0.00     0.000 C 
BRANCH  12  13
ATOM     13  C   UNL     1      16.795   2.990  42.510  1.00  0.00    -0.000 C 
BRANCH  13  14
ATOM     14  C   UNL     1      17.218   1.894  43.496  1.00  0.00    -0.000 C 
BRANCH  14  15
ATOM     15  C   UNL     1      18.543   2.249  44.180  1.00  0.00    -0.000 C 
BRANCH  15  16
ATOM     16  C   UNL     1      19.709   2.191  43.183  1.00  0.00    -0.000 C 
BRANCH  16  17
ATOM     17  C   UNL     1      19.952   0.776  42.636  1.00  0.00    -0.000 C 
BRANCH  17  18
ATOM     18  C   UNL     1      20.324   0.774  41.146  1.00  0.00    -0.003 C 
ATOM     19  C   UNL     1      19.198   0.187  40.299  1.00  0.00     0.004 C 
ENDBRANCH  17  18
ENDBRANCH  16  17
ENDBRANCH  15  16
ENDBRANCH  14  15
ENDBRANCH  13  14
ENDBRANCH  12  13
ENDBRANCH   1  12
TORSDOF 14
ENDMDL
MODEL 3
REMARK VINA RESULT:    -3.427      4.601      6.879
REMARK INTER + INTRA:          -8.392
REMARK INTER:                  -5.777
REMARK INTRA:                  -2.615
REMARK UNBOUND:                -2.161
REMARK SMILES CCCCCCCCCCCCCC[C@@H](C)C(=O)[O-]
REMARK SMILES IDX 9 1 10 2 11 3 12 4 13 5 14 6 15 7 16 8 17 9 18 10 19 11 8 12
REMARK SMILES IDX 7 13 6 14 5 15 4 16 3 17 2 18 1 19
REMARK H PARENT
REMARK Flexibility Score: inf
ROOT
ATOM      1  C   UNL     1      18.930  -5.254  41.690  1.00  0.00     0.000 C 
ENDROOT
BRANCH   1   2
ATOM      2  C   UNL     1      18.649  -3.774  41.389  1.00  0.00     0.000 C 
BRANCH   2   3
ATOM      3  C   UNL     1      19.829  -3.073  40.697  1.00  0.00     0.000 C 
BRANCH   3   4
ATOM      4  C   UNL     1      20.377  -1.892  41.518  1.00  0.00     0.000 C 
BRANCH   4   5
ATOM      5  C   UNL     1      19.265  -1.090  42.215  1.00  0.00     0.001 C 
BRANCH   5   6
ATOM      6  C   UNL     1      19.723  -0.487  43.559  1.00  0.00     0.009 C 
BRANCH   6   7
ATOM      7  C   UNL     1      19.403   1.017  43.719  1.00  0.00     0.032 C 
ATOM      8  C   UNL     1      20.356   1.914  42.915  1.00  0.00     0.014 C 
BRANCH   7   9
ATOM      9  C   UNL     1      17.957   1.314  43.417  1.00  0.00     0.044 C 
ATOM     10  O   UNL     1      17.637   2.074  42.464  1.00  0.00    -0.550 OA
ATOM     11  O   UNL     1      16.960   0.705  44.168  1.00  0.00    -0.550 OA
ENDBRANCH   7   9
ENDBRANCH   6   7
ENDBRANCH   5   6
ENDBRANCH   4   5
ENDBRANCH   3   4
ENDBRANCH   2   3
ENDBRANCH   1   2
BRANCH   1  12
ATOM     12  C   UNL     1      18.788  -5.545  43.189  1.00  0.00     0.000 C 
BRANCH  12  13
ATOM     13  C   UNL     1      18.460  -4.267  43.971  1.00  0.00    -0.000 C 
BRANCH  13  14
ATOM     14  C   UNL     1      19.642  -3.839  44.848  1.00  0.00    -0.000 C 
BRANCH  14  15
ATOM     15  C   UNL     1      20.409  -5.058  45.374  1.00  0.00    -0.000 C 
BRANCH  15  16
ATOM     16  C   UNL     1      21.895  -4.977  44.998  1.00  0.00    -0.000 C 
BRANCH  16  17
ATOM     17  C   UNL     1      22.225  -3.738  44.150  1.00  0.00    -0.000 C 
BRANCH  17  18
ATOM     18  C   UNL     1      22.920  -4.095  42.828  1.00  0.00    -0.003 C 
ATOM     19  C   UNL     1      22.547  -5.505  42.375  1.00  0.00     0.004 C 
ENDBRANCH  17  18
ENDBRANCH  16  17
ENDBRANCH  15  16
ENDBRANCH  14  15
ENDBRANCH  13  14
ENDBRANCH  12  13
ENDBRANCH   1  12
TORSDOF 14
ENDMDL
MODEL 4
REMARK VINA RESULT:    -3.407      1.994      3.641
REMARK INTER + INTRA:          -8.356
REMARK INTER:                  -6.112
REMARK INTRA:                  -2.244
REMARK UNBOUND:                -2.161
REMARK SMILES CCCCCCCCCCCCCC[C@@H](C)C(=O)[O-]
REMARK SMILES IDX 9 1 10 2 11 3 12 4 13 5 14 6 15 7 16 8 17 9 18 10 19 11 8 12
REMARK SMILES IDX 7 13 6 14 5 15 4 16 3 17 2 18 1 19
REMARK H PARENT
REMARK Flexibility Score: inf
ROOT
ATOM      1  C   UNL     1      16.657   4.975  43.957  1.00  0.00     0.000 C 
ENDROOT
BRANCH   1   2
ATOM      2  C   UNL     1      17.315   4.792  42.581  1.00  0.00     0.000 C 
BRANCH   2   3
ATOM      3  C   UNL     1      16.351   4.218  41.532  1.00  0.00     0.000 C 
BRANCH   3   4
ATOM      4  C   UNL     1      17.079   3.426  40.431  1.00  0.00     0.000 C 
BRANCH   4   5
ATOM      5  C   UNL     1      16.754   1.923  40.470  1.00  0.00     0.001 C 
BRANCH   5   6
ATOM      6  C   UNL     1      16.440   1.348  39.074  1.00  0.00     0.009 C 
BRANCH   6   7
ATOM      7  C   UNL     1      15.208   1.982  38.390  1.00  0.00     0.032 C 
ATOM      8  C   UNL     1      15.588   3.084  37.390  1.00  0.00     0.014 C 
BRANCH   7   9
ATOM      9  C   UNL     1      14.316   0.938  37.770  1.00  0.00     0.044 C 
ATOM     10  O   UNL     1      14.548   0.490  36.615  1.00  0.00    -0.550 OA
ATOM     11  O   UNL     1      13.251   0.425  38.498  1.00  0.00    -0.550 OA
ENDBRANCH   7   9
ENDBRANCH   6   7
ENDBRANCH   5   6
ENDBRANCH   4   5
ENDBRANCH   3   4
ENDBRANCH   2   3
ENDBRANCH   1   2
BRANCH   1  12
ATOM     12  C   UNL     1      16.114   3.642  44.488  1.00  0.00     0.000 C 
BRANCH  12  13
ATOM     13  C   UNL     1      17.257   2.676  44.824  1.00  0.00    -0.000 C 
BRANCH  13  14
ATOM     14  C   UNL     1      17.045   1.316  44.149  1.00  0.00    -0.000 C 
BRANCH  14  15
ATOM     15  C   UNL     1      18.367   0.756  43.610  1.00  0.00    -0.000 C 
BRANCH  15  16
ATOM     16  C   UNL     1      19.505   1.773  43.781  1.00  0.00    -0.000 C 
BRANCH  16  17
ATOM     17  C   UNL     1      20.185   2.130  42.450  1.00  0.00    -0.000 C 
BRANCH  17  18
ATOM     18  C   UNL     1      20.219   0.950  41.468  1.00  0.00    -0.003 C 
ATOM     19  C   UNL     1      20.670   1.403  40.081  1.00  0.00     0.004 C 
ENDBRANCH  17  18
ENDBRANCH  16  17
ENDBRANCH  15  16
ENDBRANCH  14  15
ENDBRANCH  13  14
ENDBRANCH  12  13
ENDBRANCH   1  12
TORSDOF 14
ENDMDL
MODEL 5
REMARK VINA RESULT:    -3.398      2.373      4.313
REMARK INTER + INTRA:          -8.341
REMARK INTER:                  -5.863
REMARK INTRA:                  -2.478
REMARK UNBOUND:                -2.161
REMARK SMILES CCCCCCCCCCCCCC[C@@H](C)C(=O)[O-]
REMARK SMILES IDX 9 1 10 2 11 3 12 4 13 5 14 6 15 7 16 8 17 9 18 10 19 11 8 12
REMARK SMILES IDX 7 13 6 14 5 15 4 16 3 17 2 18 1 19
REMARK H PARENT
REMARK Flexibility Score: inf
ROOT
ATOM      1  C   UNL     1      16.537   4.426  37.667  1.00  0.00     0.000 C 
ENDROOT
BRANCH   1   2
ATOM      2  C   UNL     1      15.318   3.492  37.694  1.00  0.00     0.000 C 
BRANCH   2   3
ATOM      3  C   UNL     1      15.252   2.636  38.968  1.00  0.00     0.000 C 
BRANCH   3   4
ATOM      4  C   UNL     1      15.170   1.129  38.663  1.00  0.00     0.000 C 
BRANCH   4   5
ATOM      5  C   UNL     1      14.339   0.825  37.405  1.00  0.00     0.001 C 
BRANCH   5   6
ATOM      6  C   UNL     1      15.115  -0.016  36.371  1.00  0.00     0.009 C 
BRANCH   6   7
ATOM      7  C   UNL     1      15.444   0.736  35.062  1.00  0.00     0.032 C 
ATOM      8  C   UNL     1      16.855   1.345  35.068  1.00  0.00     0.014 C 
BRANCH   7   9
ATOM      9  C   UNL     1      15.205  -0.124  33.849  1.00  0.00     0.044 C 
ATOM     10  O   UNL     1      14.060  -0.208  33.329  1.00  0.00    -0.550 OA
ATOM     11  O   UNL     1      16.269  -0.797  33.264  1.00  0.00    -0.550 OA
ENDBRANCH   7   9
ENDBRANCH   6   7
ENDBRANCH   5   6
ENDBRANCH   4   5
ENDBRANCH   3   4
ENDBRANCH   2   3
ENDBRANCH   1   2
BRANCH   1  12
ATOM     12  C   UNL     1      17.823   3.660  38.002  1.00  0.00     0.000 C 
BRANCH  12  13
ATOM     13  C   UNL     1      18.762   4.510  38.866  1.00  0.00    -0.000 C 
BRANCH  13  14
ATOM     14  C   UNL     1      17.986   5.600  39.615  1.00  0.00    -0.000 C 
BRANCH  14  15
ATOM     15  C   UNL     1      18.008   5.352  41.128  1.00  0.00    -0.000 C 
BRANCH  15  16
ATOM     16  C   UNL     1      16.630   4.896  41.630  1.00  0.00    -0.000 C 
BRANCH  16  17
ATOM     17  C   UNL     1      16.627   3.435  42.105  1.00  0.00    -0.000 C 
BRANCH  17  18
ATOM     18  C   UNL     1      18.026   2.803  42.082  1.00  0.00    -0.003 C 
ATOM     19  C   UNL     1      18.062   1.582  41.167  1.00  0.00     0.004 C 
ENDBRANCH  17  18
ENDBRANCH  16  17
ENDBRANCH  15  16
ENDBRANCH  14  15
ENDBRANCH  13  14
ENDBRANCH  12  13
ENDBRANCH   1  12
TORSDOF 14
ENDMDL
MODEL 6
REMARK VINA RESULT:    -3.364      4.143      6.872
REMARK INTER + INTRA:          -8.277
REMARK INTER:                  -5.733
REMARK INTRA:                  -2.544
REMARK UNBOUND:                -2.161
REMARK SMILES CCCCCCCCCCCCCC[C@@H](C)C(=O)[O-]
REMARK SMILES IDX 9 1 10 2 11 3 12 4 13 5 14 6 15 7 16 8 17 9 18 10 19 11 8 12
REMARK SMILES IDX 7 13 6 14 5 15 4 16 3 17 2 18 1 19
REMARK H PARENT
REMARK Flexibility Score: inf
ROOT
ATOM      1  C   UNL     1      20.208   1.726  43.489  1.00  0.00     0.000 C 
ENDROOT
BRANCH   1   2
ATOM      2  C   UNL     1      19.302   0.812  44.327  1.00  0.00     0.000 C 
BRANCH   2   3
ATOM      3  C   UNL     1      18.223   0.111  43.487  1.00  0.00     0.000 C 
BRANCH   3   4
ATOM      4  C   UNL     1      16.798   0.549  43.871  1.00  0.00     0.000 C 
BRANCH   4   5
ATOM      5  C   UNL     1      16.789   1.666  44.928  1.00  0.00     0.001 C 
BRANCH   5   6
ATOM      6  C   UNL     1      16.355   3.028  44.347  1.00  0.00     0.009 C 
BRANCH   6   7
ATOM      7  C   UNL     1      17.505   4.050  44.202  1.00  0.00     0.032 C 
ATOM      8  C   UNL     1      17.140   5.226  43.284  1.00  0.00     0.014 C 
BRANCH   7   9
ATOM      9  C   UNL     1      18.010   4.515  45.543  1.00  0.00     0.044 C 
ATOM     10  O   UNL     1      17.341   5.321  46.244  1.00  0.00    -0.550 OA
ATOM     11  O   UNL     1      19.205   4.011  46.039  1.00  0.00    -0.550 OA
ENDBRANCH   7   9
ENDBRANCH   6   7
ENDBRANCH   5   6
ENDBRANCH   4   5
ENDBRANCH   3   4
ENDBRANCH   2   3
ENDBRANCH   1   2
BRANCH   1  12
ATOM     12  C   UNL     1      19.904   1.579  41.993  1.00  0.00     0.000 C 
BRANCH  12  13
ATOM     13  C   UNL     1      19.476   2.919  41.383  1.00  0.00    -0.000 C 
BRANCH  13  14
ATOM     14  C   UNL     1      18.818   2.716  40.013  1.00  0.00    -0.000 C 
BRANCH  14  15
ATOM     15  C   UNL     1      17.642   1.736  40.106  1.00  0.00    -0.000 C 
BRANCH  15  16
ATOM     16  C   UNL     1      16.439   2.385  40.804  1.00  0.00    -0.000 C 
BRANCH  16  17
ATOM     17  C   UNL     1      15.628   3.292  39.866  1.00  0.00    -0.000 C 
BRANCH  17  18
ATOM     18  C   UNL     1      15.115   2.549  38.624  1.00  0.00    -0.003 C 
ATOM     19  C   UNL     1      13.831   3.184  38.096  1.00  0.00     0.004 C 
ENDBRANCH  17  18
ENDBRANCH  16  17
ENDBRANCH  15  16
ENDBRANCH  14  15
ENDBRANCH  13  14
ENDBRANCH  12  13
ENDBRANCH   1  12
TORSDOF 14
ENDMDL
MODEL 7
REMARK VINA RESULT:    -3.353      1.729      3.498
REMARK INTER + INTRA:          -8.258
REMARK INTER:                  -5.952
REMARK INTRA:                  -2.306
REMARK UNBOUND:                -2.161
REMARK SMILES CCCCCCCCCCCCCC[C@@H](C)C(=O)[O-]
REMARK SMILES IDX 9 1 10 2 11 3 12 4 13 5 14 6 15 7 16 8 17 9 18 10 19 11 8 12
REMARK SMILES IDX 7 13 6 14 5 15 4 16 3 17 2 18 1 19
REMARK H PARENT
REMARK Flexibility Score: inf
ROOT
ATOM      1  C   UNL     1      20.963  -1.259  40.357  1.00  0.00     0.000 C 
ENDROOT
BRANCH   1   2
ATOM      2  C   UNL     1      20.066  -2.234  39.579  1.00  0.00     0.000 C 
BRANCH   2   3
ATOM      3  C   UNL     1      18.619  -1.736  39.449  1.00  0.00     0.000 C 
BRANCH   3   4
ATOM      4  C   UNL     1      18.101  -1.799  38.000  1.00  0.00     0.000 C 
BRANCH   4   5
ATOM      5  C   UNL     1      17.359  -0.518  37.582  1.00  0.00     0.001 C 
BRANCH   5   6
ATOM      6  C   UNL     1      17.557   0.637  38.585  1.00  0.00     0.009 C 
BRANCH   6   7
ATOM      7  C   UNL     1      16.250   1.134  39.243  1.00  0.00     0.032 C 
ATOM      8  C   UNL     1      16.471   2.356  40.148  1.00  0.00     0.014 C 
BRANCH   7   9
ATOM      9  C   UNL     1      15.168   1.373  38.223  1.00  0.00     0.044 C 
ATOM     10  O   UNL     1      14.103   0.699  38.237  1.00  0.00    -0.550 OA
ATOM     11  O   UNL     1      15.323   2.384  37.283  1.00  0.00    -0.550 OA
ENDBRANCH   7   9
ENDBRANCH   6   7
ENDBRANCH   5   6
ENDBRANCH   4   5
ENDBRANCH   3   4
ENDBRANCH   2   3
ENDBRANCH   1   2
BRANCH   1  12
ATOM     12  C   UNL     1      21.358  -0.061  39.484  1.00  0.00     0.000 C 
BRANCH  12  13
ATOM     13  C   UNL     1      21.243   1.253  40.266  1.00  0.00    -0.000 C 
BRANCH  13  14
ATOM     14  C   UNL     1      20.053   1.217  41.233  1.00  0.00    -0.000 C 
BRANCH  14  15
ATOM     15  C   UNL     1      20.428   1.820  42.591  1.00  0.00    -0.000 C 
BRANCH  15  16
ATOM     16  C   UNL     1      19.644   1.147  43.727  1.00  0.00    -0.000 C 
BRANCH  16  17
ATOM     17  C   UNL     1      19.012  -0.188  43.300  1.00  0.00    -0.000 C 
BRANCH  17  18
ATOM     18  C   UNL     1      19.761  -1.403  43.866  1.00  0.00    -0.003 C 
ATOM     19  C   UNL     1      19.109  -2.708  43.414  1.00  0.00     0.004 C 
ENDBRANCH  17  18
ENDBRANCH  16  17
ENDBRANCH  15  16
ENDBRANCH  14  15
ENDBRANCH  13  14
ENDBRANCH  12  13
ENDBRANCH   1  12
TORSDOF 14
ENDMDL
MODEL 8
REMARK VINA RESULT:    -3.347      1.541      3.211
REMARK INTER + INTRA:          -8.247
REMARK INTER:                  -5.608
REMARK INTRA:                  -2.638
REMARK UNBOUND:                -2.161
REMARK SMILES CCCCCCCCCCCCCC[C@@H](C)C(=O)[O-]
REMARK SMILES IDX 9 1 10 2 11 3 12 4 13 5 14 6 15 7 16 8 17 9 18 10 19 11 8 12
REMARK SMILES IDX 7 13 6 14 5 15 4 16 3 17 2 18 1 19
REMARK H PARENT
REMARK Flexibility Score: inf
ROOT
ATOM      1  C   UNL     1      20.247   1.947  42.171  1.00  0.00     0.000 C 
ENDROOT
BRANCH   1   2
ATOM      2  C   UNL     1      19.701   2.039  40.738  1.00  0.00     0.000 C 
BRANCH   2   3
ATOM      3  C   UNL     1      18.897   0.796  40.328  1.00  0.00     0.000 C 
BRANCH   3   4
ATOM      4  C   UNL     1      17.787   1.119  39.311  1.00  0.00     0.000 C 
BRANCH   4   5
ATOM      5  C   UNL     1      18.164   2.279  38.374  1.00  0.00     0.001 C 
BRANCH   5   6
ATOM      6  C   UNL     1      16.935   2.912  37.690  1.00  0.00     0.009 C 
BRANCH   6   7
ATOM      7  C   UNL     1      15.620   2.127  37.897  1.00  0.00     0.032 C 
ATOM      8  C   UNL     1      14.456   3.026  38.339  1.00  0.00     0.014 C 
BRANCH   7   9
ATOM      9  C   UNL     1      15.268   1.301  36.686  1.00  0.00     0.044 C 
ATOM     10  O   UNL     1      14.380   0.409  36.746  1.00  0.00    -0.550 OA
ATOM     11  O   UNL     1      15.894   1.559  35.474  1.00  0.00    -0.550 OA
ENDBRANCH   7   9
ENDBRANCH   6   7
ENDBRANCH   5   6
ENDBRANCH   4   5
ENDBRANCH   3   4
ENDBRANCH   2   3
ENDBRANCH   1   2
BRANCH   1  12
ATOM     12  C   UNL     1      19.822   0.633  42.838  1.00  0.00     0.000 C 
BRANCH  12  13
ATOM     13  C   UNL     1      18.906   0.895  44.039  1.00  0.00    -0.000 C 
BRANCH  13  14
ATOM     14  C   UNL     1      17.477   0.419  43.757  1.00  0.00    -0.000 C 
BRANCH  14  15
ATOM     15  C   UNL     1      16.638   1.535  43.123  1.00  0.00    -0.000 C 
BRANCH  15  16
ATOM     16  C   UNL     1      16.945   2.891  43.774  1.00  0.00    -0.000 C 
BRANCH  16  17
ATOM     17  C   UNL     1      16.369   4.073  42.980  1.00  0.00    -0.000 C 
BRANCH  17  18
ATOM     18  C   UNL     1      16.421   3.847  41.462  1.00  0.00    -0.003 C 
ATOM     19  C   UNL     1      17.204   4.959  40.768  1.00  0.00     0.004 C 
ENDBRANCH  17  18
ENDBRANCH  16  17
ENDBRANCH  15  16
ENDBRANCH  14  15
ENDBRANCH  13  14
ENDBRANCH  12  13
ENDBRANCH   1  12
TORSDOF 14
ENDMDL
MODEL 9
REMARK VINA RESULT:    -3.299      2.727      4.594
REMARK INTER + INTRA:          -8.161
REMARK INTER:                  -5.613
REMARK INTRA:                  -2.548
REMARK UNBOUND:                -2.161
REMARK SMILES CCCCCCCCCCCCCC[C@@H](C)C(=O)[O-]
REMARK SMILES IDX 9 1 10 2 11 3 12 4 13 5 14 6 15 7 16 8 17 9 18 10 19 11 8 12
REMARK SMILES IDX 7 13 6 14 5 15 4 16 3 17 2 18 1 19
REMARK H PARENT
REMARK Flexibility Score: inf
ROOT
ATOM      1  C   UNL     1      14.988   2.670  38.519  1.00  0.00     0.000 C 
ENDROOT
BRANCH   1   2
ATOM      2  C   UNL     1      15.140   2.663  36.991  1.00  0.00     0.000 C 
BRANCH   2   3
ATOM      3  C   UNL     1      15.629   4.010  36.436  1.00  0.00     0.000 C 
BRANCH   3   4
ATOM      4  C   UNL     1      16.639   3.844  35.287  1.00  0.00     0.000 C 
BRANCH   4   5
ATOM      5  C   UNL     1      16.855   2.371  34.898  1.00  0.00     0.001 C 
BRANCH   5   6
ATOM      6  C   UNL     1      16.198   2.011  33.550  1.00  0.00     0.009 C 
BRANCH   6   7
ATOM      7  C   UNL     1      15.998   0.495  33.328  1.00  0.00     0.032 C 
ATOM      8  C   UNL     1      17.196  -0.337  33.809  1.00  0.00     0.014 C 
BRANCH   7   9
ATOM      9  C   UNL     1      14.700   0.012  33.921  1.00  0.00     0.044 C 
ATOM     10  O   UNL     1      14.623  -0.314  35.137  1.00  0.00    -0.550 OA
ATOM     11  O   UNL     1      13.558  -0.028  33.133  1.00  0.00    -0.550 OA
ENDBRANCH   7   9
ENDBRANCH   6   7
ENDBRANCH   5   6
ENDBRANCH   4   5
ENDBRANCH   3   4
ENDBRANCH   2   3
ENDBRANCH   1   2
BRANCH   1  12
ATOM     12  C   UNL     1      15.441   1.334  39.122  1.00  0.00     0.000 C 
BRANCH  12  13
ATOM     13  C   UNL     1      16.173   0.479  38.080  1.00  0.00    -0.000 C 
BRANCH  13  14
ATOM     14  C   UNL     1      17.688   0.702  38.151  1.00  0.00    -0.000 C 
BRANCH  14  15
ATOM     15  C   UNL     1      18.126   1.078  39.571  1.00  0.00    -0.000 C 
BRANCH  15  16
ATOM     16  C   UNL     1      18.886   2.412  39.577  1.00  0.00    -0.000 C 
BRANCH  16  17
ATOM     17  C   UNL     1      18.811   3.142  38.227  1.00  0.00    -0.000 C 
BRANCH  17  18
ATOM     18  C   UNL     1      18.749   4.668  38.384  1.00  0.00    -0.003 C 
ATOM     19  C   UNL     1      17.614   5.078  39.319  1.00  0.00     0.004 C 
ENDBRANCH  17  18
ENDBRANCH  16  17
ENDBRANCH  15  16
ENDBRANCH  14  15
ENDBRANCH  13  14
ENDBRANCH  12  13
ENDBRANCH   1  12
TORSDOF 14
ENDMDL
