MODEL 1
REMARK VINA RESULT:    -4.108      0.000      0.000
REMARK INTER + INTRA:          -5.896
REMARK INTER:                  -5.549
REMARK INTRA:                  -0.347
REMARK UNBOUND:                -0.347
REMARK SMILES CCCCCCCC(=O)[O-]
REMARK SMILES IDX 5 1 6 2 7 3 8 4 9 5 10 6 4 7 3 8 2 9 1 10
REMARK H PARENT
REMARK Flexibility Score: inf
ROOT
ATOM      1  C   UNL     1      11.102 -14.562 -22.844  1.00  0.00     0.000 C 
ENDROOT
BRANCH   1   2
ATOM      2  C   UNL     1      10.005 -14.092 -21.874  1.00  0.00     0.006 C 
BRANCH   2   3
ATOM      3  C   UNL     1       9.831 -15.049 -20.688  1.00  0.00     0.053 C 
BRANCH   3   4
ATOM      4  C   UNL     1      10.655 -14.628 -19.509  1.00  0.00     0.041 C 
ATOM      5  O   UNL     1      11.193 -15.494 -18.771  1.00  0.00    -0.550 OA
ATOM      6  O   UNL     1      10.800 -13.280 -19.207  1.00  0.00    -0.550 OA
ENDBRANCH   3   4
ENDBRANCH   2   3
ENDBRANCH   1   2
BRANCH   1   7
ATOM      7  C   UNL     1      10.532 -15.124 -24.156  1.00  0.00     0.000 C 
BRANCH   7   8
ATOM      8  C   UNL     1      11.125 -16.493 -24.521  1.00  0.00    -0.000 C 
BRANCH   8   9
ATOM      9  C   UNL     1      11.485 -17.288 -23.260  1.00  0.00    -0.003 C 
ATOM     10  C   UNL     1      11.426 -18.790 -23.520  1.00  0.00     0.004 C 
ENDBRANCH   8   9
ENDBRANCH   7   8
ENDBRANCH   1   7
TORSDOF 6
ENDMDL
MODEL 2
REMARK VINA RESULT:    -4.091      2.176      3.696
REMARK INTER + INTRA:          -5.873
REMARK INTER:                  -5.440
REMARK INTRA:                  -0.433
REMARK UNBOUND:                -0.347
REMARK SMILES CCCCCCCC(=O)[O-]
REMARK SMILES IDX 5 1 6 2 7 3 8 4 9 5 10 6 4 7 3 8 2 9 1 10
REMARK H PARENT
REMARK Flexibility Score: inf
ROOT
ATOM      1  C   UNL     1      10.852 -14.265 -23.344  1.00  0.00     0.000 C 
ENDROOT
BRANCH   1   2
ATOM      2  C   UNL     1      10.800 -15.164 -22.097  1.00  0.00     0.006 C 
BRANCH   2   3
ATOM      3  C   UNL     1       9.717 -14.718 -21.106  1.00  0.00     0.053 C 
BRANCH   3   4
ATOM      4  C   UNL     1      10.210 -13.637 -20.193  1.00  0.00     0.041 C 
ATOM      5  O   UNL     1      10.774 -13.934 -19.107  1.00  0.00    -0.550 OA
ATOM      6  O   UNL     1      10.017 -12.302 -20.526  1.00  0.00    -0.550 OA
ENDBRANCH   3   4
ENDBRANCH   2   3
ENDBRANCH   1   2
BRANCH   1   7
ATOM      7  C   UNL     1       9.523 -14.246 -24.116  1.00  0.00     0.000 C 
BRANCH   7   8
ATOM      8  C   UNL     1       9.051 -12.822 -24.445  1.00  0.00    -0.000 C 
BRANCH   8   9
ATOM      9  C   UNL     1      10.087 -11.784 -23.999  1.00  0.00    -0.003 C 
ATOM     10  C   UNL     1       9.790 -10.414 -24.602  1.00  0.00     0.004 C 
ENDBRANCH   8   9
ENDBRANCH   7   8
ENDBRANCH   1   7
TORSDOF 6
ENDMDL
MODEL 3
REMARK VINA RESULT:    -4.029      1.365      2.959
REMARK INTER + INTRA:          -5.789
REMARK INTER:                  -5.357
REMARK INTRA:                  -0.432
REMARK UNBOUND:                -0.347
REMARK SMILES CCCCCCCC(=O)[O-]
REMARK SMILES IDX 5 1 6 2 7 3 8 4 9 5 10 6 4 7 3 8 2 9 1 10
REMARK H PARENT
REMARK Flexibility Score: inf
ROOT
ATOM      1  C   UNL     1      10.353 -16.154 -22.963  1.00  0.00     0.000 C 
ENDROOT
BRANCH   1   2
ATOM      2  C   UNL     1      10.548 -16.173 -21.437  1.00  0.00     0.006 C 
BRANCH   2   3
ATOM      3  C   UNL     1       9.884 -14.970 -20.753  1.00  0.00     0.053 C 
BRANCH   3   4
ATOM      4  C   UNL     1      10.638 -14.540 -19.532  1.00  0.00     0.041 C 
ATOM      5  O   UNL     1      11.144 -15.400 -18.765  1.00  0.00    -0.550 OA
ATOM      6  O   UNL     1      10.752 -13.191 -19.223  1.00  0.00    -0.550 OA
ENDBRANCH   3   4
ENDBRANCH   2   3
ENDBRANCH   1   2
BRANCH   1   7
ATOM      7  C   UNL     1      10.795 -14.827 -23.599  1.00  0.00     0.000 C 
BRANCH   7   8
ATOM      8  C   UNL     1       9.689 -14.181 -24.447  1.00  0.00    -0.000 C 
BRANCH   8   9
ATOM      9  C   UNL     1       9.107 -12.949 -23.744  1.00  0.00    -0.003 C 
ATOM     10  C   UNL     1      10.214 -12.048 -23.204  1.00  0.00     0.004 C 
ENDBRANCH   8   9
ENDBRANCH   7   8
ENDBRANCH   1   7
TORSDOF 6
ENDMDL
MODEL 4
REMARK VINA RESULT:    -3.989      2.985      4.680
REMARK INTER + INTRA:          -5.735
REMARK INTER:                  -5.414
REMARK INTRA:                  -0.321
REMARK UNBOUND:                -0.347
REMARK SMILES CCCCCCCC(=O)[O-]
REMARK SMILES IDX 5 1 6 2 7 3 8 4 9 5 10 6 4 7 3 8 2 9 1 10
REMARK H PARENT
REMARK Flexibility Score: inf
ROOT
ATOM      1  C   UNL     1       9.735 -13.860 -23.973  1.00  0.00     0.000 C 
ENDROOT
BRANCH   1   2
ATOM      2  C   UNL     1      10.780 -13.826 -22.844  1.00  0.00     0.006 C 
BRANCH   2   3
ATOM      3  C   UNL     1      10.246 -14.439 -21.542  1.00  0.00     0.053 C 
BRANCH   3   4
ATOM      4  C   UNL     1      10.313 -13.467 -20.404  1.00  0.00     0.041 C 
ATOM      5  O   UNL     1       9.994 -12.262 -20.580  1.00  0.00    -0.550 OA
ATOM      6  O   UNL     1      10.760 -13.885 -19.157  1.00  0.00    -0.550 OA
ENDBRANCH   3   4
ENDBRANCH   2   3
ENDBRANCH   1   2
BRANCH   1   7
ATOM      7  C   UNL     1       8.984 -12.528 -24.124  1.00  0.00     0.000 C 
BRANCH   7   8
ATOM      8  C   UNL     1       9.902 -11.309 -23.953  1.00  0.00    -0.000 C 
BRANCH   8   9
ATOM      9  C   UNL     1       9.774 -10.355 -25.147  1.00  0.00    -0.003 C 
ATOM     10  C   UNL     1       9.411  -8.946 -24.690  1.00  0.00     0.004 C 
ENDBRANCH   8   9
ENDBRANCH   7   8
ENDBRANCH   1   7
TORSDOF 6
ENDMDL
MODEL 5
REMARK VINA RESULT:    -3.878      1.208      1.839
REMARK INTER + INTRA:          -5.585
REMARK INTER:                  -5.163
REMARK INTRA:                  -0.422
REMARK UNBOUND:                -0.347
REMARK SMILES CCCCCCCC(=O)[O-]
REMARK SMILES IDX 5 1 6 2 7 3 8 4 9 5 10 6 4 7 3 8 2 9 1 10
REMARK H PARENT
REMARK Flexibility Score: inf
ROOT
ATOM      1  C   UNL     1      10.292 -14.933 -23.850  1.00  0.00     0.000 C 
ENDROOT
BRANCH   1   2
ATOM      2  C   UNL     1      10.898 -14.506 -22.502  1.00  0.00     0.006 C 
BRANCH   2   3
ATOM      3  C   UNL     1       9.854 -14.487 -21.378  1.00  0.00     0.053 C 
BRANCH   3   4
ATOM      4  C   UNL     1      10.195 -13.481 -20.321  1.00  0.00     0.041 C 
ATOM      5  O   UNL     1      10.029 -12.252 -20.538  1.00  0.00    -0.550 OA
ATOM      6  O   UNL     1      10.727 -13.899 -19.108  1.00  0.00    -0.550 OA
ENDBRANCH   3   4
ENDBRANCH   2   3
ENDBRANCH   1   2
BRANCH   1   7
ATOM      7  C   UNL     1      10.919 -16.225 -24.397  1.00  0.00     0.000 C 
BRANCH   7   8
ATOM      8  C   UNL     1      11.405 -17.164 -23.283  1.00  0.00    -0.000 C 
BRANCH   8   9
ATOM      9  C   UNL     1      10.467 -18.367 -23.132  1.00  0.00    -0.003 C 
ATOM     10  C   UNL     1       9.446 -18.134 -22.022  1.00  0.00     0.004 C 
ENDBRANCH   8   9
ENDBRANCH   7   8
ENDBRANCH   1   7
TORSDOF 6
ENDMDL
MODEL 6
REMARK VINA RESULT:    -3.875      1.429      2.093
REMARK INTER + INTRA:          -5.581
REMARK INTER:                  -5.197
REMARK INTRA:                  -0.383
REMARK UNBOUND:                -0.347
REMARK SMILES CCCCCCCC(=O)[O-]
REMARK SMILES IDX 5 1 6 2 7 3 8 4 9 5 10 6 4 7 3 8 2 9 1 10
REMARK H PARENT
REMARK Flexibility Score: inf
ROOT
ATOM      1  C   UNL     1      10.797 -13.591 -23.117  1.00  0.00     0.000 C 
ENDROOT
BRANCH   1   2
ATOM      2  C   UNL     1      10.122 -13.241 -21.779  1.00  0.00     0.006 C 
BRANCH   2   3
ATOM      3  C   UNL     1       9.942 -14.472 -20.882  1.00  0.00     0.053 C 
BRANCH   3   4
ATOM      4  C   UNL     1      10.635 -14.304 -19.564  1.00  0.00     0.041 C 
ATOM      5  O   UNL     1      11.019 -15.314 -18.917  1.00  0.00    -0.550 OA
ATOM      6  O   UNL     1      10.827 -13.035 -19.034  1.00  0.00    -0.550 OA
ENDBRANCH   3   4
ENDBRANCH   2   3
ENDBRANCH   1   2
BRANCH   1   7
ATOM      7  C   UNL     1      11.042 -15.099 -23.279  1.00  0.00     0.000 C 
BRANCH   7   8
ATOM      8  C   UNL     1      10.642 -15.617 -24.669  1.00  0.00    -0.000 C 
BRANCH   8   9
ATOM      9  C   UNL     1       9.125 -15.824 -24.761  1.00  0.00    -0.003 C 
ATOM     10  C   UNL     1       8.487 -14.811 -25.707  1.00  0.00     0.004 C 
ENDBRANCH   8   9
ENDBRANCH   7   8
ENDBRANCH   1   7
TORSDOF 6
ENDMDL
MODEL 7
REMARK VINA RESULT:    -3.752      1.125      1.929
REMARK INTER + INTRA:          -5.415
REMARK INTER:                  -5.173
REMARK INTRA:                  -0.242
REMARK UNBOUND:                -0.347
REMARK SMILES CCCCCCCC(=O)[O-]
REMARK SMILES IDX 5 1 6 2 7 3 8 4 9 5 10 6 4 7 3 8 2 9 1 10
REMARK H PARENT
REMARK Flexibility Score: inf
ROOT
ATOM      1  C   UNL     1      10.846 -16.431 -22.619  1.00  0.00     0.000 C 
ENDROOT
BRANCH   1   2
ATOM      2  C   UNL     1      10.223 -16.187 -21.234  1.00  0.00     0.006 C 
BRANCH   2   3
ATOM      3  C   UNL     1      10.136 -14.694 -20.892  1.00  0.00     0.053 C 
BRANCH   3   4
ATOM      4  C   UNL     1      10.693 -14.403 -19.532  1.00  0.00     0.041 C 
ATOM      5  O   UNL     1      10.735 -13.219 -19.104  1.00  0.00    -0.550 OA
ATOM      6  O   UNL     1      11.197 -15.434 -18.749  1.00  0.00    -0.550 OA
ENDBRANCH   3   4
ENDBRANCH   2   3
ENDBRANCH   1   2
BRANCH   1   7
ATOM      7  C   UNL     1      10.562 -15.287 -23.605  1.00  0.00     0.000 C 
BRANCH   7   8
ATOM      8  C   UNL     1      10.391 -15.780 -25.049  1.00  0.00    -0.000 C 
BRANCH   8   9
ATOM      9  C   UNL     1      11.445 -16.837 -25.396  1.00  0.00    -0.003 C 
ATOM     10  C   UNL     1      11.076 -17.586 -26.673  1.00  0.00     0.004 C 
ENDBRANCH   8   9
ENDBRANCH   7   8
ENDBRANCH   1   7
TORSDOF 6
ENDMDL
MODEL 8
REMARK VINA RESULT:    -3.726      3.096      4.828
REMARK INTER + INTRA:          -5.380
REMARK INTER:                  -5.020
REMARK INTRA:                  -0.360
REMARK UNBOUND:                -0.347
REMARK SMILES CCCCCCCC(=O)[O-]
REMARK SMILES IDX 5 1 6 2 7 3 8 4 9 5 10 6 4 7 3 8 2 9 1 10
REMARK H PARENT
REMARK Flexibility Score: inf
ROOT
ATOM      1  C   UNL     1      10.477 -14.294 -23.846  1.00  0.00     0.000 C 
ENDROOT
BRANCH   1   2
ATOM      2  C   UNL     1      10.263 -15.699 -24.436  1.00  0.00     0.006 C 
BRANCH   2   3
ATOM      3  C   UNL     1      10.764 -16.804 -23.497  1.00  0.00     0.053 C 
BRANCH   3   4
ATOM      4  C   UNL     1      11.692 -17.749 -24.198  1.00  0.00     0.041 C 
ATOM      5  O   UNL     1      12.101 -17.489 -25.360  1.00  0.00    -0.550 OA
ATOM      6  O   UNL     1      12.078 -18.932 -23.581  1.00  0.00    -0.550 OA
ENDBRANCH   3   4
ENDBRANCH   2   3
ENDBRANCH   1   2
BRANCH   1   7
ATOM      7  C   UNL     1      10.886 -14.330 -22.366  1.00  0.00     0.000 C 
BRANCH   7   8
ATOM      8  C   UNL     1      10.065 -13.361 -21.502  1.00  0.00    -0.000 C 
BRANCH   8   9
ATOM      9  C   UNL     1      10.179 -13.720 -20.016  1.00  0.00    -0.003 C 
ATOM     10  C   UNL     1      10.872 -15.066 -19.826  1.00  0.00     0.004 C 
ENDBRANCH   8   9
ENDBRANCH   7   8
ENDBRANCH   1   7
TORSDOF 6
ENDMDL
MODEL 9
REMARK VINA RESULT:    -3.640      3.141      4.400
REMARK INTER + INTRA:          -5.263
REMARK INTER:                  -4.874
REMARK INTRA:                  -0.390
REMARK UNBOUND:                -0.347
REMARK SMILES CCCCCCCC(=O)[O-]
REMARK SMILES IDX 5 1 6 2 7 3 8 4 9 5 10 6 4 7 3 8 2 9 1 10
REMARK H PARENT
REMARK Flexibility Score: inf
ROOT
ATOM      1  C   UNL     1      10.465 -15.456 -23.821  1.00  0.00     0.000 C 
ENDROOT
BRANCH   1   2
ATOM      2  C   UNL     1       9.786 -14.136 -24.223  1.00  0.00     0.006 C 
BRANCH   2   3
ATOM      3  C   UNL     1      10.436 -12.921 -23.547  1.00  0.00     0.053 C 
BRANCH   3   4
ATOM      4  C   UNL     1       9.569 -11.703 -23.644  1.00  0.00     0.041 C 
ATOM      5  O   UNL     1       8.315 -11.818 -23.668  1.00  0.00    -0.550 OA
ATOM      6  O   UNL     1      10.146 -10.443 -23.742  1.00  0.00    -0.550 OA
ENDBRANCH   3   4
ENDBRANCH   2   3
ENDBRANCH   1   2
BRANCH   1   7
ATOM      7  C   UNL     1      11.243 -15.344 -22.501  1.00  0.00     0.000 C 
BRANCH   7   8
ATOM      8  C   UNL     1      10.418 -15.797 -21.287  1.00  0.00    -0.000 C 
BRANCH   8   9
ATOM      9  C   UNL     1      10.853 -15.053 -20.019  1.00  0.00    -0.003 C 
ATOM     10  C   UNL     1      10.168 -13.694 -19.916  1.00  0.00     0.004 C 
ENDBRANCH   8   9
ENDBRANCH   7   8
ENDBRANCH   1   7
TORSDOF 6
ENDMDL
