MODEL 1
REMARK VINA RESULT:    -5.352      0.000      0.000
REMARK INTER + INTRA:          -6.020
REMARK INTER:                  -5.978
REMARK INTRA:                  -0.042
REMARK UNBOUND:                -0.042
REMARK SMILES O=C([O-])c1ccc(O)c(O)c1
REMARK SMILES IDX 4 1 11 2 5 3 9 4 6 5 7 6 2 7 1 8 3 9 10 10 8 12
REMARK H PARENT 10 11 8 13
REMARK Flexibility Score: inf
ROOT
ATOM      1  C   UNL     1     -28.411  -6.945  -0.932  1.00  0.00     0.001 A 
ATOM      2  C   UNL     1     -28.123  -6.325  -2.160  1.00  0.00     0.060 A 
ATOM      3  C   UNL     1     -29.104  -6.220   0.049  1.00  0.00     0.014 A 
ATOM      4  C   UNL     1     -28.519  -5.005  -2.412  1.00  0.00     0.158 A 
ATOM      5  C   UNL     1     -29.501  -4.904  -0.193  1.00  0.00     0.051 A 
ATOM      6  C   UNL     1     -29.217  -4.285  -1.415  1.00  0.00     0.157 A 
ENDROOT
BRANCH   1   7
ATOM      7  C   UNL     1     -27.989  -8.339  -0.671  1.00  0.00     0.072 C 
ATOM      8  O   UNL     1     -28.688  -9.094   0.058  1.00  0.00    -0.545 OA
ATOM      9  O   UNL     1     -26.817  -8.836  -1.226  1.00  0.00    -0.545 OA
ENDBRANCH   1   7
BRANCH   4  10
ATOM     10  O   UNL     1     -28.199  -4.455  -3.655  1.00  0.00    -0.504 OA
ATOM     11  H   UNL     1     -28.850  -3.935  -4.227  1.00  0.00     0.293 HD
ENDBRANCH   4  10
BRANCH   6  12
ATOM     12  O   UNL     1     -29.643  -2.967  -1.593  1.00  0.00    -0.504 OA
ATOM     13  H   UNL     1     -30.503  -2.709  -2.055  1.00  0.00     0.293 HD
ENDBRANCH   6  12
TORSDOF 3
ENDMDL
MODEL 2
REMARK VINA RESULT:    -5.069     10.283     12.291
REMARK INTER + INTRA:          -5.704
REMARK INTER:                  -5.661
REMARK INTRA:                  -0.042
REMARK UNBOUND:                -0.042
REMARK SMILES O=C([O-])c1ccc(O)c(O)c1
REMARK SMILES IDX 4 1 11 2 5 3 9 4 6 5 7 6 2 7 1 8 3 9 10 10 8 12
REMARK H PARENT 10 11 8 13
REMARK Flexibility Score: inf
ROOT
ATOM      1  C   UNL     1     -34.160 -15.403   3.964  1.00  0.00     0.001 A 
ATOM      2  C   UNL     1     -33.396 -16.103   4.913  1.00  0.00     0.060 A 
ATOM      3  C   UNL     1     -33.581 -14.316   3.292  1.00  0.00     0.014 A 
ATOM      4  C   UNL     1     -32.073 -15.731   5.191  1.00  0.00     0.158 A 
ATOM      5  C   UNL     1     -32.265 -13.938   3.564  1.00  0.00     0.051 A 
ATOM      6  C   UNL     1     -31.501 -14.633   4.507  1.00  0.00     0.157 A 
ENDROOT
BRANCH   1   7
ATOM      7  C   UNL     1     -35.556 -15.801   3.675  1.00  0.00     0.072 C 
ATOM      8  O   UNL     1     -35.923 -16.999   3.818  1.00  0.00    -0.545 OA
ATOM      9  O   UNL     1     -36.481 -14.860   3.241  1.00  0.00    -0.545 OA
ENDBRANCH   1   7
BRANCH   4  10
ATOM     10  O   UNL     1     -31.375 -16.472   6.145  1.00  0.00    -0.504 OA
ATOM     11  H   UNL     1     -30.961 -17.376   5.966  1.00  0.00     0.293 HD
ENDBRANCH   4  10
BRANCH   6  12
ATOM     12  O   UNL     1     -30.191 -14.203   4.731  1.00  0.00    -0.504 OA
ATOM     13  H   UNL     1     -29.768 -14.136   5.646  1.00  0.00     0.293 HD
ENDBRANCH   6  12
TORSDOF 3
ENDMDL
MODEL 3
REMARK VINA RESULT:    -4.894      6.124      7.095
REMARK INTER + INTRA:          -5.509
REMARK INTER:                  -5.471
REMARK INTRA:                  -0.038
REMARK UNBOUND:                -0.042
REMARK SMILES O=C([O-])c1ccc(O)c(O)c1
REMARK SMILES IDX 4 1 11 2 5 3 9 4 6 5 7 6 2 7 1 8 3 9 10 10 8 12
REMARK H PARENT 10 11 8 13
REMARK Flexibility Score: inf
ROOT
ATOM      1  C   UNL     1     -31.994 -10.542   2.020  1.00  0.00     0.001 A 
ATOM      2  C   UNL     1     -32.179  -9.314   2.678  1.00  0.00     0.060 A 
ATOM      3  C   UNL     1     -33.107 -11.194   1.469  1.00  0.00     0.014 A 
ATOM      4  C   UNL     1     -33.453  -8.740   2.787  1.00  0.00     0.158 A 
ATOM      5  C   UNL     1     -34.379 -10.629   1.574  1.00  0.00     0.051 A 
ATOM      6  C   UNL     1     -34.568  -9.407   2.227  1.00  0.00     0.157 A 
ENDROOT
BRANCH   1   7
ATOM      7  C   UNL     1     -30.646 -11.144   1.909  1.00  0.00     0.072 C 
ATOM      8  O   UNL     1     -30.405 -12.273   2.415  1.00  0.00    -0.545 OA
ATOM      9  O   UNL     1     -29.626 -10.470   1.247  1.00  0.00    -0.545 OA
ENDBRANCH   1   7
BRANCH   4  10
ATOM     10  O   UNL     1     -33.562  -7.518   3.453  1.00  0.00    -0.504 OA
ATOM     11  H   UNL     1     -32.851  -7.143   4.065  1.00  0.00     0.293 HD
ENDBRANCH   4  10
BRANCH   6  12
ATOM     12  O   UNL     1     -35.866  -8.897   2.296  1.00  0.00    -0.504 OA
ATOM     13  H   UNL     1     -36.099  -7.924   2.156  1.00  0.00     0.293 HD
ENDBRANCH   6  12
TORSDOF 3
ENDMDL
MODEL 4
REMARK VINA RESULT:    -4.888      8.665     11.731
REMARK INTER + INTRA:          -5.501
REMARK INTER:                  -5.458
REMARK INTRA:                  -0.042
REMARK UNBOUND:                -0.042
REMARK SMILES O=C([O-])c1ccc(O)c(O)c1
REMARK SMILES IDX 4 1 11 2 5 3 9 4 6 5 7 6 2 7 1 8 3 9 10 10 8 12
REMARK H PARENT 10 11 8 13
REMARK Flexibility Score: inf
ROOT
ATOM      1  C   UNL     1     -26.542 -15.200   2.285  1.00  0.00     0.001 A 
ATOM      2  C   UNL     1     -27.291 -15.907   3.241  1.00  0.00     0.060 A 
ATOM      3  C   UNL     1     -25.700 -15.911   1.417  1.00  0.00     0.014 A 
ATOM      4  C   UNL     1     -27.208 -17.303   3.332  1.00  0.00     0.158 A 
ATOM      5  C   UNL     1     -25.611 -17.302   1.503  1.00  0.00     0.051 A 
ATOM      6  C   UNL     1     -26.357 -18.009   2.451  1.00  0.00     0.157 A 
ENDROOT
BRANCH   1   7
ATOM      7  C   UNL     1     -26.634 -13.725   2.194  1.00  0.00     0.072 C 
ATOM      8  O   UNL     1     -27.688 -13.127   2.537  1.00  0.00    -0.545 OA
ATOM      9  O   UNL     1     -25.558 -12.980   1.726  1.00  0.00    -0.545 OA
ENDBRANCH   1   7
BRANCH   4  10
ATOM     10  O   UNL     1     -27.983 -17.939   4.305  1.00  0.00    -0.504 OA
ATOM     11  H   UNL     1     -27.801 -17.883   5.297  1.00  0.00     0.293 HD
ENDBRANCH   4  10
BRANCH   6  12
ATOM     12  O   UNL     1     -26.221 -19.399   2.483  1.00  0.00    -0.504 OA
ATOM     13  H   UNL     1     -25.672 -19.896   3.170  1.00  0.00     0.293 HD
ENDBRANCH   6  12
TORSDOF 3
ENDMDL
MODEL 5
REMARK VINA RESULT:    -4.874      9.829     11.839
REMARK INTER + INTRA:          -5.486
REMARK INTER:                  -5.444
REMARK INTRA:                  -0.042
REMARK UNBOUND:                -0.042
REMARK SMILES O=C([O-])c1ccc(O)c(O)c1
REMARK SMILES IDX 4 1 11 2 5 3 9 4 6 5 7 6 2 7 1 8 3 9 10 10 8 12
REMARK H PARENT 10 11 8 13
REMARK Flexibility Score: inf
ROOT
ATOM      1  C   UNL     1     -34.009 -15.327   4.078  1.00  0.00     0.001 A 
ATOM      2  C   UNL     1     -33.298 -14.240   3.540  1.00  0.00     0.060 A 
ATOM      3  C   UNL     1     -33.380 -16.150   5.024  1.00  0.00     0.014 A 
ATOM      4  C   UNL     1     -31.981 -13.973   3.936  1.00  0.00     0.158 A 
ATOM      5  C   UNL     1     -32.067 -15.891   5.423  1.00  0.00     0.051 A 
ATOM      6  C   UNL     1     -31.358 -14.810   4.891  1.00  0.00     0.157 A 
ENDROOT
BRANCH   1   7
ATOM      7  C   UNL     1     -35.400 -15.604   3.655  1.00  0.00     0.072 C 
ATOM      8  O   UNL     1     -35.843 -16.784   3.644  1.00  0.00    -0.545 OA
ATOM      9  O   UNL     1     -36.237 -14.566   3.263  1.00  0.00    -0.545 OA
ENDBRANCH   1   7
BRANCH   4  10
ATOM     10  O   UNL     1     -31.337 -12.876   3.360  1.00  0.00    -0.504 OA
ATOM     11  H   UNL     1     -30.726 -12.938   2.558  1.00  0.00     0.293 HD
ENDBRANCH   4  10
BRANCH   6  12
ATOM     12  O   UNL     1     -30.049 -14.607   5.333  1.00  0.00    -0.504 OA
ATOM     13  H   UNL     1     -29.790 -13.933   6.039  1.00  0.00     0.293 HD
ENDBRANCH   6  12
TORSDOF 3
ENDMDL
MODEL 6
REMARK VINA RESULT:    -4.862      0.916      2.088
REMARK INTER + INTRA:          -5.473
REMARK INTER:                  -5.431
REMARK INTRA:                  -0.042
REMARK UNBOUND:                -0.042
REMARK SMILES O=C([O-])c1ccc(O)c(O)c1
REMARK SMILES IDX 4 1 11 2 5 3 9 4 6 5 7 6 2 7 1 8 3 9 10 10 8 12
REMARK H PARENT 10 11 8 13
REMARK Flexibility Score: inf
ROOT
ATOM      1  C   UNL     1     -28.335  -6.779  -1.113  1.00  0.00     0.001 A 
ATOM      2  C   UNL     1     -29.058  -6.119  -0.103  1.00  0.00     0.060 A 
ATOM      3  C   UNL     1     -28.117  -6.122  -2.333  1.00  0.00     0.014 A 
ATOM      4  C   UNL     1     -29.556  -4.824  -0.302  1.00  0.00     0.158 A 
ATOM      5  C   UNL     1     -28.611  -4.832  -2.539  1.00  0.00     0.051 A 
ATOM      6  C   UNL     1     -29.328  -4.173  -1.536  1.00  0.00     0.157 A 
ENDROOT
BRANCH   1   7
ATOM      7  C   UNL     1     -27.812  -8.146  -0.897  1.00  0.00     0.072 C 
ATOM      8  O   UNL     1     -28.443  -8.967  -0.177  1.00  0.00    -0.545 OA
ATOM      9  O   UNL     1     -26.617  -8.544  -1.484  1.00  0.00    -0.545 OA
ENDBRANCH   1   7
BRANCH   4  10
ATOM     10  O   UNL     1     -30.264  -4.231   0.745  1.00  0.00    -0.504 OA
ATOM     11  H   UNL     1     -30.434  -4.677   1.635  1.00  0.00     0.293 HD
ENDBRANCH   4  10
BRANCH   6  12
ATOM     12  O   UNL     1     -29.794  -2.884  -1.808  1.00  0.00    -0.504 OA
ATOM     13  H   UNL     1     -29.504  -2.336  -2.604  1.00  0.00     0.293 HD
ENDBRANCH   6  12
TORSDOF 3
ENDMDL
MODEL 7
REMARK VINA RESULT:    -4.847      1.652      4.393
REMARK INTER + INTRA:          -5.455
REMARK INTER:                  -5.413
REMARK INTRA:                  -0.042
REMARK UNBOUND:                -0.042
REMARK SMILES O=C([O-])c1ccc(O)c(O)c1
REMARK SMILES IDX 4 1 11 2 5 3 9 4 6 5 7 6 2 7 1 8 3 9 10 10 8 12
REMARK H PARENT 10 11 8 13
REMARK Flexibility Score: inf
ROOT
ATOM      1  C   UNL     1     -28.968  -6.442  -0.145  1.00  0.00     0.001 A 
ATOM      2  C   UNL     1     -27.953  -6.742  -1.069  1.00  0.00     0.060 A 
ATOM      3  C   UNL     1     -29.461  -7.463   0.681  1.00  0.00     0.014 A 
ATOM      4  C   UNL     1     -27.431  -8.039  -1.171  1.00  0.00     0.158 A 
ATOM      5  C   UNL     1     -28.948  -8.758   0.585  1.00  0.00     0.051 A 
ATOM      6  C   UNL     1     -27.936  -9.060  -0.333  1.00  0.00     0.157 A 
ENDROOT
BRANCH   1   7
ATOM      7  C   UNL     1     -29.514  -5.070  -0.042  1.00  0.00     0.072 C 
ATOM      8  O   UNL     1     -28.794  -4.072  -0.315  1.00  0.00    -0.545 OA
ATOM      9  O   UNL     1     -30.829  -4.863   0.358  1.00  0.00    -0.545 OA
ENDBRANCH   1   7
BRANCH   4  10
ATOM     10  O   UNL     1     -26.424  -8.264  -2.111  1.00  0.00    -0.504 OA
ATOM     11  H   UNL     1     -25.465  -7.970  -1.992  1.00  0.00     0.293 HD
ENDBRANCH   4  10
BRANCH   6  12
ATOM     12  O   UNL     1     -27.468 -10.375  -0.378  1.00  0.00    -0.504 OA
ATOM     13  H   UNL     1     -27.976 -11.168  -0.012  1.00  0.00     0.293 HD
ENDBRANCH   6  12
TORSDOF 3
ENDMDL
MODEL 8
REMARK VINA RESULT:    -4.795      1.358      4.692
REMARK INTER + INTRA:          -5.397
REMARK INTER:                  -5.361
REMARK INTRA:                  -0.037
REMARK UNBOUND:                -0.042
REMARK SMILES O=C([O-])c1ccc(O)c(O)c1
REMARK SMILES IDX 4 1 11 2 5 3 9 4 6 5 7 6 2 7 1 8 3 9 10 10 8 12
REMARK H PARENT 10 11 8 13
REMARK Flexibility Score: inf
ROOT
ATOM      1  C   UNL     1     -28.981  -5.379  -0.509  1.00  0.00     0.001 A 
ATOM      2  C   UNL     1     -29.400  -6.306   0.461  1.00  0.00     0.060 A 
ATOM      3  C   UNL     1     -28.225  -5.832  -1.600  1.00  0.00     0.014 A 
ATOM      4  C   UNL     1     -29.075  -7.665   0.349  1.00  0.00     0.158 A 
ATOM      5  C   UNL     1     -27.896  -7.184  -1.720  1.00  0.00     0.051 A 
ATOM      6  C   UNL     1     -28.313  -8.109  -0.757  1.00  0.00     0.157 A 
ENDROOT
BRANCH   1   7
ATOM      7  C   UNL     1     -29.328  -3.946  -0.384  1.00  0.00     0.072 C 
ATOM      8  O   UNL     1     -28.802  -3.236   0.516  1.00  0.00    -0.545 OA
ATOM      9  O   UNL     1     -30.238  -3.363  -1.257  1.00  0.00    -0.545 OA
ENDBRANCH   1   7
BRANCH   4  10
ATOM     10  O   UNL     1     -29.526  -8.527   1.350  1.00  0.00    -0.504 OA
ATOM     11  H   UNL     1     -28.923  -8.963   2.033  1.00  0.00     0.293 HD
ENDBRANCH   4  10
BRANCH   6  12
ATOM     12  O   UNL     1     -27.950  -9.445  -0.936  1.00  0.00    -0.504 OA
ATOM     13  H   UNL     1     -28.447 -10.224  -0.529  1.00  0.00     0.293 HD
ENDBRANCH   6  12
TORSDOF 3
ENDMDL
MODEL 9
REMARK VINA RESULT:    -4.794     11.978     13.587
REMARK INTER + INTRA:          -5.396
REMARK INTER:                  -5.352
REMARK INTRA:                  -0.044
REMARK UNBOUND:                -0.042
REMARK SMILES O=C([O-])c1ccc(O)c(O)c1
REMARK SMILES IDX 4 1 11 2 5 3 9 4 6 5 7 6 2 7 1 8 3 9 10 10 8 12
REMARK H PARENT 10 11 8 13
REMARK Flexibility Score: inf
ROOT
ATOM      1  C   UNL     1     -35.465 -15.235   4.569  1.00  0.00     0.001 A 
ATOM      2  C   UNL     1     -35.221 -16.025   5.705  1.00  0.00     0.060 A 
ATOM      3  C   UNL     1     -34.383 -14.837   3.770  1.00  0.00     0.014 A 
ATOM      4  C   UNL     1     -33.918 -16.417   6.044  1.00  0.00     0.158 A 
ATOM      5  C   UNL     1     -33.082 -15.223   4.101  1.00  0.00     0.051 A 
ATOM      6  C   UNL     1     -32.835 -16.010   5.230  1.00  0.00     0.157 A 
ENDROOT
BRANCH   1   7
ATOM      7  C   UNL     1     -36.843 -14.824   4.217  1.00  0.00     0.072 C 
ATOM      8  O   UNL     1     -37.079 -14.247   3.121  1.00  0.00    -0.545 OA
ATOM      9  O   UNL     1     -37.896 -15.066   5.091  1.00  0.00    -0.545 OA
ENDBRANCH   1   7
BRANCH   4  10
ATOM     10  O   UNL     1     -33.751 -17.202   7.186  1.00  0.00    -0.504 OA
ATOM     11  H   UNL     1     -33.877 -18.205   7.205  1.00  0.00     0.293 HD
ENDBRANCH   4  10
BRANCH   6  12
ATOM     12  O   UNL     1     -31.511 -16.361   5.504  1.00  0.00    -0.504 OA
ATOM     13  H   UNL     1     -30.849 -16.658   4.802  1.00  0.00     0.293 HD
ENDBRANCH   6  12
TORSDOF 3
ENDMDL
