MODEL 1
REMARK VINA RESULT:    -3.728      0.000      0.000
REMARK INTER + INTRA:          -5.500
REMARK INTER:                  -5.035
REMARK INTRA:                  -0.465
REMARK UNBOUND:                -0.465
REMARK SMILES CCCCCCC=CC(=O)[O-]
REMARK SMILES IDX 5 1 6 2 7 3 8 4 9 5 10 6 11 7 4 8 3 9 2 10 1 11
REMARK H PARENT
REMARK Flexibility Score: inf
ROOT
ATOM      1  C   UNL     1       8.194  27.056  10.026  1.00  0.00     0.004 C 
ENDROOT
BRANCH   1   2
ATOM      2  C   UNL     1       9.565  27.147  10.709  1.00  0.00     0.027 C 
BRANCH   2   3
ATOM      3  C   UNL     1      10.327  25.859  10.575  1.00  0.00    -0.025 C 
ATOM      4  C   UNL     1      10.420  24.994  11.590  1.00  0.00     0.020 C 
BRANCH   4   5
ATOM      5  C   UNL     1      11.150  23.721  11.477  1.00  0.00     0.064 C 
ATOM      6  O   UNL     1      11.365  23.192  10.354  1.00  0.00    -0.545 OA
ATOM      7  O   UNL     1      11.609  23.092  12.627  1.00  0.00    -0.545 OA
ENDBRANCH   4   5
ENDBRANCH   2   3
ENDBRANCH   1   2
BRANCH   1   8
ATOM      8  C   UNL     1       8.347  26.967   8.501  1.00  0.00     0.000 C 
BRANCH   8   9
ATOM      9  C   UNL     1       8.373  28.348   7.827  1.00  0.00    -0.000 C 
BRANCH   9  10
ATOM     10  C   UNL     1       9.525  28.496   6.822  1.00  0.00    -0.003 C 
ATOM     11  C   UNL     1      10.876  28.505   7.531  1.00  0.00     0.004 C 
ENDBRANCH   9  10
ENDBRANCH   8   9
ENDBRANCH   1   8
TORSDOF 6
ENDMDL
MODEL 2
REMARK VINA RESULT:    -3.663      9.594     10.852
REMARK INTER + INTRA:          -5.413
REMARK INTER:                  -4.828
REMARK INTRA:                  -0.584
REMARK UNBOUND:                -0.465
REMARK SMILES CCCCCCC=CC(=O)[O-]
REMARK SMILES IDX 5 1 6 2 7 3 8 4 9 5 10 6 11 7 4 8 3 9 2 10 1 11
REMARK H PARENT
REMARK Flexibility Score: inf
ROOT
ATOM      1  C   UNL     1       6.795  29.804  17.092  1.00  0.00     0.004 C 
ENDROOT
BRANCH   1   2
ATOM      2  C   UNL     1       5.573  29.045  17.624  1.00  0.00     0.027 C 
BRANCH   2   3
ATOM      3  C   UNL     1       5.984  27.865  18.458  1.00  0.00    -0.025 C 
ATOM      4  C   UNL     1       5.616  27.752  19.739  1.00  0.00     0.020 C 
BRANCH   4   5
ATOM      5  C   UNL     1       5.996  26.600  20.570  1.00  0.00     0.064 C 
ATOM      6  O   UNL     1       6.605  25.613  20.076  1.00  0.00    -0.545 OA
ATOM      7  O   UNL     1       5.678  26.598  21.922  1.00  0.00    -0.545 OA
ENDBRANCH   4   5
ENDBRANCH   2   3
ENDBRANCH   1   2
BRANCH   1   8
ATOM      8  C   UNL     1       7.559  30.484  18.238  1.00  0.00     0.000 C 
BRANCH   8   9
ATOM      9  C   UNL     1       7.304  31.998  18.301  1.00  0.00    -0.000 C 
BRANCH   9  10
ATOM     10  C   UNL     1       6.223  32.376  19.323  1.00  0.00    -0.003 C 
ATOM     11  C   UNL     1       6.193  31.385  20.484  1.00  0.00     0.004 C 
ENDBRANCH   9  10
ENDBRANCH   8   9
ENDBRANCH   1   8
TORSDOF 6
ENDMDL
MODEL 3
REMARK VINA RESULT:    -3.645      9.970     11.344
REMARK INTER + INTRA:          -5.389
REMARK INTER:                  -4.931
REMARK INTRA:                  -0.458
REMARK UNBOUND:                -0.465
REMARK SMILES CCCCCCC=CC(=O)[O-]
REMARK SMILES IDX 5 1 6 2 7 3 8 4 9 5 10 6 11 7 4 8 3 9 2 10 1 11
REMARK H PARENT
REMARK Flexibility Score: inf
ROOT
ATOM      1  C   UNL     1       7.131  30.146  18.022  1.00  0.00     0.004 C 
ENDROOT
BRANCH   1   2
ATOM      2  C   UNL     1       6.179  28.944  17.956  1.00  0.00     0.027 C 
BRANCH   2   3
ATOM      3  C   UNL     1       6.323  28.069  19.168  1.00  0.00    -0.025 C 
ATOM      4  C   UNL     1       5.932  26.790  19.157  1.00  0.00     0.020 C 
BRANCH   4   5
ATOM      5  C   UNL     1       6.075  25.911  20.328  1.00  0.00     0.064 C 
ATOM      6  O   UNL     1       5.960  26.362  21.499  1.00  0.00    -0.545 OA
ATOM      7  O   UNL     1       6.343  24.561  20.140  1.00  0.00    -0.545 OA
ENDBRANCH   4   5
ENDBRANCH   2   3
ENDBRANCH   1   2
BRANCH   1   8
ATOM      8  C   UNL     1       6.390  31.407  18.488  1.00  0.00     0.000 C 
BRANCH   8   9
ATOM      9  C   UNL     1       6.271  31.491  20.018  1.00  0.00    -0.000 C 
BRANCH   9  10
ATOM     10  C   UNL     1       4.821  31.368  20.508  1.00  0.00    -0.003 C 
ATOM     11  C   UNL     1       4.663  30.194  21.471  1.00  0.00     0.004 C 
ENDBRANCH   9  10
ENDBRANCH   8   9
ENDBRANCH   1   8
TORSDOF 6
ENDMDL
MODEL 4
REMARK VINA RESULT:    -3.572      2.508      3.469
REMARK INTER + INTRA:          -5.290
REMARK INTER:                  -4.962
REMARK INTRA:                  -0.328
REMARK UNBOUND:                -0.465
REMARK SMILES CCCCCCC=CC(=O)[O-]
REMARK SMILES IDX 5 1 6 2 7 3 8 4 9 5 10 6 11 7 4 8 3 9 2 10 1 11
REMARK H PARENT
REMARK Flexibility Score: inf
ROOT
ATOM      1  C   UNL     1      10.409  28.103  10.991  1.00  0.00     0.004 C 
ENDROOT
BRANCH   1   2
ATOM      2  C   UNL     1       9.588  27.060  10.224  1.00  0.00     0.027 C 
BRANCH   2   3
ATOM      3  C   UNL     1      10.208  25.695  10.326  1.00  0.00    -0.025 C 
ATOM      4  C   UNL     1      10.470  25.133  11.510  1.00  0.00     0.020 C 
BRANCH   4   5
ATOM      5  C   UNL     1      11.064  23.793  11.633  1.00  0.00     0.064 C 
ATOM      6  O   UNL     1      11.277  23.276  12.762  1.00  0.00    -0.545 OA
ATOM      7  O   UNL     1      11.398  23.086  10.485  1.00  0.00    -0.545 OA
ENDBRANCH   4   5
ENDBRANCH   2   3
ENDBRANCH   1   2
BRANCH   1   8
ATOM      8  C   UNL     1      11.361  28.854  10.048  1.00  0.00     0.000 C 
BRANCH   8   9
ATOM      9  C   UNL     1      12.775  29.003  10.630  1.00  0.00    -0.000 C 
BRANCH   9  10
ATOM     10  C   UNL     1      12.962  30.312  11.409  1.00  0.00    -0.003 C 
ATOM     11  C   UNL     1      12.947  30.063  12.915  1.00  0.00     0.004 C 
ENDBRANCH   9  10
ENDBRANCH   8   9
ENDBRANCH   1   8
TORSDOF 6
ENDMDL
MODEL 5
REMARK VINA RESULT:    -3.517     10.250     11.381
REMARK INTER + INTRA:          -5.216
REMARK INTER:                  -4.613
REMARK INTRA:                  -0.603
REMARK UNBOUND:                -0.465
REMARK SMILES CCCCCCC=CC(=O)[O-]
REMARK SMILES IDX 5 1 6 2 7 3 8 4 9 5 10 6 11 7 4 8 3 9 2 10 1 11
REMARK H PARENT
REMARK Flexibility Score: inf
ROOT
ATOM      1  C   UNL     1       6.505  31.567  20.330  1.00  0.00     0.004 C 
ENDROOT
BRANCH   1   2
ATOM      2  C   UNL     1       5.090  31.052  20.621  1.00  0.00     0.027 C 
BRANCH   2   3
ATOM      3  C   UNL     1       5.105  29.597  20.995  1.00  0.00    -0.025 C 
ATOM      4  C   UNL     1       5.714  28.685  20.230  1.00  0.00     0.020 C 
BRANCH   4   5
ATOM      5  C   UNL     1       5.753  27.258  20.585  1.00  0.00     0.064 C 
ATOM      6  O   UNL     1       6.076  26.385  19.736  1.00  0.00    -0.545 OA
ATOM      7  O   UNL     1       5.426  26.866  21.877  1.00  0.00    -0.545 OA
ENDBRANCH   4   5
ENDBRANCH   2   3
ENDBRANCH   1   2
BRANCH   1   8
ATOM      8  C   UNL     1       6.474  32.700  19.294  1.00  0.00     0.000 C 
BRANCH   8   9
ATOM      9  C   UNL     1       7.100  32.291  17.951  1.00  0.00    -0.000 C 
BRANCH   9  10
ATOM     10  C   UNL     1       7.729  30.891  17.993  1.00  0.00    -0.003 C 
ATOM     11  C   UNL     1       7.041  29.949  17.008  1.00  0.00     0.004 C 
ENDBRANCH   9  10
ENDBRANCH   8   9
ENDBRANCH   1   8
TORSDOF 6
ENDMDL
MODEL 6
REMARK VINA RESULT:    -3.484      1.957      2.734
REMARK INTER + INTRA:          -5.171
REMARK INTER:                  -4.611
REMARK INTRA:                  -0.560
REMARK UNBOUND:                -0.465
REMARK SMILES CCCCCCC=CC(=O)[O-]
REMARK SMILES IDX 5 1 6 2 7 3 8 4 9 5 10 6 11 7 4 8 3 9 2 10 1 11
REMARK H PARENT
REMARK Flexibility Score: inf
ROOT
ATOM      1  C   UNL     1       9.589  27.833  11.869  1.00  0.00     0.004 C 
ENDROOT
BRANCH   1   2
ATOM      2  C   UNL     1       9.476  27.176  10.488  1.00  0.00     0.027 C 
BRANCH   2   3
ATOM      3  C   UNL     1      10.091  25.806  10.483  1.00  0.00    -0.025 C 
ATOM      4  C   UNL     1      10.447  25.196  11.619  1.00  0.00     0.020 C 
BRANCH   4   5
ATOM      5  C   UNL     1      11.039  23.849  11.639  1.00  0.00     0.064 C 
ATOM      6  O   UNL     1      11.273  23.257  12.726  1.00  0.00    -0.545 OA
ATOM      7  O   UNL     1      11.347  23.221  10.439  1.00  0.00    -0.545 OA
ENDBRANCH   4   5
ENDBRANCH   2   3
ENDBRANCH   1   2
BRANCH   1   8
ATOM      8  C   UNL     1      10.697  28.896  11.882  1.00  0.00     0.000 C 
BRANCH   8   9
ATOM      9  C   UNL     1      10.614  29.851  10.681  1.00  0.00    -0.000 C 
BRANCH   9  10
ATOM     10  C   UNL     1      11.974  30.074  10.005  1.00  0.00    -0.003 C 
ATOM     11  C   UNL     1      12.861  28.838  10.132  1.00  0.00     0.004 C 
ENDBRANCH   9  10
ENDBRANCH   8   9
ENDBRANCH   1   8
TORSDOF 6
ENDMDL
MODEL 7
REMARK VINA RESULT:    -3.454      1.729      2.773
REMARK INTER + INTRA:          -5.131
REMARK INTER:                  -4.894
REMARK INTRA:                  -0.236
REMARK UNBOUND:                -0.465
REMARK SMILES CCCCCCC=CC(=O)[O-]
REMARK SMILES IDX 5 1 6 2 7 3 8 4 9 5 10 6 11 7 4 8 3 9 2 10 1 11
REMARK H PARENT
REMARK Flexibility Score: inf
ROOT
ATOM      1  C   UNL     1       8.600  26.822   8.463  1.00  0.00     0.004 C 
ENDROOT
BRANCH   1   2
ATOM      2  C   UNL     1       9.356  26.837   9.797  1.00  0.00     0.027 C 
BRANCH   2   3
ATOM      3  C   UNL     1      10.083  25.543  10.027  1.00  0.00    -0.025 C 
ATOM      4  C   UNL     1      10.384  25.119  11.258  1.00  0.00     0.020 C 
BRANCH   4   5
ATOM      5  C   UNL     1      11.084  23.849  11.506  1.00  0.00     0.064 C 
ATOM      6  O   UNL     1      11.428  23.098  10.555  1.00  0.00    -0.545 OA
ATOM      7  O   UNL     1      11.369  23.470  12.812  1.00  0.00    -0.545 OA
ENDBRANCH   4   5
ENDBRANCH   2   3
ENDBRANCH   1   2
BRANCH   1   8
ATOM      8  C   UNL     1       7.480  27.873   8.455  1.00  0.00     0.000 C 
BRANCH   8   9
ATOM      9  C   UNL     1       6.859  28.087   9.844  1.00  0.00    -0.000 C 
BRANCH   9  10
ATOM     10  C   UNL     1       5.889  29.276   9.885  1.00  0.00    -0.003 C 
ATOM     11  C   UNL     1       4.783  29.049  10.912  1.00  0.00     0.004 C 
ENDBRANCH   9  10
ENDBRANCH   8   9
ENDBRANCH   1   8
TORSDOF 6
ENDMDL
MODEL 8
REMARK VINA RESULT:    -3.406      8.820      9.857
REMARK INTER + INTRA:          -5.066
REMARK INTER:                  -4.913
REMARK INTRA:                  -0.153
REMARK UNBOUND:                -0.465
REMARK SMILES CCCCCCC=CC(=O)[O-]
REMARK SMILES IDX 5 1 6 2 7 3 8 4 9 5 10 6 11 7 4 8 3 9 2 10 1 11
REMARK H PARENT
REMARK Flexibility Score: inf
ROOT
ATOM      1  C   UNL     1       6.830  30.239  18.588  1.00  0.00     0.004 C 
ENDROOT
BRANCH   1   2
ATOM      2  C   UNL     1       5.608  29.317  18.494  1.00  0.00     0.027 C 
BRANCH   2   3
ATOM      3  C   UNL     1       5.623  28.279  19.580  1.00  0.00    -0.025 C 
ATOM      4  C   UNL     1       6.077  27.042  19.358  1.00  0.00     0.020 C 
BRANCH   4   5
ATOM      5  C   UNL     1       6.113  26.015  20.411  1.00  0.00     0.064 C 
ATOM      6  O   UNL     1       5.915  26.312  21.619  1.00  0.00    -0.545 OA
ATOM      7  O   UNL     1       6.370  24.693  20.067  1.00  0.00    -0.545 OA
ENDBRANCH   4   5
ENDBRANCH   2   3
ENDBRANCH   1   2
BRANCH   1   8
ATOM      8  C   UNL     1       7.010  31.045  17.293  1.00  0.00     0.000 C 
BRANCH   8   9
ATOM      9  C   UNL     1       8.471  31.453  17.049  1.00  0.00    -0.000 C 
BRANCH   9  10
ATOM     10  C   UNL     1       8.906  31.255  15.590  1.00  0.00    -0.003 C 
ATOM     11  C   UNL     1      10.276  31.878  15.334  1.00  0.00     0.004 C 
ENDBRANCH   9  10
ENDBRANCH   8   9
ENDBRANCH   1   8
TORSDOF 6
ENDMDL
MODEL 9
REMARK VINA RESULT:    -3.371     10.575     11.771
REMARK INTER + INTRA:          -5.018
REMARK INTER:                  -4.260
REMARK INTRA:                  -0.758
REMARK UNBOUND:                -0.465
REMARK SMILES CCCCCCC=CC(=O)[O-]
REMARK SMILES IDX 5 1 6 2 7 3 8 4 9 5 10 6 11 7 4 8 3 9 2 10 1 11
REMARK H PARENT
REMARK Flexibility Score: inf
ROOT
ATOM      1  C   UNL     1       3.304  31.439  19.781  1.00  0.00     0.004 C 
ENDROOT
BRANCH   1   2
ATOM      2  C   UNL     1       3.082  29.950  20.075  1.00  0.00     0.027 C 
BRANCH   2   3
ATOM      3  C   UNL     1       4.048  29.093  19.308  1.00  0.00    -0.025 C 
ATOM      4  C   UNL     1       4.983  28.367  19.930  1.00  0.00     0.020 C 
BRANCH   4   5
ATOM      5  C   UNL     1       5.931  27.511  19.200  1.00  0.00     0.064 C 
ATOM      6  O   UNL     1       6.370  26.445  19.707  1.00  0.00    -0.545 OA
ATOM      7  O   UNL     1       6.351  27.885  17.929  1.00  0.00    -0.545 OA
ENDBRANCH   4   5
ENDBRANCH   2   3
ENDBRANCH   1   2
BRANCH   1   8
ATOM      8  C   UNL     1       4.288  32.056  20.786  1.00  0.00     0.000 C 
BRANCH   8   9
ATOM      9  C   UNL     1       5.546  32.623  20.110  1.00  0.00    -0.000 C 
BRANCH   9  10
ATOM     10  C   UNL     1       6.701  31.613  20.064  1.00  0.00    -0.003 C 
ATOM     11  C   UNL     1       7.066  31.258  18.626  1.00  0.00     0.004 C 
ENDBRANCH   9  10
ENDBRANCH   8   9
ENDBRANCH   1   8
TORSDOF 6
ENDMDL
