MODEL 1
REMARK VINA RESULT:    -5.822      0.000      0.000
REMARK INTER + INTRA:         -16.229
REMARK INTER:                 -13.311
REMARK INTRA:                  -2.919
REMARK UNBOUND:                -2.919
REMARK SMILES CCCCCCCCCCCCCCCCCCCCCCCC(=O)[O-]
REMARK SMILES IDX 13 1 14 2 15 3 16 4 17 5 18 6 19 7 20 8 21 9 22 10 23 11
REMARK SMILES IDX 24 12 25 13 26 14 12 15 11 16 10 17 9 18 8 19 7 20 6 21 5 22
REMARK SMILES IDX 4 23 3 24 2 25 1 26
REMARK H PARENT
REMARK Flexibility Score: inf
ROOT
ATOM      1  C   UNL     1      -8.381 -13.557  -5.690  1.00  0.00     0.000 C 
ENDROOT
BRANCH   1   2
ATOM      2  C   UNL     1      -8.657 -15.058  -5.864  1.00  0.00     0.000 C 
BRANCH   2   3
ATOM      3  C   UNL     1      -7.580 -15.713  -6.743  1.00  0.00     0.000 C 
BRANCH   3   4
ATOM      4  C   UNL     1      -7.104 -17.070  -6.195  1.00  0.00     0.000 C 
BRANCH   4   5
ATOM      5  C   UNL     1      -8.215 -17.952  -5.594  1.00  0.00     0.000 C 
BRANCH   5   6
ATOM      6  C   UNL     1      -8.833 -18.915  -6.618  1.00  0.00     0.000 C 
BRANCH   6   7
ATOM      7  C   UNL     1     -10.251 -18.474  -7.000  1.00  0.00     0.000 C 
BRANCH   7   8
ATOM      8  C   UNL     1     -10.275 -17.851  -8.402  1.00  0.00     0.000 C 
BRANCH   8   9
ATOM      9  C   UNL     1      -9.029 -18.248  -9.201  1.00  0.00     0.000 C 
BRANCH   9  10
ATOM     10  C   UNL     1      -8.773 -17.256 -10.347  1.00  0.00     0.006 C 
BRANCH  10  11
ATOM     11  C   UNL     1      -9.483 -15.914 -10.123  1.00  0.00     0.053 C 
BRANCH  11  12
ATOM     12  C   UNL     1     -10.122 -15.408 -11.380  1.00  0.00     0.041 C 
ATOM     13  O   UNL     1     -11.145 -14.676 -11.321  1.00  0.00    -0.550 OA
ATOM     14  O   UNL     1      -9.568 -15.719 -12.615  1.00  0.00    -0.550 OA
ENDBRANCH  11  12
ENDBRANCH  10  11
ENDBRANCH   9  10
ENDBRANCH   8   9
ENDBRANCH   7   8
ENDBRANCH   6   7
ENDBRANCH   5   6
ENDBRANCH   4   5
ENDBRANCH   3   4
ENDBRANCH   2   3
ENDBRANCH   1   2
BRANCH   1  15
ATOM     15  C   UNL     1      -6.973 -13.269  -5.139  1.00  0.00     0.000 C 
BRANCH  15  16
ATOM     16  C   UNL     1      -6.915 -12.969  -3.628  1.00  0.00     0.000 C 
BRANCH  16  17
ATOM     17  C   UNL     1      -6.189 -14.026  -2.772  1.00  0.00     0.000 C 
BRANCH  17  18
ATOM     18  C   UNL     1      -6.857 -15.413  -2.741  1.00  0.00    -0.000 C 
BRANCH  18  19
ATOM     19  C   UNL     1      -5.840 -16.566  -2.783  1.00  0.00    -0.000 C 
BRANCH  19  20
ATOM     20  C   UNL     1      -4.513 -16.203  -2.098  1.00  0.00    -0.000 C 
BRANCH  20  21
ATOM     21  C   UNL     1      -4.236 -17.051  -0.843  1.00  0.00    -0.000 C 
BRANCH  21  22
ATOM     22  C   UNL     1      -2.746 -17.027  -0.440  1.00  0.00    -0.000 C 
BRANCH  22  23
ATOM     23  C   UNL     1      -1.881 -18.051  -1.201  1.00  0.00    -0.000 C 
BRANCH  23  24
ATOM     24  C   UNL     1      -0.807 -17.439  -2.116  1.00  0.00    -0.000 C 
BRANCH  24  25
ATOM     25  C   UNL     1      -0.854 -15.904  -2.145  1.00  0.00    -0.003 C 
ATOM     26  C   UNL     1       0.494 -15.308  -1.752  1.00  0.00     0.004 C 
ENDBRANCH  24  25
ENDBRANCH  23  24
ENDBRANCH  22  23
ENDBRANCH  21  22
ENDBRANCH  20  21
ENDBRANCH  19  20
ENDBRANCH  18  19
ENDBRANCH  17  18
ENDBRANCH  16  17
ENDBRANCH  15  16
ENDBRANCH   1  15
TORSDOF 22
ENDMDL
MODEL 2
REMARK VINA RESULT:    -5.547      5.109     10.362
REMARK INTER + INTRA:         -15.600
REMARK INTER:                 -12.567
REMARK INTRA:                  -3.034
REMARK UNBOUND:                -2.919
REMARK SMILES CCCCCCCCCCCCCCCCCCCCCCCC(=O)[O-]
REMARK SMILES IDX 13 1 14 2 15 3 16 4 17 5 18 6 19 7 20 8 21 9 22 10 23 11
REMARK SMILES IDX 24 12 25 13 26 14 12 15 11 16 10 17 9 18 8 19 7 20 6 21 5 22
REMARK SMILES IDX 4 23 3 24 2 25 1 26
REMARK H PARENT
REMARK Flexibility Score: inf
ROOT
ATOM      1  C   UNL     1      -3.651 -15.862  -1.618  1.00  0.00     0.000 C 
ENDROOT
BRANCH   1   2
ATOM      2  C   UNL     1      -2.826 -16.560  -0.527  1.00  0.00     0.000 C 
BRANCH   2   3
ATOM      3  C   UNL     1      -2.595 -18.038  -0.878  1.00  0.00     0.000 C 
BRANCH   3   4
ATOM      4  C   UNL     1      -1.126 -18.351  -1.214  1.00  0.00     0.000 C 
BRANCH   4   5
ATOM      5  C   UNL     1      -0.719 -18.061  -2.671  1.00  0.00     0.000 C 
BRANCH   5   6
ATOM      6  C   UNL     1       0.451 -17.073  -2.778  1.00  0.00     0.000 C 
BRANCH   6   7
ATOM      7  C   UNL     1      -0.008 -15.642  -2.470  1.00  0.00     0.000 C 
BRANCH   7   8
ATOM      8  C   UNL     1       0.956 -14.953  -1.496  1.00  0.00     0.000 C 
BRANCH   8   9
ATOM      9  C   UNL     1       1.420 -15.921  -0.403  1.00  0.00     0.000 C 
BRANCH   9  10
ATOM     10  C   UNL     1       0.509 -15.834   0.832  1.00  0.00     0.006 C 
BRANCH  10  11
ATOM     11  C   UNL     1       0.791 -16.953   1.842  1.00  0.00     0.053 C 
BRANCH  11  12
ATOM     12  C   UNL     1      -0.470 -17.626   2.292  1.00  0.00     0.041 C 
ATOM     13  O   UNL     1      -0.558 -18.882   2.285  1.00  0.00    -0.550 OA
ATOM     14  O   UNL     1      -1.538 -16.863   2.749  1.00  0.00    -0.550 OA
ENDBRANCH  11  12
ENDBRANCH  10  11
ENDBRANCH   9  10
ENDBRANCH   8   9
ENDBRANCH   7   8
ENDBRANCH   6   7
ENDBRANCH   5   6
ENDBRANCH   4   5
ENDBRANCH   3   4
ENDBRANCH   2   3
ENDBRANCH   1   2
BRANCH   1  15
ATOM     15  C   UNL     1      -5.103 -16.367  -1.684  1.00  0.00     0.000 C 
BRANCH  15  16
ATOM     16  C   UNL     1      -5.768 -16.257  -3.070  1.00  0.00     0.000 C 
BRANCH  16  17
ATOM     17  C   UNL     1      -7.289 -16.508  -3.095  1.00  0.00     0.000 C 
BRANCH  17  18
ATOM     18  C   UNL     1      -7.757 -17.584  -4.092  1.00  0.00    -0.000 C 
BRANCH  18  19
ATOM     19  C   UNL     1      -6.826 -17.715  -5.309  1.00  0.00    -0.000 C 
BRANCH  19  20
ATOM     20  C   UNL     1      -7.587 -18.061  -6.598  1.00  0.00    -0.000 C 
BRANCH  20  21
ATOM     21  C   UNL     1      -8.708 -17.055  -6.919  1.00  0.00    -0.000 C 
BRANCH  21  22
ATOM     22  C   UNL     1      -8.222 -15.593  -6.833  1.00  0.00    -0.000 C 
BRANCH  22  23
ATOM     23  C   UNL     1      -9.181 -14.665  -6.061  1.00  0.00    -0.000 C 
BRANCH  23  24
ATOM     24  C   UNL     1      -8.531 -13.392  -5.492  1.00  0.00    -0.000 C 
BRANCH  24  25
ATOM     25  C   UNL     1      -6.996 -13.461  -5.482  1.00  0.00    -0.003 C 
ATOM     26  C   UNL     1      -6.430 -12.859  -4.200  1.00  0.00     0.004 C 
ENDBRANCH  24  25
ENDBRANCH  23  24
ENDBRANCH  22  23
ENDBRANCH  21  22
ENDBRANCH  20  21
ENDBRANCH  19  20
ENDBRANCH  18  19
ENDBRANCH  17  18
ENDBRANCH  16  17
ENDBRANCH  15  16
ENDBRANCH   1  15
TORSDOF 22
ENDMDL
MODEL 3
REMARK VINA RESULT:    -5.531      1.416      2.315
REMARK INTER + INTRA:         -15.563
REMARK INTER:                 -13.710
REMARK INTRA:                  -1.853
REMARK UNBOUND:                -2.919
REMARK SMILES CCCCCCCCCCCCCCCCCCCCCCCC(=O)[O-]
REMARK SMILES IDX 13 1 14 2 15 3 16 4 17 5 18 6 19 7 20 8 21 9 22 10 23 11
REMARK SMILES IDX 24 12 25 13 26 14 12 15 11 16 10 17 9 18 8 19 7 20 6 21 5 22
REMARK SMILES IDX 4 23 3 24 2 25 1 26
REMARK H PARENT
REMARK Flexibility Score: inf
ROOT
ATOM      1  C   UNL     1      -6.949 -13.429  -5.102  1.00  0.00     0.000 C 
ENDROOT
BRANCH   1   2
ATOM      2  C   UNL     1      -8.374 -13.506  -5.669  1.00  0.00     0.000 C 
BRANCH   2   3
ATOM      3  C   UNL     1      -8.739 -14.953  -6.034  1.00  0.00     0.000 C 
BRANCH   3   4
ATOM      4  C   UNL     1      -7.516 -15.797  -6.434  1.00  0.00     0.000 C 
BRANCH   4   5
ATOM      5  C   UNL     1      -7.837 -17.052  -7.267  1.00  0.00     0.000 C 
BRANCH   5   6
ATOM      6  C   UNL     1      -9.339 -17.219  -7.538  1.00  0.00     0.000 C 
BRANCH   6   7
ATOM      7  C   UNL     1      -9.608 -17.424  -9.034  1.00  0.00     0.000 C 
BRANCH   7   8
ATOM      8  C   UNL     1      -9.387 -16.122  -9.816  1.00  0.00     0.000 C 
BRANCH   8   9
ATOM      9  C   UNL     1     -10.266 -16.078 -11.070  1.00  0.00     0.000 C 
BRANCH   9  10
ATOM     10  C   UNL     1     -10.632 -14.631 -11.435  1.00  0.00     0.006 C 
BRANCH  10  11
ATOM     11  C   UNL     1     -12.139 -14.454 -11.665  1.00  0.00     0.053 C 
BRANCH  11  12
ATOM     12  C   UNL     1     -12.629 -13.139 -11.140  1.00  0.00     0.041 C 
ATOM     13  O   UNL     1     -11.834 -12.346 -10.570  1.00  0.00    -0.550 OA
ATOM     14  O   UNL     1     -13.959 -12.775 -11.311  1.00  0.00    -0.550 OA
ENDBRANCH  11  12
ENDBRANCH  10  11
ENDBRANCH   9  10
ENDBRANCH   8   9
ENDBRANCH   7   8
ENDBRANCH   6   7
ENDBRANCH   5   6
ENDBRANCH   4   5
ENDBRANCH   3   4
ENDBRANCH   2   3
ENDBRANCH   1   2
BRANCH   1  15
ATOM     15  C   UNL     1      -6.915 -12.970  -3.634  1.00  0.00     0.000 C 
BRANCH  15  16
ATOM     16  C   UNL     1      -6.364 -14.012  -2.640  1.00  0.00     0.000 C 
BRANCH  16  17
ATOM     17  C   UNL     1      -6.757 -15.475  -2.930  1.00  0.00     0.000 C 
BRANCH  17  18
ATOM     18  C   UNL     1      -5.635 -16.507  -2.716  1.00  0.00    -0.000 C 
BRANCH  18  19
ATOM     19  C   UNL     1      -4.652 -16.098  -1.606  1.00  0.00    -0.000 C 
BRANCH  19  20
ATOM     20  C   UNL     1      -3.271 -16.750  -1.775  1.00  0.00    -0.000 C 
BRANCH  20  21
ATOM     21  C   UNL     1      -2.612 -17.112  -0.431  1.00  0.00    -0.000 C 
BRANCH  21  22
ATOM     22  C   UNL     1      -1.628 -18.294  -0.564  1.00  0.00    -0.000 C 
BRANCH  22  23
ATOM     23  C   UNL     1      -1.080 -18.487  -1.991  1.00  0.00    -0.000 C 
BRANCH  23  24
ATOM     24  C   UNL     1       0.430 -18.231  -2.145  1.00  0.00    -0.000 C 
BRANCH  24  25
ATOM     25  C   UNL     1       0.745 -17.140  -3.179  1.00  0.00    -0.003 C 
ATOM     26  C   UNL     1       0.205 -15.786  -2.728  1.00  0.00     0.004 C 
ENDBRANCH  24  25
ENDBRANCH  23  24
ENDBRANCH  22  23
ENDBRANCH  21  22
ENDBRANCH  20  21
ENDBRANCH  19  20
ENDBRANCH  18  19
ENDBRANCH  17  18
ENDBRANCH  16  17
ENDBRANCH  15  16
ENDBRANCH   1  15
TORSDOF 22
ENDMDL
MODEL 4
REMARK VINA RESULT:    -5.528      5.179      9.993
REMARK INTER + INTRA:         -15.557
REMARK INTER:                 -12.749
REMARK INTRA:                  -2.808
REMARK UNBOUND:                -2.919
REMARK SMILES CCCCCCCCCCCCCCCCCCCCCCCC(=O)[O-]
REMARK SMILES IDX 13 1 14 2 15 3 16 4 17 5 18 6 19 7 20 8 21 9 22 10 23 11
REMARK SMILES IDX 24 12 25 13 26 14 12 15 11 16 10 17 9 18 8 19 7 20 6 21 5 22
REMARK SMILES IDX 4 23 3 24 2 25 1 26
REMARK H PARENT
REMARK Flexibility Score: inf
ROOT
ATOM      1  C   UNL     1      -7.097 -13.229  -5.152  1.00  0.00     0.000 C 
ENDROOT
BRANCH   1   2
ATOM      2  C   UNL     1      -7.106 -12.829  -3.669  1.00  0.00     0.000 C 
BRANCH   2   3
ATOM      3  C   UNL     1      -6.155 -13.722  -2.858  1.00  0.00     0.000 C 
BRANCH   3   4
ATOM      4  C   UNL     1      -6.694 -15.150  -2.663  1.00  0.00     0.000 C 
BRANCH   4   5
ATOM      5  C   UNL     1      -5.671 -16.271  -2.927  1.00  0.00     0.000 C 
BRANCH   5   6
ATOM      6  C   UNL     1      -4.397 -16.127  -2.082  1.00  0.00     0.000 C 
BRANCH   6   7
ATOM      7  C   UNL     1      -4.421 -17.086  -0.885  1.00  0.00     0.000 C 
BRANCH   7   8
ATOM      8  C   UNL     1      -3.146 -16.946  -0.042  1.00  0.00     0.000 C 
BRANCH   8   9
ATOM      9  C   UNL     1      -1.922 -16.704  -0.932  1.00  0.00     0.000 C 
BRANCH   9  10
ATOM     10  C   UNL     1      -0.622 -17.027  -0.179  1.00  0.00     0.006 C 
BRANCH  10  11
ATOM     11  C   UNL     1      -0.794 -18.195   0.801  1.00  0.00     0.053 C 
BRANCH  11  12
ATOM     12  C   UNL     1      -0.101 -17.934   2.103  1.00  0.00     0.041 C 
ATOM     13  O   UNL     1      -0.755 -17.919   3.179  1.00  0.00    -0.550 OA
ATOM     14  O   UNL     1       1.274 -17.739   2.131  1.00  0.00    -0.550 OA
ENDBRANCH  11  12
ENDBRANCH  10  11
ENDBRANCH   9  10
ENDBRANCH   8   9
ENDBRANCH   7   8
ENDBRANCH   6   7
ENDBRANCH   5   6
ENDBRANCH   4   5
ENDBRANCH   3   4
ENDBRANCH   2   3
ENDBRANCH   1   2
BRANCH   1  15
ATOM     15  C   UNL     1      -8.465 -13.740  -5.640  1.00  0.00     0.000 C 
BRANCH  15  16
ATOM     16  C   UNL     1      -8.536 -15.258  -5.899  1.00  0.00     0.000 C 
BRANCH  16  17
ATOM     17  C   UNL     1      -7.244 -15.896  -6.447  1.00  0.00     0.000 C 
BRANCH  17  18
ATOM     18  C   UNL     1      -7.105 -17.409  -6.197  1.00  0.00    -0.000 C 
BRANCH  18  19
ATOM     19  C   UNL     1      -7.913 -17.888  -4.979  1.00  0.00    -0.000 C 
BRANCH  19  20
ATOM     20  C   UNL     1      -8.859 -19.050  -5.321  1.00  0.00    -0.000 C 
BRANCH  20  21
ATOM     21  C   UNL     1      -9.197 -19.124  -6.822  1.00  0.00    -0.000 C 
BRANCH  21  22
ATOM     22  C   UNL     1     -10.583 -18.524  -7.137  1.00  0.00    -0.000 C 
BRANCH  22  23
ATOM     23  C   UNL     1     -10.628 -17.722  -8.453  1.00  0.00    -0.000 C 
BRANCH  23  24
ATOM     24  C   UNL     1      -9.359 -17.825  -9.317  1.00  0.00    -0.000 C 
BRANCH  24  25
ATOM     25  C   UNL     1      -8.870 -16.459  -9.820  1.00  0.00    -0.003 C 
ATOM     26  C   UNL     1      -9.910 -15.805 -10.725  1.00  0.00     0.004 C 
ENDBRANCH  24  25
ENDBRANCH  23  24
ENDBRANCH  22  23
ENDBRANCH  21  22
ENDBRANCH  20  21
ENDBRANCH  19  20
ENDBRANCH  18  19
ENDBRANCH  17  18
ENDBRANCH  16  17
ENDBRANCH  15  16
ENDBRANCH   1  15
TORSDOF 22
ENDMDL
MODEL 5
REMARK VINA RESULT:    -5.511      3.908      9.392
REMARK INTER + INTRA:         -15.517
REMARK INTER:                 -12.935
REMARK INTRA:                  -2.582
REMARK UNBOUND:                -2.919
REMARK SMILES CCCCCCCCCCCCCCCCCCCCCCCC(=O)[O-]
REMARK SMILES IDX 13 1 14 2 15 3 16 4 17 5 18 6 19 7 20 8 21 9 22 10 23 11
REMARK SMILES IDX 24 12 25 13 26 14 12 15 11 16 10 17 9 18 8 19 7 20 6 21 5 22
REMARK SMILES IDX 4 23 3 24 2 25 1 26
REMARK H PARENT
REMARK Flexibility Score: inf
ROOT
ATOM      1  C   UNL     1      -6.891 -13.468  -5.088  1.00  0.00     0.000 C 
ENDROOT
BRANCH   1   2
ATOM      2  C   UNL     1      -6.854 -12.840  -3.687  1.00  0.00     0.000 C 
BRANCH   2   3
ATOM      3  C   UNL     1      -6.413 -13.872  -2.638  1.00  0.00     0.000 C 
BRANCH   3   4
ATOM      4  C   UNL     1      -6.748 -15.318  -3.042  1.00  0.00     0.000 C 
BRANCH   4   5
ATOM      5  C   UNL     1      -5.539 -16.271  -3.100  1.00  0.00     0.000 C 
BRANCH   5   6
ATOM      6  C   UNL     1      -4.895 -16.503  -1.726  1.00  0.00     0.000 C 
BRANCH   6   7
ATOM      7  C   UNL     1      -3.368 -16.584  -1.841  1.00  0.00     0.000 C 
BRANCH   7   8
ATOM      8  C   UNL     1      -2.727 -16.860  -0.475  1.00  0.00     0.000 C 
BRANCH   8   9
ATOM      9  C   UNL     1      -1.808 -18.085  -0.536  1.00  0.00     0.000 C 
BRANCH   9  10
ATOM     10  C   UNL     1      -1.126 -18.194  -1.909  1.00  0.00     0.006 C 
BRANCH  10  11
ATOM     11  C   UNL     1       0.296 -17.618  -1.898  1.00  0.00     0.053 C 
BRANCH  11  12
ATOM     12  C   UNL     1       0.379 -16.331  -2.661  1.00  0.00     0.041 C 
ATOM     13  O   UNL     1       0.084 -15.242  -2.102  1.00  0.00    -0.550 OA
ATOM     14  O   UNL     1       0.815 -16.332  -3.980  1.00  0.00    -0.550 OA
ENDBRANCH  11  12
ENDBRANCH  10  11
ENDBRANCH   9  10
ENDBRANCH   8   9
ENDBRANCH   7   8
ENDBRANCH   6   7
ENDBRANCH   5   6
ENDBRANCH   4   5
ENDBRANCH   3   4
ENDBRANCH   2   3
ENDBRANCH   1   2
BRANCH   1  15
ATOM     15  C   UNL     1      -8.323 -13.674  -5.612  1.00  0.00     0.000 C 
BRANCH  15  16
ATOM     16  C   UNL     1      -8.584 -15.044  -6.269  1.00  0.00     0.000 C 
BRANCH  16  17
ATOM     17  C   UNL     1      -7.328 -15.794  -6.754  1.00  0.00     0.000 C 
BRANCH  17  18
ATOM     18  C   UNL     1      -7.235 -17.266  -6.311  1.00  0.00    -0.000 C 
BRANCH  18  19
ATOM     19  C   UNL     1      -8.546 -17.789  -5.700  1.00  0.00    -0.000 C 
BRANCH  19  20
ATOM     20  C   UNL     1      -9.257 -18.801  -6.611  1.00  0.00    -0.000 C 
BRANCH  20  21
ATOM     21  C   UNL     1     -10.120 -18.128  -7.694  1.00  0.00    -0.000 C 
BRANCH  21  22
ATOM     22  C   UNL     1      -9.645 -18.479  -9.120  1.00  0.00    -0.000 C 
BRANCH  22  23
ATOM     23  C   UNL     1      -8.681 -17.440  -9.726  1.00  0.00    -0.000 C 
BRANCH  23  24
ATOM     24  C   UNL     1      -9.309 -16.066 -10.015  1.00  0.00    -0.000 C 
BRANCH  24  25
ATOM     25  C   UNL     1      -9.890 -15.964 -11.434  1.00  0.00    -0.003 C 
ATOM     26  C   UNL     1     -10.976 -14.896 -11.505  1.00  0.00     0.004 C 
ENDBRANCH  24  25
ENDBRANCH  23  24
ENDBRANCH  22  23
ENDBRANCH  21  22
ENDBRANCH  20  21
ENDBRANCH  19  20
ENDBRANCH  18  19
ENDBRANCH  17  18
ENDBRANCH  16  17
ENDBRANCH  15  16
ENDBRANCH   1  15
TORSDOF 22
ENDMDL
MODEL 6
REMARK VINA RESULT:    -5.502      4.990     10.063
REMARK INTER + INTRA:         -15.497
REMARK INTER:                 -12.837
REMARK INTRA:                  -2.660
REMARK UNBOUND:                -2.919
REMARK SMILES CCCCCCCCCCCCCCCCCCCCCCCC(=O)[O-]
REMARK SMILES IDX 13 1 14 2 15 3 16 4 17 5 18 6 19 7 20 8 21 9 22 10 23 11
REMARK SMILES IDX 24 12 25 13 26 14 12 15 11 16 10 17 9 18 8 19 7 20 6 21 5 22
REMARK SMILES IDX 4 23 3 24 2 25 1 26
REMARK H PARENT
REMARK Flexibility Score: inf
ROOT
ATOM      1  C   UNL     1      -8.386 -13.728  -5.620  1.00  0.00     0.000 C 
ENDROOT
BRANCH   1   2
ATOM      2  C   UNL     1      -7.010 -13.251  -5.134  1.00  0.00     0.000 C 
BRANCH   2   3
ATOM      3  C   UNL     1      -7.025 -12.991  -3.619  1.00  0.00     0.000 C 
BRANCH   3   4
ATOM      4  C   UNL     1      -6.153 -13.986  -2.833  1.00  0.00     0.000 C 
BRANCH   4   5
ATOM      5  C   UNL     1      -6.799 -15.362  -2.588  1.00  0.00     0.000 C 
BRANCH   5   6
ATOM      6  C   UNL     1      -5.765 -16.482  -2.400  1.00  0.00     0.000 C 
BRANCH   6   7
ATOM      7  C   UNL     1      -4.424 -15.916  -1.916  1.00  0.00     0.000 C 
BRANCH   7   8
ATOM      8  C   UNL     1      -3.853 -16.759  -0.769  1.00  0.00     0.000 C 
BRANCH   8   9
ATOM      9  C   UNL     1      -2.576 -17.487  -1.203  1.00  0.00     0.000 C 
BRANCH   9  10
ATOM     10  C   UNL     1      -1.344 -16.909  -0.488  1.00  0.00     0.006 C 
BRANCH  10  11
ATOM     11  C   UNL     1      -0.627 -17.959   0.371  1.00  0.00     0.053 C 
BRANCH  11  12
ATOM     12  C   UNL     1      -0.571 -17.551   1.812  1.00  0.00     0.041 C 
ATOM     13  O   UNL     1      -1.626 -17.247   2.428  1.00  0.00    -0.550 OA
ATOM     14  O   UNL     1       0.646 -17.539   2.483  1.00  0.00    -0.550 OA
ENDBRANCH  11  12
ENDBRANCH  10  11
ENDBRANCH   9  10
ENDBRANCH   8   9
ENDBRANCH   7   8
ENDBRANCH   6   7
ENDBRANCH   5   6
ENDBRANCH   4   5
ENDBRANCH   3   4
ENDBRANCH   2   3
ENDBRANCH   1   2
BRANCH   1  15
ATOM     15  C   UNL     1      -8.428 -15.240  -5.902  1.00  0.00     0.000 C 
BRANCH  15  16
ATOM     16  C   UNL     1      -7.074 -15.867  -6.292  1.00  0.00     0.000 C 
BRANCH  16  17
ATOM     17  C   UNL     1      -6.906 -17.356  -5.929  1.00  0.00     0.000 C 
BRANCH  17  18
ATOM     18  C   UNL     1      -8.005 -17.934  -5.019  1.00  0.00    -0.000 C 
BRANCH  18  19
ATOM     19  C   UNL     1      -8.742 -19.125  -5.656  1.00  0.00    -0.000 C 
BRANCH  19  20
ATOM     20  C   UNL     1      -9.998 -18.694  -6.427  1.00  0.00    -0.000 C 
BRANCH  20  21
ATOM     21  C   UNL     1      -9.779 -18.649  -7.951  1.00  0.00    -0.000 C 
BRANCH  21  22
ATOM     22  C   UNL     1      -9.928 -17.222  -8.519  1.00  0.00    -0.000 C 
BRANCH  22  23
ATOM     23  C   UNL     1      -8.891 -16.877  -9.606  1.00  0.00    -0.000 C 
BRANCH  23  24
ATOM     24  C   UNL     1      -9.463 -16.750 -11.029  1.00  0.00    -0.000 C 
BRANCH  24  25
ATOM     25  C   UNL     1     -10.018 -15.348 -11.325  1.00  0.00    -0.003 C 
ATOM     26  C   UNL     1     -11.396 -15.431 -11.974  1.00  0.00     0.004 C 
ENDBRANCH  24  25
ENDBRANCH  23  24
ENDBRANCH  22  23
ENDBRANCH  21  22
ENDBRANCH  20  21
ENDBRANCH  19  20
ENDBRANCH  18  19
ENDBRANCH  17  18
ENDBRANCH  16  17
ENDBRANCH  15  16
ENDBRANCH   1  15
TORSDOF 22
ENDMDL
MODEL 7
REMARK VINA RESULT:    -5.423      1.286      2.188
REMARK INTER + INTRA:         -15.316
REMARK INTER:                 -12.631
REMARK INTRA:                  -2.684
REMARK UNBOUND:                -2.919
REMARK SMILES CCCCCCCCCCCCCCCCCCCCCCCC(=O)[O-]
REMARK SMILES IDX 13 1 14 2 15 3 16 4 17 5 18 6 19 7 20 8 21 9 22 10 23 11
REMARK SMILES IDX 24 12 25 13 26 14 12 15 11 16 10 17 9 18 8 19 7 20 6 21 5 22
REMARK SMILES IDX 4 23 3 24 2 25 1 26
REMARK H PARENT
REMARK Flexibility Score: inf
ROOT
ATOM      1  C   UNL     1      -6.953 -13.560  -5.133  1.00  0.00     0.000 C 
ENDROOT
BRANCH   1   2
ATOM      2  C   UNL     1      -8.401 -13.647  -5.636  1.00  0.00     0.000 C 
BRANCH   2   3
ATOM      3  C   UNL     1      -8.749 -15.085  -6.051  1.00  0.00     0.000 C 
BRANCH   3   4
ATOM      4  C   UNL     1      -7.620 -15.771  -6.839  1.00  0.00     0.000 C 
BRANCH   4   5
ATOM      5  C   UNL     1      -7.068 -17.057  -6.195  1.00  0.00     0.000 C 
BRANCH   5   6
ATOM      6  C   UNL     1      -8.136 -17.843  -5.421  1.00  0.00     0.000 C 
BRANCH   6   7
ATOM      7  C   UNL     1      -8.582 -19.083  -6.206  1.00  0.00     0.000 C 
BRANCH   7   8
ATOM      8  C   UNL     1     -10.109 -19.124  -6.349  1.00  0.00     0.000 C 
BRANCH   8   9
ATOM      9  C   UNL     1     -10.615 -17.947  -7.191  1.00  0.00     0.000 C 
BRANCH   9  10
ATOM     10  C   UNL     1     -10.627 -18.306  -8.685  1.00  0.00     0.006 C 
BRANCH  10  11
ATOM     11  C   UNL     1      -9.598 -17.495  -9.485  1.00  0.00     0.053 C 
BRANCH  11  12
ATOM     12  C   UNL     1     -10.259 -16.550 -10.442  1.00  0.00     0.041 C 
ATOM     13  O   UNL     1      -9.854 -15.363 -10.543  1.00  0.00    -0.550 OA
ATOM     14  O   UNL     1     -11.303 -16.993 -11.245  1.00  0.00    -0.550 OA
ENDBRANCH  11  12
ENDBRANCH  10  11
ENDBRANCH   9  10
ENDBRANCH   8   9
ENDBRANCH   7   8
ENDBRANCH   6   7
ENDBRANCH   5   6
ENDBRANCH   4   5
ENDBRANCH   3   4
ENDBRANCH   2   3
ENDBRANCH   1   2
BRANCH   1  15
ATOM     15  C   UNL     1      -6.848 -12.977  -3.712  1.00  0.00     0.000 C 
BRANCH  15  16
ATOM     16  C   UNL     1      -6.483 -13.998  -2.616  1.00  0.00     0.000 C 
BRANCH  16  17
ATOM     17  C   UNL     1      -6.865 -15.460  -2.922  1.00  0.00     0.000 C 
BRANCH  17  18
ATOM     18  C   UNL     1      -5.833 -16.511  -2.475  1.00  0.00    -0.000 C 
BRANCH  18  19
ATOM     19  C   UNL     1      -4.568 -15.884  -1.866  1.00  0.00    -0.000 C 
BRANCH  19  20
ATOM     20  C   UNL     1      -3.956 -16.753  -0.757  1.00  0.00    -0.000 C 
BRANCH  20  21
ATOM     21  C   UNL     1      -2.738 -17.564  -1.235  1.00  0.00    -0.000 C 
BRANCH  21  22
ATOM     22  C   UNL     1      -1.510 -16.669  -1.504  1.00  0.00    -0.000 C 
BRANCH  22  23
ATOM     23  C   UNL     1      -0.316 -16.957  -0.573  1.00  0.00    -0.000 C 
BRANCH  23  24
ATOM     24  C   UNL     1      -0.615 -17.931   0.581  1.00  0.00    -0.000 C 
BRANCH  24  25
ATOM     25  C   UNL     1      -0.466 -17.278   1.963  1.00  0.00    -0.003 C 
ATOM     26  C   UNL     1      -1.612 -16.309   2.236  1.00  0.00     0.004 C 
ENDBRANCH  24  25
ENDBRANCH  23  24
ENDBRANCH  22  23
ENDBRANCH  21  22
ENDBRANCH  20  21
ENDBRANCH  19  20
ENDBRANCH  18  19
ENDBRANCH  17  18
ENDBRANCH  16  17
ENDBRANCH  15  16
ENDBRANCH   1  15
TORSDOF 22
ENDMDL
MODEL 8
REMARK VINA RESULT:    -5.407      1.143      2.140
REMARK INTER + INTRA:         -15.280
REMARK INTER:                 -13.093
REMARK INTRA:                  -2.187
REMARK UNBOUND:                -2.919
REMARK SMILES CCCCCCCCCCCCCCCCCCCCCCCC(=O)[O-]
REMARK SMILES IDX 13 1 14 2 15 3 16 4 17 5 18 6 19 7 20 8 21 9 22 10 23 11
REMARK SMILES IDX 24 12 25 13 26 14 12 15 11 16 10 17 9 18 8 19 7 20 6 21 5 22
REMARK SMILES IDX 4 23 3 24 2 25 1 26
REMARK H PARENT
REMARK Flexibility Score: inf
ROOT
ATOM      1  C   UNL     1      -8.603 -15.572  -5.799  1.00  0.00     0.000 C 
ENDROOT
BRANCH   1   2
ATOM      2  C   UNL     1      -7.323 -16.328  -5.416  1.00  0.00     0.000 C 
BRANCH   2   3
ATOM      3  C   UNL     1      -7.348 -17.761  -5.970  1.00  0.00     0.000 C 
BRANCH   3   4
ATOM      4  C   UNL     1      -8.640 -18.517  -5.616  1.00  0.00     0.000 C 
BRANCH   4   5
ATOM      5  C   UNL     1      -9.399 -19.103  -6.821  1.00  0.00     0.000 C 
BRANCH   5   6
ATOM      6  C   UNL     1     -10.634 -18.278  -7.208  1.00  0.00     0.000 C 
BRANCH   6   7
ATOM      7  C   UNL     1     -10.638 -17.965  -8.710  1.00  0.00     0.000 C 
BRANCH   7   8
ATOM      8  C   UNL     1      -9.232 -17.595  -9.199  1.00  0.00     0.000 C 
BRANCH   8   9
ATOM      9  C   UNL     1      -9.179 -16.138  -9.670  1.00  0.00     0.000 C 
BRANCH   9  10
ATOM     10  C   UNL     1      -9.723 -16.003 -11.101  1.00  0.00     0.006 C 
BRANCH  10  11
ATOM     11  C   UNL     1     -10.634 -14.779 -11.262  1.00  0.00     0.053 C 
BRANCH  11  12
ATOM     12  C   UNL     1     -11.841 -15.091 -12.093  1.00  0.00     0.041 C 
ATOM     13  O   UNL     1     -12.990 -15.068 -11.577  1.00  0.00    -0.550 OA
ATOM     14  O   UNL     1     -11.699 -15.374 -13.445  1.00  0.00    -0.550 OA
ENDBRANCH  11  12
ENDBRANCH  10  11
ENDBRANCH   9  10
ENDBRANCH   8   9
ENDBRANCH   7   8
ENDBRANCH   6   7
ENDBRANCH   5   6
ENDBRANCH   4   5
ENDBRANCH   3   4
ENDBRANCH   2   3
ENDBRANCH   1   2
BRANCH   1  15
ATOM     15  C   UNL     1      -8.471 -14.049  -5.627  1.00  0.00     0.000 C 
BRANCH  15  16
ATOM     16  C   UNL     1      -7.039 -13.499  -5.780  1.00  0.00     0.000 C 
BRANCH  16  17
ATOM     17  C   UNL     1      -6.486 -12.743  -4.555  1.00  0.00     0.000 C 
BRANCH  17  18
ATOM     18  C   UNL     1      -7.078 -13.173  -3.201  1.00  0.00    -0.000 C 
BRANCH  18  19
ATOM     19  C   UNL     1      -6.119 -14.055  -2.383  1.00  0.00    -0.000 C 
BRANCH  19  20
ATOM     20  C   UNL     1      -6.561 -15.526  -2.346  1.00  0.00    -0.000 C 
BRANCH  20  21
ATOM     21  C   UNL     1      -5.374 -16.506  -2.301  1.00  0.00    -0.000 C 
BRANCH  21  22
ATOM     22  C   UNL     1      -4.159 -15.916  -1.553  1.00  0.00    -0.000 C 
BRANCH  22  23
ATOM     23  C   UNL     1      -3.375 -16.955  -0.727  1.00  0.00    -0.000 C 
BRANCH  23  24
ATOM     24  C   UNL     1      -2.064 -17.439  -1.372  1.00  0.00    -0.000 C 
BRANCH  24  25
ATOM     25  C   UNL     1      -0.844 -17.236  -0.461  1.00  0.00    -0.003 C 
ATOM     26  C   UNL     1      -0.691 -18.397   0.516  1.00  0.00     0.004 C 
ENDBRANCH  24  25
ENDBRANCH  23  24
ENDBRANCH  22  23
ENDBRANCH  21  22
ENDBRANCH  20  21
ENDBRANCH  19  20
ENDBRANCH  18  19
ENDBRANCH  17  18
ENDBRANCH  16  17
ENDBRANCH  15  16
ENDBRANCH   1  15
TORSDOF 22
ENDMDL
MODEL 9
REMARK VINA RESULT:    -5.104      1.645      2.396
REMARK INTER + INTRA:         -14.588
REMARK INTER:                 -12.721
REMARK INTRA:                  -1.867
REMARK UNBOUND:                -2.919
REMARK SMILES CCCCCCCCCCCCCCCCCCCCCCCC(=O)[O-]
REMARK SMILES IDX 13 1 14 2 15 3 16 4 17 5 18 6 19 7 20 8 21 9 22 10 23 11
REMARK SMILES IDX 24 12 25 13 26 14 12 15 11 16 10 17 9 18 8 19 7 20 6 21 5 22
REMARK SMILES IDX 4 23 3 24 2 25 1 26
REMARK H PARENT
REMARK Flexibility Score: inf
ROOT
ATOM      1  C   UNL     1      -7.257 -13.336  -5.498  1.00  0.00     0.000 C 
ENDROOT
BRANCH   1   2
ATOM      2  C   UNL     1      -8.719 -13.782  -5.644  1.00  0.00     0.000 C 
BRANCH   2   3
ATOM      3  C   UNL     1      -8.825 -15.314  -5.652  1.00  0.00     0.000 C 
BRANCH   3   4
ATOM      4  C   UNL     1      -7.575 -15.998  -6.234  1.00  0.00     0.000 C 
BRANCH   4   5
ATOM      5  C   UNL     1      -7.810 -16.771  -7.545  1.00  0.00     0.000 C 
BRANCH   5   6
ATOM      6  C   UNL     1      -9.264 -16.691  -8.033  1.00  0.00     0.000 C 
BRANCH   6   7
ATOM      7  C   UNL     1      -9.611 -17.890  -8.924  1.00  0.00     0.000 C 
BRANCH   7   8
ATOM      8  C   UNL     1     -10.174 -17.427 -10.274  1.00  0.00     0.000 C 
BRANCH   8   9
ATOM      9  C   UNL     1      -9.288 -16.343 -10.898  1.00  0.00     0.000 C 
BRANCH   9  10
ATOM     10  C   UNL     1     -10.140 -15.216 -11.501  1.00  0.00     0.006 C 
BRANCH  10  11
ATOM     11  C   UNL     1     -11.402 -15.749 -12.191  1.00  0.00     0.053 C 
BRANCH  11  12
ATOM     12  C   UNL     1     -12.627 -15.001 -11.761  1.00  0.00     0.041 C 
ATOM     13  O   UNL     1     -13.713 -15.612 -11.576  1.00  0.00    -0.550 OA
ATOM     14  O   UNL     1     -12.561 -13.632 -11.534  1.00  0.00    -0.550 OA
ENDBRANCH  11  12
ENDBRANCH  10  11
ENDBRANCH   9  10
ENDBRANCH   8   9
ENDBRANCH   7   8
ENDBRANCH   6   7
ENDBRANCH   5   6
ENDBRANCH   4   5
ENDBRANCH   3   4
ENDBRANCH   2   3
ENDBRANCH   1   2
BRANCH   1  15
ATOM     15  C   UNL     1      -6.947 -12.751  -4.109  1.00  0.00     0.000 C 
BRANCH  15  16
ATOM     16  C   UNL     1      -6.091 -13.655  -3.199  1.00  0.00     0.000 C 
BRANCH  16  17
ATOM     17  C   UNL     1      -6.871 -14.720  -2.403  1.00  0.00     0.000 C 
BRANCH  17  18
ATOM     18  C   UNL     1      -6.540 -16.179  -2.765  1.00  0.00    -0.000 C 
BRANCH  18  19
ATOM     19  C   UNL     1      -5.027 -16.451  -2.819  1.00  0.00    -0.000 C 
BRANCH  19  20
ATOM     20  C   UNL     1      -4.388 -16.493  -1.422  1.00  0.00    -0.000 C 
BRANCH  20  21
ATOM     21  C   UNL     1      -2.849 -16.532  -1.469  1.00  0.00    -0.000 C 
BRANCH  21  22
ATOM     22  C   UNL     1      -2.264 -17.601  -0.521  1.00  0.00    -0.000 C 
BRANCH  22  23
ATOM     23  C   UNL     1      -0.742 -17.477  -0.311  1.00  0.00    -0.000 C 
BRANCH  23  24
ATOM     24  C   UNL     1      -0.323 -16.659   0.923  1.00  0.00    -0.000 C 
BRANCH  24  25
ATOM     25  C   UNL     1      -0.486 -17.439   2.236  1.00  0.00    -0.003 C 
ATOM     26  C   UNL     1      -0.123 -18.908   2.049  1.00  0.00     0.004 C 
ENDBRANCH  24  25
ENDBRANCH  23  24
ENDBRANCH  22  23
ENDBRANCH  21  22
ENDBRANCH  20  21
ENDBRANCH  19  20
ENDBRANCH  18  19
ENDBRANCH  17  18
ENDBRANCH  16  17
ENDBRANCH  15  16
ENDBRANCH   1  15
TORSDOF 22
ENDMDL
