MODEL 1
REMARK VINA RESULT:    -5.468      0.000      0.000
REMARK INTER + INTRA:          -7.097
REMARK INTER:                  -6.747
REMARK INTRA:                  -0.350
REMARK UNBOUND:                -0.350
REMARK SMILES O=C1c2c(O)cc(O)cc2O[C@@H](c2cc(O)c(O)c(O)c2)[C@H]1O
REMARK SMILES IDX 12 1 22 2 2 3 1 4 3 5 4 6 6 7 7 8 9 9 10 10 11 11 13 12
REMARK SMILES IDX 14 13 15 14 21 15 17 16 19 17 16 18 18 20 20 22 23 24 5 26
REMARK SMILES IDX 8 28
REMARK H PARENT 16 19 18 21 20 23 23 25 5 27 8 29
REMARK Flexibility Score: inf
ROOT
ATOM      1  C   UNL     1       2.447  -4.601   6.452  1.00  0.00     0.240 C 
ATOM      2  C   UNL     1       0.915  -4.541   6.293  1.00  0.00     0.231 C 
ATOM      3  C   UNL     1       0.362  -5.940   6.228  1.00  0.00     0.202 C 
ATOM      4  O   UNL     1      -0.771  -6.181   6.728  1.00  0.00    -0.291 OA
ATOM      5  C   UNL     1       1.130  -6.997   5.528  1.00  0.00     0.105 A 
ATOM      6  C   UNL     1       0.579  -8.254   5.202  1.00  0.00     0.133 A 
ATOM      7  C   UNL     1       1.344  -9.185   4.479  1.00  0.00     0.093 A 
ATOM      8  C   UNL     1       2.648  -8.873   4.078  1.00  0.00     0.123 A 
ATOM      9  C   UNL     1       3.196  -7.629   4.404  1.00  0.00     0.093 A 
ATOM     10  C   UNL     1       2.451  -6.700   5.136  1.00  0.00     0.138 A 
ATOM     11  O   UNL     1       3.026  -5.467   5.471  1.00  0.00    -0.481 OA
ENDROOT
BRANCH   1  12
ATOM     12  C   UNL     1       3.065  -3.222   6.374  1.00  0.00     0.003 A 
ATOM     13  C   UNL     1       4.040  -2.925   5.409  1.00  0.00     0.058 A 
ATOM     14  C   UNL     1       4.566  -1.629   5.303  1.00  0.00     0.161 A 
ATOM     15  C   UNL     1       2.608  -2.202   7.224  1.00  0.00     0.058 A 
ATOM     16  C   UNL     1       4.113  -0.617   6.166  1.00  0.00     0.200 A 
ATOM     17  C   UNL     1       3.129  -0.907   7.126  1.00  0.00     0.161 A 
BRANCH  14  18
ATOM     18  O   UNL     1       5.523  -1.344   4.332  1.00  0.00    -0.504 OA
ATOM     19  H   UNL     1       5.646  -1.935   3.516  1.00  0.00     0.293 HD
ENDBRANCH  14  18
BRANCH  16  20
ATOM     20  O   UNL     1       4.628   0.677   6.078  1.00  0.00    -0.502 OA
ATOM     21  H   UNL     1       4.872   1.218   6.902  1.00  0.00     0.293 HD
ENDBRANCH  16  20
BRANCH  17  22
ATOM     22  O   UNL     1       2.646   0.082   7.984  1.00  0.00    -0.504 OA
ATOM     23  H   UNL     1       2.058  -0.135   8.781  1.00  0.00     0.293 HD
ENDBRANCH  17  22
ENDBRANCH   1  12
BRANCH   2  24
ATOM     24  O   UNL     1       0.576  -3.855   5.115  1.00  0.00    -0.381 OA
ATOM     25  H   UNL     1      -0.358  -4.107   4.897  1.00  0.00     0.211 HD
ENDBRANCH   2  24
BRANCH   6  26
ATOM     26  O   UNL     1      -0.723  -8.578   5.582  1.00  0.00    -0.507 OA
ATOM     27  H   UNL     1      -1.298  -7.933   6.111  1.00  0.00     0.293 HD
ENDBRANCH   6  26
BRANCH   8  28
ATOM     28  O   UNL     1       3.413  -9.797   3.364  1.00  0.00    -0.508 OA
ATOM     29  H   UNL     1       4.157 -10.331   3.807  1.00  0.00     0.293 HD
ENDBRANCH   8  28
TORSDOF 7
ENDMDL
MODEL 2
REMARK VINA RESULT:    -5.454      3.587      5.312
REMARK INTER + INTRA:          -7.080
REMARK INTER:                  -6.789
REMARK INTRA:                  -0.291
REMARK UNBOUND:                -0.350
REMARK SMILES O=C1c2c(O)cc(O)cc2O[C@@H](c2cc(O)c(O)c(O)c2)[C@H]1O
REMARK SMILES IDX 12 1 22 2 2 3 1 4 3 5 4 6 6 7 7 8 9 9 10 10 11 11 13 12
REMARK SMILES IDX 14 13 15 14 21 15 17 16 19 17 16 18 18 20 20 22 23 24 5 26
REMARK SMILES IDX 8 28
REMARK H PARENT 16 19 18 21 20 23 23 25 5 27 8 29
REMARK Flexibility Score: inf
ROOT
ATOM      1  C   UNL     1       6.108  -1.580   5.823  1.00  0.00     0.240 C 
ATOM      2  C   UNL     1       4.669  -2.019   5.484  1.00  0.00     0.231 C 
ATOM      3  C   UNL     1       4.578  -3.522   5.528  1.00  0.00     0.202 C 
ATOM      4  O   UNL     1       3.511  -4.066   5.922  1.00  0.00    -0.291 OA
ATOM      5  C   UNL     1       5.723  -4.336   5.054  1.00  0.00     0.105 A 
ATOM      6  C   UNL     1       5.630  -5.725   4.824  1.00  0.00     0.133 A 
ATOM      7  C   UNL     1       6.736  -6.423   4.311  1.00  0.00     0.093 A 
ATOM      8  C   UNL     1       7.930  -5.750   4.026  1.00  0.00     0.123 A 
ATOM      9  C   UNL     1       8.024  -4.374   4.257  1.00  0.00     0.093 A 
ATOM     10  C   UNL     1       6.935  -3.670   4.781  1.00  0.00     0.138 A 
ATOM     11  O   UNL     1       7.057  -2.297   5.027  1.00  0.00    -0.481 OA
ENDROOT
BRANCH   1  12
ATOM     12  C   UNL     1       6.286  -0.088   5.648  1.00  0.00     0.003 A 
ATOM     13  C   UNL     1       5.347   0.814   6.171  1.00  0.00     0.058 A 
ATOM     14  C   UNL     1       5.548   2.197   6.058  1.00  0.00     0.161 A 
ATOM     15  C   UNL     1       7.440   0.410   5.022  1.00  0.00     0.058 A 
ATOM     16  C   UNL     1       6.699   2.688   5.418  1.00  0.00     0.200 A 
ATOM     17  C   UNL     1       7.648   1.788   4.903  1.00  0.00     0.161 A 
BRANCH  14  18
ATOM     18  O   UNL     1       4.615   3.082   6.594  1.00  0.00    -0.504 OA
ATOM     19  H   UNL     1       4.885   4.000   6.932  1.00  0.00     0.293 HD
ENDBRANCH  14  18
BRANCH  16  20
ATOM     20  O   UNL     1       6.914   4.061   5.293  1.00  0.00    -0.502 OA
ATOM     21  H   UNL     1       6.665   4.571   4.450  1.00  0.00     0.293 HD
ENDBRANCH  16  20
BRANCH  17  22
ATOM     22  O   UNL     1       8.809   2.245   4.279  1.00  0.00    -0.504 OA
ATOM     23  H   UNL     1       8.787   2.924   3.527  1.00  0.00     0.293 HD
ENDBRANCH  17  22
ENDBRANCH   1  12
BRANCH   2  24
ATOM     24  O   UNL     1       4.315  -1.572   4.201  1.00  0.00    -0.381 OA
ATOM     25  H   UNL     1       4.495  -0.597   4.179  1.00  0.00     0.211 HD
ENDBRANCH   2  24
BRANCH   6  26
ATOM     26  O   UNL     1       4.445  -6.410   5.090  1.00  0.00    -0.507 OA
ATOM     27  H   UNL     1       4.420  -7.200   5.725  1.00  0.00     0.293 HD
ENDBRANCH   6  26
BRANCH   8  28
ATOM     28  O   UNL     1       9.033  -6.440   3.522  1.00  0.00    -0.508 OA
ATOM     29  H   UNL     1       9.123  -6.653   2.531  1.00  0.00     0.293 HD
ENDBRANCH   8  28
TORSDOF 7
ENDMDL
MODEL 3
REMARK VINA RESULT:    -5.446      3.348      6.045
REMARK INTER + INTRA:          -7.070
REMARK INTER:                  -6.676
REMARK INTRA:                  -0.394
REMARK UNBOUND:                -0.350
REMARK SMILES O=C1c2c(O)cc(O)cc2O[C@@H](c2cc(O)c(O)c(O)c2)[C@H]1O
REMARK SMILES IDX 12 1 22 2 2 3 1 4 3 5 4 6 6 7 7 8 9 9 10 10 11 11 13 12
REMARK SMILES IDX 14 13 15 14 21 15 17 16 19 17 16 18 18 20 20 22 23 24 5 26
REMARK SMILES IDX 8 28
REMARK H PARENT 16 19 18 21 20 23 23 25 5 27 8 29
REMARK Flexibility Score: inf
ROOT
ATOM      1  C   UNL     1       0.807  -7.157   5.022  1.00  0.00     0.240 C 
ATOM      2  C   UNL     1       0.076  -8.241   5.840  1.00  0.00     0.231 C 
ATOM      3  C   UNL     1      -1.299  -7.750   6.209  1.00  0.00     0.202 C 
ATOM      4  O   UNL     1      -2.253  -8.574   6.273  1.00  0.00    -0.291 OA
ATOM      5  C   UNL     1      -1.499  -6.320   6.545  1.00  0.00     0.105 A 
ATOM      6  C   UNL     1      -2.682  -5.833   7.139  1.00  0.00     0.133 A 
ATOM      7  C   UNL     1      -2.777  -4.476   7.491  1.00  0.00     0.093 A 
ATOM      8  C   UNL     1      -1.706  -3.605   7.258  1.00  0.00     0.123 A 
ATOM      9  C   UNL     1      -0.535  -4.088   6.667  1.00  0.00     0.093 A 
ATOM     10  C   UNL     1      -0.433  -5.432   6.297  1.00  0.00     0.138 A 
ATOM     11  O   UNL     1       0.740  -5.890   5.686  1.00  0.00    -0.481 OA
ENDROOT
BRANCH   1  12
ATOM     12  C   UNL     1       2.245  -7.542   4.755  1.00  0.00     0.003 A 
ATOM     13  C   UNL     1       2.555  -8.681   3.994  1.00  0.00     0.058 A 
ATOM     14  C   UNL     1       3.888  -9.000   3.699  1.00  0.00     0.161 A 
ATOM     15  C   UNL     1       3.286  -6.714   5.205  1.00  0.00     0.058 A 
ATOM     16  C   UNL     1       4.925  -8.173   4.165  1.00  0.00     0.200 A 
ATOM     17  C   UNL     1       4.619  -7.027   4.916  1.00  0.00     0.161 A 
BRANCH  14  18
ATOM     18  O   UNL     1       4.180 -10.125   2.932  1.00  0.00    -0.504 OA
ATOM     19  H   UNL     1       4.646 -10.934   3.330  1.00  0.00     0.293 HD
ENDBRANCH  14  18
BRANCH  16  20
ATOM     20  O   UNL     1       6.258  -8.478   3.884  1.00  0.00    -0.502 OA
ATOM     21  H   UNL     1       6.566  -8.742   2.953  1.00  0.00     0.293 HD
ENDBRANCH  16  20
BRANCH  17  22
ATOM     22  O   UNL     1       5.626  -6.177   5.376  1.00  0.00    -0.504 OA
ATOM     23  H   UNL     1       6.424  -5.927   4.804  1.00  0.00     0.293 HD
ENDBRANCH  17  22
ENDBRANCH   1  12
BRANCH   2  24
ATOM     24  O   UNL     1       0.793  -8.529   7.013  1.00  0.00    -0.381 OA
ATOM     25  H   UNL     1       1.437  -9.247   6.785  1.00  0.00     0.211 HD
ENDBRANCH   2  24
BRANCH   6  26
ATOM     26  O   UNL     1      -3.755  -6.687   7.389  1.00  0.00    -0.507 OA
ATOM     27  H   UNL     1      -4.126  -6.814   8.324  1.00  0.00     0.293 HD
ENDBRANCH   6  26
BRANCH   8  28
ATOM     28  O   UNL     1      -1.799  -2.255   7.602  1.00  0.00    -0.508 OA
ATOM     29  H   UNL     1      -2.087  -1.960   8.532  1.00  0.00     0.293 HD
ENDBRANCH   8  28
TORSDOF 7
ENDMDL
MODEL 4
REMARK VINA RESULT:    -5.322      0.132      1.759
REMARK INTER + INTRA:          -6.916
REMARK INTER:                  -6.539
REMARK INTRA:                  -0.377
REMARK UNBOUND:                -0.350
REMARK SMILES O=C1c2c(O)cc(O)cc2O[C@@H](c2cc(O)c(O)c(O)c2)[C@H]1O
REMARK SMILES IDX 12 1 22 2 2 3 1 4 3 5 4 6 6 7 7 8 9 9 10 10 11 11 13 12
REMARK SMILES IDX 14 13 15 14 21 15 17 16 19 17 16 18 18 20 20 22 23 24 5 26
REMARK SMILES IDX 8 28
REMARK H PARENT 16 19 18 21 20 23 23 25 5 27 8 29
REMARK Flexibility Score: inf
ROOT
ATOM      1  C   UNL     1       2.383  -4.619   6.450  1.00  0.00     0.240 C 
ATOM      2  C   UNL     1       0.844  -4.628   6.352  1.00  0.00     0.231 C 
ATOM      3  C   UNL     1       0.350  -6.051   6.333  1.00  0.00     0.202 C 
ATOM      4  O   UNL     1      -0.751  -6.330   6.882  1.00  0.00    -0.291 OA
ATOM      5  C   UNL     1       1.135  -7.087   5.621  1.00  0.00     0.105 A 
ATOM      6  C   UNL     1       0.627  -8.372   5.340  1.00  0.00     0.133 A 
ATOM      7  C   UNL     1       1.402  -9.283   4.603  1.00  0.00     0.093 A 
ATOM      8  C   UNL     1       2.676  -8.924   4.145  1.00  0.00     0.123 A 
ATOM      9  C   UNL     1       3.180  -7.651   4.426  1.00  0.00     0.093 A 
ATOM     10  C   UNL     1       2.425  -6.741   5.171  1.00  0.00     0.138 A 
ATOM     11  O   UNL     1       2.959  -5.479   5.462  1.00  0.00    -0.481 OA
ENDROOT
BRANCH   1  12
ATOM     12  C   UNL     1       2.936  -3.217   6.324  1.00  0.00     0.003 A 
ATOM     13  C   UNL     1       2.551  -2.208   7.221  1.00  0.00     0.058 A 
ATOM     14  C   UNL     1       3.113  -0.926   7.136  1.00  0.00     0.161 A 
ATOM     15  C   UNL     1       3.905  -2.933   5.347  1.00  0.00     0.058 A 
ATOM     16  C   UNL     1       4.072  -0.646   6.146  1.00  0.00     0.200 A 
ATOM     17  C   UNL     1       4.469  -1.656   5.254  1.00  0.00     0.161 A 
BRANCH  14  18
ATOM     18  O   UNL     1       2.733   0.061   8.040  1.00  0.00    -0.504 OA
ATOM     19  H   UNL     1       2.683   1.039   7.772  1.00  0.00     0.293 HD
ENDBRANCH  14  18
BRANCH  16  20
ATOM     20  O   UNL     1       4.638   0.625   6.044  1.00  0.00    -0.502 OA
ATOM     21  H   UNL     1       5.197   1.028   6.790  1.00  0.00     0.293 HD
ENDBRANCH  16  20
BRANCH  17  22
ATOM     22  O   UNL     1       5.432  -1.413   4.273  1.00  0.00    -0.504 OA
ATOM     23  H   UNL     1       6.423  -1.531   4.450  1.00  0.00     0.293 HD
ENDBRANCH  17  22
ENDBRANCH   1  12
BRANCH   2  24
ATOM     24  O   UNL     1       0.429  -3.980   5.177  1.00  0.00    -0.381 OA
ATOM     25  H   UNL     1      -0.562  -3.985   5.183  1.00  0.00     0.211 HD
ENDBRANCH   2  24
BRANCH   6  26
ATOM     26  O   UNL     1      -0.644  -8.745   5.777  1.00  0.00    -0.507 OA
ATOM     27  H   UNL     1      -1.420  -8.093   5.772  1.00  0.00     0.293 HD
ENDBRANCH   6  26
BRANCH   8  28
ATOM     28  O   UNL     1       3.451  -9.828   3.417  1.00  0.00    -0.508 OA
ATOM     29  H   UNL     1       4.356  -9.568   3.034  1.00  0.00     0.293 HD
ENDBRANCH   8  28
TORSDOF 7
ENDMDL
MODEL 5
REMARK VINA RESULT:    -5.254      2.790      5.408
REMARK INTER + INTRA:          -6.832
REMARK INTER:                  -6.459
REMARK INTRA:                  -0.373
REMARK UNBOUND:                -0.350
REMARK SMILES O=C1c2c(O)cc(O)cc2O[C@@H](c2cc(O)c(O)c(O)c2)[C@H]1O
REMARK SMILES IDX 12 1 22 2 2 3 1 4 3 5 4 6 6 7 7 8 9 9 10 10 11 11 13 12
REMARK SMILES IDX 14 13 15 14 21 15 17 16 19 17 16 18 18 20 20 22 23 24 5 26
REMARK SMILES IDX 8 28
REMARK H PARENT 16 19 18 21 20 23 23 25 5 27 8 29
REMARK Flexibility Score: inf
ROOT
ATOM      1  C   UNL     1       0.280  -4.993   5.868  1.00  0.00     0.240 C 
ATOM      2  C   UNL     1       1.457  -4.770   6.840  1.00  0.00     0.231 C 
ATOM      3  C   UNL     1       2.727  -5.288   6.218  1.00  0.00     0.202 C 
ATOM      4  O   UNL     1       3.816  -4.697   6.453  1.00  0.00    -0.291 OA
ATOM      5  C   UNL     1       2.685  -6.515   5.387  1.00  0.00     0.105 A 
ATOM      6  C   UNL     1       3.848  -7.204   4.983  1.00  0.00     0.133 A 
ATOM      7  C   UNL     1       3.732  -8.398   4.252  1.00  0.00     0.093 A 
ATOM      8  C   UNL     1       2.471  -8.910   3.922  1.00  0.00     0.123 A 
ATOM      9  C   UNL     1       1.319  -8.225   4.321  1.00  0.00     0.093 A 
ATOM     10  C   UNL     1       1.420  -7.029   5.036  1.00  0.00     0.138 A 
ATOM     11  O   UNL     1       0.254  -6.347   5.405  1.00  0.00    -0.481 OA
ENDROOT
BRANCH   1  12
ATOM     12  C   UNL     1      -1.041  -4.624   6.506  1.00  0.00     0.003 A 
ATOM     13  C   UNL     1      -1.379  -3.280   6.734  1.00  0.00     0.058 A 
ATOM     14  C   UNL     1      -2.629  -2.941   7.271  1.00  0.00     0.161 A 
ATOM     15  C   UNL     1      -1.977  -5.627   6.808  1.00  0.00     0.058 A 
ATOM     16  C   UNL     1      -3.555  -3.952   7.582  1.00  0.00     0.200 A 
ATOM     17  C   UNL     1      -3.226  -5.297   7.345  1.00  0.00     0.161 A 
BRANCH  14  18
ATOM     18  O   UNL     1      -2.957  -1.604   7.479  1.00  0.00    -0.504 OA
ATOM     19  H   UNL     1      -2.422  -0.852   7.057  1.00  0.00     0.293 HD
ENDBRANCH  14  18
BRANCH  16  20
ATOM     20  O   UNL     1      -4.802  -3.634   8.121  1.00  0.00    -0.502 OA
ATOM     21  H   UNL     1      -5.012  -2.709   8.486  1.00  0.00     0.293 HD
ENDBRANCH  16  20
BRANCH  17  22
ATOM     22  O   UNL     1      -4.131  -6.321   7.627  1.00  0.00    -0.504 OA
ATOM     23  H   UNL     1      -4.317  -7.072   6.972  1.00  0.00     0.293 HD
ENDBRANCH  17  22
ENDBRANCH   1  12
BRANCH   2  24
ATOM     24  O   UNL     1       1.224  -5.448   8.047  1.00  0.00    -0.381 OA
ATOM     25  H   UNL     1       0.272  -5.297   8.280  1.00  0.00     0.211 HD
ENDBRANCH   2  24
BRANCH   6  26
ATOM     26  O   UNL     1       5.112  -6.716   5.311  1.00  0.00    -0.507 OA
ATOM     27  H   UNL     1       5.424  -5.802   5.006  1.00  0.00     0.293 HD
ENDBRANCH   6  26
BRANCH   8  28
ATOM     28  O   UNL     1       2.352 -10.093   3.192  1.00  0.00    -0.508 OA
ATOM     29  H   UNL     1       1.706 -10.829   3.468  1.00  0.00     0.293 HD
ENDBRANCH   8  28
TORSDOF 7
ENDMDL
MODEL 6
REMARK VINA RESULT:    -5.191      2.157      8.135
REMARK INTER + INTRA:          -6.755
REMARK INTER:                  -6.367
REMARK INTRA:                  -0.388
REMARK UNBOUND:                -0.350
REMARK SMILES O=C1c2c(O)cc(O)cc2O[C@@H](c2cc(O)c(O)c(O)c2)[C@H]1O
REMARK SMILES IDX 12 1 22 2 2 3 1 4 3 5 4 6 6 7 7 8 9 9 10 10 11 11 13 12
REMARK SMILES IDX 14 13 15 14 21 15 17 16 19 17 16 18 18 20 20 22 23 24 5 26
REMARK SMILES IDX 8 28
REMARK H PARENT 16 19 18 21 20 23 23 25 5 27 8 29
REMARK Flexibility Score: inf
ROOT
ATOM      1  C   UNL     1       4.563  -1.984   6.249  1.00  0.00     0.240 C 
ATOM      2  C   UNL     1       5.611  -1.832   5.128  1.00  0.00     0.231 C 
ATOM      3  C   UNL     1       6.384  -0.556   5.331  1.00  0.00     0.202 C 
ATOM      4  O   UNL     1       7.603  -0.514   5.013  1.00  0.00    -0.291 OA
ATOM      5  C   UNL     1       5.685   0.645   5.848  1.00  0.00     0.105 A 
ATOM      6  C   UNL     1       6.263   1.932   5.828  1.00  0.00     0.133 A 
ATOM      7  C   UNL     1       5.518   3.038   6.274  1.00  0.00     0.093 A 
ATOM      8  C   UNL     1       4.207   2.871   6.736  1.00  0.00     0.123 A 
ATOM      9  C   UNL     1       3.636   1.595   6.758  1.00  0.00     0.093 A 
ATOM     10  C   UNL     1       4.371   0.485   6.332  1.00  0.00     0.138 A 
ATOM     11  O   UNL     1       3.789  -0.787   6.383  1.00  0.00    -0.481 OA
ENDROOT
BRANCH   1  12
ATOM     12  C   UNL     1       3.662  -3.175   6.006  1.00  0.00     0.003 A 
ATOM     13  C   UNL     1       4.192  -4.473   5.931  1.00  0.00     0.058 A 
ATOM     14  C   UNL     1       3.346  -5.579   5.766  1.00  0.00     0.161 A 
ATOM     15  C   UNL     1       2.271  -2.997   5.930  1.00  0.00     0.058 A 
ATOM     16  C   UNL     1       1.956  -5.391   5.678  1.00  0.00     0.200 A 
ATOM     17  C   UNL     1       1.421  -4.095   5.764  1.00  0.00     0.161 A 
BRANCH  14  18
ATOM     18  O   UNL     1       3.883  -6.862   5.707  1.00  0.00    -0.504 OA
ATOM     19  H   UNL     1       3.496  -7.574   5.096  1.00  0.00     0.293 HD
ENDBRANCH  14  18
BRANCH  16  20
ATOM     20  O   UNL     1       1.100  -6.480   5.509  1.00  0.00    -0.502 OA
ATOM     21  H   UNL     1       0.676  -6.699   4.612  1.00  0.00     0.293 HD
ENDBRANCH  16  20
BRANCH  17  22
ATOM     22  O   UNL     1       0.044  -3.878   5.698  1.00  0.00    -0.504 OA
ATOM     23  H   UNL     1      -0.589  -4.552   5.283  1.00  0.00     0.293 HD
ENDBRANCH  17  22
ENDBRANCH   1  12
BRANCH   2  24
ATOM     24  O   UNL     1       4.979  -1.795   3.874  1.00  0.00    -0.381 OA
ATOM     25  H   UNL     1       5.584  -2.253   3.236  1.00  0.00     0.211 HD
ENDBRANCH   2  24
BRANCH   6  26
ATOM     26  O   UNL     1       7.563   2.120   5.361  1.00  0.00    -0.507 OA
ATOM     27  H   UNL     1       7.846   2.982   4.908  1.00  0.00     0.293 HD
ENDBRANCH   6  26
BRANCH   8  28
ATOM     28  O   UNL     1       3.467   3.966   7.183  1.00  0.00    -0.508 OA
ATOM     29  H   UNL     1       3.609   4.898   6.803  1.00  0.00     0.293 HD
ENDBRANCH   8  28
TORSDOF 7
ENDMDL
MODEL 7
REMARK VINA RESULT:    -5.166      3.953      6.424
REMARK INTER + INTRA:          -6.723
REMARK INTER:                  -6.404
REMARK INTRA:                  -0.319
REMARK UNBOUND:                -0.350
REMARK SMILES O=C1c2c(O)cc(O)cc2O[C@@H](c2cc(O)c(O)c(O)c2)[C@H]1O
REMARK SMILES IDX 12 1 22 2 2 3 1 4 3 5 4 6 6 7 7 8 9 9 10 10 11 11 13 12
REMARK SMILES IDX 14 13 15 14 21 15 17 16 19 17 16 18 18 20 20 22 23 24 5 26
REMARK SMILES IDX 8 28
REMARK H PARENT 16 19 18 21 20 23 23 25 5 27 8 29
REMARK Flexibility Score: inf
ROOT
ATOM      1  C   UNL     1      -1.642  -4.390   7.398  1.00  0.00     0.240 C 
ATOM      2  C   UNL     1      -1.771  -5.785   6.753  1.00  0.00     0.231 C 
ATOM      3  C   UNL     1      -0.422  -6.454   6.726  1.00  0.00     0.202 C 
ATOM      4  O   UNL     1      -0.349  -7.704   6.870  1.00  0.00    -0.291 OA
ATOM      5  C   UNL     1       0.790  -5.640   6.472  1.00  0.00     0.105 A 
ATOM      6  C   UNL     1       2.047  -6.211   6.179  1.00  0.00     0.133 A 
ATOM      7  C   UNL     1       3.140  -5.379   5.884  1.00  0.00     0.093 A 
ATOM      8  C   UNL     1       2.990  -3.987   5.876  1.00  0.00     0.123 A 
ATOM      9  C   UNL     1       1.746  -3.421   6.169  1.00  0.00     0.093 A 
ATOM     10  C   UNL     1       0.654  -4.237   6.479  1.00  0.00     0.138 A 
ATOM     11  O   UNL     1      -0.578  -3.649   6.791  1.00  0.00    -0.481 OA
ENDROOT
BRANCH   1  12
ATOM     12  C   UNL     1      -2.941  -3.620   7.315  1.00  0.00     0.003 A 
ATOM     13  C   UNL     1      -4.150  -4.203   7.725  1.00  0.00     0.058 A 
ATOM     14  C   UNL     1      -5.342  -3.465   7.702  1.00  0.00     0.161 A 
ATOM     15  C   UNL     1      -2.934  -2.280   6.895  1.00  0.00     0.058 A 
ATOM     16  C   UNL     1      -5.329  -2.128   7.268  1.00  0.00     0.200 A 
ATOM     17  C   UNL     1      -4.119  -1.536   6.867  1.00  0.00     0.161 A 
BRANCH  14  18
ATOM     18  O   UNL     1      -6.532  -4.051   8.125  1.00  0.00    -0.504 OA
ATOM     19  H   UNL     1      -7.391  -3.953   7.594  1.00  0.00     0.293 HD
ENDBRANCH  14  18
BRANCH  16  20
ATOM     20  O   UNL     1      -6.505  -1.379   7.234  1.00  0.00    -0.502 OA
ATOM     21  H   UNL     1      -6.502  -0.375   7.074  1.00  0.00     0.293 HD
ENDBRANCH  16  20
BRANCH  17  22
ATOM     22  O   UNL     1      -4.071  -0.206   6.449  1.00  0.00    -0.504 OA
ATOM     23  H   UNL     1      -4.177   0.568   7.095  1.00  0.00     0.293 HD
ENDBRANCH  17  22
ENDBRANCH   1  12
BRANCH   2  24
ATOM     24  O   UNL     1      -2.257  -5.669   5.440  1.00  0.00    -0.381 OA
ATOM     25  H   UNL     1      -3.097  -6.194   5.400  1.00  0.00     0.211 HD
ENDBRANCH   2  24
BRANCH   6  26
ATOM     26  O   UNL     1       2.212  -7.595   6.171  1.00  0.00    -0.507 OA
ATOM     27  H   UNL     1       1.826  -8.172   5.432  1.00  0.00     0.293 HD
ENDBRANCH   6  26
BRANCH   8  28
ATOM     28  O   UNL     1       4.075  -3.157   5.588  1.00  0.00    -0.508 OA
ATOM     29  H   UNL     1       4.074  -2.171   5.838  1.00  0.00     0.293 HD
ENDBRANCH   8  28
TORSDOF 7
ENDMDL
MODEL 8
REMARK VINA RESULT:    -5.074      2.605      6.178
REMARK INTER + INTRA:          -6.610
REMARK INTER:                  -6.364
REMARK INTRA:                  -0.246
REMARK UNBOUND:                -0.350
REMARK SMILES O=C1c2c(O)cc(O)cc2O[C@@H](c2cc(O)c(O)c(O)c2)[C@H]1O
REMARK SMILES IDX 12 1 22 2 2 3 1 4 3 5 4 6 6 7 7 8 9 9 10 10 11 11 13 12
REMARK SMILES IDX 14 13 15 14 21 15 17 16 19 17 16 18 18 20 20 22 23 24 5 26
REMARK SMILES IDX 8 28
REMARK H PARENT 16 19 18 21 20 23 23 25 5 27 8 29
REMARK Flexibility Score: inf
ROOT
ATOM      1  C   UNL     1       0.568  -4.536   6.928  1.00  0.00     0.240 C 
ATOM      2  C   UNL     1       0.968  -5.905   6.342  1.00  0.00     0.231 C 
ATOM      3  C   UNL     1       2.469  -5.998   6.259  1.00  0.00     0.202 C 
ATOM      4  O   UNL     1       3.031  -7.112   6.444  1.00  0.00    -0.291 OA
ATOM      5  C   UNL     1       3.256  -4.792   5.906  1.00  0.00     0.105 A 
ATOM      6  C   UNL     1       4.623  -4.845   5.561  1.00  0.00     0.133 A 
ATOM      7  C   UNL     1       5.291  -3.672   5.173  1.00  0.00     0.093 A 
ATOM      8  C   UNL     1       4.609  -2.450   5.125  1.00  0.00     0.123 A 
ATOM      9  C   UNL     1       3.255  -2.397   5.469  1.00  0.00     0.093 A 
ATOM     10  C   UNL     1       2.583  -3.554   5.872  1.00  0.00     0.138 A 
ATOM     11  O   UNL     1       1.232  -3.475   6.235  1.00  0.00    -0.481 OA
ENDROOT
BRANCH   1  12
ATOM     12  C   UNL     1      -0.931  -4.337   6.894  1.00  0.00     0.003 A 
ATOM     13  C   UNL     1      -1.803  -5.378   7.250  1.00  0.00     0.058 A 
ATOM     14  C   UNL     1      -3.189  -5.170   7.274  1.00  0.00     0.161 A 
ATOM     15  C   UNL     1      -1.462  -3.077   6.576  1.00  0.00     0.058 A 
ATOM     16  C   UNL     1      -3.714  -3.909   6.942  1.00  0.00     0.200 A 
ATOM     17  C   UNL     1      -2.845  -2.861   6.596  1.00  0.00     0.161 A 
BRANCH  14  18
ATOM     18  O   UNL     1      -4.042  -6.207   7.643  1.00  0.00    -0.504 OA
ATOM     19  H   UNL     1      -4.910  -6.031   8.139  1.00  0.00     0.293 HD
ENDBRANCH  14  18
BRANCH  16  20
ATOM     20  O   UNL     1      -5.091  -3.684   6.956  1.00  0.00    -0.502 OA
ATOM     21  H   UNL     1      -5.585  -3.307   6.153  1.00  0.00     0.293 HD
ENDBRANCH  16  20
BRANCH  17  22
ATOM     22  O   UNL     1      -3.335  -1.593   6.279  1.00  0.00    -0.504 OA
ATOM     23  H   UNL     1      -3.155  -0.784   6.863  1.00  0.00     0.293 HD
ENDBRANCH  17  22
ENDBRANCH   1  12
BRANCH   2  24
ATOM     24  O   UNL     1       0.424  -6.060   5.056  1.00  0.00    -0.381 OA
ATOM     25  H   UNL     1      -0.175  -5.285   4.905  1.00  0.00     0.211 HD
ENDBRANCH   2  24
BRANCH   6  26
ATOM     26  O   UNL     1       5.316  -6.055   5.592  1.00  0.00    -0.507 OA
ATOM     27  H   UNL     1       5.489  -6.590   4.749  1.00  0.00     0.293 HD
ENDBRANCH   6  26
BRANCH   8  28
ATOM     28  O   UNL     1       5.270  -1.281   4.745  1.00  0.00    -0.508 OA
ATOM     29  H   UNL     1       4.801  -0.549   4.218  1.00  0.00     0.293 HD
ENDBRANCH   8  28
TORSDOF 7
ENDMDL
MODEL 9
REMARK VINA RESULT:    -5.058      3.351      5.467
REMARK INTER + INTRA:          -6.591
REMARK INTER:                  -6.217
REMARK INTRA:                  -0.374
REMARK UNBOUND:                -0.350
REMARK SMILES O=C1c2c(O)cc(O)cc2O[C@@H](c2cc(O)c(O)c(O)c2)[C@H]1O
REMARK SMILES IDX 12 1 22 2 2 3 1 4 3 5 4 6 6 7 7 8 9 9 10 10 11 11 13 12
REMARK SMILES IDX 14 13 15 14 21 15 17 16 19 17 16 18 18 20 20 22 23 24 5 26
REMARK SMILES IDX 8 28
REMARK H PARENT 16 19 18 21 20 23 23 25 5 27 8 29
REMARK Flexibility Score: inf
ROOT
ATOM      1  C   UNL     1       0.448  -7.172   6.289  1.00  0.00     0.240 C 
ATOM      2  C   UNL     1       0.078  -8.016   5.053  1.00  0.00     0.231 C 
ATOM      3  C   UNL     1       1.287  -8.787   4.590  1.00  0.00     0.202 C 
ATOM      4  O   UNL     1       1.135  -9.936   4.093  1.00  0.00    -0.291 OA
ATOM      5  C   UNL     1       2.628  -8.161   4.675  1.00  0.00     0.105 A 
ATOM      6  C   UNL     1       3.765  -8.701   4.040  1.00  0.00     0.133 A 
ATOM      7  C   UNL     1       4.992  -8.020   4.107  1.00  0.00     0.093 A 
ATOM      8  C   UNL     1       5.093  -6.807   4.799  1.00  0.00     0.123 A 
ATOM      9  C   UNL     1       3.967  -6.273   5.432  1.00  0.00     0.093 A 
ATOM     10  C   UNL     1       2.744  -6.948   5.385  1.00  0.00     0.138 A 
ATOM     11  O   UNL     1       1.633  -6.408   6.044  1.00  0.00    -0.481 OA
ENDROOT
BRANCH   1  12
ATOM     12  C   UNL     1      -0.692  -6.268   6.701  1.00  0.00     0.003 A 
ATOM     13  C   UNL     1      -0.554  -4.871   6.659  1.00  0.00     0.058 A 
ATOM     14  C   UNL     1      -1.633  -4.038   6.985  1.00  0.00     0.161 A 
ATOM     15  C   UNL     1      -1.932  -6.823   7.060  1.00  0.00     0.058 A 
ATOM     16  C   UNL     1      -2.867  -4.602   7.356  1.00  0.00     0.200 A 
ATOM     17  C   UNL     1      -3.013  -5.998   7.388  1.00  0.00     0.161 A 
BRANCH  14  18
ATOM     18  O   UNL     1      -1.487  -2.654   6.925  1.00  0.00    -0.504 OA
ATOM     19  H   UNL     1      -1.515  -2.079   7.761  1.00  0.00     0.293 HD
ENDBRANCH  14  18
BRANCH  16  20
ATOM     20  O   UNL     1      -3.950  -3.788   7.688  1.00  0.00    -0.502 OA
ATOM     21  H   UNL     1      -4.458  -3.895   8.561  1.00  0.00     0.293 HD
ENDBRANCH  16  20
BRANCH  17  22
ATOM     22  O   UNL     1      -4.230  -6.587   7.734  1.00  0.00    -0.504 OA
ATOM     23  H   UNL     1      -5.114  -6.256   7.366  1.00  0.00     0.293 HD
ENDBRANCH  17  22
ENDBRANCH   1  12
BRANCH   2  24
ATOM     24  O   UNL     1      -0.365  -7.184   4.012  1.00  0.00    -0.381 OA
ATOM     25  H   UNL     1       0.200  -6.370   4.038  1.00  0.00     0.211 HD
ENDBRANCH   2  24
BRANCH   6  26
ATOM     26  O   UNL     1       3.681  -9.902   3.335  1.00  0.00    -0.507 OA
ATOM     27  H   UNL     1       2.793 -10.267   3.012  1.00  0.00     0.293 HD
ENDBRANCH   6  26
BRANCH   8  28
ATOM     28  O   UNL     1       6.311  -6.130   4.873  1.00  0.00    -0.508 OA
ATOM     29  H   UNL     1       7.150  -6.488   4.422  1.00  0.00     0.293 HD
ENDBRANCH   8  28
TORSDOF 7
ENDMDL
