MODEL 1
REMARK VINA RESULT:    -3.210      0.000      0.000
REMARK INTER + INTRA:          -5.075
REMARK INTER:                  -4.898
REMARK INTRA:                  -0.177
REMARK UNBOUND:                -0.177
REMARK SMILES CC1=CCC[C@H](C)C(=O)C[C@@H](C(C)C)C(=O)C1
REMARK SMILES IDX 8 1 9 2 6 3 7 4 5 5 4 6 3 7 2 8 1 9 10 11 11 12 15 13 16 14
REMARK SMILES IDX 17 15 12 17 13 18 14 19
REMARK H PARENT
REMARK Flexibility Score: 70.00
ROOT
ATOM      1  C   UNL     1      33.075  68.032 107.852  1.00  0.00     0.136 C 
ATOM      2  O   UNL     1      33.198  68.112 109.066  1.00  0.00    -0.299 OA
ENDROOT
BRANCH   1   3
ATOM      3  C   UNL     1      32.397  66.782 107.292  1.00  0.00     0.053 C 
ATOM      4  C   UNL     1      33.018  65.545 107.956  1.00  0.00     0.016 C 
BRANCH   3   5
ATOM      5  C   UNL     1      30.850  66.714 107.410  1.00  0.00     0.015 C 
BRANCH   5   6
ATOM      6  C   UNL     1      30.095  67.045 106.101  1.00  0.00     0.028 C 
BRANCH   6   7
ATOM      7  C   UNL     1      30.792  66.445 104.900  1.00  0.00    -0.028 C 
ATOM      8  C   UNL     1      31.382  67.142 103.899  1.00  0.00    -0.070 CG0
ATOM      9  C   UNL     1      31.975  66.365 102.752  1.00  0.00     0.039 C 
ATOM     10  G   UNL     1      31.485  68.656 103.893  1.00  0.00     0.000 G0
ENDBRANCH   6   7
ENDBRANCH   5   6
ENDBRANCH   3   5
ENDBRANCH   1   3
BRANCH   1  11
ATOM     11  C   UNL     1      33.559  69.198 107.013  1.00  0.00     0.087 C 
BRANCH  11  12
ATOM     12  C   UNL     1      32.478  69.776 106.053  1.00  0.00     0.066 C 
BRANCH  12  13
ATOM     13  C   UNL     1      32.658  69.189 104.661  1.00  0.00     0.140 C 
ATOM     14  O   UNL     1      33.772  69.160 104.155  1.00  0.00    -0.299 OA
BRANCH  13  15
ATOM     15  C   UNL     1      31.491  68.665 103.867  1.00  0.00     0.106 CG0
ATOM     16  G   UNL     1      31.403  67.150 103.895  1.00  0.00     0.000 G0
ENDBRANCH  13  15
ENDBRANCH  12  13
BRANCH  12  17
ATOM     17  C   UNL     1      32.409  71.337 106.006  1.00  0.00    -0.006 C 
ATOM     18  C   UNL     1      33.625  72.005 106.671  1.00  0.00     0.008 C 
ATOM     19  C   UNL     1      31.127  71.848 106.690  1.00  0.00     0.008 C 
ENDBRANCH  12  17
ENDBRANCH  11  12
ENDBRANCH   1  11
TORSDOF 1
ENDMDL
MODEL 2
REMARK VINA RESULT:    -3.150      2.398      5.013
REMARK INTER + INTRA:          -4.984
REMARK INTER:                  -4.971
REMARK INTRA:                  -0.013
REMARK UNBOUND:                -0.177
REMARK SMILES CC1=CCC[C@H](C)C(=O)C[C@@H](C(C)C)C(=O)C1
REMARK SMILES IDX 8 1 9 2 6 3 7 4 5 5 4 6 3 7 2 8 1 9 10 11 11 12 15 13 16 14
REMARK SMILES IDX 17 15 12 17 13 18 14 19
REMARK H PARENT
REMARK Flexibility Score: 70.00
ROOT
ATOM      1  C   UNL     1      31.260  69.670 105.388  1.00  0.00     0.136 C 
ATOM      2  O   UNL     1      30.490  68.942 105.998  1.00  0.00    -0.299 OA
ENDROOT
BRANCH   1   3
ATOM      3  C   UNL     1      31.469  71.085 105.926  1.00  0.00     0.053 C 
ATOM      4  C   UNL     1      30.233  71.490 106.742  1.00  0.00     0.016 C 
BRANCH   3   5
ATOM      5  C   UNL     1      32.750  71.330 106.769  1.00  0.00     0.015 C 
BRANCH   5   6
ATOM      6  C   UNL     1      33.814  72.211 106.071  1.00  0.00     0.028 C 
BRANCH   6   7
ATOM      7  C   UNL     1      35.167  71.533 106.062  1.00  0.00    -0.028 C 
ATOM      8  C   UNL     1      35.582  70.609 105.163  1.00  0.00    -0.070 CG0
ATOM      9  C   UNL     1      36.948  70.001 105.354  1.00  0.00     0.039 C 
ATOM     10  G   UNL     1      34.745  70.177 103.973  1.00  0.00     0.000 G0
ENDBRANCH   6   7
ENDBRANCH   5   6
ENDBRANCH   3   5
ENDBRANCH   1   3
BRANCH   1  11
ATOM     11  C   UNL     1      31.976  69.093 104.184  1.00  0.00     0.087 C 
BRANCH  11  12
ATOM     12  C   UNL     1      33.144  68.129 104.545  1.00  0.00     0.066 C 
BRANCH  12  13
ATOM     13  C   UNL     1      34.455  68.681 104.005  1.00  0.00     0.140 C 
ATOM     14  O   UNL     1      35.317  67.911 103.606  1.00  0.00    -0.299 OA
BRANCH  13  15
ATOM     15  C   UNL     1      34.737  70.160 103.975  1.00  0.00     0.106 CG0
ATOM     16  G   UNL     1      35.555  70.619 105.167  1.00  0.00     0.000 G0
ENDBRANCH  13  15
ENDBRANCH  12  13
BRANCH  12  17
ATOM     17  C   UNL     1      32.930  66.644 104.105  1.00  0.00    -0.006 C 
ATOM     18  C   UNL     1      31.954  66.511 102.923  1.00  0.00     0.008 C 
ATOM     19  C   UNL     1      32.404  65.797 105.280  1.00  0.00     0.008 C 
ENDBRANCH  12  17
ENDBRANCH  11  12
ENDBRANCH   1  11
TORSDOF 1
ENDMDL
MODEL 3
REMARK VINA RESULT:    -3.021      2.110      4.497
REMARK INTER + INTRA:          -4.788
REMARK INTER:                  -4.530
REMARK INTRA:                  -0.258
REMARK UNBOUND:                -0.177
REMARK SMILES CC1=CCC[C@H](C)C(=O)C[C@@H](C(C)C)C(=O)C1
REMARK SMILES IDX 8 1 9 2 6 3 7 4 5 5 4 6 3 7 2 8 1 9 10 11 11 12 15 13 16 14
REMARK SMILES IDX 17 15 12 17 13 18 14 19
REMARK H PARENT
REMARK Flexibility Score: 70.00
ROOT
ATOM      1  C   UNL     1      30.984  69.423 106.001  1.00  0.00     0.136 C 
ATOM      2  O   UNL     1      30.096  69.459 106.842  1.00  0.00    -0.299 OA
ENDROOT
BRANCH   1   3
ATOM      3  C   UNL     1      32.122  70.433 106.132  1.00  0.00     0.053 C 
ATOM      4  C   UNL     1      31.532  71.791 106.539  1.00  0.00     0.016 C 
BRANCH   3   5
ATOM      5  C   UNL     1      33.281  70.060 107.096  1.00  0.00     0.015 C 
BRANCH   5   6
ATOM      6  C   UNL     1      34.517  69.444 106.399  1.00  0.00     0.028 C 
BRANCH   6   7
ATOM      7  C   UNL     1      34.655  69.949 104.980  1.00  0.00    -0.028 C 
ATOM      8  C   UNL     1      34.630  69.184 103.863  1.00  0.00    -0.070 CG0
ATOM      9  C   UNL     1      34.846  69.865 102.535  1.00  0.00     0.039 C 
ATOM     10  G   UNL     1      34.380  67.687 103.889  1.00  0.00     0.000 G0
ENDBRANCH   6   7
ENDBRANCH   5   6
ENDBRANCH   3   5
ENDBRANCH   1   3
BRANCH   1  11
ATOM     11  C   UNL     1      30.903  68.350 104.934  1.00  0.00     0.087 C 
BRANCH  11  12
ATOM     12  C   UNL     1      32.030  67.279 105.029  1.00  0.00     0.066 C 
BRANCH  12  13
ATOM     13  C   UNL     1      32.912  67.347 103.791  1.00  0.00     0.140 C 
ATOM     14  O   UNL     1      32.434  67.098 102.693  1.00  0.00    -0.299 OA
BRANCH  13  15
ATOM     15  C   UNL     1      34.376  67.685 103.881  1.00  0.00     0.106 CG0
ATOM     16  G   UNL     1      34.628  69.182 103.858  1.00  0.00     0.000 G0
ENDBRANCH  13  15
ENDBRANCH  12  13
BRANCH  12  17
ATOM     17  C   UNL     1      31.529  65.821 105.290  1.00  0.00    -0.006 C 
ATOM     18  C   UNL     1      30.012  65.669 105.082  1.00  0.00     0.008 C 
ATOM     19  C   UNL     1      31.882  65.371 106.721  1.00  0.00     0.008 C 
ENDBRANCH  12  17
ENDBRANCH  11  12
ENDBRANCH   1  11
TORSDOF 1
ENDMDL
MODEL 4
REMARK VINA RESULT:    -2.992      9.836     11.405
REMARK INTER + INTRA:          -4.743
REMARK INTER:                  -4.786
REMARK INTRA:                   0.043
REMARK UNBOUND:                -0.177
REMARK SMILES CC1=CCC[C@H](C)C(=O)C[C@@H](C(C)C)C(=O)C1
REMARK SMILES IDX 8 1 9 2 6 3 7 4 5 5 4 6 3 7 2 8 1 9 10 11 11 12 15 13 16 14
REMARK SMILES IDX 17 15 12 17 13 18 14 19
REMARK H PARENT
REMARK Flexibility Score: 70.00
ROOT
ATOM      1  C   UNL     1      22.387  73.661 104.598  1.00  0.00     0.136 C 
ATOM      2  O   UNL     1      23.150  73.288 103.719  1.00  0.00    -0.299 OA
ENDROOT
BRANCH   1   3
ATOM      3  C   UNL     1      21.142  72.815 104.859  1.00  0.00     0.053 C 
ATOM      4  C   UNL     1      21.458  71.353 104.512  1.00  0.00     0.016 C 
BRANCH   3   5
ATOM      5  C   UNL     1      20.532  72.890 106.284  1.00  0.00     0.015 C 
BRANCH   5   6
ATOM      6  C   UNL     1      21.396  72.228 107.384  1.00  0.00     0.028 C 
BRANCH   6   7
ATOM      7  C   UNL     1      21.562  73.143 108.576  1.00  0.00    -0.028 C 
ATOM      8  C   UNL     1      22.713  73.753 108.951  1.00  0.00    -0.070 CG0
ATOM      9  C   UNL     1      22.694  74.583 110.209  1.00  0.00     0.039 C 
ATOM     10  G   UNL     1      24.001  73.649 108.157  1.00  0.00     0.000 G0
ENDBRANCH   6   7
ENDBRANCH   5   6
ENDBRANCH   3   5
ENDBRANCH   1   3
BRANCH   1  11
ATOM     11  C   UNL     1      22.765  74.900 105.385  1.00  0.00     0.087 C 
BRANCH  11  12
ATOM     12  C   UNL     1      24.252  74.927 105.844  1.00  0.00     0.066 C 
BRANCH  12  13
ATOM     13  C   UNL     1      24.324  74.890 107.363  1.00  0.00     0.140 C 
ATOM     14  O   UNL     1      24.670  75.889 107.978  1.00  0.00    -0.299 OA
BRANCH  13  15
ATOM     15  C   UNL     1      24.007  73.639 108.139  1.00  0.00     0.106 CG0
ATOM     16  G   UNL     1      22.722  73.762 108.938  1.00  0.00     0.000 G0
ENDBRANCH  13  15
ENDBRANCH  12  13
BRANCH  12  17
ATOM     17  C   UNL     1      25.098  76.108 105.265  1.00  0.00    -0.006 C 
ATOM     18  C   UNL     1      24.684  76.486 103.832  1.00  0.00     0.008 C 
ATOM     19  C   UNL     1      26.599  75.760 105.273  1.00  0.00     0.008 C 
ENDBRANCH  12  17
ENDBRANCH  11  12
ENDBRANCH   1  11
TORSDOF 1
ENDMDL
MODEL 5
REMARK VINA RESULT:    -2.979      9.072     11.142
REMARK INTER + INTRA:          -4.723
REMARK INTER:                  -4.778
REMARK INTRA:                   0.055
REMARK UNBOUND:                -0.177
REMARK SMILES CC1=CCC[C@H](C)C(=O)C[C@@H](C(C)C)C(=O)C1
REMARK SMILES IDX 8 1 9 2 6 3 7 4 5 5 4 6 3 7 2 8 1 9 10 11 11 12 15 13 16 14
REMARK SMILES IDX 17 15 12 17 13 18 14 19
REMARK H PARENT
REMARK Flexibility Score: 70.00
ROOT
ATOM      1  C   UNL     1      25.252  74.908 106.551  1.00  0.00     0.136 C 
ATOM      2  O   UNL     1      26.379  75.150 106.144  1.00  0.00    -0.299 OA
ENDROOT
BRANCH   1   3
ATOM      3  C   UNL     1      24.081  75.254 105.633  1.00  0.00     0.053 C 
ATOM      4  C   UNL     1      24.260  76.692 105.125  1.00  0.00     0.016 C 
BRANCH   3   5
ATOM      5  C   UNL     1      23.832  74.306 104.429  1.00  0.00     0.015 C 
BRANCH   5   6
ATOM      6  C   UNL     1      22.714  73.261 104.660  1.00  0.00     0.028 C 
BRANCH   6   7
ATOM      7  C   UNL     1      21.543  73.866 105.402  1.00  0.00    -0.028 C 
ATOM      8  C   UNL     1      21.113  73.500 106.633  1.00  0.00    -0.070 CG0
ATOM      9  C   UNL     1      19.886  74.181 107.184  1.00  0.00     0.039 C 
ATOM     10  G   UNL     1      21.817  72.456 107.480  1.00  0.00     0.000 G0
ENDBRANCH   6   7
ENDBRANCH   5   6
ENDBRANCH   3   5
ENDBRANCH   1   3
BRANCH   1  11
ATOM     11  C   UNL     1      25.116  74.242 107.906  1.00  0.00     0.087 C 
BRANCH  11  12
ATOM     12  C   UNL     1      24.404  72.858 107.860  1.00  0.00     0.066 C 
BRANCH  12  13
ATOM     13  C   UNL     1      22.954  73.010 108.293  1.00  0.00     0.140 C 
ATOM     14  O   UNL     1      22.691  73.582 109.342  1.00  0.00    -0.299 OA
BRANCH  13  15
ATOM     15  C   UNL     1      21.822  72.446 107.475  1.00  0.00     0.106 CG0
ATOM     16  G   UNL     1      21.134  73.502 106.630  1.00  0.00     0.000 G0
ENDBRANCH  13  15
ENDBRANCH  12  13
BRANCH  12  17
ATOM     17  C   UNL     1      25.121  71.724 108.665  1.00  0.00    -0.006 C 
ATOM     18  C   UNL     1      24.205  70.516 108.929  1.00  0.00     0.008 C 
ATOM     19  C   UNL     1      25.641  72.257 110.013  1.00  0.00     0.008 C 
ENDBRANCH  12  17
ENDBRANCH  11  12
ENDBRANCH   1  11
TORSDOF 1
ENDMDL
MODEL 6
REMARK VINA RESULT:    -2.910      1.791      3.641
REMARK INTER + INTRA:          -4.619
REMARK INTER:                  -4.682
REMARK INTRA:                   0.063
REMARK UNBOUND:                -0.177
REMARK SMILES CC1=CCC[C@H](C)C(=O)C[C@@H](C(C)C)C(=O)C1
REMARK SMILES IDX 8 1 9 2 6 3 7 4 5 5 4 6 3 7 2 8 1 9 10 11 11 12 15 13 16 14
REMARK SMILES IDX 17 15 12 17 13 18 14 19
REMARK H PARENT
REMARK Flexibility Score: 70.00
ROOT
ATOM      1  C   UNL     1      33.531  69.625 104.173  1.00  0.00     0.136 C 
ATOM      2  O   UNL     1      34.349  70.516 104.349  1.00  0.00    -0.299 OA
ENDROOT
BRANCH   1   3
ATOM      3  C   UNL     1      33.969  68.417 103.347  1.00  0.00     0.053 C 
ATOM      4  C   UNL     1      35.337  68.719 102.719  1.00  0.00     0.016 C 
BRANCH   3   5
ATOM      5  C   UNL     1      34.025  67.050 104.081  1.00  0.00     0.015 C 
BRANCH   5   6
ATOM      6  C   UNL     1      32.675  66.296 104.131  1.00  0.00     0.028 C 
BRANCH   6   7
ATOM      7  C   UNL     1      32.393  65.766 105.519  1.00  0.00    -0.028 C 
ATOM      8  C   UNL     1      31.578  66.342 106.435  1.00  0.00    -0.070 CG0
ATOM      9  C   UNL     1      31.471  65.693 107.791  1.00  0.00     0.039 C 
ATOM     10  G   UNL     1      30.764  67.590 106.150  1.00  0.00     0.000 G0
ENDBRANCH   6   7
ENDBRANCH   5   6
ENDBRANCH   3   5
ENDBRANCH   1   3
BRANCH   1  11
ATOM     11  C   UNL     1      32.173  69.771 104.831  1.00  0.00     0.087 C 
BRANCH  11  12
ATOM     12  C   UNL     1      32.222  69.782 106.387  1.00  0.00     0.066 C 
BRANCH  12  13
ATOM     13  C   UNL     1      31.204  68.798 106.942  1.00  0.00     0.140 C 
ATOM     14  O   UNL     1      30.756  68.962 108.069  1.00  0.00    -0.299 OA
BRANCH  13  15
ATOM     15  C   UNL     1      30.749  67.600 106.151  1.00  0.00     0.106 CG0
ATOM     16  G   UNL     1      31.573  66.361 106.447  1.00  0.00     0.000 G0
ENDBRANCH  13  15
ENDBRANCH  12  13
BRANCH  12  17
ATOM     17  C   UNL     1      32.061  71.194 107.039  1.00  0.00    -0.006 C 
ATOM     18  C   UNL     1      30.926  72.015 106.402  1.00  0.00     0.008 C 
ATOM     19  C   UNL     1      33.372  71.997 106.935  1.00  0.00     0.008 C 
ENDBRANCH  12  17
ENDBRANCH  11  12
ENDBRANCH   1  11
TORSDOF 1
ENDMDL
MODEL 7
REMARK VINA RESULT:    -2.910      1.644      2.179
REMARK INTER + INTRA:          -4.617
REMARK INTER:                  -4.486
REMARK INTRA:                  -0.131
REMARK UNBOUND:                -0.177
REMARK SMILES CC1=CCC[C@H](C)C(=O)C[C@@H](C(C)C)C(=O)C1
REMARK SMILES IDX 8 1 9 2 6 3 7 4 5 5 4 6 3 7 2 8 1 9 10 11 11 12 15 13 16 14
REMARK SMILES IDX 17 15 12 17 13 18 14 19
REMARK H PARENT
REMARK Flexibility Score: 70.00
ROOT
ATOM      1  C   UNL     1      34.346  68.833 107.841  1.00  0.00     0.136 C 
ATOM      2  O   UNL     1      35.089  69.672 108.329  1.00  0.00    -0.299 OA
ENDROOT
BRANCH   1   3
ATOM      3  C   UNL     1      34.001  67.613 108.693  1.00  0.00     0.053 C 
ATOM      4  C   UNL     1      32.807  67.962 109.592  1.00  0.00     0.016 C 
BRANCH   3   5
ATOM      5  C   UNL     1      33.711  66.289 107.934  1.00  0.00     0.015 C 
BRANCH   5   6
ATOM      6  C   UNL     1      32.260  65.774 108.084  1.00  0.00     0.028 C 
BRANCH   6   7
ATOM      7  C   UNL     1      31.654  65.440 106.739  1.00  0.00    -0.028 C 
ATOM      8  C   UNL     1      30.885  66.266 105.991  1.00  0.00    -0.070 CG0
ATOM      9  C   UNL     1      30.321  65.730 104.700  1.00  0.00     0.039 C 
ATOM     10  G   UNL     1      30.583  67.700 106.386  1.00  0.00     0.000 G0
ENDBRANCH   6   7
ENDBRANCH   5   6
ENDBRANCH   3   5
ENDBRANCH   1   3
BRANCH   1  11
ATOM     11  C   UNL     1      33.794  69.098 106.454  1.00  0.00     0.087 C 
BRANCH  11  12
ATOM     12  C   UNL     1      32.342  69.661 106.450  1.00  0.00     0.066 C 
BRANCH  12  13
ATOM     13  C   UNL     1      31.426  68.720 105.682  1.00  0.00     0.140 C 
ATOM     14  O   UNL     1      31.361  68.800 104.463  1.00  0.00    -0.299 OA
BRANCH  13  15
ATOM     15  C   UNL     1      30.567  67.703 106.386  1.00  0.00     0.106 CG0
ATOM     16  G   UNL     1      30.899  66.280 105.977  1.00  0.00     0.000 G0
ENDBRANCH  13  15
ENDBRANCH  12  13
BRANCH  12  17
ATOM     17  C   UNL     1      32.209  71.130 105.932  1.00  0.00    -0.006 C 
ATOM     18  C   UNL     1      33.525  71.920 106.048  1.00  0.00     0.008 C 
ATOM     19  C   UNL     1      31.109  71.883 106.704  1.00  0.00     0.008 C 
ENDBRANCH  12  17
ENDBRANCH  11  12
ENDBRANCH   1  11
TORSDOF 1
ENDMDL
MODEL 8
REMARK VINA RESULT:    -2.862      2.233      5.178
REMARK INTER + INTRA:          -4.545
REMARK INTER:                  -4.512
REMARK INTRA:                  -0.034
REMARK UNBOUND:                -0.177
REMARK SMILES CC1=CCC[C@H](C)C(=O)C[C@@H](C(C)C)C(=O)C1
REMARK SMILES IDX 8 1 9 2 6 3 7 4 5 5 4 6 3 7 2 8 1 9 10 11 11 12 15 13 16 14
REMARK SMILES IDX 17 15 12 17 13 18 14 19
REMARK H PARENT
REMARK Flexibility Score: 70.00
ROOT
ATOM      1  C   UNL     1      34.518  69.414 104.511  1.00  0.00     0.136 C 
ATOM      2  O   UNL     1      34.009  69.617 103.418  1.00  0.00    -0.299 OA
ENDROOT
BRANCH   1   3
ATOM      3  C   UNL     1      35.561  70.417 105.001  1.00  0.00     0.053 C 
ATOM      4  C   UNL     1      36.542  70.707 103.857  1.00  0.00     0.016 C 
BRANCH   3   5
ATOM      5  C   UNL     1      35.026  71.756 105.578  1.00  0.00     0.015 C 
BRANCH   5   6
ATOM      6  C   UNL     1      34.228  71.609 106.896  1.00  0.00     0.028 C 
BRANCH   6   7
ATOM      7  C   UNL     1      32.743  71.767 106.658  1.00  0.00    -0.028 C 
ATOM      8  C   UNL     1      31.818  70.781 106.748  1.00  0.00    -0.070 CG0
ATOM      9  C   UNL     1      30.388  71.122 106.414  1.00  0.00     0.039 C 
ATOM     10  G   UNL     1      32.155  69.367 107.183  1.00  0.00     0.000 G0
ENDBRANCH   6   7
ENDBRANCH   5   6
ENDBRANCH   3   5
ENDBRANCH   1   3
BRANCH   1  11
ATOM     11  C   UNL     1      34.037  68.215 105.304  1.00  0.00     0.087 C 
BRANCH  11  12
ATOM     12  C   UNL     1      32.549  67.841 105.042  1.00  0.00     0.066 C 
BRANCH  12  13
ATOM     13  C   UNL     1      31.685  68.317 106.201  1.00  0.00     0.140 C 
ATOM     14  O   UNL     1      30.559  67.862 106.343  1.00  0.00    -0.299 OA
BRANCH  13  15
ATOM     15  C   UNL     1      32.170  69.363 107.170  1.00  0.00     0.106 CG0
ATOM     16  G   UNL     1      31.808  70.771 106.733  1.00  0.00     0.000 G0
ENDBRANCH  13  15
ENDBRANCH  12  13
BRANCH  12  17
ATOM     17  C   UNL     1      32.297  66.329 104.731  1.00  0.00    -0.006 C 
ATOM     18  C   UNL     1      33.017  65.393 105.717  1.00  0.00     0.008 C 
ATOM     19  C   UNL     1      32.749  65.984 103.299  1.00  0.00     0.008 C 
ENDBRANCH  12  17
ENDBRANCH  11  12
ENDBRANCH   1  11
TORSDOF 1
ENDMDL
MODEL 9
REMARK VINA RESULT:    -2.771      9.579     10.848
REMARK INTER + INTRA:          -4.406
REMARK INTER:                  -4.267
REMARK INTRA:                  -0.139
REMARK UNBOUND:                -0.177
REMARK SMILES CC1=CCC[C@H](C)C(=O)C[C@@H](C(C)C)C(=O)C1
REMARK SMILES IDX 8 1 9 2 6 3 7 4 5 5 4 6 3 7 2 8 1 9 10 11 11 12 15 13 16 14
REMARK SMILES IDX 17 15 12 17 13 18 14 19
REMARK H PARENT
REMARK Flexibility Score: 70.00
ROOT
ATOM      1  C   UNL     1      28.877  62.304  97.753  1.00  0.00     0.136 C 
ATOM      2  O   UNL     1      28.105  63.038  97.152  1.00  0.00    -0.299 OA
ENDROOT
BRANCH   1   3
ATOM      3  C   UNL     1      28.647  60.798  97.647  1.00  0.00     0.053 C 
ATOM      4  C   UNL     1      29.255  60.298  96.329  1.00  0.00     0.016 C 
BRANCH   3   5
ATOM      5  C   UNL     1      29.167  59.926  98.822  1.00  0.00     0.015 C 
BRANCH   5   6
ATOM      6  C   UNL     1      30.424  59.089  98.487  1.00  0.00     0.028 C 
BRANCH   6   7
ATOM      7  C   UNL     1      31.403  59.084  99.640  1.00  0.00    -0.028 C 
ATOM      8  C   UNL     1      32.547  59.806  99.710  1.00  0.00    -0.070 CG0
ATOM      9  C   UNL     1      33.426  59.621 100.920  1.00  0.00     0.039 C 
ATOM     10  G   UNL     1      32.967  60.797  98.640  1.00  0.00     0.000 G0
ENDBRANCH   6   7
ENDBRANCH   5   6
ENDBRANCH   3   5
ENDBRANCH   1   3
BRANCH   1  11
ATOM     11  C   UNL     1      30.022  62.948  98.510  1.00  0.00     0.087 C 
BRANCH  11  12
ATOM     12  C   UNL     1      31.412  62.754  97.837  1.00  0.00     0.066 C 
BRANCH  12  13
ATOM     13  C   UNL     1      32.390  62.156  98.836  1.00  0.00     0.140 C 
ATOM     14  O   UNL     1      32.730  62.807  99.815  1.00  0.00    -0.299 OA
BRANCH  13  15
ATOM     15  C   UNL     1      32.982  60.785  98.639  1.00  0.00     0.106 CG0
ATOM     16  G   UNL     1      32.542  59.804  99.710  1.00  0.00     0.000 G0
ENDBRANCH  13  15
ENDBRANCH  12  13
BRANCH  12  17
ATOM     17  C   UNL     1      32.001  64.038  97.164  1.00  0.00    -0.006 C 
ATOM     18  C   UNL     1      31.035  64.670  96.147  1.00  0.00     0.008 C 
ATOM     19  C   UNL     1      33.331  63.721  96.455  1.00  0.00     0.008 C 
ENDBRANCH  12  17
ENDBRANCH  11  12
ENDBRANCH   1  11
TORSDOF 1
ENDMDL
