MODEL 1
REMARK VINA RESULT:    -3.726      0.000      0.000
REMARK INTER + INTRA:          -6.536
REMARK INTER:                  -5.904
REMARK INTRA:                  -0.632
REMARK UNBOUND:                -0.632
REMARK SMILES CCCCCCCCCCCC(=O)[O-]
REMARK SMILES IDX 7 1 8 2 9 3 10 4 11 5 12 6 13 7 14 8 6 9 5 10 4 11 3 12 2 13
REMARK SMILES IDX 1 14
REMARK H PARENT
REMARK Flexibility Score: inf
ROOT
ATOM      1  C   UNL     1      -0.767  -8.879  37.600  1.00  0.00     0.000 C 
ENDROOT
BRANCH   1   2
ATOM      2  C   UNL     1      -0.283  -8.889  39.058  1.00  0.00     0.000 C 
BRANCH   2   3
ATOM      3  C   UNL     1      -1.325  -8.312  40.033  1.00  0.00     0.000 C 
BRANCH   3   4
ATOM      4  C   UNL     1      -2.036  -9.408  40.853  1.00  0.00     0.006 C 
BRANCH   4   5
ATOM      5  C   UNL     1      -1.383 -10.793  40.721  1.00  0.00     0.053 C 
BRANCH   5   6
ATOM      6  C   UNL     1      -1.480 -11.591  41.983  1.00  0.00     0.041 C 
ATOM      7  O   UNL     1      -0.983 -11.149  43.052  1.00  0.00    -0.550 OA
ATOM      8  O   UNL     1      -2.142 -12.812  41.985  1.00  0.00    -0.550 OA
ENDBRANCH   5   6
ENDBRANCH   4   5
ENDBRANCH   3   4
ENDBRANCH   2   3
ENDBRANCH   1   2
BRANCH   1   9
ATOM      9  C   UNL     1      -1.027  -7.461  37.070  1.00  0.00     0.000 C 
BRANCH   9  10
ATOM     10  C   UNL     1      -2.460  -7.326  36.542  1.00  0.00    -0.000 C 
BRANCH  10  11
ATOM     11  C   UNL     1      -3.272  -6.337  37.392  1.00  0.00    -0.000 C 
BRANCH  11  12
ATOM     12  C   UNL     1      -4.285  -5.536  36.548  1.00  0.00    -0.000 C 
BRANCH  12  13
ATOM     13  C   UNL     1      -3.854  -5.347  35.084  1.00  0.00    -0.003 C 
ATOM     14  C   UNL     1      -4.109  -3.933  34.564  1.00  0.00     0.004 C 
ENDBRANCH  12  13
ENDBRANCH  11  12
ENDBRANCH  10  11
ENDBRANCH   9  10
ENDBRANCH   1   9
TORSDOF 10
ENDMDL
MODEL 2
REMARK VINA RESULT:    -3.722      1.333      2.320
REMARK INTER + INTRA:          -6.530
REMARK INTER:                  -5.871
REMARK INTRA:                  -0.659
REMARK UNBOUND:                -0.632
REMARK SMILES CCCCCCCCCCCC(=O)[O-]
REMARK SMILES IDX 7 1 8 2 9 3 10 4 11 5 12 6 13 7 14 8 6 9 5 10 4 11 3 12 2 13
REMARK SMILES IDX 1 14
REMARK H PARENT
REMARK Flexibility Score: inf
ROOT
ATOM      1  C   UNL     1      -2.666  -7.101  36.587  1.00  0.00     0.000 C 
ENDROOT
BRANCH   1   2
ATOM      2  C   UNL     1      -1.724  -7.672  37.659  1.00  0.00     0.000 C 
BRANCH   2   3
ATOM      3  C   UNL     1      -2.409  -7.826  39.029  1.00  0.00     0.000 C 
BRANCH   3   4
ATOM      4  C   UNL     1      -1.422  -8.249  40.136  1.00  0.00     0.006 C 
BRANCH   4   5
ATOM      5  C   UNL     1      -1.945  -9.396  41.017  1.00  0.00     0.053 C 
BRANCH   5   6
ATOM      6  C   UNL     1      -1.155 -10.654  40.841  1.00  0.00     0.041 C 
ATOM      7  O   UNL     1      -0.491 -10.844  39.787  1.00  0.00    -0.550 OA
ATOM      8  O   UNL     1      -1.131 -11.608  41.850  1.00  0.00    -0.550 OA
ENDBRANCH   5   6
ENDBRANCH   4   5
ENDBRANCH   3   4
ENDBRANCH   2   3
ENDBRANCH   1   2
BRANCH   1   9
ATOM      9  C   UNL     1      -3.650  -6.066  37.151  1.00  0.00     0.000 C 
BRANCH   9  10
ATOM     10  C   UNL     1      -4.952  -6.046  36.341  1.00  0.00    -0.000 C 
BRANCH  10  11
ATOM     11  C   UNL     1      -5.377  -4.608  36.011  1.00  0.00    -0.000 C 
BRANCH  11  12
ATOM     12  C   UNL     1      -5.166  -4.264  34.522  1.00  0.00    -0.000 C 
BRANCH  12  13
ATOM     13  C   UNL     1      -3.703  -3.955  34.161  1.00  0.00    -0.003 C 
ATOM     14  C   UNL     1      -3.041  -5.066  33.347  1.00  0.00     0.004 C 
ENDBRANCH  12  13
ENDBRANCH  11  12
ENDBRANCH  10  11
ENDBRANCH   9  10
ENDBRANCH   1   9
TORSDOF 10
ENDMDL
MODEL 3
REMARK VINA RESULT:    -3.653      1.671      2.551
REMARK INTER + INTRA:          -6.421
REMARK INTER:                  -5.287
REMARK INTRA:                  -1.134
REMARK UNBOUND:                -0.632
REMARK SMILES CCCCCCCCCCCC(=O)[O-]
REMARK SMILES IDX 7 1 8 2 9 3 10 4 11 5 12 6 13 7 14 8 6 9 5 10 4 11 3 12 2 13
REMARK SMILES IDX 1 14
REMARK H PARENT
REMARK Flexibility Score: inf
ROOT
ATOM      1  C   UNL     1      -0.172  -9.276  39.077  1.00  0.00     0.000 C 
ENDROOT
BRANCH   1   2
ATOM      2  C   UNL     1      -1.139  -8.558  40.030  1.00  0.00     0.000 C 
BRANCH   2   3
ATOM      3  C   UNL     1      -1.897  -9.531  40.951  1.00  0.00     0.000 C 
BRANCH   3   4
ATOM      4  C   UNL     1      -1.352 -10.972  40.861  1.00  0.00     0.006 C 
BRANCH   4   5
ATOM      5  C   UNL     1      -1.311 -11.697  42.216  1.00  0.00     0.053 C 
BRANCH   5   6
ATOM      6  C   UNL     1      -2.132 -12.948  42.217  1.00  0.00     0.041 C 
ATOM      7  O   UNL     1      -3.205 -13.002  41.560  1.00  0.00    -0.550 OA
ATOM      8  O   UNL     1      -1.700 -14.063  42.922  1.00  0.00    -0.550 OA
ENDBRANCH   5   6
ENDBRANCH   4   5
ENDBRANCH   3   4
ENDBRANCH   2   3
ENDBRANCH   1   2
BRANCH   1   9
ATOM      9  C   UNL     1      -0.547  -9.092  37.599  1.00  0.00     0.000 C 
BRANCH   9  10
ATOM     10  C   UNL     1      -0.825  -7.618  37.282  1.00  0.00    -0.000 C 
BRANCH  10  11
ATOM     11  C   UNL     1      -2.179  -7.449  36.578  1.00  0.00    -0.000 C 
BRANCH  11  12
ATOM     12  C   UNL     1      -3.198  -6.686  37.449  1.00  0.00    -0.000 C 
BRANCH  12  13
ATOM     13  C   UNL     1      -4.175  -7.604  38.204  1.00  0.00    -0.003 C 
ATOM     14  C   UNL     1      -4.302  -8.989  37.572  1.00  0.00     0.004 C 
ENDBRANCH  12  13
ENDBRANCH  11  12
ENDBRANCH  10  11
ENDBRANCH   9  10
ENDBRANCH   1   9
TORSDOF 10
ENDMDL
MODEL 4
REMARK VINA RESULT:    -3.600      3.500      6.517
REMARK INTER + INTRA:          -6.337
REMARK INTER:                  -5.228
REMARK INTRA:                  -1.108
REMARK UNBOUND:                -0.632
REMARK SMILES CCCCCCCCCCCC(=O)[O-]
REMARK SMILES IDX 7 1 8 2 9 3 10 4 11 5 12 6 13 7 14 8 6 9 5 10 4 11 3 12 2 13
REMARK SMILES IDX 1 14
REMARK H PARENT
REMARK Flexibility Score: inf
ROOT
ATOM      1  C   UNL     1      -1.760 -12.897  42.546  1.00  0.00     0.000 C 
ENDROOT
BRANCH   1   2
ATOM      2  C   UNL     1      -1.053 -11.549  42.337  1.00  0.00     0.000 C 
BRANCH   2   3
ATOM      3  C   UNL     1      -1.461 -10.862  41.021  1.00  0.00     0.000 C 
BRANCH   3   4
ATOM      4  C   UNL     1      -1.863  -9.387  41.226  1.00  0.00     0.006 C 
BRANCH   4   5
ATOM      5  C   UNL     1      -1.458  -8.473  40.059  1.00  0.00     0.053 C 
BRANCH   5   6
ATOM      6  C   UNL     1      -2.637  -8.011  39.262  1.00  0.00     0.041 C 
ATOM      7  O   UNL     1      -3.803  -8.335  39.609  1.00  0.00    -0.550 OA
ATOM      8  O   UNL     1      -2.450  -7.200  38.150  1.00  0.00    -0.550 OA
ENDBRANCH   5   6
ENDBRANCH   4   5
ENDBRANCH   3   4
ENDBRANCH   2   3
ENDBRANCH   1   2
BRANCH   1   9
ATOM      9  C   UNL     1      -3.028 -13.041  41.692  1.00  0.00     0.000 C 
BRANCH   9  10
ATOM     10  C   UNL     1      -4.229 -13.444  42.555  1.00  0.00    -0.000 C 
BRANCH  10  11
ATOM     11  C   UNL     1      -4.995 -12.208  43.050  1.00  0.00    -0.000 C 
BRANCH  11  12
ATOM     12  C   UNL     1      -5.028 -11.082  41.997  1.00  0.00    -0.000 C 
BRANCH  12  13
ATOM     13  C   UNL     1      -5.283  -9.687  42.594  1.00  0.00    -0.003 C 
ATOM     14  C   UNL     1      -6.433  -8.947  41.913  1.00  0.00     0.004 C 
ENDBRANCH  12  13
ENDBRANCH  11  12
ENDBRANCH  10  11
ENDBRANCH   9  10
ENDBRANCH   1   9
TORSDOF 10
ENDMDL
MODEL 5
REMARK VINA RESULT:    -3.597      2.929      4.462
REMARK INTER + INTRA:          -6.332
REMARK INTER:                  -4.999
REMARK INTRA:                  -1.333
REMARK UNBOUND:                -0.632
REMARK SMILES CCCCCCCCCCCC(=O)[O-]
REMARK SMILES IDX 7 1 8 2 9 3 10 4 11 5 12 6 13 7 14 8 6 9 5 10 4 11 3 12 2 13
REMARK SMILES IDX 1 14
REMARK H PARENT
REMARK Flexibility Score: inf
ROOT
ATOM      1  C   UNL     1      -3.938  -8.558  39.665  1.00  0.00     0.000 C 
ENDROOT
BRANCH   1   2
ATOM      2  C   UNL     1      -3.676  -9.418  40.911  1.00  0.00     0.000 C 
BRANCH   2   3
ATOM      3  C   UNL     1      -4.112 -10.882  40.724  1.00  0.00     0.000 C 
BRANCH   3   4
ATOM      4  C   UNL     1      -2.914 -11.834  40.527  1.00  0.00     0.006 C 
BRANCH   4   5
ATOM      5  C   UNL     1      -2.203 -12.204  41.838  1.00  0.00     0.053 C 
BRANCH   5   6
ATOM      6  C   UNL     1      -2.506 -13.602  42.275  1.00  0.00     0.041 C 
ATOM      7  O   UNL     1      -1.692 -14.230  43.002  1.00  0.00    -0.550 OA
ATOM      8  O   UNL     1      -3.700 -14.205  41.900  1.00  0.00    -0.550 OA
ENDBRANCH   5   6
ENDBRANCH   4   5
ENDBRANCH   3   4
ENDBRANCH   2   3
ENDBRANCH   1   2
BRANCH   1   9
ATOM      9  C   UNL     1      -2.651  -7.972  39.066  1.00  0.00     0.000 C 
BRANCH   9  10
ATOM     10  C   UNL     1      -1.449  -8.238  39.979  1.00  0.00    -0.000 C 
BRANCH  10  11
ATOM     11  C   UNL     1      -0.237  -8.724  39.170  1.00  0.00    -0.000 C 
BRANCH  11  12
ATOM     12  C   UNL     1      -0.062 -10.255  39.246  1.00  0.00    -0.000 C 
BRANCH  12  13
ATOM     13  C   UNL     1      -0.065 -10.944  37.871  1.00  0.00    -0.003 C 
ATOM     14  C   UNL     1      -1.457 -11.029  37.248  1.00  0.00     0.004 C 
ENDBRANCH  12  13
ENDBRANCH  11  12
ENDBRANCH  10  11
ENDBRANCH   9  10
ENDBRANCH   1   9
TORSDOF 10
ENDMDL
MODEL 6
REMARK VINA RESULT:    -3.578      1.594      2.603
REMARK INTER + INTRA:          -6.302
REMARK INTER:                  -5.552
REMARK INTRA:                  -0.750
REMARK UNBOUND:                -0.632
REMARK SMILES CCCCCCCCCCCC(=O)[O-]
REMARK SMILES IDX 7 1 8 2 9 3 10 4 11 5 12 6 13 7 14 8 6 9 5 10 4 11 3 12 2 13
REMARK SMILES IDX 1 14
REMARK H PARENT
REMARK Flexibility Score: inf
ROOT
ATOM      1  C   UNL     1      -3.058  -7.109  36.681  1.00  0.00     0.000 C 
ENDROOT
BRANCH   1   2
ATOM      2  C   UNL     1      -2.446  -7.378  38.065  1.00  0.00     0.000 C 
BRANCH   2   3
ATOM      3  C   UNL     1      -1.099  -8.118  37.983  1.00  0.00     0.000 C 
BRANCH   3   4
ATOM      4  C   UNL     1      -0.627  -8.634  39.358  1.00  0.00     0.006 C 
BRANCH   4   5
ATOM      5  C   UNL     1      -1.592  -8.295  40.505  1.00  0.00     0.053 C 
BRANCH   5   6
ATOM      6  C   UNL     1      -2.182  -9.518  41.133  1.00  0.00     0.041 C 
ATOM      7  O   UNL     1      -1.453 -10.510  41.396  1.00  0.00    -0.550 OA
ATOM      8  O   UNL     1      -3.534  -9.553  41.451  1.00  0.00    -0.550 OA
ENDBRANCH   5   6
ENDBRANCH   4   5
ENDBRANCH   3   4
ENDBRANCH   2   3
ENDBRANCH   1   2
BRANCH   1   9
ATOM      9  C   UNL     1      -2.054  -7.310  35.537  1.00  0.00     0.000 C 
BRANCH   9  10
ATOM     10  C   UNL     1      -2.750  -7.233  34.174  1.00  0.00    -0.000 C 
BRANCH  10  11
ATOM     11  C   UNL     1      -2.453  -5.898  33.475  1.00  0.00    -0.000 C 
BRANCH  11  12
ATOM     12  C   UNL     1      -3.722  -5.041  33.289  1.00  0.00    -0.000 C 
BRANCH  12  13
ATOM     13  C   UNL     1      -3.933  -4.002  34.403  1.00  0.00    -0.003 C 
ATOM     14  C   UNL     1      -5.120  -4.330  35.308  1.00  0.00     0.004 C 
ENDBRANCH  12  13
ENDBRANCH  11  12
ENDBRANCH  10  11
ENDBRANCH   9  10
ENDBRANCH   1   9
TORSDOF 10
ENDMDL
MODEL 7
REMARK VINA RESULT:    -3.577      3.696      6.239
REMARK INTER + INTRA:          -6.301
REMARK INTER:                  -5.073
REMARK INTRA:                  -1.228
REMARK UNBOUND:                -0.632
REMARK SMILES CCCCCCCCCCCC(=O)[O-]
REMARK SMILES IDX 7 1 8 2 9 3 10 4 11 5 12 6 13 7 14 8 6 9 5 10 4 11 3 12 2 13
REMARK SMILES IDX 1 14
REMARK H PARENT
REMARK Flexibility Score: inf
ROOT
ATOM      1  C   UNL     1      -0.814 -10.611  39.544  1.00  0.00     0.000 C 
ENDROOT
BRANCH   1   2
ATOM      2  C   UNL     1      -0.303  -9.169  39.402  1.00  0.00     0.000 C 
BRANCH   2   3
ATOM      3  C   UNL     1      -1.341  -8.125  39.848  1.00  0.00     0.000 C 
BRANCH   3   4
ATOM      4  C   UNL     1      -2.436  -7.893  38.787  1.00  0.00     0.006 C 
BRANCH   4   5
ATOM      5  C   UNL     1      -1.880  -7.532  37.400  1.00  0.00     0.053 C 
BRANCH   5   6
ATOM      6  C   UNL     1      -2.841  -6.715  36.596  1.00  0.00     0.041 C 
ATOM      7  O   UNL     1      -2.884  -6.836  35.343  1.00  0.00    -0.550 OA
ATOM      8  O   UNL     1      -3.709  -5.836  37.232  1.00  0.00    -0.550 OA
ENDBRANCH   5   6
ENDBRANCH   4   5
ENDBRANCH   3   4
ENDBRANCH   2   3
ENDBRANCH   1   2
BRANCH   1   9
ATOM      9  C   UNL     1      -1.001 -11.034  41.009  1.00  0.00     0.000 C 
BRANCH   9  10
ATOM     10  C   UNL     1      -2.398 -11.621  41.238  1.00  0.00    -0.000 C 
BRANCH  10  11
ATOM     11  C   UNL     1      -3.306 -11.379  40.023  1.00  0.00    -0.000 C 
BRANCH  11  12
ATOM     12  C   UNL     1      -4.627 -10.684  40.411  1.00  0.00    -0.000 C 
BRANCH  12  13
ATOM     13  C   UNL     1      -4.443  -9.517  41.396  1.00  0.00    -0.003 C 
ATOM     14  C   UNL     1      -5.343  -9.626  42.626  1.00  0.00     0.004 C 
ENDBRANCH  12  13
ENDBRANCH  11  12
ENDBRANCH  10  11
ENDBRANCH   9  10
ENDBRANCH   1   9
TORSDOF 10
ENDMDL
MODEL 8
REMARK VINA RESULT:    -3.544      4.684      7.225
REMARK INTER + INTRA:          -6.249
REMARK INTER:                  -5.367
REMARK INTRA:                  -0.882
REMARK UNBOUND:                -0.632
REMARK SMILES CCCCCCCCCCCC(=O)[O-]
REMARK SMILES IDX 7 1 8 2 9 3 10 4 11 5 12 6 13 7 14 8 6 9 5 10 4 11 3 12 2 13
REMARK SMILES IDX 1 14
REMARK H PARENT
REMARK Flexibility Score: inf
ROOT
ATOM      1  C   UNL     1      -1.925  -8.723  37.199  1.00  0.00     0.000 C 
ENDROOT
BRANCH   1   2
ATOM      2  C   UNL     1      -2.598  -7.570  36.439  1.00  0.00     0.000 C 
BRANCH   2   3
ATOM      3  C   UNL     1      -3.334  -6.593  37.374  1.00  0.00     0.000 C 
BRANCH   3   4
ATOM      4  C   UNL     1      -4.058  -5.471  36.601  1.00  0.00     0.006 C 
BRANCH   4   5
ATOM      5  C   UNL     1      -4.009  -5.647  35.075  1.00  0.00     0.053 C 
BRANCH   5   6
ATOM      6  C   UNL     1      -4.434  -4.412  34.346  1.00  0.00     0.041 C 
ATOM      7  O   UNL     1      -3.741  -3.362  34.419  1.00  0.00    -0.550 OA
ATOM      8  O   UNL     1      -5.582  -4.425  33.564  1.00  0.00    -0.550 OA
ENDBRANCH   5   6
ENDBRANCH   4   5
ENDBRANCH   3   4
ENDBRANCH   2   3
ENDBRANCH   1   2
BRANCH   1   9
ATOM      9  C   UNL     1      -0.593  -8.312  37.844  1.00  0.00     0.000 C 
BRANCH   9  10
ATOM     10  C   UNL     1      -0.467  -8.885  39.260  1.00  0.00    -0.000 C 
BRANCH  10  11
ATOM     11  C   UNL     1      -1.589  -8.362  40.170  1.00  0.00    -0.000 C 
BRANCH  11  12
ATOM     12  C   UNL     1      -2.033  -9.410  41.211  1.00  0.00    -0.000 C 
BRANCH  12  13
ATOM     13  C   UNL     1      -3.550  -9.663  41.224  1.00  0.00    -0.003 C 
ATOM     14  C   UNL     1      -4.290  -8.911  40.119  1.00  0.00     0.004 C 
ENDBRANCH  12  13
ENDBRANCH  11  12
ENDBRANCH  10  11
ENDBRANCH   9  10
ENDBRANCH   1   9
TORSDOF 10
ENDMDL
MODEL 9
REMARK VINA RESULT:    -3.535      2.838      3.801
REMARK INTER + INTRA:          -6.235
REMARK INTER:                  -4.630
REMARK INTRA:                  -1.605
REMARK UNBOUND:                -0.632
REMARK SMILES CCCCCCCCCCCC(=O)[O-]
REMARK SMILES IDX 7 1 8 2 9 3 10 4 11 5 12 6 13 7 14 8 6 9 5 10 4 11 3 12 2 13
REMARK SMILES IDX 1 14
REMARK H PARENT
REMARK Flexibility Score: inf
ROOT
ATOM      1  C   UNL     1      -0.629  -9.507  39.565  1.00  0.00     0.000 C 
ENDROOT
BRANCH   1   2
ATOM      2  C   UNL     1      -0.976 -10.742  40.409  1.00  0.00     0.000 C 
BRANCH   2   3
ATOM      3  C   UNL     1      -1.752 -10.387  41.689  1.00  0.00     0.000 C 
BRANCH   3   4
ATOM      4  C   UNL     1      -3.067 -11.182  41.822  1.00  0.00     0.006 C 
BRANCH   4   5
ATOM      5  C   UNL     1      -2.965 -12.626  41.305  1.00  0.00     0.053 C 
BRANCH   5   6
ATOM      6  C   UNL     1      -2.889 -13.624  42.416  1.00  0.00     0.041 C 
ATOM      7  O   UNL     1      -3.942 -14.126  42.891  1.00  0.00    -0.550 OA
ATOM      8  O   UNL     1      -1.654 -14.020  42.913  1.00  0.00    -0.550 OA
ENDBRANCH   5   6
ENDBRANCH   4   5
ENDBRANCH   3   4
ENDBRANCH   2   3
ENDBRANCH   1   2
BRANCH   1   9
ATOM      9  C   UNL     1      -1.366  -8.242  40.030  1.00  0.00     0.000 C 
BRANCH   9  10
ATOM     10  C   UNL     1      -2.403  -7.797  38.993  1.00  0.00    -0.000 C 
BRANCH  10  11
ATOM     11  C   UNL     1      -3.778  -8.418  39.283  1.00  0.00    -0.000 C 
BRANCH  11  12
ATOM     12  C   UNL     1      -4.322  -9.220  38.083  1.00  0.00    -0.000 C 
BRANCH  12  13
ATOM     13  C   UNL     1      -4.381 -10.736  38.330  1.00  0.00    -0.003 C 
ATOM     14  C   UNL     1      -3.242 -11.497  37.654  1.00  0.00     0.004 C 
ENDBRANCH  12  13
ENDBRANCH  11  12
ENDBRANCH  10  11
ENDBRANCH   9  10
ENDBRANCH   1   9
TORSDOF 10
ENDMDL
