MODEL 1
REMARK VINA RESULT:    16.928      0.000      0.000
REMARK INTER + INTRA:          16.928
REMARK INTER:                  16.928
REMARK INTRA:                   0.000
REMARK UNBOUND:                 0.000
REMARK SMILES Cc1cc2cc3c(C)cc(=O)oc3c(C)c2o1
REMARK SMILES IDX 8 1 7 2 9 3 10 4 11 5 12 6 13 7 6 8 5 9 4 10 3 11 2 12 17 13
REMARK SMILES IDX 16 14 14 15 15 16 1 17
REMARK H PARENT
REMARK Flexibility Score: inf
ROOT
ATOM      1  C   UNL     1     -38.285  24.667   1.809  1.00  0.00     0.045 C 
ATOM      2  C   UNL     1     -38.526  25.285   3.163  1.00  0.00    -0.033 A 
ATOM      3  C   UNL     1     -38.714  26.670   3.259  1.00  0.00     0.098 A 
ATOM      4  C   UNL     1     -38.940  27.249   4.509  1.00  0.00     0.336 A 
ATOM      5  O   UNL     1     -39.112  28.493   4.601  1.00  0.00    -0.246 OA
ATOM      6  O   UNL     1     -38.976  26.501   5.603  1.00  0.00    -0.422 OA
ATOM      7  C   UNL     1     -38.802  25.181   5.584  1.00  0.00     0.145 A 
ATOM      8  C   UNL     1     -38.569  24.509   4.342  1.00  0.00     0.022 A 
ATOM      9  C   UNL     1     -38.396  23.103   4.330  1.00  0.00     0.024 A 
ATOM     10  C   UNL     1     -38.464  22.425   5.541  1.00  0.00     0.022 A 
ATOM     11  C   UNL     1     -38.348  21.082   5.821  1.00  0.00     0.054 A 
ATOM     12  C   UNL     1     -38.512  21.006   7.200  1.00  0.00     0.102 A 
ATOM     13  O   UNL     1     -38.716  22.204   7.715  1.00  0.00    -0.461 OA
ATOM     14  C   UNL     1     -38.688  23.069   6.728  1.00  0.00     0.140 A 
ATOM     15  C   UNL     1     -38.852  24.454   6.797  1.00  0.00     0.036 A 
ATOM     16  C   UNL     1     -39.125  25.140   8.106  1.00  0.00     0.052 C 
ATOM     17  C   UNL     1     -38.487  19.749   8.001  1.00  0.00     0.087 C 
ENDROOT
TORSDOF 0
ENDMDL
