MODEL 1
REMARK VINA RESULT:    -1.806      0.000      0.000
REMARK INTER + INTRA:          -2.051
REMARK INTER:                  -2.017
REMARK INTRA:                  -0.034
REMARK UNBOUND:                -0.034
REMARK SMILES CCCC(=O)[O-]
REMARK SMILES IDX 3 1 4 2 5 3 6 4 2 5 1 6
REMARK H PARENT
REMARK Flexibility Score: inf
ROOT
ATOM      1  C   UNL     1      -9.019  29.855 -17.299  1.00  0.00     0.052 C 
ENDROOT
BRANCH   1   2
ATOM      2  C   UNL     1      -7.766  29.040 -17.260  1.00  0.00     0.041 C 
ATOM      3  O   UNL     1      -7.303  28.641 -16.159  1.00  0.00    -0.550 OA
ATOM      4  O   UNL     1      -7.081  28.762 -18.436  1.00  0.00    -0.550 OA
ENDBRANCH   1   2
BRANCH   1   5
ATOM      5  C   UNL     1      -9.270  30.517 -15.940  1.00  0.00     0.003 C 
ATOM      6  C   UNL     1      -9.029  32.022 -16.009  1.00  0.00     0.004 C 
ENDBRANCH   1   5
TORSDOF 2
ENDMDL
MODEL 2
REMARK VINA RESULT:    -1.656      2.224      3.191
REMARK INTER + INTRA:          -1.884
REMARK INTER:                  -1.877
REMARK INTRA:                  -0.007
REMARK UNBOUND:                -0.034
REMARK SMILES CCCC(=O)[O-]
REMARK SMILES IDX 3 1 4 2 5 3 6 4 2 5 1 6
REMARK H PARENT
REMARK Flexibility Score: inf
ROOT
ATOM      1  C   UNL     1      -8.817  29.726 -17.125  1.00  0.00     0.052 C 
ENDROOT
BRANCH   1   2
ATOM      2  C   UNL     1      -9.020  30.731 -16.036  1.00  0.00     0.041 C 
ATOM      3  O   UNL     1      -9.187  30.353 -14.847  1.00  0.00    -0.550 OA
ATOM      4  O   UNL     1      -9.074  32.086 -16.341  1.00  0.00    -0.550 OA
ENDBRANCH   1   2
BRANCH   1   5
ATOM      5  C   UNL     1      -7.534  28.925 -16.881  1.00  0.00     0.003 C 
ATOM      6  C   UNL     1      -6.795  28.659 -18.189  1.00  0.00     0.004 C 
ENDBRANCH   1   5
TORSDOF 2
ENDMDL
MODEL 3
REMARK VINA RESULT:    -1.646      2.144      3.345
REMARK INTER + INTRA:          -1.873
REMARK INTER:                  -1.866
REMARK INTRA:                  -0.006
REMARK UNBOUND:                -0.034
REMARK SMILES CCCC(=O)[O-]
REMARK SMILES IDX 3 1 4 2 5 3 6 4 2 5 1 6
REMARK H PARENT
REMARK Flexibility Score: inf
ROOT
ATOM      1  C   UNL     1      -8.769  29.727 -17.294  1.00  0.00     0.052 C 
ENDROOT
BRANCH   1   2
ATOM      2  C   UNL     1      -9.021  30.629 -16.128  1.00  0.00     0.041 C 
ATOM      3  O   UNL     1      -9.204  31.862 -16.308  1.00  0.00    -0.550 OA
ATOM      4  O   UNL     1      -9.006  30.117 -14.837  1.00  0.00    -0.550 OA
ENDBRANCH   1   2
BRANCH   1   5
ATOM      5  C   UNL     1      -7.488  28.916 -17.077  1.00  0.00     0.003 C 
ATOM      6  C   UNL     1      -6.771  28.656 -18.399  1.00  0.00     0.004 C 
ENDBRANCH   1   5
TORSDOF 2
ENDMDL
MODEL 4
REMARK VINA RESULT:    -1.404      4.097      5.540
REMARK INTER + INTRA:          -1.603
REMARK INTER:                  -1.595
REMARK INTRA:                  -0.008
REMARK UNBOUND:                -0.034
REMARK SMILES CCCC(=O)[O-]
REMARK SMILES IDX 3 1 4 2 5 3 6 4 2 5 1 6
REMARK H PARENT
REMARK Flexibility Score: inf
ROOT
ATOM      1  C   UNL     1      -5.957  28.965 -21.131  1.00  0.00     0.052 C 
ENDROOT
BRANCH   1   2
ATOM      2  C   UNL     1      -6.693  28.775 -19.844  1.00  0.00     0.041 C 
ATOM      3  O   UNL     1      -6.207  28.050 -18.937  1.00  0.00    -0.550 OA
ATOM      4  O   UNL     1      -7.940  29.361 -19.662  1.00  0.00    -0.550 OA
ENDBRANCH   1   2
BRANCH   1   5
ATOM      5  C   UNL     1      -6.178  27.765 -22.057  1.00  0.00     0.003 C 
ATOM      6  C   UNL     1      -5.069  27.661 -23.099  1.00  0.00     0.004 C 
ENDBRANCH   1   5
TORSDOF 2
ENDMDL
MODEL 5
REMARK VINA RESULT:    -0.993      4.564      5.550
REMARK INTER + INTRA:          -1.144
REMARK INTER:                  -1.136
REMARK INTRA:                  -0.007
REMARK UNBOUND:                -0.034
REMARK SMILES CCCC(=O)[O-]
REMARK SMILES IDX 3 1 4 2 5 3 6 4 2 5 1 6
REMARK H PARENT
REMARK Flexibility Score: inf
ROOT
ATOM      1  C   UNL     1      -5.856  28.819 -21.119  1.00  0.00     0.052 C 
ENDROOT
BRANCH   1   2
ATOM      2  C   UNL     1      -5.906  27.987 -22.361  1.00  0.00     0.041 C 
ATOM      3  O   UNL     1      -4.876  27.846 -23.071  1.00  0.00    -0.550 OA
ATOM      4  O   UNL     1      -7.102  27.406 -22.761  1.00  0.00    -0.550 OA
ENDBRANCH   1   2
BRANCH   1   5
ATOM      5  C   UNL     1      -6.783  28.236 -20.047  1.00  0.00     0.003 C 
ATOM      6  C   UNL     1      -6.345  28.663 -18.650  1.00  0.00     0.004 C 
ENDBRANCH   1   5
TORSDOF 2
ENDMDL
MODEL 6
REMARK VINA RESULT:    -0.958     22.030     22.841
REMARK INTER + INTRA:          -1.104
REMARK INTER:                  -1.094
REMARK INTRA:                  -0.010
REMARK UNBOUND:                -0.034
REMARK SMILES CCCC(=O)[O-]
REMARK SMILES IDX 3 1 4 2 5 3 6 4 2 5 1 6
REMARK H PARENT
REMARK Flexibility Score: inf
ROOT
ATOM      1  C   UNL     1     -22.752  39.707  -3.373  1.00  0.00     0.052 C 
ENDROOT
BRANCH   1   2
ATOM      2  C   UNL     1     -24.153  40.185  -3.587  1.00  0.00     0.041 C 
ATOM      3  O   UNL     1     -24.585  41.186  -2.957  1.00  0.00    -0.550 OA
ATOM      4  O   UNL     1     -24.999  39.496  -4.447  1.00  0.00    -0.550 OA
ENDBRANCH   1   2
BRANCH   1   5
ATOM      5  C   UNL     1     -21.864  40.854  -2.881  1.00  0.00     0.003 C 
ATOM      6  C   UNL     1     -20.394  40.448  -2.875  1.00  0.00     0.004 C 
ENDBRANCH   1   5
TORSDOF 2
ENDMDL
MODEL 7
REMARK VINA RESULT:    -0.396     12.532     13.120
REMARK INTER + INTRA:          -0.476
REMARK INTER:                  -0.544
REMARK INTRA:                   0.067
REMARK UNBOUND:                -0.034
REMARK SMILES CCCC(=O)[O-]
REMARK SMILES IDX 3 1 4 2 5 3 6 4 2 5 1 6
REMARK H PARENT
REMARK Flexibility Score: inf
ROOT
ATOM      1  C   UNL     1     -10.747  27.622  -4.263  1.00  0.00     0.052 C 
ENDROOT
BRANCH   1   2
ATOM      2  C   UNL     1     -12.154  27.389  -4.716  1.00  0.00     0.041 C 
ATOM      3  O   UNL     1     -13.024  28.287  -4.568  1.00  0.00    -0.550 OA
ATOM      4  O   UNL     1     -12.515  26.162  -5.257  1.00  0.00    -0.550 OA
ENDBRANCH   1   2
BRANCH   1   5
ATOM      5  C   UNL     1      -9.759  26.933  -5.209  1.00  0.00     0.003 C 
ATOM      6  C   UNL     1      -9.356  25.560  -4.678  1.00  0.00     0.004 C 
ENDBRANCH   1   5
TORSDOF 2
ENDMDL
MODEL 8
REMARK VINA RESULT:    -0.037     12.692     13.009
REMARK INTER + INTRA:          -0.076
REMARK INTER:                  -0.067
REMARK INTRA:                  -0.008
REMARK UNBOUND:                -0.034
REMARK SMILES CCCC(=O)[O-]
REMARK SMILES IDX 3 1 4 2 5 3 6 4 2 5 1 6
REMARK H PARENT
REMARK Flexibility Score: inf
ROOT
ATOM      1  C   UNL     1     -10.177  25.673  -4.659  1.00  0.00     0.052 C 
ENDROOT
BRANCH   1   2
ATOM      2  C   UNL     1     -10.972  26.939  -4.666  1.00  0.00     0.041 C 
ATOM      3  O   UNL     1     -10.425  28.033  -4.368  1.00  0.00    -0.550 OA
ATOM      4  O   UNL     1     -12.330  26.906  -4.955  1.00  0.00    -0.550 OA
ENDBRANCH   1   2
BRANCH   1   5
ATOM      5  C   UNL     1      -8.770  25.920  -5.213  1.00  0.00     0.003 C 
ATOM      6  C   UNL     1      -8.075  24.606  -5.556  1.00  0.00     0.004 C 
ENDBRANCH   1   5
TORSDOF 2
ENDMDL
MODEL 9
REMARK VINA RESULT:     0.061      3.446      4.253
REMARK INTER + INTRA:           0.033
REMARK INTER:                   0.046
REMARK INTRA:                  -0.012
REMARK UNBOUND:                -0.034
REMARK SMILES CCCC(=O)[O-]
REMARK SMILES IDX 3 1 4 2 5 3 6 4 2 5 1 6
REMARK H PARENT
REMARK Flexibility Score: inf
ROOT
ATOM      1  C   UNL     1      -6.044  28.226 -19.546  1.00  0.00     0.052 C 
ENDROOT
BRANCH   1   2
ATOM      2  C   UNL     1      -6.222  28.568 -20.991  1.00  0.00     0.041 C 
ATOM      3  O   UNL     1      -7.063  29.439 -21.337  1.00  0.00    -0.550 OA
ATOM      4  O   UNL     1      -5.494  27.891 -21.961  1.00  0.00    -0.550 OA
ENDBRANCH   1   2
BRANCH   1   5
ATOM      5  C   UNL     1      -7.165  28.847 -18.706  1.00  0.00     0.003 C 
ATOM      6  C   UNL     1      -6.918  28.635 -17.215  1.00  0.00     0.004 C 
ENDBRANCH   1   5
TORSDOF 2
ENDMDL
