MODEL 1
REMARK VINA RESULT:    -4.180      0.000      0.000
REMARK INTER + INTRA:          -5.742
REMARK INTER:                  -5.646
REMARK INTRA:                  -0.097
REMARK UNBOUND:                -0.097
REMARK SMILES [NH3+]CCCC[C@H]([NH3+])C(=O)[O-]
REMARK SMILES IDX 4 1 3 2 2 3 1 4 5 8 6 9 7 10 8 14 9 15 10 16
REMARK H PARENT 1 5 1 6 1 7 7 11 7 12 7 13
REMARK Flexibility Score: inf
ROOT
ATOM      1  C   UNL     1     143.165  12.228   1.977  1.00  0.00     0.012 C 
ENDROOT
BRANCH   1   2
ATOM      2  C   UNL     1     144.233  12.086   3.073  1.00  0.00     0.061 C 
BRANCH   2   3
ATOM      3  C   UNL     1     145.263  13.225   3.048  1.00  0.00     0.258 C 
BRANCH   3   4
ATOM      4  N   UNL     1     145.517  13.729   4.398  1.00  0.00    -0.358 N 
ATOM      5  H   UNL     1     145.586  14.772   4.366  1.00  0.00     0.344 HD
ATOM      6  H   UNL     1     146.419  13.341   4.761  1.00  0.00     0.344 HD
ATOM      7  H   UNL     1     144.733  13.460   5.035  1.00  0.00     0.344 HD
ENDBRANCH   3   4
ENDBRANCH   2   3
ENDBRANCH   1   2
BRANCH   1   8
ATOM      8  C   UNL     1     143.725  12.840   0.680  1.00  0.00     0.072 C 
BRANCH   8   9
ATOM      9  C   UNL     1     142.980  12.330  -0.574  1.00  0.00     0.227 C 
BRANCH   9  10
ATOM     10  N   UNL     1     143.118  10.873  -0.696  1.00  0.00    -0.350 N 
ATOM     11  H   UNL     1     142.979  10.410   0.232  1.00  0.00     0.345 HD
ATOM     12  H   UNL     1     142.409  10.506  -1.371  1.00  0.00     0.345 HD
ATOM     13  H   UNL     1     144.069  10.636  -1.062  1.00  0.00     0.345 HD
ENDBRANCH   9  10
BRANCH   9  14
ATOM     14  C   UNL     1     143.486  13.007  -1.821  1.00  0.00     0.099 C 
ATOM     15  O   UNL     1     144.723  13.155  -2.011  1.00  0.00    -0.544 OA
ATOM     16  O   UNL     1     142.587  13.483  -2.766  1.00  0.00    -0.544 OA
ENDBRANCH   9  14
ENDBRANCH   8   9
ENDBRANCH   1   8
TORSDOF 7
ENDMDL
MODEL 2
REMARK VINA RESULT:    -4.026      1.530      1.947
REMARK INTER + INTRA:          -5.534
REMARK INTER:                  -5.443
REMARK INTRA:                  -0.091
REMARK UNBOUND:                -0.097
REMARK SMILES [NH3+]CCCC[C@H]([NH3+])C(=O)[O-]
REMARK SMILES IDX 4 1 3 2 2 3 1 4 5 8 6 9 7 10 8 14 9 15 10 16
REMARK H PARENT 1 5 1 6 1 7 7 11 7 12 7 13
REMARK Flexibility Score: inf
ROOT
ATOM      1  C   UNL     1     142.937  11.851   0.524  1.00  0.00     0.012 C 
ENDROOT
BRANCH   1   2
ATOM      2  C   UNL     1     142.780  12.212   2.009  1.00  0.00     0.061 C 
BRANCH   2   3
ATOM      3  C   UNL     1     144.030  11.878   2.837  1.00  0.00     0.258 C 
BRANCH   3   4
ATOM      4  N   UNL     1     144.762  13.094   3.192  1.00  0.00    -0.358 N 
ATOM      5  H   UNL     1     144.153  13.925   3.010  1.00  0.00     0.344 HD
ATOM      6  H   UNL     1     145.627  13.174   2.609  1.00  0.00     0.344 HD
ATOM      7  H   UNL     1     145.018  13.076   4.205  1.00  0.00     0.344 HD
ENDBRANCH   3   4
ENDBRANCH   2   3
ENDBRANCH   1   2
BRANCH   1   8
ATOM      8  C   UNL     1     142.855  13.083  -0.397  1.00  0.00     0.072 C 
BRANCH   8   9
ATOM      9  C   UNL     1     143.395  12.788  -1.813  1.00  0.00     0.227 C 
BRANCH   9  10
ATOM     10  N   UNL     1     144.862  12.721  -1.800  1.00  0.00    -0.350 N 
ATOM     11  H   UNL     1     145.255  13.050  -2.713  1.00  0.00     0.345 HD
ATOM     12  H   UNL     1     145.237  13.321  -1.031  1.00  0.00     0.345 HD
ATOM     13  H   UNL     1     145.171  11.737  -1.626  1.00  0.00     0.345 HD
ENDBRANCH   9  10
BRANCH   9  14
ATOM     14  C   UNL     1     142.931  13.827  -2.800  1.00  0.00     0.099 C 
ATOM     15  O   UNL     1     141.891  14.503  -2.576  1.00  0.00    -0.544 OA
ATOM     16  O   UNL     1     143.645  14.038  -3.973  1.00  0.00    -0.544 OA
ENDBRANCH   9  14
ENDBRANCH   8   9
ENDBRANCH   1   8
TORSDOF 7
ENDMDL
MODEL 3
REMARK VINA RESULT:    -3.859      2.398      3.230
REMARK INTER + INTRA:          -5.309
REMARK INTER:                  -5.223
REMARK INTRA:                  -0.086
REMARK UNBOUND:                -0.097
REMARK SMILES [NH3+]CCCC[C@H]([NH3+])C(=O)[O-]
REMARK SMILES IDX 4 1 3 2 2 3 1 4 5 8 6 9 7 10 8 14 9 15 10 16
REMARK H PARENT 1 5 1 6 1 7 7 11 7 12 7 13
REMARK Flexibility Score: inf
ROOT
ATOM      1  C   UNL     1     143.110  12.848  -0.901  1.00  0.00     0.012 C 
ENDROOT
BRANCH   1   2
ATOM      2  C   UNL     1     143.153  11.733   0.155  1.00  0.00     0.061 C 
BRANCH   2   3
ATOM      3  C   UNL     1     142.749  12.224   1.554  1.00  0.00     0.258 C 
BRANCH   3   4
ATOM      4  N   UNL     1     143.925  12.620   2.328  1.00  0.00    -0.358 N 
ATOM      5  H   UNL     1     143.612  13.087   3.210  1.00  0.00     0.344 HD
ATOM      6  H   UNL     1     144.507  13.293   1.777  1.00  0.00     0.344 HD
ATOM      7  H   UNL     1     144.494  11.778   2.574  1.00  0.00     0.344 HD
ENDBRANCH   3   4
ENDBRANCH   2   3
ENDBRANCH   1   2
BRANCH   1   8
ATOM      8  C   UNL     1     144.356  12.857  -1.805  1.00  0.00     0.072 C 
BRANCH   8   9
ATOM      9  C   UNL     1     144.175  13.770  -3.037  1.00  0.00     0.227 C 
BRANCH   9  10
ATOM     10  N   UNL     1     143.014  13.343  -3.828  1.00  0.00    -0.350 N 
ATOM     11  H   UNL     1     142.972  12.299  -3.887  1.00  0.00     0.345 HD
ATOM     12  H   UNL     1     142.135  13.696  -3.386  1.00  0.00     0.345 HD
ATOM     13  H   UNL     1     143.077  13.741  -4.793  1.00  0.00     0.345 HD
ENDBRANCH   9  10
BRANCH   9  14
ATOM     14  C   UNL     1     145.414  13.779  -3.895  1.00  0.00     0.099 C 
ATOM     15  O   UNL     1     145.323  13.709  -5.149  1.00  0.00    -0.544 OA
ATOM     16  O   UNL     1     146.668  13.854  -3.302  1.00  0.00    -0.544 OA
ENDBRANCH   9  14
ENDBRANCH   8   9
ENDBRANCH   1   8
TORSDOF 7
ENDMDL
MODEL 4
REMARK VINA RESULT:    -3.756      2.569      3.588
REMARK INTER + INTRA:          -5.170
REMARK INTER:                  -5.094
REMARK INTRA:                  -0.077
REMARK UNBOUND:                -0.097
REMARK SMILES [NH3+]CCCC[C@H]([NH3+])C(=O)[O-]
REMARK SMILES IDX 4 1 3 2 2 3 1 4 5 8 6 9 7 10 8 14 9 15 10 16
REMARK H PARENT 1 5 1 6 1 7 7 11 7 12 7 13
REMARK Flexibility Score: inf
ROOT
ATOM      1  C   UNL     1     143.878  12.607  -1.520  1.00  0.00     0.012 C 
ENDROOT
BRANCH   1   2
ATOM      2  C   UNL     1     143.171  11.862  -0.376  1.00  0.00     0.061 C 
BRANCH   2   3
ATOM      3  C   UNL     1     143.295  12.590   0.971  1.00  0.00     0.258 C 
BRANCH   3   4
ATOM      4  N   UNL     1     142.360  12.037   1.951  1.00  0.00    -0.358 N 
ATOM      5  H   UNL     1     141.629  11.481   1.450  1.00  0.00     0.344 HD
ATOM      6  H   UNL     1     141.893  12.811   2.478  1.00  0.00     0.344 HD
ATOM      7  H   UNL     1     142.866  11.409   2.616  1.00  0.00     0.344 HD
ENDBRANCH   3   4
ENDBRANCH   2   3
ENDBRANCH   1   2
BRANCH   1   8
ATOM      8  C   UNL     1     142.926  13.528  -2.305  1.00  0.00     0.072 C 
BRANCH   8   9
ATOM      9  C   UNL     1     143.491  13.904  -3.692  1.00  0.00     0.227 C 
BRANCH   9  10
ATOM     10  N   UNL     1     144.944  13.696  -3.729  1.00  0.00    -0.350 N 
ATOM     11  H   UNL     1     145.263  13.169  -2.883  1.00  0.00     0.345 HD
ATOM     12  H   UNL     1     145.203  13.155  -4.585  1.00  0.00     0.345 HD
ATOM     13  H   UNL     1     145.435  14.619  -3.765  1.00  0.00     0.345 HD
ENDBRANCH   9  10
BRANCH   9  14
ATOM     14  C   UNL     1     143.161  15.331  -4.045  1.00  0.00     0.099 C 
ATOM     15  O   UNL     1     144.075  16.193  -4.142  1.00  0.00    -0.544 OA
ATOM     16  O   UNL     1     141.841  15.707  -4.257  1.00  0.00    -0.544 OA
ENDBRANCH   9  14
ENDBRANCH   8   9
ENDBRANCH   1   8
TORSDOF 7
ENDMDL
MODEL 5
REMARK VINA RESULT:    -3.663      8.641      9.938
REMARK INTER + INTRA:          -5.044
REMARK INTER:                  -4.556
REMARK INTRA:                  -0.488
REMARK UNBOUND:                -0.097
REMARK SMILES [NH3+]CCCC[C@H]([NH3+])C(=O)[O-]
REMARK SMILES IDX 4 1 3 2 2 3 1 4 5 8 6 9 7 10 8 14 9 15 10 16
REMARK H PARENT 1 5 1 6 1 7 7 11 7 12 7 13
REMARK Flexibility Score: inf
ROOT
ATOM      1  C   UNL     1     143.685  10.156  -9.050  1.00  0.00     0.012 C 
ENDROOT
BRANCH   1   2
ATOM      2  C   UNL     1     143.804  10.638  -7.596  1.00  0.00     0.061 C 
BRANCH   2   3
ATOM      3  C   UNL     1     142.855  11.804  -7.278  1.00  0.00     0.258 C 
BRANCH   3   4
ATOM      4  N   UNL     1     141.835  11.397  -6.310  1.00  0.00    -0.358 N 
ATOM      5  H   UNL     1     140.974  11.972  -6.459  1.00  0.00     0.344 HD
ATOM      6  H   UNL     1     142.183  11.555  -5.336  1.00  0.00     0.344 HD
ATOM      7  H   UNL     1     141.597  10.388  -6.443  1.00  0.00     0.344 HD
ENDBRANCH   3   4
ENDBRANCH   2   3
ENDBRANCH   1   2
BRANCH   1   8
ATOM      8  C   UNL     1     143.293   8.671  -9.152  1.00  0.00     0.072 C 
BRANCH   8   9
ATOM      9  C   UNL     1     142.084   8.325  -8.256  1.00  0.00     0.227 C 
BRANCH   9  10
ATOM     10  N   UNL     1     142.067   6.890  -7.946  1.00  0.00    -0.350 N 
ATOM     11  H   UNL     1     142.769   6.378  -8.530  1.00  0.00     0.345 HD
ATOM     12  H   UNL     1     142.293   6.743  -6.936  1.00  0.00     0.345 HD
ATOM     13  H   UNL     1     141.115   6.498  -8.128  1.00  0.00     0.345 HD
ENDBRANCH   9  10
BRANCH   9  14
ATOM     14  C   UNL     1     140.788   8.730  -8.910  1.00  0.00     0.099 C 
ATOM     15  O   UNL     1     140.253   9.837  -8.635  1.00  0.00    -0.544 OA
ATOM     16  O   UNL     1     140.169   7.876  -9.813  1.00  0.00    -0.544 OA
ENDBRANCH   9  14
ENDBRANCH   8   9
ENDBRANCH   1   8
TORSDOF 7
ENDMDL
MODEL 6
REMARK VINA RESULT:    -3.573      8.926      9.861
REMARK INTER + INTRA:          -4.923
REMARK INTER:                  -4.794
REMARK INTRA:                  -0.128
REMARK UNBOUND:                -0.097
REMARK SMILES [NH3+]CCCC[C@H]([NH3+])C(=O)[O-]
REMARK SMILES IDX 4 1 3 2 2 3 1 4 5 8 6 9 7 10 8 14 9 15 10 16
REMARK H PARENT 1 5 1 6 1 7 7 11 7 12 7 13
REMARK Flexibility Score: inf
ROOT
ATOM      1  C   UNL     1     145.178  11.867  -7.392  1.00  0.00     0.012 C 
ENDROOT
BRANCH   1   2
ATOM      2  C   UNL     1     146.615  12.348  -7.645  1.00  0.00     0.061 C 
BRANCH   2   3
ATOM      3  C   UNL     1     147.061  12.145  -9.101  1.00  0.00     0.258 C 
BRANCH   3   4
ATOM      4  N   UNL     1     148.116  13.092  -9.461  1.00  0.00    -0.358 N 
ATOM      5  H   UNL     1     147.852  13.577 -10.349  1.00  0.00     0.344 HD
ATOM      6  H   UNL     1     149.019  12.583  -9.609  1.00  0.00     0.344 HD
ATOM      7  H   UNL     1     148.231  13.805  -8.705  1.00  0.00     0.344 HD
ENDBRANCH   3   4
ENDBRANCH   2   3
ENDBRANCH   1   2
BRANCH   1   8
ATOM      8  C   UNL     1     144.446  11.477  -8.689  1.00  0.00     0.072 C 
BRANCH   8   9
ATOM      9  C   UNL     1     143.190  10.622  -8.415  1.00  0.00     0.227 C 
BRANCH   9  10
ATOM     10  N   UNL     1     143.061  10.342  -6.980  1.00  0.00    -0.350 N 
ATOM     11  H   UNL     1     143.588  11.050  -6.417  1.00  0.00     0.345 HD
ATOM     12  H   UNL     1     142.054  10.367  -6.703  1.00  0.00     0.345 HD
ATOM     13  H   UNL     1     143.433   9.387  -6.769  1.00  0.00     0.345 HD
ENDBRANCH   9  10
BRANCH   9  14
ATOM     14  C   UNL     1     143.228   9.333  -9.195  1.00  0.00     0.099 C 
ATOM     15  O   UNL     1     144.107   9.146 -10.078  1.00  0.00    -0.544 OA
ATOM     16  O   UNL     1     142.284   8.344  -8.949  1.00  0.00    -0.544 OA
ENDBRANCH   9  14
ENDBRANCH   8   9
ENDBRANCH   1   8
TORSDOF 7
ENDMDL
MODEL 7
REMARK VINA RESULT:    -3.564      7.953      8.794
REMARK INTER + INTRA:          -4.910
REMARK INTER:                  -4.815
REMARK INTRA:                  -0.096
REMARK UNBOUND:                -0.097
REMARK SMILES [NH3+]CCCC[C@H]([NH3+])C(=O)[O-]
REMARK SMILES IDX 4 1 3 2 2 3 1 4 5 8 6 9 7 10 8 14 9 15 10 16
REMARK H PARENT 1 5 1 6 1 7 7 11 7 12 7 13
REMARK Flexibility Score: inf
ROOT
ATOM      1  C   UNL     1     145.011  11.904  -7.085  1.00  0.00     0.012 C 
ENDROOT
BRANCH   1   2
ATOM      2  C   UNL     1     146.419  12.519  -7.072  1.00  0.00     0.061 C 
BRANCH   2   3
ATOM      3  C   UNL     1     146.612  13.533  -5.934  1.00  0.00     0.258 C 
BRANCH   3   4
ATOM      4  N   UNL     1     145.521  13.443  -4.963  1.00  0.00    -0.358 N 
ATOM      5  H   UNL     1     144.712  14.012  -5.304  1.00  0.00     0.344 HD
ATOM      6  H   UNL     1     145.833  13.819  -4.037  1.00  0.00     0.344 HD
ATOM      7  H   UNL     1     145.216  12.449  -4.858  1.00  0.00     0.344 HD
ENDBRANCH   3   4
ENDBRANCH   2   3
ENDBRANCH   1   2
BRANCH   1   8
ATOM      8  C   UNL     1     144.614  11.361  -8.470  1.00  0.00     0.072 C 
BRANCH   8   9
ATOM      9  C   UNL     1     143.343  10.487  -8.411  1.00  0.00     0.227 C 
BRANCH   9  10
ATOM     10  N   UNL     1     142.994  10.179  -7.018  1.00  0.00    -0.350 N 
ATOM     11  H   UNL     1     143.858  10.016  -6.449  1.00  0.00     0.345 HD
ATOM     12  H   UNL     1     142.457  10.974  -6.603  1.00  0.00     0.345 HD
ATOM     13  H   UNL     1     142.392   9.324  -6.983  1.00  0.00     0.345 HD
ENDBRANCH   9  10
BRANCH   9  14
ATOM     14  C   UNL     1     143.520   9.213  -9.196  1.00  0.00     0.099 C 
ATOM     15  O   UNL     1     144.372   9.146 -10.122  1.00  0.00    -0.544 OA
ATOM     16  O   UNL     1     142.735   8.104  -8.907  1.00  0.00    -0.544 OA
ENDBRANCH   9  14
ENDBRANCH   8   9
ENDBRANCH   1   8
TORSDOF 7
ENDMDL
MODEL 8
REMARK VINA RESULT:    -3.532      8.845      9.956
REMARK INTER + INTRA:          -4.868
REMARK INTER:                  -4.311
REMARK INTRA:                  -0.557
REMARK UNBOUND:                -0.097
REMARK SMILES [NH3+]CCCC[C@H]([NH3+])C(=O)[O-]
REMARK SMILES IDX 4 1 3 2 2 3 1 4 5 8 6 9 7 10 8 14 9 15 10 16
REMARK H PARENT 1 5 1 6 1 7 7 11 7 12 7 13
REMARK Flexibility Score: inf
ROOT
ATOM      1  C   UNL     1     143.659  10.321  -8.434  1.00  0.00     0.012 C 
ENDROOT
BRANCH   1   2
ATOM      2  C   UNL     1     143.595   8.956  -9.138  1.00  0.00     0.061 C 
BRANCH   2   3
ATOM      3  C   UNL     1     143.266   7.806  -8.174  1.00  0.00     0.258 C 
BRANCH   3   4
ATOM      4  N   UNL     1     141.841   7.478  -8.219  1.00  0.00    -0.358 N 
ATOM      5  H   UNL     1     141.581   6.960  -7.348  1.00  0.00     0.344 HD
ATOM      6  H   UNL     1     141.638   6.872  -9.047  1.00  0.00     0.344 HD
ATOM      7  H   UNL     1     141.273   8.354  -8.273  1.00  0.00     0.344 HD
ENDBRANCH   3   4
ENDBRANCH   2   3
ENDBRANCH   1   2
BRANCH   1   8
ATOM      8  C   UNL     1     142.506  11.254  -8.845  1.00  0.00     0.072 C 
BRANCH   8   9
ATOM      9  C   UNL     1     141.527  11.519  -7.681  1.00  0.00     0.227 C 
BRANCH   9  10
ATOM     10  N   UNL     1     142.182  11.264  -6.391  1.00  0.00    -0.350 N 
ATOM     11  H   UNL     1     143.100  10.782  -6.532  1.00  0.00     0.345 HD
ATOM     12  H   UNL     1     142.343  12.168  -5.891  1.00  0.00     0.345 HD
ATOM     13  H   UNL     1     141.566  10.665  -5.793  1.00  0.00     0.345 HD
ENDBRANCH   9  10
BRANCH   9  14
ATOM     14  C   UNL     1     140.286  10.675  -7.810  1.00  0.00     0.099 C 
ATOM     15  O   UNL     1     139.398  10.703  -6.916  1.00  0.00    -0.544 OA
ATOM     16  O   UNL     1     140.118   9.851  -8.915  1.00  0.00    -0.544 OA
ENDBRANCH   9  14
ENDBRANCH   8   9
ENDBRANCH   1   8
TORSDOF 7
ENDMDL
MODEL 9
REMARK VINA RESULT:    -3.382      9.250     10.375
REMARK INTER + INTRA:          -4.665
REMARK INTER:                  -4.138
REMARK INTRA:                  -0.527
REMARK UNBOUND:                -0.097
REMARK SMILES [NH3+]CCCC[C@H]([NH3+])C(=O)[O-]
REMARK SMILES IDX 4 1 3 2 2 3 1 4 5 8 6 9 7 10 8 14 9 15 10 16
REMARK H PARENT 1 5 1 6 1 7 7 11 7 12 7 13
REMARK Flexibility Score: inf
ROOT
ATOM      1  C   UNL     1     141.095  11.024  -9.127  1.00  0.00     0.012 C 
ENDROOT
BRANCH   1   2
ATOM      2  C   UNL     1     140.291   9.943  -8.388  1.00  0.00     0.061 C 
BRANCH   2   3
ATOM      3  C   UNL     1     140.392   8.565  -9.059  1.00  0.00     0.258 C 
BRANCH   3   4
ATOM      4  N   UNL     1     141.343   7.708  -8.350  1.00  0.00    -0.358 N 
ATOM      5  H   UNL     1     141.694   6.972  -9.004  1.00  0.00     0.344 HD
ATOM      6  H   UNL     1     140.872   7.244  -7.539  1.00  0.00     0.344 HD
ATOM      7  H   UNL     1     142.154   8.275  -8.012  1.00  0.00     0.344 HD
ENDBRANCH   3   4
ENDBRANCH   2   3
ENDBRANCH   1   2
BRANCH   1   8
ATOM      8  C   UNL     1     142.206  11.637  -8.254  1.00  0.00     0.072 C 
BRANCH   8   9
ATOM      9  C   UNL     1     143.369  10.650  -8.013  1.00  0.00     0.227 C 
BRANCH   9  10
ATOM     10  N   UNL     1     144.367  11.241  -7.113  1.00  0.00    -0.350 N 
ATOM     11  H   UNL     1     145.270  10.714  -7.166  1.00  0.00     0.345 HD
ATOM     12  H   UNL     1     144.537  12.237  -7.379  1.00  0.00     0.345 HD
ATOM     13  H   UNL     1     144.013  11.222  -6.129  1.00  0.00     0.345 HD
ENDBRANCH   9  10
BRANCH   9  14
ATOM     14  C   UNL     1     144.016  10.243  -9.312  1.00  0.00     0.099 C 
ATOM     15  O   UNL     1     144.742  11.054  -9.946  1.00  0.00    -0.544 OA
ATOM     16  O   UNL     1     143.806   8.969  -9.823  1.00  0.00    -0.544 OA
ENDBRANCH   9  14
ENDBRANCH   8   9
ENDBRANCH   1   8
TORSDOF 7
ENDMDL
