MODEL 1
REMARK VINA RESULT:    -3.041      0.000      0.000
REMARK INTER + INTRA:          -4.334
REMARK INTER:                  -4.197
REMARK INTRA:                  -0.137
REMARK UNBOUND:                -0.137
REMARK SMILES CCCCCCCCO
REMARK SMILES IDX 5 1 4 2 3 3 2 4 1 5 6 6 7 7 8 8 9 9
REMARK H PARENT 9 10
REMARK Flexibility Score: inf
ROOT
ATOM      1  C   UNL     1     171.296 161.434 171.981  1.00  0.00     0.000 C 
ENDROOT
BRANCH   1   2
ATOM      2  C   UNL     1     170.122 162.382 171.682  1.00  0.00    -0.000 C 
BRANCH   2   3
ATOM      3  C   UNL     1     169.841 162.518 170.177  1.00  0.00    -0.000 C 
BRANCH   3   4
ATOM      4  C   UNL     1     169.220 163.874 169.814  1.00  0.00    -0.003 C 
ATOM      5  C   UNL     1     168.395 163.775 168.534  1.00  0.00     0.004 C 
ENDBRANCH   3   4
ENDBRANCH   2   3
ENDBRANCH   1   2
BRANCH   1   6
ATOM      6  C   UNL     1     172.583 162.187 172.354  1.00  0.00     0.002 C 
BRANCH   6   7
ATOM      7  C   UNL     1     173.750 161.241 172.672  1.00  0.00     0.028 C 
BRANCH   7   8
ATOM      8  C   UNL     1     174.878 161.395 171.647  1.00  0.00     0.156 C 
BRANCH   8   9
ATOM      9  O   UNL     1     174.744 162.607 170.956  1.00  0.00    -0.396 OA
ATOM     10  H   UNL     1     173.877 163.001 171.239  1.00  0.00     0.210 HD
ENDBRANCH   8   9
ENDBRANCH   7   8
ENDBRANCH   6   7
ENDBRANCH   1   6
TORSDOF 7
ENDMDL
MODEL 2
REMARK VINA RESULT:    -3.033      9.030      9.692
REMARK INTER + INTRA:          -4.322
REMARK INTER:                  -4.055
REMARK INTRA:                  -0.267
REMARK UNBOUND:                -0.137
REMARK SMILES CCCCCCCCO
REMARK SMILES IDX 5 1 4 2 3 3 2 4 1 5 6 6 7 7 8 8 9 9
REMARK H PARENT 9 10
REMARK Flexibility Score: inf
ROOT
ATOM      1  C   UNL     1     174.092 170.558 172.129  1.00  0.00     0.000 C 
ENDROOT
BRANCH   1   2
ATOM      2  C   UNL     1     172.646 170.219 172.531  1.00  0.00    -0.000 C 
BRANCH   2   3
ATOM      3  C   UNL     1     171.985 169.218 171.569  1.00  0.00    -0.000 C 
BRANCH   3   4
ATOM      4  C   UNL     1     172.339 169.490 170.100  1.00  0.00    -0.003 C 
ATOM      5  C   UNL     1     171.374 168.773 169.161  1.00  0.00     0.004 C 
ENDBRANCH   3   4
ENDBRANCH   2   3
ENDBRANCH   1   2
BRANCH   1   6
ATOM      6  C   UNL     1     174.471 172.011 172.460  1.00  0.00     0.002 C 
BRANCH   6   7
ATOM      7  C   UNL     1     173.244 172.921 172.612  1.00  0.00     0.028 C 
BRANCH   7   8
ATOM      8  C   UNL     1     173.572 174.360 172.201  1.00  0.00     0.156 C 
BRANCH   8   9
ATOM      9  O   UNL     1     172.740 174.766 171.149  1.00  0.00    -0.396 OA
ATOM     10  H   UNL     1     172.737 174.025 170.486  1.00  0.00     0.210 HD
ENDBRANCH   8   9
ENDBRANCH   7   8
ENDBRANCH   6   7
ENDBRANCH   1   6
TORSDOF 7
ENDMDL
MODEL 3
REMARK VINA RESULT:    -2.992      7.606      8.889
REMARK INTER + INTRA:          -4.266
REMARK INTER:                  -3.779
REMARK INTRA:                  -0.487
REMARK UNBOUND:                -0.137
REMARK SMILES CCCCCCCCO
REMARK SMILES IDX 5 1 4 2 3 3 2 4 1 5 6 6 7 7 8 8 9 9
REMARK H PARENT 9 10
REMARK Flexibility Score: inf
ROOT
ATOM      1  C   UNL     1     169.029 167.908 168.805  1.00  0.00     0.000 C 
ENDROOT
BRANCH   1   2
ATOM      2  C   UNL     1     167.910 167.320 167.929  1.00  0.00    -0.000 C 
BRANCH   2   3
ATOM      3  C   UNL     1     167.002 166.350 168.703  1.00  0.00    -0.000 C 
BRANCH   3   4
ATOM      4  C   UNL     1     165.765 167.043 169.291  1.00  0.00    -0.003 C 
ATOM      5  C   UNL     1     165.006 167.815 168.216  1.00  0.00     0.004 C 
ENDBRANCH   3   4
ENDBRANCH   2   3
ENDBRANCH   1   2
BRANCH   1   6
ATOM      6  C   UNL     1     168.713 169.334 169.288  1.00  0.00     0.002 C 
BRANCH   6   7
ATOM      7  C   UNL     1     168.107 170.210 168.183  1.00  0.00     0.028 C 
BRANCH   7   8
ATOM      8  C   UNL     1     166.976 171.084 168.731  1.00  0.00     0.156 C 
BRANCH   8   9
ATOM      9  O   UNL     1     166.998 172.346 168.122  1.00  0.00    -0.396 OA
ATOM     10  H   UNL     1     167.005 172.188 167.141  1.00  0.00     0.210 HD
ENDBRANCH   8   9
ENDBRANCH   7   8
ENDBRANCH   6   7
ENDBRANCH   1   6
TORSDOF 7
ENDMDL
MODEL 4
REMARK VINA RESULT:    -2.981      8.424      9.746
REMARK INTER + INTRA:          -4.250
REMARK INTER:                  -3.804
REMARK INTRA:                  -0.446
REMARK UNBOUND:                -0.137
REMARK SMILES CCCCCCCCO
REMARK SMILES IDX 5 1 4 2 3 3 2 4 1 5 6 6 7 7 8 8 9 9
REMARK H PARENT 9 10
REMARK Flexibility Score: inf
ROOT
ATOM      1  C   UNL     1     166.660 167.886 170.265  1.00  0.00     0.000 C 
ENDROOT
BRANCH   1   2
ATOM      2  C   UNL     1     167.516 169.163 170.319  1.00  0.00    -0.000 C 
BRANCH   2   3
ATOM      3  C   UNL     1     166.713 170.394 170.773  1.00  0.00    -0.000 C 
BRANCH   3   4
ATOM      4  C   UNL     1     166.353 171.325 169.607  1.00  0.00    -0.003 C 
ATOM      5  C   UNL     1     167.286 171.106 168.420  1.00  0.00     0.004 C 
ENDBRANCH   3   4
ENDBRANCH   2   3
ENDBRANCH   1   2
BRANCH   1   6
ATOM      6  C   UNL     1     166.459 167.369 168.831  1.00  0.00     0.002 C 
BRANCH   6   7
ATOM      7  C   UNL     1     165.126 167.824 168.221  1.00  0.00     0.028 C 
BRANCH   7   8
ATOM      8  C   UNL     1     163.962 166.982 168.752  1.00  0.00     0.156 C 
BRANCH   8   9
ATOM      9  O   UNL     1     162.871 167.054 167.876  1.00  0.00    -0.396 OA
ATOM     10  H   UNL     1     162.666 168.019 167.755  1.00  0.00     0.210 HD
ENDBRANCH   8   9
ENDBRANCH   7   8
ENDBRANCH   6   7
ENDBRANCH   1   6
TORSDOF 7
ENDMDL
MODEL 5
REMARK VINA RESULT:    -2.963      7.161      9.031
REMARK INTER + INTRA:          -4.225
REMARK INTER:                  -3.913
REMARK INTRA:                  -0.313
REMARK UNBOUND:                -0.137
REMARK SMILES CCCCCCCCO
REMARK SMILES IDX 5 1 4 2 3 3 2 4 1 5 6 6 7 7 8 8 9 9
REMARK H PARENT 9 10
REMARK Flexibility Score: inf
ROOT
ATOM      1  C   UNL     1     167.601 169.252 168.909  1.00  0.00     0.000 C 
ENDROOT
BRANCH   1   2
ATOM      2  C   UNL     1     168.693 168.373 169.542  1.00  0.00    -0.000 C 
BRANCH   2   3
ATOM      3  C   UNL     1     168.790 166.987 168.884  1.00  0.00    -0.000 C 
BRANCH   3   4
ATOM      4  C   UNL     1     170.035 166.841 167.998  1.00  0.00    -0.003 C 
ATOM      5  C   UNL     1     171.071 167.912 168.324  1.00  0.00     0.004 C 
ENDBRANCH   3   4
ENDBRANCH   2   3
ENDBRANCH   1   2
BRANCH   1   6
ATOM      6  C   UNL     1     166.732 168.482 167.901  1.00  0.00     0.002 C 
BRANCH   6   7
ATOM      7  C   UNL     1     165.234 168.568 168.226  1.00  0.00     0.028 C 
BRANCH   7   8
ATOM      8  C   UNL     1     164.641 167.176 168.463  1.00  0.00     0.156 C 
BRANCH   8   9
ATOM      9  O   UNL     1     163.338 167.111 167.951  1.00  0.00    -0.396 OA
ATOM     10  H   UNL     1     163.130 168.011 167.586  1.00  0.00     0.210 HD
ENDBRANCH   8   9
ENDBRANCH   7   8
ENDBRANCH   6   7
ENDBRANCH   1   6
TORSDOF 7
ENDMDL
MODEL 6
REMARK VINA RESULT:    -2.960      7.711      9.431
REMARK INTER + INTRA:          -4.222
REMARK INTER:                  -4.006
REMARK INTRA:                  -0.216
REMARK UNBOUND:                -0.137
REMARK SMILES CCCCCCCCO
REMARK SMILES IDX 5 1 4 2 3 3 2 4 1 5 6 6 7 7 8 8 9 9
REMARK H PARENT 9 10
REMARK Flexibility Score: inf
ROOT
ATOM      1  C   UNL     1     169.154 169.282 169.048  1.00  0.00     0.000 C 
ENDROOT
BRANCH   1   2
ATOM      2  C   UNL     1     170.275 168.454 169.699  1.00  0.00    -0.000 C 
BRANCH   2   3
ATOM      3  C   UNL     1     171.660 168.771 169.111  1.00  0.00    -0.000 C 
BRANCH   3   4
ATOM      4  C   UNL     1     172.534 169.591 170.071  1.00  0.00    -0.003 C 
ATOM      5  C   UNL     1     172.147 169.331 171.523  1.00  0.00     0.004 C 
ENDBRANCH   3   4
ENDBRANCH   2   3
ENDBRANCH   1   2
BRANCH   1   6
ATOM      6  C   UNL     1     167.840 169.224 169.844  1.00  0.00     0.002 C 
BRANCH   6   7
ATOM      7  C   UNL     1     166.842 170.310 169.415  1.00  0.00     0.028 C 
BRANCH   7   8
ATOM      8  C   UNL     1     167.301 171.002 168.128  1.00  0.00     0.156 C 
BRANCH   8   9
ATOM      9  O   UNL     1     167.020 172.374 168.189  1.00  0.00    -0.396 OA
ATOM     10  H   UNL     1     166.155 172.466 168.668  1.00  0.00     0.210 HD
ENDBRANCH   8   9
ENDBRANCH   7   8
ENDBRANCH   6   7
ENDBRANCH   1   6
TORSDOF 7
ENDMDL
MODEL 7
REMARK VINA RESULT:    -2.920      7.172      9.093
REMARK INTER + INTRA:          -4.166
REMARK INTER:                  -3.655
REMARK INTRA:                  -0.511
REMARK UNBOUND:                -0.137
REMARK SMILES CCCCCCCCO
REMARK SMILES IDX 5 1 4 2 3 3 2 4 1 5 6 6 7 7 8 8 9 9
REMARK H PARENT 9 10
REMARK Flexibility Score: inf
ROOT
ATOM      1  C   UNL     1     166.342 167.455 168.737  1.00  0.00     0.000 C 
ENDROOT
BRANCH   1   2
ATOM      2  C   UNL     1     167.524 166.977 167.875  1.00  0.00    -0.000 C 
BRANCH   2   3
ATOM      3  C   UNL     1     168.773 166.656 168.712  1.00  0.00    -0.000 C 
BRANCH   3   4
ATOM      4  C   UNL     1     169.703 167.867 168.870  1.00  0.00    -0.003 C 
ATOM      5  C   UNL     1     169.639 168.427 170.287  1.00  0.00     0.004 C 
ENDBRANCH   3   4
ENDBRANCH   2   3
ENDBRANCH   1   2
BRANCH   1   6
ATOM      6  C   UNL     1     165.816 168.834 168.306  1.00  0.00     0.002 C 
BRANCH   6   7
ATOM      7  C   UNL     1     166.433 169.981 169.119  1.00  0.00     0.028 C 
BRANCH   7   8
ATOM      8  C   UNL     1     167.356 170.839 168.249  1.00  0.00     0.156 C 
BRANCH   8   9
ATOM      9  O   UNL     1     166.890 172.160 168.203  1.00  0.00    -0.396 OA
ATOM     10  H   UNL     1     167.652 172.719 167.896  1.00  0.00     0.210 HD
ENDBRANCH   8   9
ENDBRANCH   7   8
ENDBRANCH   6   7
ENDBRANCH   1   6
TORSDOF 7
ENDMDL
MODEL 8
REMARK VINA RESULT:    -2.916      6.673      8.460
REMARK INTER + INTRA:          -4.161
REMARK INTER:                  -3.845
REMARK INTRA:                  -0.316
REMARK UNBOUND:                -0.137
REMARK SMILES CCCCCCCCO
REMARK SMILES IDX 5 1 4 2 3 3 2 4 1 5 6 6 7 7 8 8 9 9
REMARK H PARENT 9 10
REMARK Flexibility Score: inf
ROOT
ATOM      1  C   UNL     1     167.421 166.340 169.364  1.00  0.00     0.000 C 
ENDROOT
BRANCH   1   2
ATOM      2  C   UNL     1     168.944 166.120 169.349  1.00  0.00    -0.000 C 
BRANCH   2   3
ATOM      3  C   UNL     1     169.599 166.620 168.051  1.00  0.00    -0.000 C 
BRANCH   3   4
ATOM      4  C   UNL     1     170.688 167.671 168.308  1.00  0.00    -0.003 C 
ATOM      5  C   UNL     1     170.158 168.811 169.172  1.00  0.00     0.004 C 
ENDBRANCH   3   4
ENDBRANCH   2   3
ENDBRANCH   1   2
BRANCH   1   6
ATOM      6  C   UNL     1     166.831 166.484 167.951  1.00  0.00     0.002 C 
BRANCH   6   7
ATOM      7  C   UNL     1     165.731 167.552 167.877  1.00  0.00     0.028 C 
BRANCH   7   8
ATOM      8  C   UNL     1     164.494 167.125 168.672  1.00  0.00     0.156 C 
BRANCH   8   9
ATOM      9  O   UNL     1     163.345 167.230 167.876  1.00  0.00    -0.396 OA
ATOM     10  H   UNL     1     162.601 166.830 168.398  1.00  0.00     0.210 HD
ENDBRANCH   8   9
ENDBRANCH   7   8
ENDBRANCH   6   7
ENDBRANCH   1   6
TORSDOF 7
ENDMDL
MODEL 9
REMARK VINA RESULT:    -2.848      6.625      8.700
REMARK INTER + INTRA:          -4.067
REMARK INTER:                  -3.651
REMARK INTRA:                  -0.416
REMARK UNBOUND:                -0.137
REMARK SMILES CCCCCCCCO
REMARK SMILES IDX 5 1 4 2 3 3 2 4 1 5 6 6 7 7 8 8 9 9
REMARK H PARENT 9 10
REMARK Flexibility Score: inf
ROOT
ATOM      1  C   UNL     1     164.867 167.514 168.450  1.00  0.00     0.000 C 
ENDROOT
BRANCH   1   2
ATOM      2  C   UNL     1     165.769 166.564 169.257  1.00  0.00    -0.000 C 
BRANCH   2   3
ATOM      3  C   UNL     1     166.459 165.512 168.374  1.00  0.00    -0.000 C 
BRANCH   3   4
ATOM      4  C   UNL     1     167.932 165.301 168.750  1.00  0.00    -0.003 C 
ATOM      5  C   UNL     1     168.849 166.159 167.883  1.00  0.00     0.004 C 
ENDBRANCH   3   4
ENDBRANCH   2   3
ENDBRANCH   1   2
BRANCH   1   6
ATOM      6  C   UNL     1     165.638 168.713 167.875  1.00  0.00     0.002 C 
BRANCH   6   7
ATOM      7  C   UNL     1     166.464 169.449 168.940  1.00  0.00     0.028 C 
BRANCH   7   8
ATOM      8  C   UNL     1     167.784 169.960 168.356  1.00  0.00     0.156 C 
BRANCH   8   9
ATOM      9  O   UNL     1     167.719 171.344 168.146  1.00  0.00    -0.396 OA
ATOM     10  H   UNL     1     166.979 171.500 167.502  1.00  0.00     0.210 HD
ENDBRANCH   8   9
ENDBRANCH   7   8
ENDBRANCH   6   7
ENDBRANCH   1   6
TORSDOF 7
ENDMDL
