MODEL 1
REMARK VINA RESULT:    -4.419      0.000      0.000
REMARK INTER + INTRA:          -8.474
REMARK INTER:                  -7.777
REMARK INTRA:                  -0.697
REMARK UNBOUND:                -0.697
REMARK SMILES CCCCCCCCCCCCCCC(=O)[O-]
REMARK SMILES IDX 9 1 10 2 11 3 12 4 13 5 14 6 15 7 16 8 17 9 8 10 7 11 6 12
REMARK SMILES IDX 5 13 4 14 3 15 2 16 1 17
REMARK H PARENT
REMARK Flexibility Score: inf
ROOT
ATOM      1  C   UNL     1       0.681  -1.211  57.273  1.00  0.00     0.000 C 
ENDROOT
BRANCH   1   2
ATOM      2  C   UNL     1      -0.204   0.006  56.983  1.00  0.00     0.000 C 
BRANCH   2   3
ATOM      3  C   UNL     1      -1.679  -0.399  56.868  1.00  0.00     0.000 C 
BRANCH   3   4
ATOM      4  C   UNL     1      -1.940  -1.733  57.583  1.00  0.00     0.000 C 
BRANCH   4   5
ATOM      5  C   UNL     1      -2.585  -1.550  58.970  1.00  0.00     0.006 C 
BRANCH   5   6
ATOM      6  C   UNL     1      -2.075  -2.530  60.039  1.00  0.00     0.053 C 
BRANCH   6   7
ATOM      7  C   UNL     1      -3.024  -2.650  61.191  1.00  0.00     0.041 C 
ATOM      8  O   UNL     1      -2.921  -3.609  62.000  1.00  0.00    -0.550 OA
ATOM      9  O   UNL     1      -3.999  -1.682  61.393  1.00  0.00    -0.550 OA
ENDBRANCH   6   7
ENDBRANCH   5   6
ENDBRANCH   4   5
ENDBRANCH   3   4
ENDBRANCH   2   3
ENDBRANCH   1   2
BRANCH   1  10
ATOM     10  C   UNL     1       2.036  -0.779  57.854  1.00  0.00     0.000 C 
BRANCH  10  11
ATOM     11  C   UNL     1       2.348   0.703  57.589  1.00  0.00    -0.000 C 
BRANCH  11  12
ATOM     12  C   UNL     1       3.848   0.960  57.361  1.00  0.00    -0.000 C 
BRANCH  12  13
ATOM     13  C   UNL     1       4.127   2.371  56.820  1.00  0.00    -0.000 C 
BRANCH  13  14
ATOM     14  C   UNL     1       5.624   2.728  56.840  1.00  0.00    -0.000 C 
BRANCH  14  15
ATOM     15  C   UNL     1       6.379   2.007  57.976  1.00  0.00    -0.000 C 
BRANCH  15  16
ATOM     16  C   UNL     1       7.667   2.726  58.412  1.00  0.00    -0.003 C 
ATOM     17  C   UNL     1       8.859   2.423  57.504  1.00  0.00     0.004 C 
ENDBRANCH  15  16
ENDBRANCH  14  15
ENDBRANCH  13  14
ENDBRANCH  12  13
ENDBRANCH  11  12
ENDBRANCH  10  11
ENDBRANCH   1  10
TORSDOF 13
ENDMDL
MODEL 2
REMARK VINA RESULT:    -4.222      4.680      9.387
REMARK INTER + INTRA:          -8.128
REMARK INTER:                  -7.499
REMARK INTRA:                  -0.630
REMARK UNBOUND:                -0.697
REMARK SMILES CCCCCCCCCCCCCCC(=O)[O-]
REMARK SMILES IDX 9 1 10 2 11 3 12 4 13 5 14 6 15 7 16 8 17 9 8 10 7 11 6 12
REMARK SMILES IDX 5 13 4 14 3 15 2 16 1 17
REMARK H PARENT
REMARK Flexibility Score: inf
ROOT
ATOM      1  C   UNL     1       2.163  -0.710  57.753  1.00  0.00     0.000 C 
ENDROOT
BRANCH   1   2
ATOM      2  C   UNL     1       3.382   0.199  57.559  1.00  0.00     0.000 C 
BRANCH   2   3
ATOM      3  C   UNL     1       2.953   1.636  57.240  1.00  0.00     0.000 C 
BRANCH   3   4
ATOM      4  C   UNL     1       4.138   2.459  56.711  1.00  0.00     0.000 C 
BRANCH   4   5
ATOM      5  C   UNL     1       5.494   1.970  57.253  1.00  0.00     0.006 C 
BRANCH   5   6
ATOM      6  C   UNL     1       6.626   3.004  57.152  1.00  0.00     0.053 C 
BRANCH   6   7
ATOM      7  C   UNL     1       7.834   2.594  57.938  1.00  0.00     0.041 C 
ATOM      8  O   UNL     1       7.860   2.752  59.187  1.00  0.00    -0.550 OA
ATOM      9  O   UNL     1       8.915   2.006  57.296  1.00  0.00    -0.550 OA
ENDBRANCH   6   7
ENDBRANCH   5   6
ENDBRANCH   4   5
ENDBRANCH   3   4
ENDBRANCH   2   3
ENDBRANCH   1   2
BRANCH   1  10
ATOM     10  C   UNL     1       0.856   0.066  57.522  1.00  0.00     0.000 C 
BRANCH  10  11
ATOM     11  C   UNL     1      -0.291  -0.838  57.045  1.00  0.00    -0.000 C 
BRANCH  11  12
ATOM     12  C   UNL     1      -0.822  -1.756  58.160  1.00  0.00    -0.000 C 
BRANCH  12  13
ATOM     13  C   UNL     1      -2.076  -1.187  58.842  1.00  0.00    -0.000 C 
BRANCH  13  14
ATOM     14  C   UNL     1      -3.306  -2.096  58.672  1.00  0.00    -0.000 C 
BRANCH  14  15
ATOM     15  C   UNL     1      -4.022  -2.364  60.013  1.00  0.00    -0.000 C 
BRANCH  15  16
ATOM     16  C   UNL     1      -3.059  -2.551  61.198  1.00  0.00    -0.003 C 
ATOM     17  C   UNL     1      -3.118  -3.953  61.803  1.00  0.00     0.004 C 
ENDBRANCH  15  16
ENDBRANCH  14  15
ENDBRANCH  13  14
ENDBRANCH  12  13
ENDBRANCH  11  12
ENDBRANCH  10  11
ENDBRANCH   1  10
TORSDOF 13
ENDMDL
MODEL 3
REMARK VINA RESULT:    -4.069      9.995     14.817
REMARK INTER + INTRA:          -7.859
REMARK INTER:                  -5.842
REMARK INTRA:                  -2.017
REMARK UNBOUND:                -0.697
REMARK SMILES CCCCCCCCCCCCCCC(=O)[O-]
REMARK SMILES IDX 9 1 10 2 11 3 12 4 13 5 14 6 15 7 16 8 17 9 8 10 7 11 6 12
REMARK SMILES IDX 5 13 4 14 3 15 2 16 1 17
REMARK H PARENT
REMARK Flexibility Score: inf
ROOT
ATOM      1  C   UNL     1      -6.002 -10.080  65.553  1.00  0.00     0.000 C 
ENDROOT
BRANCH   1   2
ATOM      2  C   UNL     1      -6.692  -8.725  65.367  1.00  0.00     0.000 C 
BRANCH   2   3
ATOM      3  C   UNL     1      -5.686  -7.646  64.946  1.00  0.00     0.000 C 
BRANCH   3   4
ATOM      4  C   UNL     1      -4.863  -7.163  66.149  1.00  0.00     0.000 C 
BRANCH   4   5
ATOM      5  C   UNL     1      -3.346  -7.203  65.890  1.00  0.00     0.006 C 
BRANCH   5   6
ATOM      6  C   UNL     1      -2.950  -7.013  64.417  1.00  0.00     0.053 C 
BRANCH   6   7
ATOM      7  C   UNL     1      -2.581  -5.594  64.112  1.00  0.00     0.041 C 
ATOM      8  O   UNL     1      -1.821  -4.957  64.887  1.00  0.00    -0.550 OA
ATOM      9  O   UNL     1      -3.046  -4.988  62.953  1.00  0.00    -0.550 OA
ENDBRANCH   6   7
ENDBRANCH   5   6
ENDBRANCH   4   5
ENDBRANCH   3   4
ENDBRANCH   2   3
ENDBRANCH   1   2
BRANCH   1  10
ATOM     10  C   UNL     1      -5.027 -10.364  64.399  1.00  0.00     0.000 C 
BRANCH  10  11
ATOM     11  C   UNL     1      -3.648 -10.830  64.892  1.00  0.00    -0.000 C 
BRANCH  11  12
ATOM     12  C   UNL     1      -3.600 -11.020  66.419  1.00  0.00    -0.000 C 
BRANCH  12  13
ATOM     13  C   UNL     1      -3.268 -12.466  66.820  1.00  0.00    -0.000 C 
BRANCH  13  14
ATOM     14  C   UNL     1      -4.492 -13.397  66.748  1.00  0.00    -0.000 C 
BRANCH  14  15
ATOM     15  C   UNL     1      -4.390 -14.403  65.583  1.00  0.00    -0.000 C 
BRANCH  15  16
ATOM     16  C   UNL     1      -5.396 -14.136  64.449  1.00  0.00    -0.003 C 
ATOM     17  C   UNL     1      -4.732 -13.996  63.080  1.00  0.00     0.004 C 
ENDBRANCH  15  16
ENDBRANCH  14  15
ENDBRANCH  13  14
ENDBRANCH  12  13
ENDBRANCH  11  12
ENDBRANCH  10  11
ENDBRANCH   1  10
TORSDOF 13
ENDMDL
MODEL 4
REMARK VINA RESULT:    -4.054     11.466     15.476
REMARK INTER + INTRA:          -7.832
REMARK INTER:                  -5.895
REMARK INTRA:                  -1.937
REMARK UNBOUND:                -0.697
REMARK SMILES CCCCCCCCCCCCCCC(=O)[O-]
REMARK SMILES IDX 9 1 10 2 11 3 12 4 13 5 14 6 15 7 16 8 17 9 8 10 7 11 6 12
REMARK SMILES IDX 5 13 4 14 3 15 2 16 1 17
REMARK H PARENT
REMARK Flexibility Score: inf
ROOT
ATOM      1  C   UNL     1      -3.563 -10.932  65.240  1.00  0.00     0.000 C 
ENDROOT
BRANCH   1   2
ATOM      2  C   UNL     1      -4.823 -10.582  64.442  1.00  0.00     0.000 C 
BRANCH   2   3
ATOM      3  C   UNL     1      -5.860  -9.879  65.327  1.00  0.00     0.000 C 
BRANCH   3   4
ATOM      4  C   UNL     1      -6.386  -8.604  64.652  1.00  0.00     0.000 C 
BRANCH   4   5
ATOM      5  C   UNL     1      -6.178  -7.344  65.512  1.00  0.00     0.006 C 
BRANCH   5   6
ATOM      6  C   UNL     1      -4.706  -7.019  65.812  1.00  0.00     0.053 C 
BRANCH   6   7
ATOM      7  C   UNL     1      -3.917  -6.773  64.563  1.00  0.00     0.041 C 
ATOM      8  O   UNL     1      -3.005  -7.571  64.222  1.00  0.00    -0.550 OA
ATOM      9  O   UNL     1      -4.215  -5.683  63.756  1.00  0.00    -0.550 OA
ENDBRANCH   6   7
ENDBRANCH   5   6
ENDBRANCH   4   5
ENDBRANCH   3   4
ENDBRANCH   2   3
ENDBRANCH   1   2
BRANCH   1  10
ATOM     10  C   UNL     1      -3.649 -10.381  66.673  1.00  0.00     0.000 C 
BRANCH  10  11
ATOM     11  C   UNL     1      -3.447 -11.471  67.738  1.00  0.00    -0.000 C 
BRANCH  11  12
ATOM     12  C   UNL     1      -3.335 -12.880  67.128  1.00  0.00    -0.000 C 
BRANCH  12  13
ATOM     13  C   UNL     1      -4.536 -13.770  67.481  1.00  0.00    -0.000 C 
BRANCH  13  14
ATOM     14  C   UNL     1      -4.839 -14.815  66.392  1.00  0.00    -0.000 C 
BRANCH  14  15
ATOM     15  C   UNL     1      -5.332 -14.164  65.082  1.00  0.00    -0.000 C 
BRANCH  15  16
ATOM     16  C   UNL     1      -4.446 -14.485  63.865  1.00  0.00    -0.003 C 
ATOM     17  C   UNL     1      -4.997 -13.917  62.558  1.00  0.00     0.004 C 
ENDBRANCH  15  16
ENDBRANCH  14  15
ENDBRANCH  13  14
ENDBRANCH  12  13
ENDBRANCH  11  12
ENDBRANCH  10  11
ENDBRANCH   1  10
TORSDOF 13
ENDMDL
MODEL 5
REMARK VINA RESULT:    -4.015     11.857     15.267
REMARK INTER + INTRA:          -7.764
REMARK INTER:                  -5.556
REMARK INTRA:                  -2.208
REMARK UNBOUND:                -0.697
REMARK SMILES CCCCCCCCCCCCCCC(=O)[O-]
REMARK SMILES IDX 9 1 10 2 11 3 12 4 13 5 14 6 15 7 16 8 17 9 8 10 7 11 6 12
REMARK SMILES IDX 5 13 4 14 3 15 2 16 1 17
REMARK H PARENT
REMARK Flexibility Score: inf
ROOT
ATOM      1  C   UNL     1      -3.742 -11.083  66.592  1.00  0.00     0.000 C 
ENDROOT
BRANCH   1   2
ATOM      2  C   UNL     1      -3.138 -12.434  66.988  1.00  0.00     0.000 C 
BRANCH   2   3
ATOM      3  C   UNL     1      -4.128 -13.258  67.822  1.00  0.00     0.000 C 
BRANCH   3   4
ATOM      4  C   UNL     1      -5.522 -13.260  67.177  1.00  0.00     0.000 C 
BRANCH   4   5
ATOM      5  C   UNL     1      -5.698 -14.384  66.139  1.00  0.00     0.006 C 
BRANCH   5   6
ATOM      6  C   UNL     1      -5.938 -13.889  64.704  1.00  0.00     0.053 C 
BRANCH   6   7
ATOM      7  C   UNL     1      -4.808 -14.246  63.789  1.00  0.00     0.041 C 
ATOM      8  O   UNL     1      -4.957 -14.174  62.541  1.00  0.00    -0.550 OA
ATOM      9  O   UNL     1      -3.580 -14.624  64.315  1.00  0.00    -0.550 OA
ENDBRANCH   6   7
ENDBRANCH   5   6
ENDBRANCH   4   5
ENDBRANCH   3   4
ENDBRANCH   2   3
ENDBRANCH   1   2
BRANCH   1  10
ATOM     10  C   UNL     1      -3.648 -10.863  65.073  1.00  0.00     0.000 C 
BRANCH  10  11
ATOM     11  C   UNL     1      -4.961 -10.336  64.472  1.00  0.00    -0.000 C 
BRANCH  11  12
ATOM     12  C   UNL     1      -5.996  -9.963  65.548  1.00  0.00    -0.000 C 
BRANCH  12  13
ATOM     13  C   UNL     1      -6.743  -8.660  65.217  1.00  0.00    -0.000 C 
BRANCH  13  14
ATOM     14  C   UNL     1      -5.791  -7.512  64.838  1.00  0.00    -0.000 C 
BRANCH  14  15
ATOM     15  C   UNL     1      -5.005  -6.981  66.055  1.00  0.00    -0.000 C 
BRANCH  15  16
ATOM     16  C   UNL     1      -3.489  -7.227  65.963  1.00  0.00    -0.003 C 
ATOM     17  C   UNL     1      -2.950  -7.119  64.537  1.00  0.00     0.004 C 
ENDBRANCH  15  16
ENDBRANCH  14  15
ENDBRANCH  13  14
ENDBRANCH  12  13
ENDBRANCH  11  12
ENDBRANCH  10  11
ENDBRANCH   1  10
TORSDOF 13
ENDMDL
MODEL 6
REMARK VINA RESULT:    -3.947     10.687     14.134
REMARK INTER + INTRA:          -7.644
REMARK INTER:                  -5.860
REMARK INTRA:                  -1.784
REMARK UNBOUND:                -0.697
REMARK SMILES CCCCCCCCCCCCCCC(=O)[O-]
REMARK SMILES IDX 9 1 10 2 11 3 12 4 13 5 14 6 15 7 16 8 17 9 8 10 7 11 6 12
REMARK SMILES IDX 5 13 4 14 3 15 2 16 1 17
REMARK H PARENT
REMARK Flexibility Score: inf
ROOT
ATOM      1  C   UNL     1      -4.826 -10.401  64.368  1.00  0.00     0.000 C 
ENDROOT
BRANCH   1   2
ATOM      2  C   UNL     1      -3.549 -10.771  65.131  1.00  0.00     0.000 C 
BRANCH   2   3
ATOM      3  C   UNL     1      -3.866 -11.163  66.579  1.00  0.00     0.000 C 
BRANCH   3   4
ATOM      4  C   UNL     1      -3.181 -12.486  66.953  1.00  0.00     0.000 C 
BRANCH   4   5
ATOM      5  C   UNL     1      -4.091 -13.710  66.743  1.00  0.00     0.006 C 
BRANCH   5   6
ATOM      6  C   UNL     1      -3.942 -14.381  65.368  1.00  0.00     0.053 C 
BRANCH   6   7
ATOM      7  C   UNL     1      -5.122 -14.120  64.483  1.00  0.00     0.041 C 
ATOM      8  O   UNL     1      -5.010 -14.217  63.233  1.00  0.00    -0.550 OA
ATOM      9  O   UNL     1      -6.354 -13.804  65.041  1.00  0.00    -0.550 OA
ENDBRANCH   6   7
ENDBRANCH   5   6
ENDBRANCH   4   5
ENDBRANCH   3   4
ENDBRANCH   2   3
ENDBRANCH   1   2
BRANCH   1  10
ATOM     10  C   UNL     1      -5.861  -9.761  65.306  1.00  0.00     0.000 C 
BRANCH  10  11
ATOM     11  C   UNL     1      -6.514  -8.509  64.699  1.00  0.00    -0.000 C 
BRANCH  11  12
ATOM     12  C   UNL     1      -5.682  -7.236  64.935  1.00  0.00    -0.000 C 
BRANCH  12  13
ATOM     13  C   UNL     1      -4.901  -7.281  66.258  1.00  0.00    -0.000 C 
BRANCH  13  14
ATOM     14  C   UNL     1      -3.390  -7.071  66.060  1.00  0.00    -0.000 C 
BRANCH  14  15
ATOM     15  C   UNL     1      -2.990  -7.086  64.570  1.00  0.00    -0.000 C 
BRANCH  15  16
ATOM     16  C   UNL     1      -2.288  -5.797  64.107  1.00  0.00    -0.003 C 
ATOM     17  C   UNL     1      -2.062  -4.798  65.241  1.00  0.00     0.004 C 
ENDBRANCH  15  16
ENDBRANCH  14  15
ENDBRANCH  13  14
ENDBRANCH  12  13
ENDBRANCH  11  12
ENDBRANCH  10  11
ENDBRANCH   1  10
TORSDOF 13
ENDMDL
MODEL 7
REMARK VINA RESULT:    -3.928     11.121     15.529
REMARK INTER + INTRA:          -7.611
REMARK INTER:                  -5.643
REMARK INTRA:                  -1.968
REMARK UNBOUND:                -0.697
REMARK SMILES CCCCCCCCCCCCCCC(=O)[O-]
REMARK SMILES IDX 9 1 10 2 11 3 12 4 13 5 14 6 15 7 16 8 17 9 8 10 7 11 6 12
REMARK SMILES IDX 5 13 4 14 3 15 2 16 1 17
REMARK H PARENT
REMARK Flexibility Score: inf
ROOT
ATOM      1  C   UNL     1      -6.222 -10.622  66.404  1.00  0.00     0.000 C 
ENDROOT
BRANCH   1   2
ATOM      2  C   UNL     1      -5.824  -9.804  65.171  1.00  0.00     0.000 C 
BRANCH   2   3
ATOM      3  C   UNL     1      -4.726 -10.514  64.369  1.00  0.00     0.000 C 
BRANCH   3   4
ATOM      4  C   UNL     1      -3.351  -9.886  64.643  1.00  0.00     0.000 C 
BRANCH   4   5
ATOM      5  C   UNL     1      -3.342  -8.359  64.444  1.00  0.00     0.006 C 
BRANCH   5   6
ATOM      6  C   UNL     1      -3.121  -7.554  65.735  1.00  0.00     0.053 C 
BRANCH   6   7
ATOM      7  C   UNL     1      -2.309  -6.319  65.495  1.00  0.00     0.041 C 
ATOM      8  O   UNL     1      -1.749  -5.732  66.458  1.00  0.00    -0.550 OA
ATOM      9  O   UNL     1      -2.140  -5.837  64.204  1.00  0.00    -0.550 OA
ENDBRANCH   6   7
ENDBRANCH   5   6
ENDBRANCH   4   5
ENDBRANCH   3   4
ENDBRANCH   2   3
ENDBRANCH   1   2
BRANCH   1  10
ATOM     10  C   UNL     1      -5.539 -10.078  67.670  1.00  0.00     0.000 C 
BRANCH  10  11
ATOM     11  C   UNL     1      -4.764 -11.162  68.435  1.00  0.00    -0.000 C 
BRANCH  11  12
ATOM     12  C   UNL     1      -3.350 -11.387  67.870  1.00  0.00    -0.000 C 
BRANCH  12  13
ATOM     13  C   UNL     1      -3.222 -12.721  67.118  1.00  0.00    -0.000 C 
BRANCH  13  14
ATOM     14  C   UNL     1      -4.334 -13.718  67.490  1.00  0.00    -0.000 C 
BRANCH  14  15
ATOM     15  C   UNL     1      -4.778 -14.572  66.284  1.00  0.00    -0.000 C 
BRANCH  15  16
ATOM     16  C   UNL     1      -4.044 -14.221  64.978  1.00  0.00    -0.003 C 
ATOM     17  C   UNL     1      -4.973 -14.163  63.766  1.00  0.00     0.004 C 
ENDBRANCH  15  16
ENDBRANCH  14  15
ENDBRANCH  13  14
ENDBRANCH  12  13
ENDBRANCH  11  12
ENDBRANCH  10  11
ENDBRANCH   1  10
TORSDOF 13
ENDMDL
MODEL 8
REMARK VINA RESULT:    -3.918     11.361     14.933
REMARK INTER + INTRA:          -7.593
REMARK INTER:                  -5.553
REMARK INTRA:                  -2.040
REMARK UNBOUND:                -0.697
REMARK SMILES CCCCCCCCCCCCCCC(=O)[O-]
REMARK SMILES IDX 9 1 10 2 11 3 12 4 13 5 14 6 15 7 16 8 17 9 8 10 7 11 6 12
REMARK SMILES IDX 5 13 4 14 3 15 2 16 1 17
REMARK H PARENT
REMARK Flexibility Score: inf
ROOT
ATOM      1  C   UNL     1      -5.677  -9.974  67.626  1.00  0.00     0.000 C 
ENDROOT
BRANCH   1   2
ATOM      2  C   UNL     1      -4.962 -11.168  68.267  1.00  0.00     0.000 C 
BRANCH   2   3
ATOM      3  C   UNL     1      -3.465 -11.160  67.929  1.00  0.00     0.000 C 
BRANCH   3   4
ATOM      4  C   UNL     1      -3.040 -12.487  67.283  1.00  0.00     0.000 C 
BRANCH   4   5
ATOM      5  C   UNL     1      -4.236 -13.396  66.944  1.00  0.00     0.006 C 
BRANCH   5   6
ATOM      6  C   UNL     1      -4.147 -14.072  65.567  1.00  0.00     0.053 C 
BRANCH   6   7
ATOM      7  C   UNL     1      -5.454 -14.033  64.835  1.00  0.00     0.041 C 
ATOM      8  O   UNL     1      -5.475 -13.885  63.585  1.00  0.00    -0.550 OA
ATOM      9  O   UNL     1      -6.645 -14.196  65.529  1.00  0.00    -0.550 OA
ENDBRANCH   6   7
ENDBRANCH   5   6
ENDBRANCH   4   5
ENDBRANCH   3   4
ENDBRANCH   2   3
ENDBRANCH   1   2
BRANCH   1  10
ATOM     10  C   UNL     1      -6.380 -10.389  66.323  1.00  0.00     0.000 C 
BRANCH  10  11
ATOM     11  C   UNL     1      -5.798  -9.683  65.088  1.00  0.00    -0.000 C 
BRANCH  11  12
ATOM     12  C   UNL     1      -4.689 -10.504  64.405  1.00  0.00    -0.000 C 
BRANCH  12  13
ATOM     13  C   UNL     1      -3.323  -9.801  64.453  1.00  0.00    -0.000 C 
BRANCH  13  14
ATOM     14  C   UNL     1      -3.412  -8.374  65.023  1.00  0.00    -0.000 C 
BRANCH  14  15
ATOM     15  C   UNL     1      -2.925  -7.313  64.014  1.00  0.00    -0.000 C 
BRANCH  15  16
ATOM     16  C   UNL     1      -3.729  -6.003  64.063  1.00  0.00    -0.003 C 
ATOM     17  C   UNL     1      -5.214  -6.222  64.353  1.00  0.00     0.004 C 
ENDBRANCH  15  16
ENDBRANCH  14  15
ENDBRANCH  13  14
ENDBRANCH  12  13
ENDBRANCH  11  12
ENDBRANCH  10  11
ENDBRANCH   1  10
TORSDOF 13
ENDMDL
MODEL 9
REMARK VINA RESULT:    -3.912     11.980     16.188
REMARK INTER + INTRA:          -7.582
REMARK INTER:                  -5.379
REMARK INTRA:                  -2.204
REMARK UNBOUND:                -0.697
REMARK SMILES CCCCCCCCCCCCCCC(=O)[O-]
REMARK SMILES IDX 9 1 10 2 11 3 12 4 13 5 14 6 15 7 16 8 17 9 8 10 7 11 6 12
REMARK SMILES IDX 5 13 4 14 3 15 2 16 1 17
REMARK H PARENT
REMARK Flexibility Score: inf
ROOT
ATOM      1  C   UNL     1      -4.152 -14.503  64.504  1.00  0.00     0.000 C 
ENDROOT
BRANCH   1   2
ATOM      2  C   UNL     1      -4.236 -13.276  63.589  1.00  0.00     0.000 C 
BRANCH   2   3
ATOM      3  C   UNL     1      -4.039 -11.980  64.385  1.00  0.00     0.000 C 
BRANCH   3   4
ATOM      4  C   UNL     1      -5.212 -11.014  64.161  1.00  0.00     0.000 C 
BRANCH   4   5
ATOM      5  C   UNL     1      -4.918  -9.591  64.672  1.00  0.00     0.006 C 
BRANCH   5   6
ATOM      6  C   UNL     1      -3.429  -9.210  64.665  1.00  0.00     0.053 C 
BRANCH   6   7
ATOM      7  C   UNL     1      -3.218  -7.757  64.962  1.00  0.00     0.041 C 
ATOM      8  O   UNL     1      -3.116  -6.927  64.021  1.00  0.00    -0.550 OA
ATOM      9  O   UNL     1      -3.171  -7.316  66.278  1.00  0.00    -0.550 OA
ENDBRANCH   6   7
ENDBRANCH   5   6
ENDBRANCH   4   5
ENDBRANCH   3   4
ENDBRANCH   2   3
ENDBRANCH   1   2
BRANCH   1  10
ATOM     10  C   UNL     1      -4.020 -14.083  65.976  1.00  0.00     0.000 C 
BRANCH  10  11
ATOM     11  C   UNL     1      -5.073 -14.748  66.877  1.00  0.00    -0.000 C 
BRANCH  11  12
ATOM     12  C   UNL     1      -6.512 -14.487  66.395  1.00  0.00    -0.000 C 
BRANCH  12  13
ATOM     13  C   UNL     1      -6.953 -13.032  66.624  1.00  0.00    -0.000 C 
BRANCH  13  14
ATOM     14  C   UNL     1      -6.507 -12.487  67.992  1.00  0.00    -0.000 C 
BRANCH  14  15
ATOM     15  C   UNL     1      -5.887 -11.078  67.883  1.00  0.00    -0.000 C 
BRANCH  15  16
ATOM     16  C   UNL     1      -4.612 -10.899  68.725  1.00  0.00    -0.003 C 
ATOM     17  C   UNL     1      -3.329 -11.055  67.910  1.00  0.00     0.004 C 
ENDBRANCH  15  16
ENDBRANCH  14  15
ENDBRANCH  13  14
ENDBRANCH  12  13
ENDBRANCH  11  12
ENDBRANCH  10  11
ENDBRANCH   1  10
TORSDOF 13
ENDMDL
