MODEL 1
REMARK VINA RESULT:    81.145      0.000      0.000
REMARK INTER + INTRA:         125.430
REMARK INTER:                 119.096
REMARK INTRA:                   6.335
REMARK UNBOUND:                 6.335
REMARK SMILES Cc1cc2c(C(C)C)c(O)c(O)c(C=O)c2c(O)c1-c1c(C)cc2c(C(C)C)c(O)c(O)c(C=O)c2c1O
REMARK SMILES IDX 1 1 2 2 3 3 4 4 16 5 13 6 11 7 9 8 5 9 17 10 19 11 20 12
REMARK SMILES IDX 37 13 21 14 36 15 23 16 22 17 24 18 33 19 25 20 31 21 29 22
REMARK SMILES IDX 38 23 34 25 35 26 26 27 27 28 28 29 32 30 30 32 18 34 6 36
REMARK SMILES IDX 7 37 8 38 14 39 15 40 10 41 12 43
REMARK H PARENT 38 24 32 31 30 33 18 35 10 42 12 44
REMARK Flexibility Score: inf
ROOT
ATOM      1  C   UNL     1      11.817  17.641  15.307  1.00  0.00     0.045 C 
ATOM      2  C   UNL     1      12.134  16.295  15.914  1.00  0.00    -0.039 A 
ATOM      3  C   UNL     1      11.297  15.210  15.650  1.00  0.00     0.013 A 
ATOM      4  C   UNL     1      11.525  13.936  16.214  1.00  0.00    -0.006 A 
ATOM      5  C   UNL     1      12.713  13.725  16.980  1.00  0.00     0.039 A 
ATOM      6  C   UNL     1      13.011  12.405  17.439  1.00  0.00     0.072 A 
ATOM      7  C   UNL     1      12.178  11.328  17.073  1.00  0.00     0.169 A 
ATOM      8  C   UNL     1      11.016  11.551  16.328  1.00  0.00     0.162 A 
ATOM      9  C   UNL     1      10.611  12.860  15.992  1.00  0.00     0.008 A 
ATOM     10  C   UNL     1      13.582  14.834  17.224  1.00  0.00     0.132 A 
ATOM     11  C   UNL     1      13.269  16.115  16.717  1.00  0.00     0.031 A 
ENDROOT
BRANCH  11  12
ATOM     12  C   UNL     1      14.159  17.271  17.002  1.00  0.00     0.031 A 
ATOM     13  C   UNL     1      14.414  18.234  16.003  1.00  0.00     0.132 A 
ATOM     14  C   UNL     1      14.774  17.383  18.259  1.00  0.00    -0.039 A 
ATOM     15  C   UNL     1      15.222  19.375  16.287  1.00  0.00     0.039 A 
ATOM     16  C   UNL     1      15.645  18.445  18.507  1.00  0.00     0.013 A 
ATOM     17  C   UNL     1      14.573  16.330  19.321  1.00  0.00     0.045 C 
ATOM     18  C   UNL     1      15.857  19.475  17.562  1.00  0.00    -0.006 A 
ATOM     19  C   UNL     1      15.452  20.399  15.321  1.00  0.00     0.072 A 
ATOM     20  C   UNL     1      16.726  20.573  17.848  1.00  0.00     0.008 A 
ATOM     21  C   UNL     1      16.429  21.383  15.561  1.00  0.00     0.169 A 
ATOM     22  C   UNL     1      17.120  21.414  16.785  1.00  0.00     0.162 A 
BRANCH  13  23
ATOM     23  O   UNL     1      13.905  18.031  14.714  1.00  0.00    -0.507 OA
ATOM     24  H   UNL     1      13.078  17.483  14.512  1.00  0.00     0.293 HD
ENDBRANCH  13  23
BRANCH  19  25
ATOM     25  C   UNL     1      14.634  20.521  14.091  1.00  0.00     0.264 C 
ATOM     26  O   UNL     1      15.095  21.066  13.053  1.00  0.00    -0.298 OA
ENDBRANCH  19  25
BRANCH  20  27
ATOM     27  C   UNL     1      17.274  20.827  19.264  1.00  0.00     0.017 C 
ATOM     28  C   UNL     1      16.582  22.031  19.913  1.00  0.00     0.012 C 
ATOM     29  C   UNL     1      17.224  19.592  20.183  1.00  0.00     0.012 C 
ENDBRANCH  20  27
BRANCH  21  30
ATOM     30  O   UNL     1      16.660  22.355  14.581  1.00  0.00    -0.504 OA
ATOM     31  H   UNL     1      17.261  22.221  13.779  1.00  0.00     0.293 HD
ENDBRANCH  21  30
BRANCH  22  32
ATOM     32  O   UNL     1      18.213  22.269  16.962  1.00  0.00    -0.504 OA
ATOM     33  H   UNL     1      18.448  23.026  16.336  1.00  0.00     0.293 HD
ENDBRANCH  22  32
ENDBRANCH  11  12
BRANCH  10  34
ATOM     34  O   UNL     1      14.766  14.663  17.951  1.00  0.00    -0.507 OA
ATOM     35  H   UNL     1      15.384  13.868  17.849  1.00  0.00     0.293 HD
ENDBRANCH  10  34
BRANCH   9  36
ATOM     36  C   UNL     1       9.212  13.093  15.392  1.00  0.00     0.017 C 
ATOM     37  C   UNL     1       8.920  12.089  14.273  1.00  0.00     0.012 C 
ATOM     38  C   UNL     1       8.083  13.108  16.440  1.00  0.00     0.012 C 
ENDBRANCH   9  36
BRANCH   6  39
ATOM     39  C   UNL     1      14.184  12.119  18.290  1.00  0.00     0.264 C 
ATOM     40  O   UNL     1      15.332  12.005  17.784  1.00  0.00    -0.298 OA
ENDBRANCH   6  39
BRANCH   8  41
ATOM     41  O   UNL     1      10.248  10.458  15.916  1.00  0.00    -0.504 OA
ATOM     42  H   UNL     1       9.590  10.503  15.148  1.00  0.00     0.293 HD
ENDBRANCH   8  41
BRANCH   7  43
ATOM     43  O   UNL     1      12.457  10.015  17.468  1.00  0.00    -0.504 OA
ATOM     44  H   UNL     1      11.951   9.517  18.187  1.00  0.00     0.293 HD
ENDBRANCH   7  43
TORSDOF 11
ENDMDL
MODEL 2
REMARK VINA RESULT:    81.726      0.456      9.431
REMARK INTER + INTRA:         126.282
REMARK INTER:                 118.669
REMARK INTRA:                   7.613
REMARK UNBOUND:                 6.335
REMARK SMILES Cc1cc2c(C(C)C)c(O)c(O)c(C=O)c2c(O)c1-c1c(C)cc2c(C(C)C)c(O)c(O)c(C=O)c2c1O
REMARK SMILES IDX 1 1 2 2 3 3 4 4 16 5 13 6 11 7 9 8 5 9 17 10 19 11 20 12
REMARK SMILES IDX 37 13 21 14 36 15 23 16 22 17 24 18 33 19 25 20 31 21 29 22
REMARK SMILES IDX 38 23 34 25 35 26 26 27 27 28 28 29 32 30 30 32 18 34 6 36
REMARK SMILES IDX 7 37 8 38 14 39 15 40 10 41 12 43
REMARK H PARENT 38 24 32 31 30 33 18 35 10 42 12 44
REMARK Flexibility Score: inf
ROOT
ATOM      1  C   UNL     1      14.762  16.144  19.188  1.00  0.00     0.045 C 
ATOM      2  C   UNL     1      14.872  17.250  18.166  1.00  0.00    -0.039 A 
ATOM      3  C   UNL     1      15.733  18.322  18.406  1.00  0.00     0.013 A 
ATOM      4  C   UNL     1      15.855  19.399  17.502  1.00  0.00    -0.006 A 
ATOM      5  C   UNL     1      15.166  19.331  16.252  1.00  0.00     0.039 A 
ATOM      6  C   UNL     1      15.393  20.356  15.283  1.00  0.00     0.072 A 
ATOM      7  C   UNL     1      16.337  21.371  15.541  1.00  0.00     0.169 A 
ATOM      8  C   UNL     1      17.000  21.429  16.771  1.00  0.00     0.162 A 
ATOM      9  C   UNL     1      16.684  20.523  17.806  1.00  0.00     0.008 A 
ATOM     10  C   UNL     1      14.306  18.216  15.999  1.00  0.00     0.132 A 
ATOM     11  C   UNL     1      14.142  17.203  16.969  1.00  0.00     0.031 A 
ENDROOT
BRANCH  11  12
ATOM     12  C   UNL     1      13.221  16.064  16.715  1.00  0.00     0.031 A 
ATOM     13  C   UNL     1      13.520  14.783  17.224  1.00  0.00     0.132 A 
ATOM     14  C   UNL     1      12.071  16.260  15.935  1.00  0.00    -0.039 A 
ATOM     15  C   UNL     1      12.613  13.698  17.031  1.00  0.00     0.039 A 
ATOM     16  C   UNL     1      11.234  15.178  15.660  1.00  0.00     0.013 A 
ATOM     17  C   UNL     1      11.766  17.604  15.320  1.00  0.00     0.045 C 
ATOM     18  C   UNL     1      11.453  13.900  16.223  1.00  0.00    -0.006 A 
ATOM     19  C   UNL     1      12.852  12.404  17.581  1.00  0.00     0.072 A 
ATOM     20  C   UNL     1      10.564  12.812  15.958  1.00  0.00     0.008 A 
ATOM     21  C   UNL     1      12.058  11.314  17.182  1.00  0.00     0.169 A 
ATOM     22  C   UNL     1      10.974  11.507  16.307  1.00  0.00     0.162 A 
BRANCH  13  23
ATOM     23  O   UNL     1      14.740  14.576  17.879  1.00  0.00    -0.507 OA
ATOM     24  H   UNL     1      15.642  14.622  17.422  1.00  0.00     0.293 HD
ENDBRANCH  13  23
BRANCH  19  25
ATOM     25  C   UNL     1      13.866  12.173  18.638  1.00  0.00     0.264 C 
ATOM     26  O   UNL     1      13.774  12.733  19.763  1.00  0.00    -0.298 OA
ENDBRANCH  19  25
BRANCH  20  27
ATOM     27  C   UNL     1       9.207  13.024  15.262  1.00  0.00     0.017 C 
ATOM     28  C   UNL     1       9.014  12.019  14.121  1.00  0.00     0.012 C 
ATOM     29  C   UNL     1       8.005  13.015  16.224  1.00  0.00     0.012 C 
ENDBRANCH  20  27
BRANCH  21  30
ATOM     30  O   UNL     1      12.337  10.048  17.711  1.00  0.00    -0.504 OA
ATOM     31  H   UNL     1      12.919   9.888  18.522  1.00  0.00     0.293 HD
ENDBRANCH  21  30
BRANCH  22  32
ATOM     32  O   UNL     1      10.295  10.412  15.764  1.00  0.00    -0.504 OA
ATOM     33  H   UNL     1      10.605   9.454  15.848  1.00  0.00     0.293 HD
ENDBRANCH  22  32
ENDBRANCH  11  12
BRANCH  10  34
ATOM     34  O   UNL     1      13.631  18.102  14.778  1.00  0.00    -0.507 OA
ATOM     35  H   UNL     1      12.789  18.614  14.546  1.00  0.00     0.293 HD
ENDBRANCH  10  34
BRANCH   9  36
ATOM     36  C   UNL     1      17.244  20.761  19.220  1.00  0.00     0.017 C 
ATOM     37  C   UNL     1      16.539  21.939  19.899  1.00  0.00     0.012 C 
ATOM     38  C   UNL     1      17.223  19.506  20.113  1.00  0.00     0.012 C 
ENDBRANCH   9  36
BRANCH   6  39
ATOM     39  C   UNL     1      14.669  20.390  13.996  1.00  0.00     0.264 C 
ATOM     40  O   UNL     1      15.143  21.014  13.010  1.00  0.00    -0.298 OA
ENDBRANCH   6  39
BRANCH   8  41
ATOM     41  O   UNL     1      17.983  22.401  16.972  1.00  0.00    -0.504 OA
ATOM     42  H   UNL     1      18.736  22.294  17.641  1.00  0.00     0.293 HD
ENDBRANCH   8  41
BRANCH   7  43
ATOM     43  O   UNL     1      16.617  22.370  14.602  1.00  0.00    -0.504 OA
ATOM     44  H   UNL     1      15.973  23.105  14.342  1.00  0.00     0.293 HD
ENDBRANCH   7  43
TORSDOF 11
ENDMDL
