MODEL 1
REMARK VINA RESULT:    -5.796      0.000      0.000
REMARK INTER + INTRA:          -7.277
REMARK INTER:                  -6.813
REMARK INTRA:                  -0.465
REMARK UNBOUND:                -0.465
REMARK SMILES C=C[C@]1(C)CC[C@H](C(=C)C)C[C@H]1C(=C)C
REMARK SMILES IDX 7 1 6 2 5 3 3 4 12 5 11 6 4 7 8 8 10 9 9 10 13 11 14 12
REMARK SMILES IDX 15 13 2 14 1 15
REMARK H PARENT
REMARK Flexibility Score: inf
ROOT
ATOM      1  C   UNL     1     182.126 180.011 176.207  1.00  0.00     0.015 C 
ATOM      2  C   UNL     1     181.510 181.352 175.766  1.00  0.00     0.009 C 
ATOM      3  C   UNL     1     180.572 181.934 176.838  1.00  0.00     0.012 C 
ATOM      4  C   UNL     1     179.432 180.957 177.229  1.00  0.00    -0.008 C 
ATOM      5  C   UNL     1     179.989 179.526 177.599  1.00  0.00     0.024 C 
ATOM      6  C   UNL     1     181.039 178.987 176.590  1.00  0.00     0.017 C 
ATOM      7  C   UNL     1     178.641 181.560 178.421  1.00  0.00     0.016 C 
ENDROOT
BRANCH   1   8
ATOM      8  C   UNL     1     183.044 179.441 175.132  1.00  0.00    -0.077 C 
ATOM      9  C   UNL     1     182.600 178.253 174.319  1.00  0.00     0.039 C 
ATOM     10  C   UNL     1     184.241 179.999 174.865  1.00  0.00     0.008 C 
ENDBRANCH   1   8
BRANCH   5  11
ATOM     11  C   UNL     1     180.445 179.322 179.053  1.00  0.00    -0.077 C 
ATOM     12  C   UNL     1     181.534 179.920 179.572  1.00  0.00     0.008 C 
ATOM     13  C   UNL     1     179.690 178.365 179.944  1.00  0.00     0.039 C 
ENDBRANCH   5  11
BRANCH   4  14
ATOM     14  C   UNL     1     178.493 180.808 176.019  1.00  0.00    -0.028 C 
ATOM     15  C   UNL     1     177.378 181.526 175.821  1.00  0.00     0.004 C 
ENDBRANCH   4  14
TORSDOF 3
ENDMDL
MODEL 2
REMARK VINA RESULT:    -5.777      1.320      4.333
REMARK INTER + INTRA:          -7.255
REMARK INTER:                  -6.978
REMARK INTRA:                  -0.277
REMARK UNBOUND:                -0.465
REMARK SMILES C=C[C@]1(C)CC[C@H](C(=C)C)C[C@H]1C(=C)C
REMARK SMILES IDX 7 1 6 2 5 3 3 4 12 5 11 6 4 7 8 8 10 9 9 10 13 11 14 12
REMARK SMILES IDX 15 13 2 14 1 15
REMARK H PARENT
REMARK Flexibility Score: inf
ROOT
ATOM      1  C   UNL     1     178.616 180.508 176.070  1.00  0.00     0.015 C 
ATOM      2  C   UNL     1     179.313 179.310 175.398  1.00  0.00     0.009 C 
ATOM      3  C   UNL     1     180.359 178.661 176.321  1.00  0.00     0.012 C 
ATOM      4  C   UNL     1     181.436 179.668 176.805  1.00  0.00    -0.008 C 
ATOM      5  C   UNL     1     180.785 180.970 177.419  1.00  0.00     0.024 C 
ATOM      6  C   UNL     1     179.635 181.557 176.557  1.00  0.00     0.017 C 
ATOM      7  C   UNL     1     182.344 178.967 177.850  1.00  0.00     0.016 C 
ENDROOT
BRANCH   1   8
ATOM      8  C   UNL     1     177.590 181.147 175.142  1.00  0.00    -0.077 C 
ATOM      9  C   UNL     1     177.978 182.333 174.298  1.00  0.00     0.039 C 
ATOM     10  C   UNL     1     176.342 180.652 175.029  1.00  0.00     0.008 C 
ENDBRANCH   1   8
BRANCH   5  11
ATOM     11  C   UNL     1     180.403 180.910 178.907  1.00  0.00    -0.077 C 
ATOM     12  C   UNL     1     179.687 179.902 179.441  1.00  0.00     0.008 C 
ATOM     13  C   UNL     1     180.782 182.050 179.821  1.00  0.00     0.039 C 
ENDBRANCH   5  11
BRANCH   4  14
ATOM     14  C   UNL     1     182.284 180.083 175.591  1.00  0.00    -0.028 C 
ATOM     15  C   UNL     1     183.530 179.653 175.342  1.00  0.00     0.004 C 
ENDBRANCH   4  14
TORSDOF 3
ENDMDL
MODEL 3
REMARK VINA RESULT:    -5.524      1.736      4.476
REMARK INTER + INTRA:          -6.958
REMARK INTER:                  -6.421
REMARK INTRA:                  -0.537
REMARK UNBOUND:                -0.465
REMARK SMILES C=C[C@]1(C)CC[C@H](C(=C)C)C[C@H]1C(=C)C
REMARK SMILES IDX 7 1 6 2 5 3 3 4 12 5 11 6 4 7 8 8 10 9 9 10 13 11 14 12
REMARK SMILES IDX 15 13 2 14 1 15
REMARK H PARENT
REMARK Flexibility Score: inf
ROOT
ATOM      1  C   UNL     1     180.602 180.374 177.481  1.00  0.00     0.015 C 
ATOM      2  C   UNL     1     180.194 179.033 176.842  1.00  0.00     0.009 C 
ATOM      3  C   UNL     1     180.222 179.097 175.305  1.00  0.00     0.012 C 
ATOM      4  C   UNL     1     179.322 180.225 174.735  1.00  0.00    -0.008 C 
ATOM      5  C   UNL     1     179.622 181.616 175.423  1.00  0.00     0.024 C 
ATOM      6  C   UNL     1     179.727 181.536 176.969  1.00  0.00     0.017 C 
ATOM      7  C   UNL     1     179.540 180.315 173.202  1.00  0.00     0.016 C 
ENDROOT
BRANCH   1   8
ATOM      8  C   UNL     1     180.560 180.301 179.003  1.00  0.00    -0.077 C 
ATOM      9  C   UNL     1     179.695 181.262 179.776  1.00  0.00     0.039 C 
ATOM     10  C   UNL     1     181.255 179.366 179.680  1.00  0.00     0.008 C 
ENDBRANCH   1   8
BRANCH   5  11
ATOM     11  C   UNL     1     180.767 182.446 174.820  1.00  0.00    -0.077 C 
ATOM     12  C   UNL     1     182.059 182.072 174.887  1.00  0.00     0.008 C 
ATOM     13  C   UNL     1     180.463 183.774 174.170  1.00  0.00     0.039 C 
ENDBRANCH   5  11
BRANCH   4  14
ATOM     14  C   UNL     1     177.856 179.856 175.020  1.00  0.00    -0.028 C 
ATOM     15  C   UNL     1     176.812 180.684 174.864  1.00  0.00     0.004 C 
ENDBRANCH   4  14
TORSDOF 3
ENDMDL
MODEL 4
REMARK VINA RESULT:    -5.491      1.549      4.558
REMARK INTER + INTRA:          -6.918
REMARK INTER:                  -6.362
REMARK INTRA:                  -0.556
REMARK UNBOUND:                -0.465
REMARK SMILES C=C[C@]1(C)CC[C@H](C(=C)C)C[C@H]1C(=C)C
REMARK SMILES IDX 7 1 6 2 5 3 3 4 12 5 11 6 4 7 8 8 10 9 9 10 13 11 14 12
REMARK SMILES IDX 15 13 2 14 1 15
REMARK H PARENT
REMARK Flexibility Score: inf
ROOT
ATOM      1  C   UNL     1     180.265 180.158 177.516  1.00  0.00     0.015 C 
ATOM      2  C   UNL     1     180.053 181.559 176.912  1.00  0.00     0.009 C 
ATOM      3  C   UNL     1     179.911 181.509 175.380  1.00  0.00     0.012 C 
ATOM      4  C   UNL     1     181.126 180.837 174.688  1.00  0.00    -0.008 C 
ATOM      5  C   UNL     1     181.461 179.432 175.329  1.00  0.00     0.024 C 
ATOM      6  C   UNL     1     181.475 179.444 176.882  1.00  0.00     0.017 C 
ATOM      7  C   UNL     1     180.823 180.687 173.174  1.00  0.00     0.016 C 
ENDROOT
BRANCH   1   8
ATOM      8  C   UNL     1     180.414 180.222 179.031  1.00  0.00    -0.077 C 
ATOM      9  C   UNL     1     179.633 181.242 179.819  1.00  0.00     0.039 C 
ATOM     10  C   UNL     1     181.207 179.359 179.695  1.00  0.00     0.008 C 
ENDBRANCH   1   8
BRANCH   5  11
ATOM     11  C   UNL     1     180.685 178.224 174.780  1.00  0.00    -0.077 C 
ATOM     12  C   UNL     1     179.402 177.969 175.099  1.00  0.00     0.008 C 
ATOM     13  C   UNL     1     181.387 177.230 173.887  1.00  0.00     0.039 C 
ENDBRANCH   5  11
BRANCH   4  14
ATOM     14  C   UNL     1     182.349 181.752 174.874  1.00  0.00    -0.028 C 
ATOM     15  C   UNL     1     183.599 181.448 174.497  1.00  0.00     0.004 C 
ENDBRANCH   4  14
TORSDOF 3
ENDMDL
MODEL 5
REMARK VINA RESULT:    -5.485      1.609      4.709
REMARK INTER + INTRA:          -6.911
REMARK INTER:                  -6.440
REMARK INTRA:                  -0.471
REMARK UNBOUND:                -0.465
REMARK SMILES C=C[C@]1(C)CC[C@H](C(=C)C)C[C@H]1C(=C)C
REMARK SMILES IDX 7 1 6 2 5 3 3 4 12 5 11 6 4 7 8 8 10 9 9 10 13 11 14 12
REMARK SMILES IDX 15 13 2 14 1 15
REMARK H PARENT
REMARK Flexibility Score: inf
ROOT
ATOM      1  C   UNL     1     180.076 180.264 177.458  1.00  0.00     0.015 C 
ATOM      2  C   UNL     1     181.074 181.214 176.769  1.00  0.00     0.009 C 
ATOM      3  C   UNL     1     181.141 180.974 175.250  1.00  0.00     0.012 C 
ATOM      4  C   UNL     1     181.505 179.509 174.891  1.00  0.00    -0.008 C 
ATOM      5  C   UNL     1     180.579 178.475 175.645  1.00  0.00     0.024 C 
ATOM      6  C   UNL     1     180.398 178.787 177.155  1.00  0.00     0.017 C 
ATOM      7  C   UNL     1     181.391 179.326 173.355  1.00  0.00     0.016 C 
ENDROOT
BRANCH   1   8
ATOM      8  C   UNL     1     180.027 180.505 178.962  1.00  0.00    -0.077 C 
ATOM      9  C   UNL     1     180.836 179.635 179.887  1.00  0.00     0.039 C 
ATOM     10  C   UNL     1     179.298 181.509 179.488  1.00  0.00     0.008 C 
ENDBRANCH   1   8
BRANCH   5  11
ATOM     11  C   UNL     1     179.239 178.137 174.973  1.00  0.00    -0.077 C 
ATOM     12  C   UNL     1     178.240 179.030 174.837  1.00  0.00     0.008 C 
ATOM     13  C   UNL     1     178.981 176.731 174.487  1.00  0.00     0.039 C 
ENDBRANCH   5  11
BRANCH   4  14
ATOM     14  C   UNL     1     182.959 179.257 175.326  1.00  0.00    -0.028 C 
ATOM     15  C   UNL     1     184.016 179.979 174.926  1.00  0.00     0.004 C 
ENDBRANCH   4  14
TORSDOF 3
ENDMDL
MODEL 6
REMARK VINA RESULT:    -5.377      1.894      4.561
REMARK INTER + INTRA:          -6.785
REMARK INTER:                  -6.217
REMARK INTRA:                  -0.568
REMARK UNBOUND:                -0.465
REMARK SMILES C=C[C@]1(C)CC[C@H](C(=C)C)C[C@H]1C(=C)C
REMARK SMILES IDX 7 1 6 2 5 3 3 4 12 5 11 6 4 7 8 8 10 9 9 10 13 11 14 12
REMARK SMILES IDX 15 13 2 14 1 15
REMARK H PARENT
REMARK Flexibility Score: inf
ROOT
ATOM      1  C   UNL     1     180.656 180.605 177.624  1.00  0.00     0.015 C 
ATOM      2  C   UNL     1     181.338 179.348 177.051  1.00  0.00     0.009 C 
ATOM      3  C   UNL     1     181.522 179.438 175.526  1.00  0.00     0.012 C 
ATOM      4  C   UNL     1     180.186 179.676 174.775  1.00  0.00    -0.008 C 
ATOM      5  C   UNL     1     179.385 180.897 175.379  1.00  0.00     0.024 C 
ATOM      6  C   UNL     1     179.308 180.884 176.930  1.00  0.00     0.017 C 
ATOM      7  C   UNL     1     180.490 179.914 173.272  1.00  0.00     0.016 C 
ENDROOT
BRANCH   1   8
ATOM      8  C   UNL     1     180.471 180.498 179.132  1.00  0.00    -0.077 C 
ATOM      9  C   UNL     1     180.897 179.246 179.854  1.00  0.00     0.039 C 
ATOM     10  C   UNL     1     179.962 181.518 179.851  1.00  0.00     0.008 C 
ENDBRANCH   1   8
BRANCH   5  11
ATOM     11  C   UNL     1     179.749 182.290 174.842  1.00  0.00    -0.077 C 
ATOM     12  C   UNL     1     180.893 182.924 175.162  1.00  0.00     0.008 C 
ATOM     13  C   UNL     1     178.770 183.030 173.962  1.00  0.00     0.039 C 
ENDBRANCH   5  11
BRANCH   4  14
ATOM     14  C   UNL     1     179.321 178.413 174.925  1.00  0.00    -0.028 C 
ATOM     15  C   UNL     1     178.050 178.300 174.512  1.00  0.00     0.004 C 
ENDBRANCH   4  14
TORSDOF 3
ENDMDL
MODEL 7
REMARK VINA RESULT:    -5.292      1.834      4.007
REMARK INTER + INTRA:          -6.685
REMARK INTER:                  -6.132
REMARK INTRA:                  -0.554
REMARK UNBOUND:                -0.465
REMARK SMILES C=C[C@]1(C)CC[C@H](C(=C)C)C[C@H]1C(=C)C
REMARK SMILES IDX 7 1 6 2 5 3 3 4 12 5 11 6 4 7 8 8 10 9 9 10 13 11 14 12
REMARK SMILES IDX 15 13 2 14 1 15
REMARK H PARENT
REMARK Flexibility Score: inf
ROOT
ATOM      1  C   UNL     1     179.410 182.023 175.190  1.00  0.00     0.015 C 
ATOM      2  C   UNL     1     179.316 180.593 174.625  1.00  0.00     0.009 C 
ATOM      3  C   UNL     1     179.319 179.533 175.740  1.00  0.00     0.012 C 
ATOM      4  C   UNL     1     180.566 179.633 176.659  1.00  0.00    -0.008 C 
ATOM      5  C   UNL     1     180.778 181.104 177.197  1.00  0.00     0.024 C 
ATOM      6  C   UNL     1     180.645 182.193 176.099  1.00  0.00     0.017 C 
ATOM      7  C   UNL     1     180.401 178.639 177.839  1.00  0.00     0.016 C 
ENDROOT
BRANCH   1   8
ATOM      8  C   UNL     1     179.417 183.062 174.076  1.00  0.00    -0.077 C 
ATOM      9  C   UNL     1     178.234 183.177 173.151  1.00  0.00     0.039 C 
ATOM     10  C   UNL     1     180.450 183.913 173.916  1.00  0.00     0.008 C 
ENDBRANCH   1   8
BRANCH   5  11
ATOM     11  C   UNL     1     180.008 181.487 178.470  1.00  0.00    -0.077 C 
ATOM     12  C   UNL     1     178.675 181.672 178.494  1.00  0.00     0.008 C 
ATOM     13  C   UNL     1     180.764 181.732 179.754  1.00  0.00     0.039 C 
ENDBRANCH   5  11
BRANCH   4  14
ATOM     14  C   UNL     1     181.802 179.241 175.832  1.00  0.00    -0.028 C 
ATOM     15  C   UNL     1     183.067 179.279 176.278  1.00  0.00     0.004 C 
ENDBRANCH   4  14
TORSDOF 3
ENDMDL
MODEL 8
REMARK VINA RESULT:    -5.188      1.559      4.597
REMARK INTER + INTRA:          -6.563
REMARK INTER:                  -6.073
REMARK INTRA:                  -0.490
REMARK UNBOUND:                -0.465
REMARK SMILES C=C[C@]1(C)CC[C@H](C(=C)C)C[C@H]1C(=C)C
REMARK SMILES IDX 7 1 6 2 5 3 3 4 12 5 11 6 4 7 8 8 10 9 9 10 13 11 14 12
REMARK SMILES IDX 15 13 2 14 1 15
REMARK H PARENT
REMARK Flexibility Score: inf
ROOT
ATOM      1  C   UNL     1     181.033 179.845 177.370  1.00  0.00     0.015 C 
ATOM      2  C   UNL     1     180.145 178.797 176.672  1.00  0.00     0.009 C 
ATOM      3  C   UNL     1     180.646 178.474 175.253  1.00  0.00     0.012 C 
ATOM      4  C   UNL     1     180.747 179.733 174.352  1.00  0.00    -0.008 C 
ATOM      5  C   UNL     1     181.565 180.889 175.053  1.00  0.00     0.024 C 
ATOM      6  C   UNL     1     181.156 181.133 176.531  1.00  0.00     0.017 C 
ATOM      7  C   UNL     1     181.408 179.335 173.006  1.00  0.00     0.016 C 
ENDROOT
BRANCH   1   8
ATOM      8  C   UNL     1     180.520 180.164 178.769  1.00  0.00    -0.077 C 
ATOM      9  C   UNL     1     179.599 181.338 178.981  1.00  0.00     0.039 C 
ATOM     10  C   UNL     1     180.845 179.396 179.827  1.00  0.00     0.008 C 
ENDBRANCH   1   8
BRANCH   5  11
ATOM     11  C   UNL     1     183.092 180.846 174.888  1.00  0.00    -0.077 C 
ATOM     12  C   UNL     1     183.850 179.824 175.330  1.00  0.00     0.008 C 
ATOM     13  C   UNL     1     183.808 182.016 174.260  1.00  0.00     0.039 C 
ENDBRANCH   5  11
BRANCH   4  14
ATOM     14  C   UNL     1     179.321 180.247 174.087  1.00  0.00    -0.028 C 
ATOM     15  C   UNL     1     179.021 181.462 173.605  1.00  0.00     0.004 C 
ENDBRANCH   4  14
TORSDOF 3
ENDMDL
MODEL 9
REMARK VINA RESULT:    -5.152      2.154      4.119
REMARK INTER + INTRA:          -6.521
REMARK INTER:                  -6.144
REMARK INTRA:                  -0.376
REMARK UNBOUND:                -0.465
REMARK SMILES C=C[C@]1(C)CC[C@H](C(=C)C)C[C@H]1C(=C)C
REMARK SMILES IDX 7 1 6 2 5 3 3 4 12 5 11 6 4 7 8 8 10 9 9 10 13 11 14 12
REMARK SMILES IDX 15 13 2 14 1 15
REMARK H PARENT
REMARK Flexibility Score: inf
ROOT
ATOM      1  C   UNL     1     179.081 178.427 174.872  1.00  0.00     0.015 C 
ATOM      2  C   UNL     1     178.168 179.661 174.999  1.00  0.00     0.009 C 
ATOM      3  C   UNL     1     178.976 180.966 175.109  1.00  0.00     0.012 C 
ATOM      4  C   UNL     1     179.977 180.952 176.295  1.00  0.00    -0.008 C 
ATOM      5  C   UNL     1     180.883 179.657 176.280  1.00  0.00     0.024 C 
ATOM      6  C   UNL     1     180.089 178.345 176.036  1.00  0.00     0.017 C 
ATOM      7  C   UNL     1     180.852 182.231 176.228  1.00  0.00     0.016 C 
ENDROOT
BRANCH   1   8
ATOM      8  C   UNL     1     178.269 177.141 174.774  1.00  0.00    -0.077 C 
ATOM      9  C   UNL     1     178.843 175.850 175.297  1.00  0.00     0.039 C 
ATOM     10  C   UNL     1     177.024 177.135 174.259  1.00  0.00     0.008 C 
ENDBRANCH   1   8
BRANCH   5  11
ATOM     11  C   UNL     1     182.153 179.718 175.417  1.00  0.00    -0.077 C 
ATOM     12  C   UNL     1     182.142 180.070 174.118  1.00  0.00     0.008 C 
ATOM     13  C   UNL     1     183.479 179.312 176.013  1.00  0.00     0.039 C 
ENDBRANCH   5  11
BRANCH   4  14
ATOM     14  C   UNL     1     179.168 180.956 177.604  1.00  0.00    -0.028 C 
ATOM     15  C   UNL     1     179.686 181.159 178.824  1.00  0.00     0.004 C 
ENDBRANCH   4  14
TORSDOF 3
ENDMDL
