MODEL 1
REMARK VINA RESULT:    -3.560      0.000      0.000
REMARK INTER + INTRA:          -4.528
REMARK INTER:                  -4.497
REMARK INTRA:                  -0.031
REMARK UNBOUND:                -0.031
REMARK SMILES CCCCCCO
REMARK SMILES IDX 4 1 3 2 2 3 1 4 5 5 6 6 7 7
REMARK H PARENT 7 8
REMARK Flexibility Score: inf
ROOT
ATOM      1  C   UNL     1      -3.452  20.899  12.023  1.00  0.00     0.002 C 
ENDROOT
BRANCH   1   2
ATOM      2  C   UNL     1      -4.004  19.787  12.932  1.00  0.00    -0.000 C 
BRANCH   2   3
ATOM      3  C   UNL     1      -5.444  19.393  12.569  1.00  0.00    -0.003 C 
ATOM      4  C   UNL     1      -6.125  18.564  13.659  1.00  0.00     0.004 C 
ENDBRANCH   2   3
ENDBRANCH   1   2
BRANCH   1   5
ATOM      5  C   UNL     1      -2.288  21.674  12.666  1.00  0.00     0.028 C 
BRANCH   5   6
ATOM      6  C   UNL     1      -0.998  21.655  11.831  1.00  0.00     0.156 C 
BRANCH   6   7
ATOM      7  O   UNL     1       0.138  21.647  12.652  1.00  0.00    -0.396 OA
ATOM      8  H   UNL     1      -0.156  21.961  13.547  1.00  0.00     0.210 HD
ENDBRANCH   6   7
ENDBRANCH   5   6
ENDBRANCH   1   5
TORSDOF 5
ENDMDL
MODEL 2
REMARK VINA RESULT:    -3.450      9.956     11.435
REMARK INTER + INTRA:          -4.389
REMARK INTER:                  -4.352
REMARK INTRA:                  -0.037
REMARK UNBOUND:                -0.031
REMARK SMILES CCCCCCO
REMARK SMILES IDX 4 1 3 2 2 3 1 4 5 5 6 6 7 7
REMARK H PARENT 7 8
REMARK Flexibility Score: inf
ROOT
ATOM      1  C   UNL     1       2.331  29.829  11.917  1.00  0.00     0.002 C 
ENDROOT
BRANCH   1   2
ATOM      2  C   UNL     1       1.619  31.160  11.619  1.00  0.00    -0.000 C 
BRANCH   2   3
ATOM      3  C   UNL     1       2.073  31.786  10.291  1.00  0.00    -0.003 C 
ATOM      4  C   UNL     1       0.905  32.125   9.365  1.00  0.00     0.004 C 
ENDBRANCH   2   3
ENDBRANCH   1   2
BRANCH   1   5
ATOM      5  C   UNL     1       1.646  29.021  13.034  1.00  0.00     0.028 C 
BRANCH   5   6
ATOM      6  C   UNL     1       2.622  28.481  14.091  1.00  0.00     0.156 C 
BRANCH   6   7
ATOM      7  O   UNL     1       2.667  27.080  14.071  1.00  0.00    -0.396 OA
ATOM      8  H   UNL     1       3.609  26.829  13.881  1.00  0.00     0.210 HD
ENDBRANCH   6   7
ENDBRANCH   5   6
ENDBRANCH   1   5
TORSDOF 5
ENDMDL
MODEL 3
REMARK VINA RESULT:    -3.428      2.861      4.766
REMARK INTER + INTRA:          -4.361
REMARK INTER:                  -4.295
REMARK INTRA:                  -0.066
REMARK UNBOUND:                -0.031
REMARK SMILES CCCCCCO
REMARK SMILES IDX 4 1 3 2 2 3 1 4 5 5 6 6 7 7
REMARK H PARENT 7 8
REMARK Flexibility Score: inf
ROOT
ATOM      1  C   UNL     1      -3.923  19.667  12.987  1.00  0.00     0.002 C 
ENDROOT
BRANCH   1   2
ATOM      2  C   UNL     1      -3.578  20.908  12.145  1.00  0.00    -0.000 C 
BRANCH   2   3
ATOM      3  C   UNL     1      -2.423  21.724  12.746  1.00  0.00    -0.003 C 
ATOM      4  C   UNL     1      -1.129  21.603  11.940  1.00  0.00     0.004 C 
ENDBRANCH   2   3
ENDBRANCH   1   2
BRANCH   1   5
ATOM      5  C   UNL     1      -5.429  19.351  12.997  1.00  0.00     0.028 C 
BRANCH   5   6
ATOM      6  C   UNL     1      -6.019  19.116  11.598  1.00  0.00     0.156 C 
BRANCH   6   7
ATOM      7  O   UNL     1      -7.012  20.061  11.301  1.00  0.00    -0.396 OA
ATOM      8  H   UNL     1      -7.885  19.618  11.471  1.00  0.00     0.210 HD
ENDBRANCH   6   7
ENDBRANCH   5   6
ENDBRANCH   1   5
TORSDOF 5
ENDMDL
MODEL 4
REMARK VINA RESULT:    -3.341      6.949      9.237
REMARK INTER + INTRA:          -4.251
REMARK INTER:                  -4.180
REMARK INTRA:                  -0.071
REMARK UNBOUND:                -0.031
REMARK SMILES CCCCCCO
REMARK SMILES IDX 4 1 3 2 2 3 1 4 5 5 6 6 7 7
REMARK H PARENT 7 8
REMARK Flexibility Score: inf
ROOT
ATOM      1  C   UNL     1       2.726  27.070  11.640  1.00  0.00     0.002 C 
ENDROOT
BRANCH   1   2
ATOM      2  C   UNL     1       2.698  27.859  12.961  1.00  0.00    -0.000 C 
BRANCH   2   3
ATOM      3  C   UNL     1       1.623  28.957  12.968  1.00  0.00    -0.003 C 
ATOM      4  C   UNL     1       1.957  30.120  12.032  1.00  0.00     0.004 C 
ENDBRANCH   2   3
ENDBRANCH   1   2
BRANCH   1   5
ATOM      5  C   UNL     1       2.430  25.572  11.831  1.00  0.00     0.028 C 
BRANCH   5   6
ATOM      6  C   UNL     1       1.225  25.074  11.020  1.00  0.00     0.156 C 
BRANCH   6   7
ATOM      7  O   UNL     1       0.061  25.050  11.802  1.00  0.00    -0.396 OA
ATOM      8  H   UNL     1      -0.684  25.334  11.210  1.00  0.00     0.210 HD
ENDBRANCH   6   7
ENDBRANCH   5   6
ENDBRANCH   1   5
TORSDOF 5
ENDMDL
MODEL 5
REMARK VINA RESULT:    -3.306      8.790      9.446
REMARK INTER + INTRA:          -4.206
REMARK INTER:                  -4.176
REMARK INTRA:                  -0.031
REMARK UNBOUND:                -0.031
REMARK SMILES CCCCCCO
REMARK SMILES IDX 4 1 3 2 2 3 1 4 5 5 6 6 7 7
REMARK H PARENT 7 8
REMARK Flexibility Score: inf
ROOT
ATOM      1  C   UNL     1       3.516  26.511  11.125  1.00  0.00     0.002 C 
ENDROOT
BRANCH   1   2
ATOM      2  C   UNL     1       2.422  26.879  12.141  1.00  0.00    -0.000 C 
BRANCH   2   3
ATOM      3  C   UNL     1       2.768  28.140  12.948  1.00  0.00    -0.003 C 
ATOM      4  C   UNL     1       1.597  29.118  13.052  1.00  0.00     0.004 C 
ENDBRANCH   2   3
ENDBRANCH   1   2
BRANCH   1   5
ATOM      5  C   UNL     1       3.617  24.996  10.876  1.00  0.00     0.028 C 
BRANCH   5   6
ATOM      6  C   UNL     1       5.006  24.540  10.404  1.00  0.00     0.156 C 
BRANCH   6   7
ATOM      7  O   UNL     1       5.836  24.233  11.491  1.00  0.00    -0.396 OA
ATOM      8  H   UNL     1       6.476  24.988  11.582  1.00  0.00     0.210 HD
ENDBRANCH   6   7
ENDBRANCH   5   6
ENDBRANCH   1   5
TORSDOF 5
ENDMDL
MODEL 6
REMARK VINA RESULT:    -3.291     10.018     12.004
REMARK INTER + INTRA:          -4.188
REMARK INTER:                  -4.098
REMARK INTRA:                  -0.090
REMARK UNBOUND:                -0.031
REMARK SMILES CCCCCCO
REMARK SMILES IDX 4 1 3 2 2 3 1 4 5 5 6 6 7 7
REMARK H PARENT 7 8
REMARK Flexibility Score: inf
ROOT
ATOM      1  C   UNL     1       2.398  29.807  11.921  1.00  0.00     0.002 C 
ENDROOT
BRANCH   1   2
ATOM      2  C   UNL     1       3.909  29.946  12.172  1.00  0.00    -0.000 C 
BRANCH   2   3
ATOM      3  C   UNL     1       4.442  31.337  11.793  1.00  0.00    -0.003 C 
ATOM      4  C   UNL     1       5.633  31.769  12.650  1.00  0.00     0.004 C 
ENDBRANCH   2   3
ENDBRANCH   1   2
BRANCH   1   5
ATOM      5  C   UNL     1       1.665  29.092  13.071  1.00  0.00     0.028 C 
BRANCH   5   6
ATOM      6  C   UNL     1       2.607  28.512  14.136  1.00  0.00     0.156 C 
BRANCH   6   7
ATOM      7  O   UNL     1       2.549  27.111  14.157  1.00  0.00    -0.396 OA
ATOM      8  H   UNL     1       2.899  26.825  15.042  1.00  0.00     0.210 HD
ENDBRANCH   6   7
ENDBRANCH   5   6
ENDBRANCH   1   5
TORSDOF 5
ENDMDL
MODEL 7
REMARK VINA RESULT:    -3.244      2.492      3.854
REMARK INTER + INTRA:          -4.129
REMARK INTER:                  -4.043
REMARK INTRA:                  -0.085
REMARK UNBOUND:                -0.031
REMARK SMILES CCCCCCO
REMARK SMILES IDX 4 1 3 2 2 3 1 4 5 5 6 6 7 7
REMARK H PARENT 7 8
REMARK Flexibility Score: inf
ROOT
ATOM      1  C   UNL     1      -0.344  21.439  10.724  1.00  0.00     0.002 C 
ENDROOT
BRANCH   1   2
ATOM      2  C   UNL     1      -0.774  21.287  12.193  1.00  0.00    -0.000 C 
BRANCH   2   3
ATOM      3  C   UNL     1      -2.158  21.896  12.467  1.00  0.00    -0.003 C 
ATOM      4  C   UNL     1      -3.268  20.845  12.524  1.00  0.00     0.004 C 
ENDBRANCH   2   3
ENDBRANCH   1   2
BRANCH   1   5
ATOM      5  C   UNL     1      -0.224  20.090   9.993  1.00  0.00     0.028 C 
BRANCH   5   6
ATOM      6  C   UNL     1       1.153  19.859   9.350  1.00  0.00     0.156 C 
BRANCH   6   7
ATOM      7  O   UNL     1       1.738  18.674   9.817  1.00  0.00    -0.396 OA
ATOM      8  H   UNL     1       1.868  18.089   9.025  1.00  0.00     0.210 HD
ENDBRANCH   6   7
ENDBRANCH   5   6
ENDBRANCH   1   5
TORSDOF 5
ENDMDL
MODEL 8
REMARK VINA RESULT:    -3.057      8.769      9.521
REMARK INTER + INTRA:          -3.892
REMARK INTER:                  -3.855
REMARK INTRA:                  -0.037
REMARK UNBOUND:                -0.031
REMARK SMILES CCCCCCO
REMARK SMILES IDX 4 1 3 2 2 3 1 4 5 5 6 6 7 7
REMARK H PARENT 7 8
REMARK Flexibility Score: inf
ROOT
ATOM      1  C   UNL     1       2.477  26.828  12.218  1.00  0.00     0.002 C 
ENDROOT
BRANCH   1   2
ATOM      2  C   UNL     1       3.440  26.500  11.063  1.00  0.00    -0.000 C 
BRANCH   2   3
ATOM      3  C   UNL     1       3.531  24.992  10.783  1.00  0.00    -0.003 C 
ATOM      4  C   UNL     1       4.968  24.514  10.569  1.00  0.00     0.004 C 
ENDBRANCH   2   3
ENDBRANCH   1   2
BRANCH   1   5
ATOM      5  C   UNL     1       2.495  28.316  12.608  1.00  0.00     0.028 C 
BRANCH   5   6
ATOM      6  C   UNL     1       2.685  28.557  14.114  1.00  0.00     0.156 C 
BRANCH   6   7
ATOM      7  O   UNL     1       2.022  27.581  14.871  1.00  0.00    -0.396 OA
ATOM      8  H   UNL     1       1.756  26.863  14.238  1.00  0.00     0.210 HD
ENDBRANCH   6   7
ENDBRANCH   5   6
ENDBRANCH   1   5
TORSDOF 5
ENDMDL
MODEL 9
REMARK VINA RESULT:    -2.999      8.039      9.117
REMARK INTER + INTRA:          -3.819
REMARK INTER:                  -3.653
REMARK INTRA:                  -0.166
REMARK UNBOUND:                -0.031
REMARK SMILES CCCCCCO
REMARK SMILES IDX 4 1 3 2 2 3 1 4 5 5 6 6 7 7
REMARK H PARENT 7 8
REMARK Flexibility Score: inf
ROOT
ATOM      1  C   UNL     1       4.052  25.328   9.636  1.00  0.00     0.002 C 
ENDROOT
BRANCH   1   2
ATOM      2  C   UNL     1       2.657  24.894  10.118  1.00  0.00    -0.000 C 
BRANCH   2   3
ATOM      3  C   UNL     1       2.316  25.450  11.509  1.00  0.00    -0.003 C 
ATOM      4  C   UNL     1       2.937  26.823  11.768  1.00  0.00     0.004 C 
ENDBRANCH   2   3
ENDBRANCH   1   2
BRANCH   1   5
ATOM      5  C   UNL     1       4.954  24.136   9.267  1.00  0.00     0.028 C 
BRANCH   5   6
ATOM      6  C   UNL     1       6.163  23.967  10.201  1.00  0.00     0.156 C 
BRANCH   6   7
ATOM      7  O   UNL     1       5.827  24.275  11.527  1.00  0.00    -0.396 OA
ATOM      8  H   UNL     1       6.502  23.828  12.102  1.00  0.00     0.210 HD
ENDBRANCH   6   7
ENDBRANCH   5   6
ENDBRANCH   1   5
TORSDOF 5
ENDMDL
