MODEL 1
REMARK VINA RESULT:    -5.156      0.000      0.000
REMARK INTER + INTRA:          -6.709
REMARK INTER:                  -6.361
REMARK INTRA:                  -0.347
REMARK UNBOUND:                -0.347
REMARK SMILES COc1cc(-c2oc3cc(O)cc(O)c3c(=O)c2O)ccc1O
REMARK SMILES IDX 6 1 18 2 16 3 17 4 15 5 13 6 12 7 10 8 9 9 8 10 7 11 5 12
REMARK SMILES IDX 3 13 22 14 4 15 21 16 20 17 2 18 1 19 23 20 19 22 14 24
REMARK SMILES IDX 11 26
REMARK H PARENT 23 21 19 23 14 25 11 27
REMARK Flexibility Score: inf
ROOT
ATOM      1  C   UNL     1      69.554   9.999 356.435  1.00  0.00     0.180 A 
ATOM      2  C   UNL     1      69.561  11.281 355.851  1.00  0.00     0.208 A 
ATOM      3  C   UNL     1      70.237  12.321 356.507  1.00  0.00     0.238 A 
ATOM      4  O   UNL     1      70.259  13.470 355.989  1.00  0.00    -0.285 OA
ATOM      5  C   UNL     1      70.876  12.069 357.738  1.00  0.00     0.111 A 
ATOM      6  C   UNL     1      71.577  13.062 358.465  1.00  0.00     0.134 A 
ATOM      7  C   UNL     1      72.178  12.735 359.688  1.00  0.00     0.093 A 
ATOM      8  C   UNL     1      72.093  11.434 360.199  1.00  0.00     0.123 A 
ATOM      9  C   UNL     1      71.405  10.451 359.486  1.00  0.00     0.094 A 
ATOM     10  C   UNL     1      70.799  10.758 358.264  1.00  0.00     0.146 A 
ATOM     11  O   UNL     1      70.155   9.802 357.604  1.00  0.00    -0.452 OA
ENDROOT
BRANCH   1  12
ATOM     12  C   UNL     1      68.879   8.847 355.794  1.00  0.00     0.025 A 
ATOM     13  C   UNL     1      68.951   6.761 354.519  1.00  0.00     0.161 A 
ATOM     14  C   UNL     1      67.559   6.647 354.639  1.00  0.00     0.157 A 
ATOM     15  C   UNL     1      69.608   7.860 355.107  1.00  0.00     0.062 A 
ATOM     16  C   UNL     1      66.834   7.617 355.344  1.00  0.00     0.051 A 
ATOM     17  C   UNL     1      67.489   8.705 355.923  1.00  0.00     0.016 A 
BRANCH  13  18
ATOM     18  O   UNL     1      69.645   5.763 353.817  1.00  0.00    -0.493 OA
ATOM     19  C   UNL     1      71.062   5.634 353.788  1.00  0.00     0.278 C 
ENDBRANCH  13  18
BRANCH  14  20
ATOM     20  O   UNL     1      66.904   5.564 354.059  1.00  0.00    -0.504 OA
ATOM     21  H   UNL     1      66.557   5.602 353.106  1.00  0.00     0.293 HD
ENDBRANCH  14  20
ENDBRANCH   1  12
BRANCH   2  22
ATOM     22  O   UNL     1      68.878  11.515 354.655  1.00  0.00    -0.502 OA
ATOM     23  H   UNL     1      68.977  12.377 354.133  1.00  0.00     0.293 HD
ENDBRANCH   2  22
BRANCH   6  24
ATOM     24  O   UNL     1      71.678  14.368 357.982  1.00  0.00    -0.507 OA
ATOM     25  H   UNL     1      72.484  14.949 358.179  1.00  0.00     0.293 HD
ENDBRANCH   6  24
BRANCH   8  26
ATOM     26  O   UNL     1      72.690  11.109 361.415  1.00  0.00    -0.508 OA
ATOM     27  H   UNL     1      73.697  11.074 361.519  1.00  0.00     0.293 HD
ENDBRANCH   8  26
TORSDOF 6
ENDMDL
MODEL 2
REMARK VINA RESULT:    -5.125      1.988      6.707
REMARK INTER + INTRA:          -6.671
REMARK INTER:                  -6.380
REMARK INTRA:                  -0.291
REMARK UNBOUND:                -0.347
REMARK SMILES COc1cc(-c2oc3cc(O)cc(O)c3c(=O)c2O)ccc1O
REMARK SMILES IDX 6 1 18 2 16 3 17 4 15 5 13 6 12 7 10 8 9 9 8 10 7 11 5 12
REMARK SMILES IDX 3 13 22 14 4 15 21 16 20 17 2 18 1 19 23 20 19 22 14 24
REMARK SMILES IDX 11 26
REMARK H PARENT 23 21 19 23 14 25 11 27
REMARK Flexibility Score: inf
ROOT
ATOM      1  C   UNL     1      69.525   9.323 356.887  1.00  0.00     0.180 A 
ATOM      2  C   UNL     1      68.504   9.114 355.940  1.00  0.00     0.208 A 
ATOM      3  C   UNL     1      68.620   8.040 355.044  1.00  0.00     0.238 A 
ATOM      4  O   UNL     1      67.706   7.836 354.198  1.00  0.00    -0.285 OA
ATOM      5  C   UNL     1      69.757   7.209 355.096  1.00  0.00     0.111 A 
ATOM      6  C   UNL     1      69.953   6.108 354.227  1.00  0.00     0.134 A 
ATOM      7  C   UNL     1      71.117   5.334 354.335  1.00  0.00     0.093 A 
ATOM      8  C   UNL     1      72.089   5.640 355.295  1.00  0.00     0.123 A 
ATOM      9  C   UNL     1      71.901   6.723 356.154  1.00  0.00     0.094 A 
ATOM     10  C   UNL     1      70.746   7.506 356.062  1.00  0.00     0.146 A 
ATOM     11  O   UNL     1      70.591   8.528 356.897  1.00  0.00    -0.452 OA
ENDROOT
BRANCH   1  12
ATOM     12  C   UNL     1      69.465  10.423 357.878  1.00  0.00     0.025 A 
ATOM     13  C   UNL     1      70.220  12.592 358.717  1.00  0.00     0.161 A 
ATOM     14  C   UNL     1      69.278  12.512 359.752  1.00  0.00     0.157 A 
ATOM     15  C   UNL     1      70.304  11.546 357.776  1.00  0.00     0.062 A 
ATOM     16  C   UNL     1      68.425  11.403 359.841  1.00  0.00     0.051 A 
ATOM     17  C   UNL     1      68.513  10.370 358.907  1.00  0.00     0.016 A 
BRANCH  13  18
ATOM     18  O   UNL     1      71.048  13.724 358.653  1.00  0.00    -0.493 OA
ATOM     19  C   UNL     1      72.390  13.769 359.126  1.00  0.00     0.278 C 
ENDBRANCH  13  18
BRANCH  14  20
ATOM     20  O   UNL     1      69.192  13.541 360.687  1.00  0.00    -0.504 OA
ATOM     21  H   UNL     1      68.377  14.142 360.741  1.00  0.00     0.293 HD
ENDBRANCH  14  20
ENDBRANCH   1  12
BRANCH   2  22
ATOM     22  O   UNL     1      67.410   9.982 355.877  1.00  0.00    -0.502 OA
ATOM     23  H   UNL     1      67.400  10.877 356.350  1.00  0.00     0.293 HD
ENDBRANCH   2  22
BRANCH   6  24
ATOM     24  O   UNL     1      69.002   5.779 353.259  1.00  0.00    -0.507 OA
ATOM     25  H   UNL     1      68.120   5.344 353.504  1.00  0.00     0.293 HD
ENDBRANCH   6  24
BRANCH   8  26
ATOM     26  O   UNL     1      73.247   4.872 355.402  1.00  0.00    -0.508 OA
ATOM     27  H   UNL     1      73.282   4.046 355.988  1.00  0.00     0.293 HD
ENDBRANCH   8  26
TORSDOF 6
ENDMDL
MODEL 3
REMARK VINA RESULT:    -5.002      2.292      6.768
REMARK INTER + INTRA:          -6.519
REMARK INTER:                  -6.109
REMARK INTRA:                  -0.410
REMARK UNBOUND:                -0.347
REMARK SMILES COc1cc(-c2oc3cc(O)cc(O)c3c(=O)c2O)ccc1O
REMARK SMILES IDX 6 1 18 2 16 3 17 4 15 5 13 6 12 7 10 8 9 9 8 10 7 11 5 12
REMARK SMILES IDX 3 13 22 14 4 15 21 16 20 17 2 18 1 19 23 20 19 22 14 24
REMARK SMILES IDX 11 26
REMARK H PARENT 23 21 19 23 14 25 11 27
REMARK Flexibility Score: inf
ROOT
ATOM      1  C   UNL     1      69.516   9.313 356.870  1.00  0.00     0.180 A 
ATOM      2  C   UNL     1      68.495   9.096 355.925  1.00  0.00     0.208 A 
ATOM      3  C   UNL     1      68.614   8.019 355.033  1.00  0.00     0.238 A 
ATOM      4  O   UNL     1      67.700   7.809 354.189  1.00  0.00    -0.285 OA
ATOM      5  C   UNL     1      69.754   7.193 355.087  1.00  0.00     0.111 A 
ATOM      6  C   UNL     1      69.952   6.089 354.222  1.00  0.00     0.134 A 
ATOM      7  C   UNL     1      71.119   5.320 354.332  1.00  0.00     0.093 A 
ATOM      8  C   UNL     1      72.091   5.632 355.290  1.00  0.00     0.123 A 
ATOM      9  C   UNL     1      71.900   6.718 356.145  1.00  0.00     0.094 A 
ATOM     10  C   UNL     1      70.743   7.497 356.051  1.00  0.00     0.146 A 
ATOM     11  O   UNL     1      70.585   8.522 356.882  1.00  0.00    -0.452 OA
ENDROOT
BRANCH   1  12
ATOM     12  C   UNL     1      69.454  10.416 357.856  1.00  0.00     0.025 A 
ATOM     13  C   UNL     1      68.760  11.314 360.023  1.00  0.00     0.161 A 
ATOM     14  C   UNL     1      69.407  12.520 359.722  1.00  0.00     0.157 A 
ATOM     15  C   UNL     1      68.794  10.260 359.088  1.00  0.00     0.062 A 
ATOM     16  C   UNL     1      70.086  12.670 358.505  1.00  0.00     0.051 A 
ATOM     17  C   UNL     1      70.115  11.623 357.582  1.00  0.00     0.016 A 
BRANCH  13  18
ATOM     18  O   UNL     1      68.102  11.198 361.258  1.00  0.00    -0.493 OA
ATOM     19  C   UNL     1      68.457  10.270 362.277  1.00  0.00     0.278 C 
ENDBRANCH  13  18
BRANCH  14  20
ATOM     20  O   UNL     1      69.376  13.567 360.641  1.00  0.00    -0.504 OA
ATOM     21  H   UNL     1      69.264  13.398 361.635  1.00  0.00     0.293 HD
ENDBRANCH  14  20
ENDBRANCH   1  12
BRANCH   2  22
ATOM     22  O   UNL     1      67.399   9.961 355.860  1.00  0.00    -0.502 OA
ATOM     23  H   UNL     1      66.448   9.644 356.008  1.00  0.00     0.293 HD
ENDBRANCH   2  22
BRANCH   6  24
ATOM     24  O   UNL     1      69.002   5.753 353.257  1.00  0.00    -0.507 OA
ATOM     25  H   UNL     1      68.817   4.790 353.001  1.00  0.00     0.293 HD
ENDBRANCH   6  24
BRANCH   8  26
ATOM     26  O   UNL     1      73.251   4.869 355.399  1.00  0.00    -0.508 OA
ATOM     27  H   UNL     1      73.326   3.954 354.969  1.00  0.00     0.293 HD
ENDBRANCH   8  26
TORSDOF 6
ENDMDL
MODEL 4
REMARK VINA RESULT:    -4.937      6.303      8.513
REMARK INTER + INTRA:          -6.439
REMARK INTER:                  -6.191
REMARK INTRA:                  -0.248
REMARK UNBOUND:                -0.347
REMARK SMILES COc1cc(-c2oc3cc(O)cc(O)c3c(=O)c2O)ccc1O
REMARK SMILES IDX 6 1 18 2 16 3 17 4 15 5 13 6 12 7 10 8 9 9 8 10 7 11 5 12
REMARK SMILES IDX 3 13 22 14 4 15 21 16 20 17 2 18 1 19 23 20 19 22 14 24
REMARK SMILES IDX 11 26
REMARK H PARENT 23 21 19 23 14 25 11 27
REMARK Flexibility Score: inf
ROOT
ATOM      1  C   UNL     1      73.059  11.633 362.031  1.00  0.00     0.180 A 
ATOM      2  C   UNL     1      71.856  10.929 361.829  1.00  0.00     0.208 A 
ATOM      3  C   UNL     1      71.320  10.184 362.890  1.00  0.00     0.238 A 
ATOM      4  O   UNL     1      70.238   9.558 362.724  1.00  0.00    -0.285 OA
ATOM      5  C   UNL     1      72.002  10.138 364.123  1.00  0.00     0.111 A 
ATOM      6  C   UNL     1      71.531   9.408 365.242  1.00  0.00     0.134 A 
ATOM      7  C   UNL     1      72.271   9.404 366.432  1.00  0.00     0.093 A 
ATOM      8  C   UNL     1      73.473  10.117 366.526  1.00  0.00     0.123 A 
ATOM      9  C   UNL     1      73.941  10.839 365.427  1.00  0.00     0.094 A 
ATOM     10  C   UNL     1      73.216  10.855 364.232  1.00  0.00     0.146 A 
ATOM     11  O   UNL     1      73.682  11.555 363.203  1.00  0.00    -0.452 OA
ENDROOT
BRANCH   1  12
ATOM     12  C   UNL     1      73.677  12.457 360.966  1.00  0.00     0.025 A 
ATOM     13  C   UNL     1      75.463  12.879 359.350  1.00  0.00     0.161 A 
ATOM     14  C   UNL     1      74.784  14.024 358.910  1.00  0.00     0.157 A 
ATOM     15  C   UNL     1      74.899  12.093 360.375  1.00  0.00     0.062 A 
ATOM     16  C   UNL     1      73.554  14.375 359.482  1.00  0.00     0.051 A 
ATOM     17  C   UNL     1      73.001  13.594 360.498  1.00  0.00     0.016 A 
BRANCH  13  18
ATOM     18  O   UNL     1      76.686  12.553 358.744  1.00  0.00    -0.493 OA
ATOM     19  C   UNL     1      77.956  12.668 359.377  1.00  0.00     0.278 C 
ENDBRANCH  13  18
BRANCH  14  20
ATOM     20  O   UNL     1      75.337  14.807 357.898  1.00  0.00    -0.504 OA
ATOM     21  H   UNL     1      76.301  14.693 357.606  1.00  0.00     0.293 HD
ENDBRANCH  14  20
ENDBRANCH   1  12
BRANCH   2  22
ATOM     22  O   UNL     1      71.227  10.951 360.581  1.00  0.00    -0.502 OA
ATOM     23  H   UNL     1      71.276  11.751 359.963  1.00  0.00     0.293 HD
ENDBRANCH   2  22
BRANCH   6  24
ATOM     24  O   UNL     1      70.337   8.687 365.178  1.00  0.00    -0.507 OA
ATOM     25  H   UNL     1      69.462   9.074 365.512  1.00  0.00     0.293 HD
ENDBRANCH   6  24
BRANCH   8  26
ATOM     26  O   UNL     1      74.210  10.113 367.708  1.00  0.00    -0.508 OA
ATOM     27  H   UNL     1      73.899   9.600 368.525  1.00  0.00     0.293 HD
ENDBRANCH   8  26
TORSDOF 6
ENDMDL
MODEL 5
REMARK VINA RESULT:    -4.930      3.759      5.646
REMARK INTER + INTRA:          -6.431
REMARK INTER:                  -6.086
REMARK INTRA:                  -0.345
REMARK UNBOUND:                -0.347
REMARK SMILES COc1cc(-c2oc3cc(O)cc(O)c3c(=O)c2O)ccc1O
REMARK SMILES IDX 6 1 18 2 16 3 17 4 15 5 13 6 12 7 10 8 9 9 8 10 7 11 5 12
REMARK SMILES IDX 3 13 22 14 4 15 21 16 20 17 2 18 1 19 23 20 19 22 14 24
REMARK SMILES IDX 11 26
REMARK H PARENT 23 21 19 23 14 25 11 27
REMARK Flexibility Score: inf
ROOT
ATOM      1  C   UNL     1      68.473  12.519 354.292  1.00  0.00     0.180 A 
ATOM      2  C   UNL     1      68.290  11.136 354.481  1.00  0.00     0.208 A 
ATOM      3  C   UNL     1      68.911  10.512 355.575  1.00  0.00     0.238 A 
ATOM      4  O   UNL     1      68.745   9.276 355.760  1.00  0.00    -0.285 OA
ATOM      5  C   UNL     1      69.716  11.274 356.446  1.00  0.00     0.111 A 
ATOM      6  C   UNL     1      70.380  10.722 357.569  1.00  0.00     0.134 A 
ATOM      7  C   UNL     1      71.171  11.544 358.382  1.00  0.00     0.093 A 
ATOM      8  C   UNL     1      71.313  12.908 358.095  1.00  0.00     0.123 A 
ATOM      9  C   UNL     1      70.660  13.456 356.990  1.00  0.00     0.094 A 
ATOM     10  C   UNL     1      69.866  12.653 356.168  1.00  0.00     0.146 A 
ATOM     11  O   UNL     1      69.252  13.203 355.126  1.00  0.00    -0.452 OA
ENDROOT
BRANCH   1  12
ATOM     12  C   UNL     1      67.835  13.251 353.174  1.00  0.00     0.025 A 
ATOM     13  C   UNL     1      67.711  13.863 350.809  1.00  0.00     0.161 A 
ATOM     14  C   UNL     1      66.559  14.616 351.072  1.00  0.00     0.157 A 
ATOM     15  C   UNL     1      68.342  13.174 351.865  1.00  0.00     0.062 A 
ATOM     16  C   UNL     1      66.039  14.675 352.372  1.00  0.00     0.051 A 
ATOM     17  C   UNL     1      66.668  13.992 353.413  1.00  0.00     0.016 A 
BRANCH  13  18
ATOM     18  O   UNL     1      68.195  13.818 349.492  1.00  0.00    -0.493 OA
ATOM     19  C   UNL     1      69.082  12.823 348.993  1.00  0.00     0.278 C 
ENDBRANCH  13  18
BRANCH  14  20
ATOM     20  O   UNL     1      65.932  15.301 350.033  1.00  0.00    -0.504 OA
ATOM     21  H   UNL     1      64.971  15.107 349.772  1.00  0.00     0.293 HD
ENDBRANCH  14  20
ENDBRANCH   1  12
BRANCH   2  22
ATOM     22  O   UNL     1      67.527  10.395 353.575  1.00  0.00    -0.502 OA
ATOM     23  H   UNL     1      66.584  10.658 353.316  1.00  0.00     0.293 HD
ENDBRANCH   2  22
BRANCH   6  24
ATOM     24  O   UNL     1      70.258   9.367 357.880  1.00  0.00    -0.507 OA
ATOM     25  H   UNL     1      70.034   8.675 357.174  1.00  0.00     0.293 HD
ENDBRANCH   6  24
BRANCH   8  26
ATOM     26  O   UNL     1      72.100  13.725 358.903  1.00  0.00    -0.508 OA
ATOM     27  H   UNL     1      72.452  13.405 359.798  1.00  0.00     0.293 HD
ENDBRANCH   8  26
TORSDOF 6
ENDMDL
MODEL 6
REMARK VINA RESULT:    -4.839      6.841      9.269
REMARK INTER + INTRA:          -6.318
REMARK INTER:                  -5.919
REMARK INTRA:                  -0.399
REMARK UNBOUND:                -0.347
REMARK SMILES COc1cc(-c2oc3cc(O)cc(O)c3c(=O)c2O)ccc1O
REMARK SMILES IDX 6 1 18 2 16 3 17 4 15 5 13 6 12 7 10 8 9 9 8 10 7 11 5 12
REMARK SMILES IDX 3 13 22 14 4 15 21 16 20 17 2 18 1 19 23 20 19 22 14 24
REMARK SMILES IDX 11 26
REMARK H PARENT 23 21 19 23 14 25 11 27
REMARK Flexibility Score: inf
ROOT
ATOM      1  C   UNL     1      74.251  11.921 361.902  1.00  0.00     0.180 A 
ATOM      2  C   UNL     1      72.876  11.858 361.605  1.00  0.00     0.208 A 
ATOM      3  C   UNL     1      71.992  11.378 362.584  1.00  0.00     0.238 A 
ATOM      4  O   UNL     1      70.757  11.327 362.333  1.00  0.00    -0.285 OA
ATOM      5  C   UNL     1      72.497  10.952 363.829  1.00  0.00     0.111 A 
ATOM      6  C   UNL     1      71.674  10.452 364.868  1.00  0.00     0.134 A 
ATOM      7  C   UNL     1      72.253  10.039 366.076  1.00  0.00     0.093 A 
ATOM      8  C   UNL     1      73.639  10.116 366.266  1.00  0.00     0.123 A 
ATOM      9  C   UNL     1      74.453  10.610 365.245  1.00  0.00     0.094 A 
ATOM     10  C   UNL     1      73.894  11.027 364.034  1.00  0.00     0.146 A 
ATOM     11  O   UNL     1      74.693  11.497 363.082  1.00  0.00    -0.452 OA
ENDROOT
BRANCH   1  12
ATOM     12  C   UNL     1      75.243  12.435 360.929  1.00  0.00     0.025 A 
ATOM     13  C   UNL     1      76.627  14.241 360.034  1.00  0.00     0.161 A 
ATOM     14  C   UNL     1      77.169  13.351 359.096  1.00  0.00     0.157 A 
ATOM     15  C   UNL     1      75.669  13.774 360.955  1.00  0.00     0.062 A 
ATOM     16  C   UNL     1      76.763  12.010 359.083  1.00  0.00     0.051 A 
ATOM     17  C   UNL     1      75.812  11.554 359.997  1.00  0.00     0.016 A 
BRANCH  13  18
ATOM     18  O   UNL     1      77.068  15.574 360.023  1.00  0.00    -0.493 OA
ATOM     19  C   UNL     1      77.991  16.125 360.956  1.00  0.00     0.278 C 
ENDBRANCH  13  18
BRANCH  14  20
ATOM     20  O   UNL     1      78.115  13.807 358.180  1.00  0.00    -0.504 OA
ATOM     21  H   UNL     1      77.865  14.026 357.222  1.00  0.00     0.293 HD
ENDBRANCH  14  20
ENDBRANCH   1  12
BRANCH   2  22
ATOM     22  O   UNL     1      72.408  12.240 360.345  1.00  0.00    -0.502 OA
ATOM     23  H   UNL     1      72.323  11.587 359.576  1.00  0.00     0.293 HD
ENDBRANCH   2  22
BRANCH   6  24
ATOM     24  O   UNL     1      70.291  10.361 364.708  1.00  0.00    -0.507 OA
ATOM     25  H   UNL     1      69.662  11.051 365.103  1.00  0.00     0.293 HD
ENDBRANCH   6  24
BRANCH   8  26
ATOM     26  O   UNL     1      74.215   9.705 367.466  1.00  0.00    -0.508 OA
ATOM     27  H   UNL     1      74.719  10.351 368.061  1.00  0.00     0.293 HD
ENDBRANCH   8  26
TORSDOF 6
ENDMDL
MODEL 7
REMARK VINA RESULT:    -4.713      6.236      8.649
REMARK INTER + INTRA:          -6.162
REMARK INTER:                  -5.821
REMARK INTRA:                  -0.341
REMARK UNBOUND:                -0.347
REMARK SMILES COc1cc(-c2oc3cc(O)cc(O)c3c(=O)c2O)ccc1O
REMARK SMILES IDX 6 1 18 2 16 3 17 4 15 5 13 6 12 7 10 8 9 9 8 10 7 11 5 12
REMARK SMILES IDX 3 13 22 14 4 15 21 16 20 17 2 18 1 19 23 20 19 22 14 24
REMARK SMILES IDX 11 26
REMARK H PARENT 23 21 19 23 14 25 11 27
REMARK Flexibility Score: inf
ROOT
ATOM      1  C   UNL     1      72.916  11.648 362.028  1.00  0.00     0.180 A 
ATOM      2  C   UNL     1      71.732  10.912 361.825  1.00  0.00     0.208 A 
ATOM      3  C   UNL     1      71.230  10.132 362.879  1.00  0.00     0.238 A 
ATOM      4  O   UNL     1      70.165   9.477 362.712  1.00  0.00    -0.285 OA
ATOM      5  C   UNL     1      71.926  10.085 364.103  1.00  0.00     0.111 A 
ATOM      6  C   UNL     1      71.489   9.321 365.213  1.00  0.00     0.134 A 
ATOM      7  C   UNL     1      72.243   9.318 366.396  1.00  0.00     0.093 A 
ATOM      8  C   UNL     1      73.424  10.065 366.490  1.00  0.00     0.123 A 
ATOM      9  C   UNL     1      73.857  10.820 365.399  1.00  0.00     0.094 A 
ATOM     10  C   UNL     1      73.119  10.836 364.212  1.00  0.00     0.146 A 
ATOM     11  O   UNL     1      73.553  11.568 363.192  1.00  0.00    -0.452 OA
ENDROOT
BRANCH   1  12
ATOM     12  C   UNL     1      73.496  12.509 360.972  1.00  0.00     0.025 A 
ATOM     13  C   UNL     1      73.503  14.567 359.650  1.00  0.00     0.161 A 
ATOM     14  C   UNL     1      74.666  14.135 358.997  1.00  0.00     0.157 A 
ATOM     15  C   UNL     1      72.926  13.752 360.645  1.00  0.00     0.062 A 
ATOM     16  C   UNL     1      75.249  12.907 359.338  1.00  0.00     0.051 A 
ATOM     17  C   UNL     1      74.673  12.104 360.323  1.00  0.00     0.016 A 
BRANCH  13  18
ATOM     18  O   UNL     1      72.956  15.808 359.290  1.00  0.00    -0.493 OA
ATOM     19  C   UNL     1      71.569  16.125 359.344  1.00  0.00     0.278 C 
ENDBRANCH  13  18
BRANCH  14  20
ATOM     20  O   UNL     1      75.240  14.935 358.011  1.00  0.00    -0.504 OA
ATOM     21  H   UNL     1      74.750  15.149 357.149  1.00  0.00     0.293 HD
ENDBRANCH  14  20
ENDBRANCH   1  12
BRANCH   2  22
ATOM     22  O   UNL     1      71.089  10.937 360.585  1.00  0.00    -0.502 OA
ATOM     23  H   UNL     1      71.598  10.959 359.710  1.00  0.00     0.293 HD
ENDBRANCH   2  22
BRANCH   6  24
ATOM     24  O   UNL     1      70.317   8.566 365.149  1.00  0.00    -0.507 OA
ATOM     25  H   UNL     1      70.301   7.583 365.394  1.00  0.00     0.293 HD
ENDBRANCH   6  24
BRANCH   8  26
ATOM     26  O   UNL     1      74.173  10.062 367.664  1.00  0.00    -0.508 OA
ATOM     27  H   UNL     1      75.173  10.227 367.656  1.00  0.00     0.293 HD
ENDBRANCH   8  26
TORSDOF 6
ENDMDL
MODEL 8
REMARK VINA RESULT:    -4.711      4.486      7.895
REMARK INTER + INTRA:          -6.160
REMARK INTER:                  -5.794
REMARK INTRA:                  -0.366
REMARK UNBOUND:                -0.347
REMARK SMILES COc1cc(-c2oc3cc(O)cc(O)c3c(=O)c2O)ccc1O
REMARK SMILES IDX 6 1 18 2 16 3 17 4 15 5 13 6 12 7 10 8 9 9 8 10 7 11 5 12
REMARK SMILES IDX 3 13 22 14 4 15 21 16 20 17 2 18 1 19 23 20 19 22 14 24
REMARK SMILES IDX 11 26
REMARK H PARENT 23 21 19 23 14 25 11 27
REMARK Flexibility Score: inf
ROOT
ATOM      1  C   UNL     1      67.971  12.513 353.646  1.00  0.00     0.180 A 
ATOM      2  C   UNL     1      67.312  11.385 353.120  1.00  0.00     0.208 A 
ATOM      3  C   UNL     1      67.055  11.331 351.741  1.00  0.00     0.238 A 
ATOM      4  O   UNL     1      66.475  10.321 351.258  1.00  0.00    -0.285 OA
ATOM      5  C   UNL     1      67.442  12.407 350.918  1.00  0.00     0.111 A 
ATOM      6  C   UNL     1      67.218  12.433 349.520  1.00  0.00     0.134 A 
ATOM      7  C   UNL     1      67.624  13.546 348.770  1.00  0.00     0.093 A 
ATOM      8  C   UNL     1      68.251  14.633 349.391  1.00  0.00     0.123 A 
ATOM      9  C   UNL     1      68.475  14.612 350.769  1.00  0.00     0.094 A 
ATOM     10  C   UNL     1      68.078  13.512 351.533  1.00  0.00     0.146 A 
ATOM     11  O   UNL     1      68.309  13.516 352.841  1.00  0.00    -0.452 OA
ENDROOT
BRANCH   1  12
ATOM     12  C   UNL     1      68.294  12.634 355.086  1.00  0.00     0.025 A 
ATOM     13  C   UNL     1      69.696  12.102 357.019  1.00  0.00     0.161 A 
ATOM     14  C   UNL     1      68.902  12.938 357.816  1.00  0.00     0.157 A 
ATOM     15  C   UNL     1      69.392  11.960 355.650  1.00  0.00     0.062 A 
ATOM     16  C   UNL     1      67.822  13.629 357.251  1.00  0.00     0.051 A 
ATOM     17  C   UNL     1      67.524  13.484 355.895  1.00  0.00     0.016 A 
BRANCH  13  18
ATOM     18  O   UNL     1      70.777  11.437 357.618  1.00  0.00    -0.493 OA
ATOM     19  C   UNL     1      70.726  10.106 358.121  1.00  0.00     0.278 C 
ENDBRANCH  13  18
BRANCH  14  20
ATOM     20  O   UNL     1      69.196  13.081 359.170  1.00  0.00    -0.504 OA
ATOM     21  H   UNL     1      68.655  12.605 359.884  1.00  0.00     0.293 HD
ENDBRANCH  14  20
ENDBRANCH   1  12
BRANCH   2  22
ATOM     22  O   UNL     1      66.894  10.354 353.966  1.00  0.00    -0.502 OA
ATOM     23  H   UNL     1      66.175   9.692 353.701  1.00  0.00     0.293 HD
ENDBRANCH   2  22
BRANCH   6  24
ATOM     24  O   UNL     1      66.595  11.365 348.873  1.00  0.00    -0.507 OA
ATOM     25  H   UNL     1      67.114  10.549 348.569  1.00  0.00     0.293 HD
ENDBRANCH   6  24
BRANCH   8  26
ATOM     26  O   UNL     1      68.654  15.740 348.647  1.00  0.00    -0.508 OA
ATOM     27  H   UNL     1      69.632  15.982 348.545  1.00  0.00     0.293 HD
ENDBRANCH   8  26
TORSDOF 6
ENDMDL
MODEL 9
REMARK VINA RESULT:    -4.693      4.093      7.050
REMARK INTER + INTRA:          -6.138
REMARK INTER:                  -5.761
REMARK INTRA:                  -0.378
REMARK UNBOUND:                -0.347
REMARK SMILES COc1cc(-c2oc3cc(O)cc(O)c3c(=O)c2O)ccc1O
REMARK SMILES IDX 6 1 18 2 16 3 17 4 15 5 13 6 12 7 10 8 9 9 8 10 7 11 5 12
REMARK SMILES IDX 3 13 22 14 4 15 21 16 20 17 2 18 1 19 23 20 19 22 14 24
REMARK SMILES IDX 11 26
REMARK H PARENT 23 21 19 23 14 25 11 27
REMARK Flexibility Score: inf
ROOT
ATOM      1  C   UNL     1      74.256  12.829 359.843  1.00  0.00     0.180 A 
ATOM      2  C   UNL     1      74.130  14.095 359.238  1.00  0.00     0.208 A 
ATOM      3  C   UNL     1      75.279  14.725 358.737  1.00  0.00     0.238 A 
ATOM      4  O   UNL     1      75.176  15.854 358.184  1.00  0.00    -0.285 OA
ATOM      5  C   UNL     1      76.532  14.093 358.866  1.00  0.00     0.111 A 
ATOM      6  C   UNL     1      77.740  14.662 358.391  1.00  0.00     0.134 A 
ATOM      7  C   UNL     1      78.949  13.974 358.566  1.00  0.00     0.093 A 
ATOM      8  C   UNL     1      78.974  12.729 359.205  1.00  0.00     0.123 A 
ATOM      9  C   UNL     1      77.787  12.164 359.674  1.00  0.00     0.094 A 
ATOM     10  C   UNL     1      76.572  12.834 359.509  1.00  0.00     0.146 A 
ATOM     11  O   UNL     1      75.457  12.270 359.960  1.00  0.00    -0.452 OA
ENDROOT
BRANCH   1  12
ATOM     12  C   UNL     1      73.088  12.093 360.377  1.00  0.00     0.025 A 
ATOM     13  C   UNL     1      71.138  10.651 360.060  1.00  0.00     0.161 A 
ATOM     14  C   UNL     1      70.912  10.664 361.443  1.00  0.00     0.157 A 
ATOM     15  C   UNL     1      72.235  11.362 359.532  1.00  0.00     0.062 A 
ATOM     16  C   UNL     1      71.775  11.374 362.290  1.00  0.00     0.051 A 
ATOM     17  C   UNL     1      72.859  12.077 361.761  1.00  0.00     0.016 A 
BRANCH  13  18
ATOM     18  O   UNL     1      70.259   9.919 359.246  1.00  0.00    -0.493 OA
ATOM     19  C   UNL     1      70.462   9.671 357.859  1.00  0.00     0.278 C 
ENDBRANCH  13  18
BRANCH  14  20
ATOM     20  O   UNL     1      69.828   9.966 361.972  1.00  0.00    -0.504 OA
ATOM     21  H   UNL     1      69.283  10.336 362.743  1.00  0.00     0.293 HD
ENDBRANCH  14  20
ENDBRANCH   1  12
BRANCH   2  22
ATOM     22  O   UNL     1      72.883  14.722 359.167  1.00  0.00    -0.502 OA
ATOM     23  H   UNL     1      72.364  14.994 359.994  1.00  0.00     0.293 HD
ENDBRANCH   2  22
BRANCH   6  24
ATOM     24  O   UNL     1      77.746  15.902 357.750  1.00  0.00    -0.507 OA
ATOM     25  H   UNL     1      77.555  15.991 356.759  1.00  0.00     0.293 HD
ENDBRANCH   6  24
BRANCH   8  26
ATOM     26  O   UNL     1      80.176  12.046 359.380  1.00  0.00    -0.508 OA
ATOM     27  H   UNL     1      80.220  11.034 359.347  1.00  0.00     0.293 HD
ENDBRANCH   8  26
TORSDOF 6
ENDMDL
