MODEL 1
REMARK VINA RESULT:    -4.903      0.000      0.000
REMARK INTER + INTRA:          -6.864
REMARK INTER:                  -6.050
REMARK INTRA:                  -0.814
REMARK UNBOUND:                -0.814
REMARK SMILES C=CC(=C)CCC=C(C)C
REMARK SMILES IDX 5 1 6 2 7 3 9 4 8 5 10 6 3 7 4 8 2 9 1 10
REMARK H PARENT
REMARK Flexibility Score: inf
ROOT
ATOM      1  C   UNL     1       2.912  13.612   5.633  1.00  0.00     0.039 C 
ENDROOT
BRANCH   1   2
ATOM      2  C   UNL     1       1.799  13.112   6.562  1.00  0.00     0.032 C 
BRANCH   2   3
ATOM      3  C   UNL     1       0.523  13.887   6.342  1.00  0.00    -0.028 C 
ATOM      4  C   UNL     1      -1.861  14.238   5.862  1.00  0.00     0.039 C 
ATOM      5  C   UNL     1      -0.671  13.330   6.039  1.00  0.00    -0.080 C 
ATOM      6  C   UNL     1      -0.839  11.840   5.856  1.00  0.00     0.039 C 
ENDBRANCH   2   3
ENDBRANCH   1   2
BRANCH   1   7
ATOM      7  C   UNL     1       2.702  13.106   4.222  1.00  0.00    -0.055 C 
ATOM      8  C   UNL     1       3.012  11.837   3.933  1.00  0.00     0.012 C 
BRANCH   7   9
ATOM      9  C   UNL     1       2.207  13.983   3.129  1.00  0.00    -0.005 C 
ATOM     10  C   UNL     1       0.946  13.995   2.696  1.00  0.00     0.009 C 
ENDBRANCH   7   9
ENDBRANCH   1   7
TORSDOF 4
ENDMDL
MODEL 2
REMARK VINA RESULT:    -4.868      1.178      4.127
REMARK INTER + INTRA:          -6.820
REMARK INTER:                  -6.148
REMARK INTRA:                  -0.672
REMARK UNBOUND:                -0.814
REMARK SMILES C=CC(=C)CCC=C(C)C
REMARK SMILES IDX 5 1 6 2 7 3 9 4 8 5 10 6 3 7 4 8 2 9 1 10
REMARK H PARENT
REMARK Flexibility Score: inf
ROOT
ATOM      1  C   UNL     1       0.714  13.789   6.474  1.00  0.00     0.039 C 
ENDROOT
BRANCH   1   2
ATOM      2  C   UNL     1       2.093  13.121   6.516  1.00  0.00     0.032 C 
BRANCH   2   3
ATOM      3  C   UNL     1       3.049  13.792   5.561  1.00  0.00    -0.028 C 
ATOM      4  C   UNL     1       4.398  14.072   3.527  1.00  0.00     0.039 C 
ATOM      5  C   UNL     1       3.447  13.271   4.379  1.00  0.00    -0.080 C 
ATOM      6  C   UNL     1       2.983  11.915   3.902  1.00  0.00     0.039 C 
ENDBRANCH   2   3
ENDBRANCH   1   2
BRANCH   1   7
ATOM      7  C   UNL     1      -0.175  13.125   5.444  1.00  0.00    -0.055 C 
ATOM      8  C   UNL     1      -0.432  13.763   4.297  1.00  0.00     0.012 C 
BRANCH   7   9
ATOM      9  C   UNL     1      -0.813  11.804   5.681  1.00  0.00    -0.005 C 
ATOM     10  C   UNL     1      -1.483  11.486   6.789  1.00  0.00     0.009 C 
ENDBRANCH   7   9
ENDBRANCH   1   7
TORSDOF 4
ENDMDL
MODEL 3
REMARK VINA RESULT:    -4.698      1.185      4.352
REMARK INTER + INTRA:          -6.611
REMARK INTER:                  -5.761
REMARK INTRA:                  -0.850
REMARK UNBOUND:                -0.814
REMARK SMILES C=CC(=C)CCC=C(C)C
REMARK SMILES IDX 5 1 6 2 7 3 9 4 8 5 10 6 3 7 4 8 2 9 1 10
REMARK H PARENT
REMARK Flexibility Score: inf
ROOT
ATOM      1  C   UNL     1       0.010  13.976   3.990  1.00  0.00     0.039 C 
ENDROOT
BRANCH   1   2
ATOM      2  C   UNL     1       1.021  13.519   2.932  1.00  0.00     0.032 C 
BRANCH   2   3
ATOM      3  C   UNL     1       2.331  14.252   3.083  1.00  0.00    -0.028 C 
ATOM      4  C   UNL     1       4.733  14.536   3.514  1.00  0.00     0.039 C 
ATOM      5  C   UNL     1       3.504  13.669   3.416  1.00  0.00    -0.080 C 
ATOM      6  C   UNL     1       3.612  12.191   3.706  1.00  0.00     0.039 C 
ENDBRANCH   2   3
ENDBRANCH   1   2
BRANCH   1   7
ATOM      7  C   UNL     1       0.201  13.210   5.283  1.00  0.00    -0.055 C 
ATOM      8  C   UNL     1      -0.334  11.990   5.401  1.00  0.00     0.012 C 
BRANCH   7   9
ATOM      9  C   UNL     1       0.924  13.785   6.446  1.00  0.00    -0.005 C 
ATOM     10  C   UNL     1       2.163  13.441   6.798  1.00  0.00     0.009 C 
ENDBRANCH   7   9
ENDBRANCH   1   7
TORSDOF 4
ENDMDL
MODEL 4
REMARK VINA RESULT:    -4.644      1.309      2.471
REMARK INTER + INTRA:          -6.545
REMARK INTER:                  -5.823
REMARK INTRA:                  -0.722
REMARK UNBOUND:                -0.814
REMARK SMILES C=CC(=C)CCC=C(C)C
REMARK SMILES IDX 5 1 6 2 7 3 9 4 8 5 10 6 3 7 4 8 2 9 1 10
REMARK H PARENT
REMARK Flexibility Score: inf
ROOT
ATOM      1  C   UNL     1       1.876  13.351   2.685  1.00  0.00     0.039 C 
ENDROOT
BRANCH   1   2
ATOM      2  C   UNL     1       0.956  14.116   3.644  1.00  0.00     0.032 C 
BRANCH   2   3
ATOM      3  C   UNL     1       0.096  13.167   4.441  1.00  0.00    -0.028 C 
ATOM      4  C   UNL     1      -0.678  11.920   6.412  1.00  0.00     0.039 C 
ATOM      5  C   UNL     1       0.276  12.881   5.750  1.00  0.00    -0.080 C 
ATOM      6  C   UNL     1       1.406  13.479   6.555  1.00  0.00     0.039 C 
ENDBRANCH   2   3
ENDBRANCH   1   2
BRANCH   1   7
ATOM      7  C   UNL     1       3.141  12.909   3.389  1.00  0.00    -0.055 C 
ATOM      8  C   UNL     1       3.390  11.601   3.519  1.00  0.00     0.012 C 
BRANCH   7   9
ATOM      9  C   UNL     1       4.097  13.878   3.985  1.00  0.00    -0.005 C 
ATOM     10  C   UNL     1       4.597  14.929   3.334  1.00  0.00     0.009 C 
ENDBRANCH   7   9
ENDBRANCH   1   7
TORSDOF 4
ENDMDL
MODEL 5
REMARK VINA RESULT:    -4.613      1.607      4.627
REMARK INTER + INTRA:          -6.506
REMARK INTER:                  -6.041
REMARK INTRA:                  -0.464
REMARK UNBOUND:                -0.814
REMARK SMILES C=CC(=C)CCC=C(C)C
REMARK SMILES IDX 5 1 6 2 7 3 9 4 8 5 10 6 3 7 4 8 2 9 1 10
REMARK H PARENT
REMARK Flexibility Score: inf
ROOT
ATOM      1  C   UNL     1       0.622  13.709   4.255  1.00  0.00     0.039 C 
ENDROOT
BRANCH   1   2
ATOM      2  C   UNL     1       1.721  13.374   3.240  1.00  0.00     0.032 C 
BRANCH   2   3
ATOM      3  C   UNL     1       2.100  14.590   2.431  1.00  0.00    -0.028 C 
ATOM      4  C   UNL     1       3.544  16.385   1.578  1.00  0.00     0.039 C 
ATOM      5  C   UNL     1       3.314  15.183   2.457  1.00  0.00    -0.080 C 
ATOM      6  C   UNL     1       4.430  14.689   3.348  1.00  0.00     0.039 C 
ENDBRANCH   2   3
ENDBRANCH   1   2
BRANCH   1   7
ATOM      7  C   UNL     1       1.001  13.224   5.638  1.00  0.00    -0.055 C 
ATOM      8  C   UNL     1       2.261  13.377   6.059  1.00  0.00     0.012 C 
BRANCH   7   9
ATOM      9  C   UNL     1       0.031  12.539   6.532  1.00  0.00    -0.005 C 
ATOM     10  C   UNL     1      -0.921  11.709   6.103  1.00  0.00     0.009 C 
ENDBRANCH   7   9
ENDBRANCH   1   7
TORSDOF 4
ENDMDL
MODEL 6
REMARK VINA RESULT:    -4.551      2.089      4.909
REMARK INTER + INTRA:          -6.430
REMARK INTER:                  -6.128
REMARK INTRA:                  -0.302
REMARK UNBOUND:                -0.814
REMARK SMILES C=CC(=C)CCC=C(C)C
REMARK SMILES IDX 5 1 6 2 7 3 9 4 8 5 10 6 3 7 4 8 2 9 1 10
REMARK H PARENT
REMARK Flexibility Score: inf
ROOT
ATOM      1  C   UNL     1       1.396  13.530   3.358  1.00  0.00     0.039 C 
ENDROOT
BRANCH   1   2
ATOM      2  C   UNL     1       2.102  13.988   2.077  1.00  0.00     0.032 C 
BRANCH   2   3
ATOM      3  C   UNL     1       3.056  15.122   2.360  1.00  0.00    -0.028 C 
ATOM      4  C   UNL     1       4.189  17.273   2.006  1.00  0.00     0.039 C 
ATOM      5  C   UNL     1       3.203  16.216   1.581  1.00  0.00    -0.080 C 
ATOM      6  C   UNL     1       2.426  16.397   0.298  1.00  0.00     0.039 C 
ENDBRANCH   2   3
ENDBRANCH   1   2
BRANCH   1   7
ATOM      7  C   UNL     1       2.379  12.890   4.316  1.00  0.00    -0.055 C 
ATOM      8  C   UNL     1       3.188  11.924   3.868  1.00  0.00     0.012 C 
BRANCH   7   9
ATOM      9  C   UNL     1       2.446  13.265   5.752  1.00  0.00    -0.005 C 
ATOM     10  C   UNL     1       1.380  13.555   6.498  1.00  0.00     0.009 C 
ENDBRANCH   7   9
ENDBRANCH   1   7
TORSDOF 4
ENDMDL
MODEL 7
REMARK VINA RESULT:    -4.516      1.381      4.123
REMARK INTER + INTRA:          -6.387
REMARK INTER:                  -5.843
REMARK INTRA:                  -0.544
REMARK UNBOUND:                -0.814
REMARK SMILES C=CC(=C)CCC=C(C)C
REMARK SMILES IDX 5 1 6 2 7 3 9 4 8 5 10 6 3 7 4 8 2 9 1 10
REMARK H PARENT
REMARK Flexibility Score: inf
ROOT
ATOM      1  C   UNL     1       2.957  12.840   4.655  1.00  0.00     0.039 C 
ENDROOT
BRANCH   1   2
ATOM      2  C   UNL     1       2.594  12.911   3.167  1.00  0.00     0.032 C 
BRANCH   2   3
ATOM      3  C   UNL     1       2.962  14.252   2.583  1.00  0.00    -0.028 C 
ATOM      4  C   UNL     1       2.607  16.415   1.472  1.00  0.00     0.039 C 
ATOM      5  C   UNL     1       2.088  15.100   1.997  1.00  0.00    -0.080 C 
ATOM      6  C   UNL     1       0.624  14.763   1.838  1.00  0.00     0.039 C 
ENDBRANCH   2   3
ENDBRANCH   1   2
BRANCH   1   7
ATOM      7  C   UNL     1       1.727  13.021   5.519  1.00  0.00    -0.055 C 
ATOM      8  C   UNL     1       1.875  13.408   6.790  1.00  0.00     0.012 C 
BRANCH   7   9
ATOM      9  C   UNL     1       0.357  12.737   5.017  1.00  0.00    -0.005 C 
ATOM     10  C   UNL     1      -0.556  12.040   5.695  1.00  0.00     0.009 C 
ENDBRANCH   7   9
ENDBRANCH   1   7
TORSDOF 4
ENDMDL
MODEL 8
REMARK VINA RESULT:    -4.449      1.701      4.177
REMARK INTER + INTRA:          -6.304
REMARK INTER:                  -5.523
REMARK INTRA:                  -0.781
REMARK UNBOUND:                -0.814
REMARK SMILES C=CC(=C)CCC=C(C)C
REMARK SMILES IDX 5 1 6 2 7 3 9 4 8 5 10 6 3 7 4 8 2 9 1 10
REMARK H PARENT
REMARK Flexibility Score: inf
ROOT
ATOM      1  C   UNL     1       0.761  12.939   4.601  1.00  0.00     0.039 C 
ENDROOT
BRANCH   1   2
ATOM      2  C   UNL     1       0.448  14.143   3.704  1.00  0.00     0.032 C 
BRANCH   2   3
ATOM      3  C   UNL     1       0.564  13.776   2.245  1.00  0.00    -0.028 C 
ATOM      4  C   UNL     1       1.491  13.793  -0.030  1.00  0.00     0.039 C 
ATOM      5  C   UNL     1       1.496  14.268   1.401  1.00  0.00    -0.080 C 
ATOM      6  C   UNL     1       2.522  15.285   1.842  1.00  0.00     0.039 C 
ENDBRANCH   2   3
ENDBRANCH   1   2
BRANCH   1   7
ATOM      7  C   UNL     1       2.132  13.077   5.229  1.00  0.00    -0.055 C 
ATOM      8  C   UNL     1       2.226  13.465   6.505  1.00  0.00     0.012 C 
BRANCH   7   9
ATOM      9  C   UNL     1       3.383  12.842   4.462  1.00  0.00    -0.005 C 
ATOM     10  C   UNL     1       3.551  11.842   3.597  1.00  0.00     0.009 C 
ENDBRANCH   7   9
ENDBRANCH   1   7
TORSDOF 4
ENDMDL
MODEL 9
REMARK VINA RESULT:    -4.424      1.144      4.310
REMARK INTER + INTRA:          -6.273
REMARK INTER:                  -5.945
REMARK INTRA:                  -0.328
REMARK UNBOUND:                -0.814
REMARK SMILES C=CC(=C)CCC=C(C)C
REMARK SMILES IDX 5 1 6 2 7 3 9 4 8 5 10 6 3 7 4 8 2 9 1 10
REMARK H PARENT
REMARK Flexibility Score: inf
ROOT
ATOM      1  C   UNL     1       0.934  13.220   6.054  1.00  0.00     0.039 C 
ENDROOT
BRANCH   1   2
ATOM      2  C   UNL     1       1.535  12.590   4.791  1.00  0.00     0.032 C 
BRANCH   2   3
ATOM      3  C   UNL     1       1.532  13.570   3.644  1.00  0.00    -0.028 C 
ATOM      4  C   UNL     1       2.473  15.035   1.911  1.00  0.00     0.039 C 
ATOM      5  C   UNL     1       2.641  14.074   3.060  1.00  0.00    -0.080 C 
ATOM      6  C   UNL     1       4.030  13.717   3.533  1.00  0.00     0.039 C 
ENDBRANCH   2   3
ENDBRANCH   1   2
BRANCH   1   7
ATOM      7  C   UNL     1      -0.574  13.091   6.053  1.00  0.00    -0.055 C 
ATOM      8  C   UNL     1      -1.128  11.930   6.419  1.00  0.00     0.012 C 
BRANCH   7   9
ATOM      9  C   UNL     1      -1.465  14.197   5.615  1.00  0.00    -0.005 C 
ATOM     10  C   UNL     1      -2.112  15.010   6.451  1.00  0.00     0.009 C 
ENDBRANCH   7   9
ENDBRANCH   1   7
TORSDOF 4
ENDMDL
