MODEL 1
REMARK VINA RESULT:    -8.263      0.000      0.000
REMARK INTER + INTRA:          -9.649
REMARK INTER:                  -9.954
REMARK INTRA:                   0.304
REMARK UNBOUND:                 0.304
REMARK SMILES O=c1c(O)c(-c2ccc(O)c(O)c2)oc2cc(O)cc(O)c12
REMARK SMILES IDX 5 1 3 2 2 3 1 4 22 5 20 6 19 7 17 8 16 9 15 10 14 11 6 12
REMARK SMILES IDX 7 13 8 14 9 15 13 16 11 17 10 18 12 20 4 22 21 24 18 26
REMARK H PARENT 10 19 12 21 4 23 21 25 18 27
REMARK Flexibility Score: inf
ROOT
ATOM      1  C   UNL     1     -24.033 -18.613 -13.759  1.00  0.00     0.180 A 
ATOM      2  C   UNL     1     -25.173 -18.022 -14.336  1.00  0.00     0.208 A 
ATOM      3  C   UNL     1     -25.118 -16.672 -14.719  1.00  0.00     0.238 A 
ATOM      4  O   UNL     1     -26.130 -16.135 -15.247  1.00  0.00    -0.285 OA
ATOM      5  C   UNL     1     -23.937 -15.934 -14.502  1.00  0.00     0.111 A 
ATOM      6  C   UNL     1     -23.801 -14.570 -14.855  1.00  0.00     0.134 A 
ATOM      7  C   UNL     1     -22.595 -13.901 -14.597  1.00  0.00     0.093 A 
ATOM      8  C   UNL     1     -21.525 -14.568 -13.994  1.00  0.00     0.123 A 
ATOM      9  C   UNL     1     -21.654 -15.916 -13.643  1.00  0.00     0.094 A 
ATOM     10  C   UNL     1     -22.847 -16.600 -13.894  1.00  0.00     0.146 A 
ATOM     11  O   UNL     1     -22.941 -17.881 -13.555  1.00  0.00    -0.452 OA
ENDROOT
BRANCH   1  12
ATOM     12  C   UNL     1     -24.006 -20.035 -13.347  1.00  0.00     0.025 A 
ATOM     13  C   UNL     1     -22.792 -20.739 -13.378  1.00  0.00     0.016 A 
ATOM     14  C   UNL     1     -22.747 -22.087 -13.013  1.00  0.00     0.051 A 
ATOM     15  C   UNL     1     -23.917 -22.755 -12.627  1.00  0.00     0.157 A 
ATOM     16  C   UNL     1     -25.181 -20.713 -12.979  1.00  0.00     0.062 A 
ATOM     17  C   UNL     1     -25.141 -22.064 -12.615  1.00  0.00     0.158 A 
BRANCH  15  18
ATOM     18  O   UNL     1     -23.868 -24.099 -12.261  1.00  0.00    -0.504 OA
ATOM     19  H   UNL     1     -23.500 -24.806 -12.886  1.00  0.00     0.293 HD
ENDBRANCH  15  18
BRANCH  17  20
ATOM     20  O   UNL     1     -26.325 -22.703 -12.249  1.00  0.00    -0.504 OA
ATOM     21  H   UNL     1     -26.677 -22.682 -11.300  1.00  0.00     0.293 HD
ENDBRANCH  17  20
ENDBRANCH   1  12
BRANCH   2  22
ATOM     22  O   UNL     1     -26.348 -18.761 -14.496  1.00  0.00    -0.502 OA
ATOM     23  H   UNL     1     -26.670 -19.082 -15.400  1.00  0.00     0.293 HD
ENDBRANCH   2  22
BRANCH   6  24
ATOM     24  O   UNL     1     -24.851 -13.875 -15.457  1.00  0.00    -0.507 OA
ATOM     25  H   UNL     1     -25.271 -13.063 -15.023  1.00  0.00     0.293 HD
ENDBRANCH   6  24
BRANCH   8  26
ATOM     26  O   UNL     1     -20.339 -13.880 -13.748  1.00  0.00    -0.508 OA
ATOM     27  H   UNL     1     -20.316 -12.868 -13.689  1.00  0.00     0.293 HD
ENDBRANCH   8  26
TORSDOF 6
ENDMDL
MODEL 2
REMARK VINA RESULT:    -8.257      1.962      7.249
REMARK INTER + INTRA:          -9.643
REMARK INTER:                  -9.311
REMARK INTRA:                  -0.332
REMARK UNBOUND:                 0.304
REMARK SMILES O=c1c(O)c(-c2ccc(O)c(O)c2)oc2cc(O)cc(O)c12
REMARK SMILES IDX 5 1 3 2 2 3 1 4 22 5 20 6 19 7 17 8 16 9 15 10 14 11 6 12
REMARK SMILES IDX 7 13 8 14 9 15 13 16 11 17 10 18 12 20 4 22 21 24 18 26
REMARK H PARENT 10 19 12 21 4 23 21 25 18 27
REMARK Flexibility Score: inf
ROOT
ATOM      1  C   UNL     1     -25.262 -19.314 -13.508  1.00  0.00     0.180 A 
ATOM      2  C   UNL     1     -26.082 -19.595 -12.399  1.00  0.00     0.208 A 
ATOM      3  C   UNL     1     -26.473 -20.923 -12.162  1.00  0.00     0.238 A 
ATOM      4  O   UNL     1     -27.198 -21.188 -11.165  1.00  0.00    -0.285 OA
ATOM      5  C   UNL     1     -26.055 -21.940 -13.045  1.00  0.00     0.111 A 
ATOM      6  C   UNL     1     -26.408 -23.301 -12.880  1.00  0.00     0.134 A 
ATOM      7  C   UNL     1     -25.961 -24.253 -13.808  1.00  0.00     0.093 A 
ATOM      8  C   UNL     1     -25.170 -23.872 -14.895  1.00  0.00     0.123 A 
ATOM      9  C   UNL     1     -24.819 -22.528 -15.063  1.00  0.00     0.094 A 
ATOM     10  C   UNL     1     -25.254 -21.565 -14.148  1.00  0.00     0.146 A 
ATOM     11  O   UNL     1     -24.901 -20.297 -14.329  1.00  0.00    -0.452 OA
ENDROOT
BRANCH   1  12
ATOM     12  C   UNL     1     -24.793 -17.943 -13.814  1.00  0.00     0.025 A 
ATOM     13  C   UNL     1     -25.542 -17.136 -14.685  1.00  0.00     0.016 A 
ATOM     14  C   UNL     1     -25.107 -15.846 -15.003  1.00  0.00     0.051 A 
ATOM     15  C   UNL     1     -23.911 -15.351 -14.468  1.00  0.00     0.157 A 
ATOM     16  C   UNL     1     -23.583 -17.450 -13.295  1.00  0.00     0.062 A 
ATOM     17  C   UNL     1     -23.143 -16.160 -13.613  1.00  0.00     0.158 A 
BRANCH  15  18
ATOM     18  O   UNL     1     -23.481 -14.063 -14.785  1.00  0.00    -0.504 OA
ATOM     19  H   UNL     1     -22.506 -13.799 -14.723  1.00  0.00     0.293 HD
ENDBRANCH  15  18
BRANCH  17  20
ATOM     20  O   UNL     1     -21.941 -15.702 -13.075  1.00  0.00    -0.504 OA
ATOM     21  H   UNL     1     -21.311 -16.313 -12.568  1.00  0.00     0.293 HD
ENDBRANCH  17  20
ENDBRANCH   1  12
BRANCH   2  22
ATOM     22  O   UNL     1     -26.523 -18.562 -11.567  1.00  0.00    -0.502 OA
ATOM     23  H   UNL     1     -27.238 -18.699 -10.863  1.00  0.00     0.293 HD
ENDBRANCH   2  22
BRANCH   6  24
ATOM     24  O   UNL     1     -27.197 -23.713 -11.805  1.00  0.00    -0.507 OA
ATOM     25  H   UNL     1     -26.945 -24.511 -11.234  1.00  0.00     0.293 HD
ENDBRANCH   6  24
BRANCH   8  26
ATOM     26  O   UNL     1     -24.741 -24.837 -15.803  1.00  0.00    -0.508 OA
ATOM     27  H   UNL     1     -24.327 -24.581 -16.693  1.00  0.00     0.293 HD
ENDBRANCH   8  26
TORSDOF 6
ENDMDL
MODEL 3
REMARK VINA RESULT:    -7.862      1.440      7.474
REMARK INTER + INTRA:          -9.167
REMARK INTER:                  -9.368
REMARK INTRA:                   0.201
REMARK UNBOUND:                 0.304
REMARK SMILES O=c1c(O)c(-c2ccc(O)c(O)c2)oc2cc(O)cc(O)c12
REMARK SMILES IDX 5 1 3 2 2 3 1 4 22 5 20 6 19 7 17 8 16 9 15 10 14 11 6 12
REMARK SMILES IDX 7 13 8 14 9 15 13 16 11 17 10 18 12 20 4 22 21 24 18 26
REMARK H PARENT 10 19 12 21 4 23 21 25 18 27
REMARK Flexibility Score: inf
ROOT
ATOM      1  C   UNL     1     -24.248 -19.387 -13.479  1.00  0.00     0.180 A 
ATOM      2  C   UNL     1     -23.143 -20.258 -13.495  1.00  0.00     0.208 A 
ATOM      3  C   UNL     1     -23.344 -21.616 -13.197  1.00  0.00     0.238 A 
ATOM      4  O   UNL     1     -22.363 -22.408 -13.218  1.00  0.00    -0.285 OA
ATOM      5  C   UNL     1     -24.637 -22.073 -12.871  1.00  0.00     0.111 A 
ATOM      6  C   UNL     1     -24.925 -23.422 -12.554  1.00  0.00     0.134 A 
ATOM      7  C   UNL     1     -26.237 -23.797 -12.231  1.00  0.00     0.093 A 
ATOM      8  C   UNL     1     -27.265 -22.852 -12.216  1.00  0.00     0.123 A 
ATOM      9  C   UNL     1     -26.987 -21.517 -12.528  1.00  0.00     0.094 A 
ATOM     10  C   UNL     1     -25.686 -21.124 -12.854  1.00  0.00     0.146 A 
ATOM     11  O   UNL     1     -25.451 -19.851 -13.152  1.00  0.00    -0.452 OA
ENDROOT
BRANCH   1  12
ATOM     12  C   UNL     1     -24.120 -17.947 -13.801  1.00  0.00     0.025 A 
ATOM     13  C   UNL     1     -25.129 -17.314 -14.544  1.00  0.00     0.016 A 
ATOM     14  C   UNL     1     -25.019 -15.961 -14.877  1.00  0.00     0.051 A 
ATOM     15  C   UNL     1     -23.892 -15.226 -14.485  1.00  0.00     0.157 A 
ATOM     16  C   UNL     1     -22.981 -17.211 -13.427  1.00  0.00     0.062 A 
ATOM     17  C   UNL     1     -22.867 -15.857 -13.760  1.00  0.00     0.158 A 
BRANCH  15  18
ATOM     18  O   UNL     1     -23.787 -13.875 -14.816  1.00  0.00    -0.504 OA
ATOM     19  H   UNL     1     -22.985 -13.513 -15.317  1.00  0.00     0.293 HD
ENDBRANCH  15  18
BRANCH  17  20
ATOM     20  O   UNL     1     -21.726 -15.156 -13.368  1.00  0.00    -0.504 OA
ATOM     21  H   UNL     1     -21.770 -14.374 -12.725  1.00  0.00     0.293 HD
ENDBRANCH  17  20
ENDBRANCH   1  12
BRANCH   2  22
ATOM     22  O   UNL     1     -21.863 -19.771 -13.773  1.00  0.00    -0.502 OA
ATOM     23  H   UNL     1     -21.570 -19.515 -14.707  1.00  0.00     0.293 HD
ENDBRANCH   2  22
BRANCH   6  24
ATOM     24  O   UNL     1     -23.920 -24.391 -12.559  1.00  0.00    -0.507 OA
ATOM     25  H   UNL     1     -22.963 -24.167 -12.314  1.00  0.00     0.293 HD
ENDBRANCH   6  24
BRANCH   8  26
ATOM     26  O   UNL     1     -28.559 -23.250 -11.890  1.00  0.00    -0.508 OA
ATOM     27  H   UNL     1     -29.032 -23.986 -12.403  1.00  0.00     0.293 HD
ENDBRANCH   8  26
TORSDOF 6
ENDMDL
MODEL 4
REMARK VINA RESULT:    -7.753      2.215      7.877
REMARK INTER + INTRA:          -9.035
REMARK INTER:                  -9.386
REMARK INTRA:                   0.350
REMARK UNBOUND:                 0.304
REMARK SMILES O=c1c(O)c(-c2ccc(O)c(O)c2)oc2cc(O)cc(O)c12
REMARK SMILES IDX 5 1 3 2 2 3 1 4 22 5 20 6 19 7 17 8 16 9 15 10 14 11 6 12
REMARK SMILES IDX 7 13 8 14 9 15 13 16 11 17 10 18 12 20 4 22 21 24 18 26
REMARK H PARENT 10 19 12 21 4 23 21 25 18 27
REMARK Flexibility Score: inf
ROOT
ATOM      1  C   UNL     1     -24.418 -20.704 -13.970  1.00  0.00     0.180 A 
ATOM      2  C   UNL     1     -23.321 -21.420 -13.455  1.00  0.00     0.208 A 
ATOM      3  C   UNL     1     -23.367 -22.823 -13.451  1.00  0.00     0.238 A 
ATOM      4  O   UNL     1     -22.385 -23.475 -13.002  1.00  0.00    -0.285 OA
ATOM      5  C   UNL     1     -24.511 -23.484 -13.943  1.00  0.00     0.111 A 
ATOM      6  C   UNL     1     -24.639 -24.893 -13.971  1.00  0.00     0.134 A 
ATOM      7  C   UNL     1     -25.815 -25.476 -14.466  1.00  0.00     0.093 A 
ATOM      8  C   UNL     1     -26.863 -24.679 -14.933  1.00  0.00     0.123 A 
ATOM      9  C   UNL     1     -26.743 -23.286 -14.907  1.00  0.00     0.094 A 
ATOM     10  C   UNL     1     -25.578 -22.686 -14.419  1.00  0.00     0.146 A 
ATOM     11  O   UNL     1     -25.488 -21.361 -14.411  1.00  0.00    -0.452 OA
ENDROOT
BRANCH   1  12
ATOM     12  C   UNL     1     -24.437 -19.224 -14.026  1.00  0.00     0.025 A 
ATOM     13  C   UNL     1     -25.661 -18.556 -14.188  1.00  0.00     0.016 A 
ATOM     14  C   UNL     1     -25.700 -17.161 -14.264  1.00  0.00     0.051 A 
ATOM     15  C   UNL     1     -24.516 -16.416 -14.195  1.00  0.00     0.157 A 
ATOM     16  C   UNL     1     -23.249 -18.474 -13.978  1.00  0.00     0.062 A 
ATOM     17  C   UNL     1     -23.284 -17.077 -14.055  1.00  0.00     0.158 A 
BRANCH  15  18
ATOM     18  O   UNL     1     -24.559 -15.024 -14.268  1.00  0.00    -0.504 OA
ATOM     19  H   UNL     1     -23.719 -14.463 -14.200  1.00  0.00     0.293 HD
ENDBRANCH  15  18
BRANCH  17  20
ATOM     20  O   UNL     1     -22.086 -16.365 -13.997  1.00  0.00    -0.504 OA
ATOM     21  H   UNL     1     -22.063 -15.353 -13.975  1.00  0.00     0.293 HD
ENDBRANCH  17  20
ENDBRANCH   1  12
BRANCH   2  22
ATOM     22  O   UNL     1     -22.219 -20.741 -12.928  1.00  0.00    -0.502 OA
ATOM     23  H   UNL     1     -21.972 -19.801 -13.214  1.00  0.00     0.293 HD
ENDBRANCH   2  22
BRANCH   6  24
ATOM     24  O   UNL     1     -23.611 -25.717 -13.511  1.00  0.00    -0.507 OA
ATOM     25  H   UNL     1     -22.916 -25.386 -12.853  1.00  0.00     0.293 HD
ENDBRANCH   6  24
BRANCH   8  26
ATOM     26  O   UNL     1     -28.020 -25.283 -15.419  1.00  0.00    -0.508 OA
ATOM     27  H   UNL     1     -28.022 -25.800 -16.292  1.00  0.00     0.293 HD
ENDBRANCH   8  26
TORSDOF 6
ENDMDL
MODEL 5
REMARK VINA RESULT:    -6.678      1.710      3.171
REMARK INTER + INTRA:          -7.740
REMARK INTER:                  -7.458
REMARK INTRA:                  -0.282
REMARK UNBOUND:                 0.304
REMARK SMILES O=c1c(O)c(-c2ccc(O)c(O)c2)oc2cc(O)cc(O)c12
REMARK SMILES IDX 5 1 3 2 2 3 1 4 22 5 20 6 19 7 17 8 16 9 15 10 14 11 6 12
REMARK SMILES IDX 7 13 8 14 9 15 13 16 11 17 10 18 12 20 4 22 21 24 18 26
REMARK H PARENT 10 19 12 21 4 23 21 25 18 27
REMARK Flexibility Score: inf
ROOT
ATOM      1  C   UNL     1     -24.603 -19.569 -14.124  1.00  0.00     0.180 A 
ATOM      2  C   UNL     1     -23.245 -19.376 -13.806  1.00  0.00     0.208 A 
ATOM      3  C   UNL     1     -22.730 -18.070 -13.790  1.00  0.00     0.238 A 
ATOM      4  O   UNL     1     -21.518 -17.884 -13.496  1.00  0.00    -0.285 OA
ATOM      5  C   UNL     1     -23.572 -16.985 -14.111  1.00  0.00     0.111 A 
ATOM      6  C   UNL     1     -23.131 -15.640 -14.123  1.00  0.00     0.134 A 
ATOM      7  C   UNL     1     -24.028 -14.617 -14.463  1.00  0.00     0.093 A 
ATOM      8  C   UNL     1     -25.354 -14.911 -14.791  1.00  0.00     0.123 A 
ATOM      9  C   UNL     1     -25.795 -16.238 -14.781  1.00  0.00     0.094 A 
ATOM     10  C   UNL     1     -24.917 -17.272 -14.443  1.00  0.00     0.146 A 
ATOM     11  O   UNL     1     -25.364 -18.523 -14.436  1.00  0.00    -0.452 OA
ENDROOT
BRANCH   1  12
ATOM     12  C   UNL     1     -25.224 -20.913 -14.142  1.00  0.00     0.025 A 
ATOM     13  C   UNL     1     -25.021 -21.752 -15.249  1.00  0.00     0.016 A 
ATOM     14  C   UNL     1     -25.615 -23.017 -15.296  1.00  0.00     0.051 A 
ATOM     15  C   UNL     1     -26.432 -23.454 -14.246  1.00  0.00     0.157 A 
ATOM     16  C   UNL     1     -26.062 -21.347 -13.099  1.00  0.00     0.062 A 
ATOM     17  C   UNL     1     -26.660 -22.612 -13.144  1.00  0.00     0.158 A 
BRANCH  15  18
ATOM     18  O   UNL     1     -27.020 -24.717 -14.295  1.00  0.00    -0.504 OA
ATOM     19  H   UNL     1     -27.949 -24.884 -13.929  1.00  0.00     0.293 HD
ENDBRANCH  15  18
BRANCH  17  20
ATOM     20  O   UNL     1     -27.479 -23.012 -12.089  1.00  0.00    -0.504 OA
ATOM     21  H   UNL     1     -27.106 -23.247 -11.177  1.00  0.00     0.293 HD
ENDBRANCH  17  20
ENDBRANCH   1  12
BRANCH   2  22
ATOM     22  O   UNL     1     -22.420 -20.472 -13.540  1.00  0.00    -0.502 OA
ATOM     23  H   UNL     1     -21.419 -20.381 -13.417  1.00  0.00     0.293 HD
ENDBRANCH   2  22
BRANCH   6  24
ATOM     24  O   UNL     1     -21.813 -15.313 -13.802  1.00  0.00    -0.507 OA
ATOM     25  H   UNL     1     -21.549 -14.376 -13.522  1.00  0.00     0.293 HD
ENDBRANCH   6  24
BRANCH   8  26
ATOM     26  O   UNL     1     -26.224 -13.876 -15.125  1.00  0.00    -0.508 OA
ATOM     27  H   UNL     1     -26.106 -13.340 -15.978  1.00  0.00     0.293 HD
ENDBRANCH   8  26
TORSDOF 6
ENDMDL
MODEL 6
REMARK VINA RESULT:    -6.506      2.301      6.393
REMARK INTER + INTRA:          -7.534
REMARK INTER:                  -7.609
REMARK INTRA:                   0.075
REMARK UNBOUND:                 0.304
REMARK SMILES O=c1c(O)c(-c2ccc(O)c(O)c2)oc2cc(O)cc(O)c12
REMARK SMILES IDX 5 1 3 2 2 3 1 4 22 5 20 6 19 7 17 8 16 9 15 10 14 11 6 12
REMARK SMILES IDX 7 13 8 14 9 15 13 16 11 17 10 18 12 20 4 22 21 24 18 26
REMARK H PARENT 10 19 12 21 4 23 21 25 18 27
REMARK Flexibility Score: inf
ROOT
ATOM      1  C   UNL     1     -22.031 -15.783 -13.731  1.00  0.00     0.180 A 
ATOM      2  C   UNL     1     -22.742 -14.972 -14.636  1.00  0.00     0.208 A 
ATOM      3  C   UNL     1     -24.072 -15.301 -14.944  1.00  0.00     0.238 A 
ATOM      4  O   UNL     1     -24.721 -14.575 -15.744  1.00  0.00    -0.285 OA
ATOM      5  C   UNL     1     -24.660 -16.441 -14.359  1.00  0.00     0.111 A 
ATOM      6  C   UNL     1     -25.992 -16.845 -14.620  1.00  0.00     0.134 A 
ATOM      7  C   UNL     1     -26.502 -17.999 -14.006  1.00  0.00     0.093 A 
ATOM      8  C   UNL     1     -25.708 -18.756 -13.141  1.00  0.00     0.123 A 
ATOM      9  C   UNL     1     -24.391 -18.362 -12.881  1.00  0.00     0.094 A 
ATOM     10  C   UNL     1     -23.865 -17.214 -13.481  1.00  0.00     0.146 A 
ATOM     11  O   UNL     1     -22.614 -16.860 -13.212  1.00  0.00    -0.452 OA
ENDROOT
BRANCH   1  12
ATOM     12  C   UNL     1     -20.633 -15.491 -13.342  1.00  0.00     0.025 A 
ATOM     13  C   UNL     1     -20.273 -14.178 -12.999  1.00  0.00     0.016 A 
ATOM     14  C   UNL     1     -18.954 -13.875 -12.648  1.00  0.00     0.051 A 
ATOM     15  C   UNL     1     -17.974 -14.877 -12.650  1.00  0.00     0.157 A 
ATOM     16  C   UNL     1     -19.642 -16.489 -13.363  1.00  0.00     0.062 A 
ATOM     17  C   UNL     1     -18.320 -16.189 -13.014  1.00  0.00     0.158 A 
BRANCH  15  18
ATOM     18  O   UNL     1     -16.660 -14.572 -12.297  1.00  0.00    -0.504 OA
ATOM     19  H   UNL     1     -16.371 -13.622 -12.098  1.00  0.00     0.293 HD
ENDBRANCH  15  18
BRANCH  17  20
ATOM     20  O   UNL     1     -17.366 -17.205 -13.040  1.00  0.00    -0.504 OA
ATOM     21  H   UNL     1     -16.472 -17.091 -13.502  1.00  0.00     0.293 HD
ENDBRANCH  17  20
ENDBRANCH   1  12
BRANCH   2  22
ATOM     22  O   UNL     1     -22.120 -13.875 -15.239  1.00  0.00    -0.502 OA
ATOM     23  H   UNL     1     -21.599 -13.187 -14.711  1.00  0.00     0.293 HD
ENDBRANCH   2  22
BRANCH   6  24
ATOM     24  O   UNL     1     -26.810 -16.111 -15.480  1.00  0.00    -0.507 OA
ATOM     25  H   UNL     1     -27.793 -16.326 -15.593  1.00  0.00     0.293 HD
ENDBRANCH   6  24
BRANCH   8  26
ATOM     26  O   UNL     1     -26.239 -19.898 -12.546  1.00  0.00    -0.508 OA
ATOM     27  H   UNL     1     -25.895 -20.824 -12.776  1.00  0.00     0.293 HD
ENDBRANCH   8  26
TORSDOF 6
ENDMDL
MODEL 7
REMARK VINA RESULT:    -6.447      3.249      5.116
REMARK INTER + INTRA:          -7.462
REMARK INTER:                  -7.130
REMARK INTRA:                  -0.333
REMARK UNBOUND:                 0.304
REMARK SMILES O=c1c(O)c(-c2ccc(O)c(O)c2)oc2cc(O)cc(O)c12
REMARK SMILES IDX 5 1 3 2 2 3 1 4 22 5 20 6 19 7 17 8 16 9 15 10 14 11 6 12
REMARK SMILES IDX 7 13 8 14 9 15 13 16 11 17 10 18 12 20 4 22 21 24 18 26
REMARK H PARENT 10 19 12 21 4 23 21 25 18 27
REMARK Flexibility Score: inf
ROOT
ATOM      1  C   UNL     1     -25.727 -21.860 -13.828  1.00  0.00     0.180 A 
ATOM      2  C   UNL     1     -25.137 -20.871 -14.638  1.00  0.00     0.208 A 
ATOM      3  C   UNL     1     -24.830 -19.623 -14.071  1.00  0.00     0.238 A 
ATOM      4  O   UNL     1     -24.291 -18.734 -14.784  1.00  0.00    -0.285 OA
ATOM      5  C   UNL     1     -25.135 -19.380 -12.716  1.00  0.00     0.111 A 
ATOM      6  C   UNL     1     -24.863 -18.149 -12.071  1.00  0.00     0.134 A 
ATOM      7  C   UNL     1     -25.206 -17.981 -10.721  1.00  0.00     0.093 A 
ATOM      8  C   UNL     1     -25.815 -19.015 -10.006  1.00  0.00     0.123 A 
ATOM      9  C   UNL     1     -26.086 -20.233 -10.639  1.00  0.00     0.094 A 
ATOM     10  C   UNL     1     -25.751 -20.421 -11.983  1.00  0.00     0.146 A 
ATOM     11  O   UNL     1     -26.015 -21.589 -12.557  1.00  0.00    -0.452 OA
ENDROOT
BRANCH   1  12
ATOM     12  C   UNL     1     -26.062 -23.206 -14.346  1.00  0.00     0.025 A 
ATOM     13  C   UNL     1     -27.369 -23.471 -14.784  1.00  0.00     0.016 A 
ATOM     14  C   UNL     1     -27.713 -24.740 -15.258  1.00  0.00     0.051 A 
ATOM     15  C   UNL     1     -26.759 -25.766 -15.287  1.00  0.00     0.157 A 
ATOM     16  C   UNL     1     -25.113 -24.244 -14.357  1.00  0.00     0.062 A 
ATOM     17  C   UNL     1     -25.454 -25.517 -14.830  1.00  0.00     0.158 A 
BRANCH  15  18
ATOM     18  O   UNL     1     -27.104 -27.030 -15.763  1.00  0.00    -0.504 OA
ATOM     19  H   UNL     1     -27.920 -27.173 -16.345  1.00  0.00     0.293 HD
ENDBRANCH  15  18
BRANCH  17  20
ATOM     20  O   UNL     1     -24.485 -26.520 -14.832  1.00  0.00    -0.504 OA
ATOM     21  H   UNL     1     -24.212 -27.002 -15.680  1.00  0.00     0.293 HD
ENDBRANCH  17  20
ENDBRANCH   1  12
BRANCH   2  22
ATOM     22  O   UNL     1     -24.890 -21.121 -15.990  1.00  0.00    -0.502 OA
ATOM     23  H   UNL     1     -24.611 -22.032 -16.333  1.00  0.00     0.293 HD
ENDBRANCH   2  22
BRANCH   6  24
ATOM     24  O   UNL     1     -24.257 -17.097 -12.757  1.00  0.00    -0.507 OA
ATOM     25  H   UNL     1     -24.800 -16.405 -13.260  1.00  0.00     0.293 HD
ENDBRANCH   6  24
BRANCH   8  26
ATOM     26  O   UNL     1     -26.146 -18.821  -8.667  1.00  0.00    -0.508 OA
ATOM     27  H   UNL     1     -26.690 -18.020  -8.367  1.00  0.00     0.293 HD
ENDBRANCH   8  26
TORSDOF 6
ENDMDL
MODEL 8
REMARK VINA RESULT:    -6.347      2.865      4.804
REMARK INTER + INTRA:          -7.341
REMARK INTER:                  -7.049
REMARK INTRA:                  -0.293
REMARK UNBOUND:                 0.304
REMARK SMILES O=c1c(O)c(-c2ccc(O)c(O)c2)oc2cc(O)cc(O)c12
REMARK SMILES IDX 5 1 3 2 2 3 1 4 22 5 20 6 19 7 17 8 16 9 15 10 14 11 6 12
REMARK SMILES IDX 7 13 8 14 9 15 13 16 11 17 10 18 12 20 4 22 21 24 18 26
REMARK H PARENT 10 19 12 21 4 23 21 25 18 27
REMARK Flexibility Score: inf
ROOT
ATOM      1  C   UNL     1     -25.805 -22.039 -13.500  1.00  0.00     0.180 A 
ATOM      2  C   UNL     1     -26.270 -21.804 -12.192  1.00  0.00     0.208 A 
ATOM      3  C   UNL     1     -26.016 -20.559 -11.594  1.00  0.00     0.238 A 
ATOM      4  O   UNL     1     -26.438 -20.333 -10.428  1.00  0.00    -0.285 OA
ATOM      5  C   UNL     1     -25.287 -19.582 -12.303  1.00  0.00     0.111 A 
ATOM      6  C   UNL     1     -24.984 -18.306 -11.771  1.00  0.00     0.134 A 
ATOM      7  C   UNL     1     -24.244 -17.391 -12.535  1.00  0.00     0.093 A 
ATOM      8  C   UNL     1     -23.801 -17.727 -13.817  1.00  0.00     0.123 A 
ATOM      9  C   UNL     1     -24.097 -18.987 -14.347  1.00  0.00     0.094 A 
ATOM     10  C   UNL     1     -24.835 -19.912 -13.602  1.00  0.00     0.146 A 
ATOM     11  O   UNL     1     -25.106 -21.099 -14.131  1.00  0.00    -0.452 OA
ENDROOT
BRANCH   1  12
ATOM     12  C   UNL     1     -26.050 -23.318 -14.205  1.00  0.00     0.025 A 
ATOM     13  C   UNL     1     -27.307 -23.557 -14.783  1.00  0.00     0.016 A 
ATOM     14  C   UNL     1     -27.567 -24.765 -15.436  1.00  0.00     0.051 A 
ATOM     15  C   UNL     1     -26.580 -25.757 -15.506  1.00  0.00     0.157 A 
ATOM     16  C   UNL     1     -25.069 -24.324 -14.260  1.00  0.00     0.062 A 
ATOM     17  C   UNL     1     -25.326 -25.536 -14.911  1.00  0.00     0.158 A 
BRANCH  15  18
ATOM     18  O   UNL     1     -26.842 -26.960 -16.160  1.00  0.00    -0.504 OA
ATOM     19  H   UNL     1     -26.444 -27.168 -17.068  1.00  0.00     0.293 HD
ENDBRANCH  15  18
BRANCH  17  20
ATOM     20  O   UNL     1     -24.328 -26.509 -14.951  1.00  0.00    -0.504 OA
ATOM     21  H   UNL     1     -23.598 -26.501 -15.652  1.00  0.00     0.293 HD
ENDBRANCH  17  20
ENDBRANCH   1  12
BRANCH   2  22
ATOM     22  O   UNL     1     -26.948 -22.806 -11.493  1.00  0.00    -0.502 OA
ATOM     23  H   UNL     1     -27.187 -22.719 -10.513  1.00  0.00     0.293 HD
ENDBRANCH   2  22
BRANCH   6  24
ATOM     24  O   UNL     1     -25.411 -17.939 -10.494  1.00  0.00    -0.507 OA
ATOM     25  H   UNL     1     -26.320 -17.521 -10.335  1.00  0.00     0.293 HD
ENDBRANCH   6  24
BRANCH   8  26
ATOM     26  O   UNL     1     -23.068 -16.801 -14.554  1.00  0.00    -0.508 OA
ATOM     27  H   UNL     1     -22.908 -16.922 -15.548  1.00  0.00     0.293 HD
ENDBRANCH   8  26
TORSDOF 6
ENDMDL
MODEL 9
REMARK VINA RESULT:    -5.712      2.325      3.782
REMARK INTER + INTRA:          -6.577
REMARK INTER:                  -6.261
REMARK INTRA:                  -0.316
REMARK UNBOUND:                 0.304
REMARK SMILES O=c1c(O)c(-c2ccc(O)c(O)c2)oc2cc(O)cc(O)c12
REMARK SMILES IDX 5 1 3 2 2 3 1 4 22 5 20 6 19 7 17 8 16 9 15 10 14 11 6 12
REMARK SMILES IDX 7 13 8 14 9 15 13 16 11 17 10 18 12 20 4 22 21 24 18 26
REMARK H PARENT 10 19 12 21 4 23 21 25 18 27
REMARK Flexibility Score: inf
ROOT
ATOM      1  C   UNL     1     -25.183 -20.963 -13.634  1.00  0.00     0.180 A 
ATOM      2  C   UNL     1     -25.243 -20.542 -12.292  1.00  0.00     0.208 A 
ATOM      3  C   UNL     1     -24.955 -19.202 -11.987  1.00  0.00     0.238 A 
ATOM      4  O   UNL     1     -25.017 -18.811 -10.790  1.00  0.00    -0.285 OA
ATOM      5  C   UNL     1     -24.594 -18.314 -13.022  1.00  0.00     0.111 A 
ATOM      6  C   UNL     1     -24.285 -16.951 -12.799  1.00  0.00     0.134 A 
ATOM      7  C   UNL     1     -23.924 -16.134 -13.881  1.00  0.00     0.093 A 
ATOM      8  C   UNL     1     -23.866 -16.651 -15.177  1.00  0.00     0.123 A 
ATOM      9  C   UNL     1     -24.170 -17.998 -15.402  1.00  0.00     0.094 A 
ATOM     10  C   UNL     1     -24.533 -18.828 -14.338  1.00  0.00     0.146 A 
ATOM     11  O   UNL     1     -24.823 -20.102 -14.581  1.00  0.00    -0.452 OA
ENDROOT
BRANCH   1  12
ATOM     12  C   UNL     1     -25.491 -22.354 -14.037  1.00  0.00     0.025 A 
ATOM     13  C   UNL     1     -26.797 -22.684 -14.434  1.00  0.00     0.016 A 
ATOM     14  C   UNL     1     -27.116 -23.995 -14.799  1.00  0.00     0.051 A 
ATOM     15  C   UNL     1     -26.138 -24.997 -14.758  1.00  0.00     0.157 A 
ATOM     16  C   UNL     1     -24.518 -23.368 -13.977  1.00  0.00     0.062 A 
ATOM     17  C   UNL     1     -24.834 -24.682 -14.340  1.00  0.00     0.158 A 
BRANCH  15  18
ATOM     18  O   UNL     1     -26.458 -26.304 -15.126  1.00  0.00    -0.504 OA
ATOM     19  H   UNL     1     -26.785 -26.981 -14.447  1.00  0.00     0.293 HD
ENDBRANCH  15  18
BRANCH  17  20
ATOM     20  O   UNL     1     -23.842 -25.660 -14.275  1.00  0.00    -0.504 OA
ATOM     21  H   UNL     1     -23.023 -25.557 -13.687  1.00  0.00     0.293 HD
ENDBRANCH  17  20
ENDBRANCH   1  12
BRANCH   2  22
ATOM     22  O   UNL     1     -25.556 -21.453 -11.279  1.00  0.00    -0.502 OA
ATOM     23  H   UNL     1     -26.484 -21.527 -10.883  1.00  0.00     0.293 HD
ENDBRANCH   2  22
BRANCH   6  24
ATOM     24  O   UNL     1     -24.332 -16.404 -11.516  1.00  0.00    -0.507 OA
ATOM     25  H   UNL     1     -23.558 -15.874 -11.134  1.00  0.00     0.293 HD
ENDBRANCH   6  24
BRANCH   8  26
ATOM     26  O   UNL     1     -23.504 -15.819 -16.233  1.00  0.00    -0.508 OA
ATOM     27  H   UNL     1     -22.799 -16.095 -16.908  1.00  0.00     0.293 HD
ENDBRANCH   8  26
TORSDOF 6
ENDMDL
