MODEL 1
REMARK VINA RESULT:    -4.804      0.000      0.000
REMARK INTER + INTRA:          -4.804
REMARK INTER:                  -4.804
REMARK INTRA:                   0.000
REMARK UNBOUND:                 0.000
REMARK SMILES O=c1ccc2ccc3occc3c2o1
REMARK SMILES IDX 6 1 7 2 8 3 12 4 11 5 10 6 9 7 13 8 5 9 4 10 3 11 2 12 1 13
REMARK SMILES IDX 14 14
REMARK H PARENT
REMARK Flexibility Score: inf
ROOT
ATOM      1  C   UNL     1      31.237  -8.177 -31.290  1.00  0.00     0.016 A 
ATOM      2  C   UNL     1      29.960  -7.934 -31.830  1.00  0.00     0.048 A 
ATOM      3  C   UNL     1      28.914  -7.661 -30.948  1.00  0.00     0.137 A 
ATOM      4  C   UNL     1      29.103  -7.626 -29.592  1.00  0.00     0.064 A 
ATOM      5  C   UNL     1      27.883  -7.334 -29.026  1.00  0.00     0.054 A 
ATOM      6  C   UNL     1      27.017  -7.209 -30.108  1.00  0.00     0.196 A 
ATOM      7  O   UNL     1      27.663  -7.410 -31.243  1.00  0.00    -0.464 OA
ATOM      8  C   UNL     1      30.351  -7.861 -29.018  1.00  0.00     0.149 A 
ATOM      9  C   UNL     1      31.436  -8.141 -29.887  1.00  0.00     0.018 A 
ATOM     10  C   UNL     1      32.691  -8.378 -29.318  1.00  0.00     0.019 A 
ATOM     11  C   UNL     1      32.833  -8.332 -27.931  1.00  0.00     0.094 A 
ATOM     12  C   UNL     1      31.712  -8.048 -27.139  1.00  0.00     0.336 A 
ATOM     13  O   UNL     1      31.825  -8.002 -25.886  1.00  0.00    -0.246 OA
ATOM     14  O   UNL     1      30.528  -7.826 -27.701  1.00  0.00    -0.422 OA
ENDROOT
TORSDOF 0
ENDMDL
MODEL 2
REMARK VINA RESULT:    -4.734      1.388      4.258
REMARK INTER + INTRA:          -4.734
REMARK INTER:                  -4.734
REMARK INTRA:                   0.000
REMARK UNBOUND:                 0.000
REMARK SMILES O=c1ccc2ccc3occc3c2o1
REMARK SMILES IDX 6 1 7 2 8 3 12 4 11 5 10 6 9 7 13 8 5 9 4 10 3 11 2 12 1 13
REMARK SMILES IDX 14 14
REMARK H PARENT
REMARK Flexibility Score: inf
ROOT
ATOM      1  C   UNL     1      31.679  -7.877 -31.627  1.00  0.00     0.016 A 
ATOM      2  C   UNL     1      32.808  -8.112 -30.820  1.00  0.00     0.048 A 
ATOM      3  C   UNL     1      32.615  -8.244 -29.445  1.00  0.00     0.137 A 
ATOM      4  C   UNL     1      31.373  -8.153 -28.876  1.00  0.00     0.064 A 
ATOM      5  C   UNL     1      31.539  -8.328 -27.522  1.00  0.00     0.054 A 
ATOM      6  C   UNL     1      32.907  -8.519 -27.359  1.00  0.00     0.196 A 
ATOM      7  O   UNL     1      33.524  -8.464 -28.526  1.00  0.00    -0.464 OA
ATOM      8  C   UNL     1      30.231  -7.921 -29.641  1.00  0.00     0.149 A 
ATOM      9  C   UNL     1      30.392  -7.781 -31.043  1.00  0.00     0.018 A 
ATOM     10  C   UNL     1      29.250  -7.548 -31.816  1.00  0.00     0.019 A 
ATOM     11  C   UNL     1      28.006  -7.462 -31.191  1.00  0.00     0.094 A 
ATOM     12  C   UNL     1      27.929  -7.611 -29.800  1.00  0.00     0.336 A 
ATOM     13  O   UNL     1      26.814  -7.537 -29.222  1.00  0.00    -0.246 OA
ATOM     14  O   UNL     1      29.028  -7.832 -29.083  1.00  0.00    -0.422 OA
ENDROOT
TORSDOF 0
ENDMDL
MODEL 3
REMARK VINA RESULT:    -4.657      1.798      3.778
REMARK INTER + INTRA:          -4.657
REMARK INTER:                  -4.657
REMARK INTRA:                   0.000
REMARK UNBOUND:                 0.000
REMARK SMILES O=c1ccc2ccc3occc3c2o1
REMARK SMILES IDX 6 1 7 2 8 3 12 4 11 5 10 6 9 7 13 8 5 9 4 10 3 11 2 12 1 13
REMARK SMILES IDX 14 14
REMARK H PARENT
REMARK Flexibility Score: inf
ROOT
ATOM      1  C   UNL     1      27.940  -7.735 -31.355  1.00  0.00     0.016 A 
ATOM      2  C   UNL     1      29.142  -8.070 -32.007  1.00  0.00     0.048 A 
ATOM      3  C   UNL     1      30.323  -8.029 -31.267  1.00  0.00     0.137 A 
ATOM      4  C   UNL     1      30.337  -7.675 -29.944  1.00  0.00     0.064 A 
ATOM      5  C   UNL     1      31.646  -7.736 -29.527  1.00  0.00     0.054 A 
ATOM      6  C   UNL     1      32.354  -8.134 -30.656  1.00  0.00     0.196 A 
ATOM      7  O   UNL     1      31.537  -8.302 -31.681  1.00  0.00    -0.464 OA
ATOM      8  C   UNL     1      29.170  -7.335 -29.264  1.00  0.00     0.149 A 
ATOM      9  C   UNL     1      27.949  -7.367 -29.986  1.00  0.00     0.018 A 
ATOM     10  C   UNL     1      26.774  -7.028 -29.309  1.00  0.00     0.019 A 
ATOM     11  C   UNL     1      26.839  -6.673 -27.961  1.00  0.00     0.094 A 
ATOM     12  C   UNL     1      28.083  -6.665 -27.316  1.00  0.00     0.336 A 
ATOM     13  O   UNL     1      28.157  -6.348 -26.101  1.00  0.00    -0.246 OA
ATOM     14  O   UNL     1      29.189  -6.992 -27.979  1.00  0.00    -0.422 OA
ENDROOT
TORSDOF 0
ENDMDL
MODEL 4
REMARK VINA RESULT:    -4.578      2.340      3.277
REMARK INTER + INTRA:          -4.578
REMARK INTER:                  -4.578
REMARK INTRA:                   0.000
REMARK UNBOUND:                 0.000
REMARK SMILES O=c1ccc2ccc3occc3c2o1
REMARK SMILES IDX 6 1 7 2 8 3 12 4 11 5 10 6 9 7 13 8 5 9 4 10 3 11 2 12 1 13
REMARK SMILES IDX 14 14
REMARK H PARENT
REMARK Flexibility Score: inf
ROOT
ATOM      1  C   UNL     1      31.249  -7.710 -28.208  1.00  0.00     0.016 A 
ATOM      2  C   UNL     1      29.851  -7.559 -28.284  1.00  0.00     0.048 A 
ATOM      3  C   UNL     1      29.264  -7.502 -29.548  1.00  0.00     0.137 A 
ATOM      4  C   UNL     1      30.007  -7.589 -30.695  1.00  0.00     0.064 A 
ATOM      5  C   UNL     1      29.129  -7.499 -31.749  1.00  0.00     0.054 A 
ATOM      6  C   UNL     1      27.880  -7.360 -31.152  1.00  0.00     0.196 A 
ATOM      7  O   UNL     1      27.993  -7.366 -29.836  1.00  0.00    -0.464 OA
ATOM      8  C   UNL     1      31.393  -7.738 -30.662  1.00  0.00     0.149 A 
ATOM      9  C   UNL     1      32.021  -7.800 -29.392  1.00  0.00     0.018 A 
ATOM     10  C   UNL     1      33.411  -7.950 -29.352  1.00  0.00     0.019 A 
ATOM     11  C   UNL     1      34.125  -8.033 -30.548  1.00  0.00     0.094 A 
ATOM     12  C   UNL     1      33.432  -7.964 -31.764  1.00  0.00     0.336 A 
ATOM     13  O   UNL     1      34.062  -8.038 -32.850  1.00  0.00    -0.246 OA
ATOM     14  O   UNL     1      32.109  -7.822 -31.779  1.00  0.00    -0.422 OA
ENDROOT
TORSDOF 0
ENDMDL
MODEL 5
REMARK VINA RESULT:    -4.561      1.329      1.952
REMARK INTER + INTRA:          -4.561
REMARK INTER:                  -4.561
REMARK INTRA:                   0.000
REMARK UNBOUND:                 0.000
REMARK SMILES O=c1ccc2ccc3occc3c2o1
REMARK SMILES IDX 6 1 7 2 8 3 12 4 11 5 10 6 9 7 13 8 5 9 4 10 3 11 2 12 1 13
REMARK SMILES IDX 14 14
REMARK H PARENT
REMARK Flexibility Score: inf
ROOT
ATOM      1  C   UNL     1      29.025  -7.777 -31.760  1.00  0.00     0.016 A 
ATOM      2  C   UNL     1      27.754  -7.386 -31.296  1.00  0.00     0.048 A 
ATOM      3  C   UNL     1      27.615  -7.080 -29.942  1.00  0.00     0.137 A 
ATOM      4  C   UNL     1      28.669  -7.152 -29.072  1.00  0.00     0.064 A 
ATOM      5  C   UNL     1      28.192  -6.791 -27.834  1.00  0.00     0.054 A 
ATOM      6  C   UNL     1      26.844  -6.518 -28.045  1.00  0.00     0.196 A 
ATOM      7  O   UNL     1      26.529  -6.699 -29.315  1.00  0.00    -0.464 OA
ATOM      8  C   UNL     1      29.942  -7.535 -29.492  1.00  0.00     0.149 A 
ATOM      9  C   UNL     1      30.118  -7.853 -30.863  1.00  0.00     0.018 A 
ATOM     10  C   UNL     1      31.393  -8.238 -31.290  1.00  0.00     0.019 A 
ATOM     11  C   UNL     1      32.436  -8.297 -30.365  1.00  0.00     0.094 A 
ATOM     12  C   UNL     1      32.182  -7.968 -29.027  1.00  0.00     0.336 A 
ATOM     13  O   UNL     1      33.113  -8.015 -28.182  1.00  0.00    -0.246 OA
ATOM     14  O   UNL     1      30.963  -7.603 -28.642  1.00  0.00    -0.422 OA
ENDROOT
TORSDOF 0
ENDMDL
MODEL 6
REMARK VINA RESULT:    -4.548      2.574      4.534
REMARK INTER + INTRA:          -4.548
REMARK INTER:                  -4.548
REMARK INTRA:                   0.000
REMARK UNBOUND:                 0.000
REMARK SMILES O=c1ccc2ccc3occc3c2o1
REMARK SMILES IDX 6 1 7 2 8 3 12 4 11 5 10 6 9 7 13 8 5 9 4 10 3 11 2 12 1 13
REMARK SMILES IDX 14 14
REMARK H PARENT
REMARK Flexibility Score: inf
ROOT
ATOM      1  C   UNL     1      29.964  -4.582 -30.192  1.00  0.00     0.016 A 
ATOM      2  C   UNL     1      31.232  -4.812 -30.758  1.00  0.00     0.048 A 
ATOM      3  C   UNL     1      31.552  -6.114 -31.145  1.00  0.00     0.137 A 
ATOM      4  C   UNL     1      30.672  -7.152 -30.989  1.00  0.00     0.064 A 
ATOM      5  C   UNL     1      31.296  -8.280 -31.467  1.00  0.00     0.054 A 
ATOM      6  C   UNL     1      32.544  -7.836 -31.892  1.00  0.00     0.196 A 
ATOM      7  O   UNL     1      32.667  -6.537 -31.687  1.00  0.00    -0.464 OA
ATOM      8  C   UNL     1      29.408  -6.965 -30.432  1.00  0.00     0.149 A 
ATOM      9  C   UNL     1      29.051  -5.653 -30.027  1.00  0.00     0.018 A 
ATOM     10  C   UNL     1      27.784  -5.459 -29.469  1.00  0.00     0.019 A 
ATOM     11  C   UNL     1      26.923  -6.548 -29.329  1.00  0.00     0.094 A 
ATOM     12  C   UNL     1      27.349  -7.813 -29.753  1.00  0.00     0.336 A 
ATOM     13  O   UNL     1      26.584  -8.805 -29.635  1.00  0.00    -0.246 OA
ATOM     14  O   UNL     1      28.558  -7.976 -30.283  1.00  0.00    -0.422 OA
ENDROOT
TORSDOF 0
ENDMDL
MODEL 7
REMARK VINA RESULT:    -4.461     14.346     15.987
REMARK INTER + INTRA:          -4.461
REMARK INTER:                  -4.461
REMARK INTRA:                   0.000
REMARK UNBOUND:                 0.000
REMARK SMILES O=c1ccc2ccc3occc3c2o1
REMARK SMILES IDX 6 1 7 2 8 3 12 4 11 5 10 6 9 7 13 8 5 9 4 10 3 11 2 12 1 13
REMARK SMILES IDX 14 14
REMARK H PARENT
REMARK Flexibility Score: inf
ROOT
ATOM      1  C   UNL     1      24.679   6.998 -24.637  1.00  0.00     0.016 A 
ATOM      2  C   UNL     1      24.760   7.102 -23.235  1.00  0.00     0.048 A 
ATOM      3  C   UNL     1      24.192   6.085 -22.468  1.00  0.00     0.137 A 
ATOM      4  C   UNL     1      23.569   5.008 -23.040  1.00  0.00     0.064 A 
ATOM      5  C   UNL     1      23.129   4.208 -22.013  1.00  0.00     0.054 A 
ATOM      6  C   UNL     1      23.525   4.872 -20.857  1.00  0.00     0.196 A 
ATOM      7  O   UNL     1      24.159   5.991 -21.161  1.00  0.00    -0.464 OA
ATOM      8  C   UNL     1      23.468   4.869 -24.423  1.00  0.00     0.149 A 
ATOM      9  C   UNL     1      24.035   5.886 -25.234  1.00  0.00     0.018 A 
ATOM     10  C   UNL     1      23.937   5.752 -26.622  1.00  0.00     0.019 A 
ATOM     11  C   UNL     1      23.292   4.637 -27.159  1.00  0.00     0.094 A 
ATOM     12  C   UNL     1      22.757   3.675 -26.292  1.00  0.00     0.336 A 
ATOM     13  O   UNL     1      22.174   2.664 -26.761  1.00  0.00    -0.246 OA
ATOM     14  O   UNL     1      22.862   3.821 -24.974  1.00  0.00    -0.422 OA
ENDROOT
TORSDOF 0
ENDMDL
MODEL 8
REMARK VINA RESULT:    -4.458      3.432      4.665
REMARK INTER + INTRA:          -4.458
REMARK INTER:                  -4.458
REMARK INTRA:                   0.000
REMARK UNBOUND:                 0.000
REMARK SMILES O=c1ccc2ccc3occc3c2o1
REMARK SMILES IDX 6 1 7 2 8 3 12 4 11 5 10 6 9 7 13 8 5 9 4 10 3 11 2 12 1 13
REMARK SMILES IDX 14 14
REMARK H PARENT
REMARK Flexibility Score: inf
ROOT
ATOM      1  C   UNL     1      28.025  -7.725 -30.822  1.00  0.00     0.016 A 
ATOM      2  C   UNL     1      29.141  -7.785 -31.678  1.00  0.00     0.048 A 
ATOM      3  C   UNL     1      29.974  -6.669 -31.750  1.00  0.00     0.137 A 
ATOM      4  C   UNL     1      29.733  -5.537 -31.018  1.00  0.00     0.064 A 
ATOM      5  C   UNL     1      30.733  -4.643 -31.323  1.00  0.00     0.054 A 
ATOM      6  C   UNL     1      31.532  -5.313 -32.243  1.00  0.00     0.196 A 
ATOM      7  O   UNL     1      31.054  -6.522 -32.478  1.00  0.00    -0.464 OA
ATOM      8  C   UNL     1      28.639  -5.438 -30.160  1.00  0.00     0.149 A 
ATOM      9  C   UNL     1      27.771  -6.556 -30.063  1.00  0.00     0.018 A 
ATOM     10  C   UNL     1      26.672  -6.462 -29.203  1.00  0.00     0.019 A 
ATOM     11  C   UNL     1      26.468  -5.288 -28.478  1.00  0.00     0.094 A 
ATOM     12  C   UNL     1      27.371  -4.227 -28.629  1.00  0.00     0.336 A 
ATOM     13  O   UNL     1      27.199  -3.161 -27.981  1.00  0.00    -0.246 OA
ATOM     14  O   UNL     1      28.410  -4.336 -29.452  1.00  0.00    -0.422 OA
ENDROOT
TORSDOF 0
ENDMDL
MODEL 9
REMARK VINA RESULT:    -4.382      2.072      4.277
REMARK INTER + INTRA:          -4.382
REMARK INTER:                  -4.382
REMARK INTRA:                   0.000
REMARK UNBOUND:                 0.000
REMARK SMILES O=c1ccc2ccc3occc3c2o1
REMARK SMILES IDX 6 1 7 2 8 3 12 4 11 5 10 6 9 7 13 8 5 9 4 10 3 11 2 12 1 13
REMARK SMILES IDX 14 14
REMARK H PARENT
REMARK Flexibility Score: inf
ROOT
ATOM      1  C   UNL     1      26.816  -6.993 -29.387  1.00  0.00     0.016 A 
ATOM      2  C   UNL     1      26.803  -6.642 -28.024  1.00  0.00     0.048 A 
ATOM      3  C   UNL     1      28.015  -6.648 -27.334  1.00  0.00     0.137 A 
ATOM      4  C   UNL     1      29.194  -6.981 -27.944  1.00  0.00     0.064 A 
ATOM      5  C   UNL     1      30.180  -6.885 -26.990  1.00  0.00     0.054 A 
ATOM      6  C   UNL     1      29.512  -6.489 -25.836  1.00  0.00     0.196 A 
ATOM      7  O   UNL     1      28.219  -6.355 -26.073  1.00  0.00    -0.464 OA
ATOM      8  C   UNL     1      29.248  -7.334 -29.291  1.00  0.00     0.149 A 
ATOM      9  C   UNL     1      28.033  -7.339 -30.023  1.00  0.00     0.018 A 
ATOM     10  C   UNL     1      28.081  -7.693 -31.375  1.00  0.00     0.019 A 
ATOM     11  C   UNL     1      29.307  -8.025 -31.953  1.00  0.00     0.094 A 
ATOM     12  C   UNL     1      30.464  -7.997 -31.164  1.00  0.00     0.336 A 
ATOM     13  O   UNL     1      31.577  -8.294 -31.671  1.00  0.00    -0.246 OA
ATOM     14  O   UNL     1      30.396  -7.658 -29.880  1.00  0.00    -0.422 OA
ENDROOT
TORSDOF 0
ENDMDL
