MODEL 1
REMARK VINA RESULT:    -3.660      0.000      0.000
REMARK INTER + INTRA:         -13.421
REMARK INTER:                  -9.650
REMARK INTRA:                  -3.771
REMARK UNBOUND:                -3.771
REMARK SMILES CCCCCCCCCCCCCCCCCCCCCCCCCCCCCC(=O)[O-]
REMARK SMILES IDX 16 1 17 2 18 3 19 4 20 5 21 6 22 7 23 8 24 9 25 10 26 11
REMARK SMILES IDX 27 12 28 13 29 14 30 15 31 16 32 17 15 18 14 19 13 20 12 21
REMARK SMILES IDX 11 22 10 23 9 24 8 25 7 26 6 27 5 28 4 29 3 30 2 31 1 32
REMARK H PARENT
REMARK Flexibility Score: inf
ROOT
ATOM      1  C   UNL     1      16.375  -0.432  14.494  1.00  0.00     0.000 C 
ENDROOT
BRANCH   1   2
ATOM      2  C   UNL     1      16.695   0.226  15.847  1.00  0.00     0.000 C 
BRANCH   2   3
ATOM      3  C   UNL     1      17.406  -0.736  16.815  1.00  0.00     0.000 C 
BRANCH   3   4
ATOM      4  C   UNL     1      17.349  -0.252  18.281  1.00  0.00     0.000 C 
BRANCH   4   5
ATOM      5  C   UNL     1      16.216  -0.890  19.106  1.00  0.00     0.000 C 
BRANCH   5   6
ATOM      6  C   UNL     1      15.586  -2.151  18.488  1.00  0.00     0.000 C 
BRANCH   6   7
ATOM      7  C   UNL     1      14.091  -2.026  18.123  1.00  0.00     0.000 C 
BRANCH   7   8
ATOM      8  C   UNL     1      13.493  -0.619  18.299  1.00  0.00     0.000 C 
BRANCH   8   9
ATOM      9  C   UNL     1      13.001  -0.009  16.979  1.00  0.00     0.000 C 
BRANCH   9  10
ATOM     10  C   UNL     1      13.227   1.511  16.967  1.00  0.00     0.000 C 
BRANCH  10  11
ATOM     11  C   UNL     1      14.092   1.993  18.142  1.00  0.00     0.000 C 
BRANCH  11  12
ATOM     12  C   UNL     1      15.068   3.109  17.734  1.00  0.00     0.000 C 
BRANCH  12  13
ATOM     13  C   UNL     1      15.257   3.211  16.209  1.00  0.00     0.006 C 
BRANCH  13  14
ATOM     14  C   UNL     1      15.044   4.620  15.632  1.00  0.00     0.053 C 
BRANCH  14  15
ATOM     15  C   UNL     1      16.032   4.944  14.554  1.00  0.00     0.041 C 
ATOM     16  O   UNL     1      16.392   6.134  14.361  1.00  0.00    -0.550 OA
ATOM     17  O   UNL     1      16.591   3.924  13.795  1.00  0.00    -0.550 OA
ENDBRANCH  14  15
ENDBRANCH  13  14
ENDBRANCH  12  13
ENDBRANCH  11  12
ENDBRANCH  10  11
ENDBRANCH   9  10
ENDBRANCH   8   9
ENDBRANCH   7   8
ENDBRANCH   6   7
ENDBRANCH   5   6
ENDBRANCH   4   5
ENDBRANCH   3   4
ENDBRANCH   2   3
ENDBRANCH   1   2
BRANCH   1  18
ATOM     18  C   UNL     1      15.275  -1.499  14.605  1.00  0.00     0.000 C 
BRANCH  18  19
ATOM     19  C   UNL     1      15.774  -2.860  14.097  1.00  0.00     0.000 C 
BRANCH  19  20
ATOM     20  C   UNL     1      15.934  -3.894  15.223  1.00  0.00     0.000 C 
BRANCH  20  21
ATOM     21  C   UNL     1      16.004  -5.339  14.700  1.00  0.00     0.000 C 
BRANCH  21  22
ATOM     22  C   UNL     1      16.047  -5.403  13.165  1.00  0.00     0.000 C 
BRANCH  22  23
ATOM     23  C   UNL     1      17.368  -5.987  12.637  1.00  0.00     0.000 C 
BRANCH  23  24
ATOM     24  C   UNL     1      17.276  -6.445  11.169  1.00  0.00    -0.000 C 
BRANCH  24  25
ATOM     25  C   UNL     1      15.979  -6.049  10.440  1.00  0.00    -0.000 C 
BRANCH  25  26
ATOM     26  C   UNL     1      16.068  -6.046   8.901  1.00  0.00    -0.000 C 
BRANCH  26  27
ATOM     27  C   UNL     1      17.489  -6.311   8.360  1.00  0.00    -0.000 C 
BRANCH  27  28
ATOM     28  C   UNL     1      17.821  -5.453   7.128  1.00  0.00    -0.000 C 
BRANCH  28  29
ATOM     29  C   UNL     1      18.246  -4.023   7.503  1.00  0.00    -0.000 C 
BRANCH  29  30
ATOM     30  C   UNL     1      19.772  -3.882   7.651  1.00  0.00    -0.000 C 
BRANCH  30  31
ATOM     31  C   UNL     1      20.205  -2.427   7.885  1.00  0.00    -0.003 C 
ATOM     32  C   UNL     1      21.385  -2.015   7.006  1.00  0.00     0.004 C 
ENDBRANCH  30  31
ENDBRANCH  29  30
ENDBRANCH  28  29
ENDBRANCH  27  28
ENDBRANCH  26  27
ENDBRANCH  25  26
ENDBRANCH  24  25
ENDBRANCH  23  24
ENDBRANCH  22  23
ENDBRANCH  21  22
ENDBRANCH  20  21
ENDBRANCH  19  20
ENDBRANCH  18  19
ENDBRANCH   1  18
TORSDOF 28
ENDMDL
MODEL 2
REMARK VINA RESULT:    -3.582      9.801     13.215
REMARK INTER + INTRA:         -13.217
REMARK INTER:                  -7.091
REMARK INTRA:                  -6.126
REMARK UNBOUND:                -3.771
REMARK SMILES CCCCCCCCCCCCCCCCCCCCCCCCCCCCCC(=O)[O-]
REMARK SMILES IDX 16 1 17 2 18 3 19 4 20 5 21 6 22 7 23 8 24 9 25 10 26 11
REMARK SMILES IDX 27 12 28 13 29 14 30 15 31 16 32 17 15 18 14 19 13 20 12 21
REMARK SMILES IDX 11 22 10 23 9 24 8 25 7 26 6 27 5 28 4 29 3 30 2 31 1 32
REMARK H PARENT
REMARK Flexibility Score: inf
ROOT
ATOM      1  C   UNL     1      22.973   2.722   5.890  1.00  0.00     0.000 C 
ENDROOT
BRANCH   1   2
ATOM      2  C   UNL     1      22.679   1.219   6.025  1.00  0.00     0.000 C 
BRANCH   2   3
ATOM      3  C   UNL     1      21.258   0.853   5.562  1.00  0.00     0.000 C 
BRANCH   3   4
ATOM      4  C   UNL     1      21.247   0.107   4.209  1.00  0.00     0.000 C 
BRANCH   4   5
ATOM      5  C   UNL     1      22.305  -1.007   4.101  1.00  0.00     0.000 C 
BRANCH   5   6
ATOM      6  C   UNL     1      23.248  -0.900   2.889  1.00  0.00     0.000 C 
BRANCH   6   7
ATOM      7  C   UNL     1      24.597  -0.203   3.166  1.00  0.00     0.000 C 
BRANCH   7   8
ATOM      8  C   UNL     1      24.628   1.304   2.857  1.00  0.00     0.000 C 
BRANCH   8   9
ATOM      9  C   UNL     1      23.535   1.734   1.868  1.00  0.00     0.000 C 
BRANCH   9  10
ATOM     10  C   UNL     1      23.398   3.264   1.844  1.00  0.00     0.000 C 
BRANCH  10  11
ATOM     11  C   UNL     1      22.082   3.755   2.468  1.00  0.00     0.000 C 
BRANCH  11  12
ATOM     12  C   UNL     1      20.857   3.000   1.925  1.00  0.00     0.000 C 
BRANCH  12  13
ATOM     13  C   UNL     1      19.522   3.618   2.381  1.00  0.00     0.006 C 
BRANCH  13  14
ATOM     14  C   UNL     1      18.962   3.034   3.687  1.00  0.00     0.053 C 
BRANCH  14  15
ATOM     15  C   UNL     1      18.981   4.031   4.805  1.00  0.00     0.041 C 
ATOM     16  O   UNL     1      20.072   4.508   5.211  1.00  0.00    -0.550 OA
ATOM     17  O   UNL     1      17.788   4.469   5.365  1.00  0.00    -0.550 OA
ENDBRANCH  14  15
ENDBRANCH  13  14
ENDBRANCH  12  13
ENDBRANCH  11  12
ENDBRANCH  10  11
ENDBRANCH   9  10
ENDBRANCH   8   9
ENDBRANCH   7   8
ENDBRANCH   6   7
ENDBRANCH   5   6
ENDBRANCH   4   5
ENDBRANCH   3   4
ENDBRANCH   2   3
ENDBRANCH   1   2
BRANCH   1  18
ATOM     18  C   UNL     1      24.430   3.070   6.233  1.00  0.00     0.000 C 
BRANCH  18  19
ATOM     19  C   UNL     1      25.225   1.808   6.601  1.00  0.00     0.000 C 
BRANCH  19  20
ATOM     20  C   UNL     1      26.522   1.665   5.789  1.00  0.00     0.000 C 
BRANCH  20  21
ATOM     21  C   UNL     1      27.768   1.505   6.678  1.00  0.00     0.000 C 
BRANCH  21  22
ATOM     22  C   UNL     1      27.503   1.920   8.134  1.00  0.00     0.000 C 
BRANCH  22  23
ATOM     23  C   UNL     1      27.780   0.780   9.130  1.00  0.00     0.000 C 
BRANCH  23  24
ATOM     24  C   UNL     1      26.518   0.330   9.890  1.00  0.00    -0.000 C 
BRANCH  24  25
ATOM     25  C   UNL     1      25.747  -0.837   9.245  1.00  0.00    -0.000 C 
BRANCH  25  26
ATOM     26  C   UNL     1      26.572  -1.713   8.282  1.00  0.00    -0.000 C 
BRANCH  26  27
ATOM     27  C   UNL     1      25.872  -1.983   6.933  1.00  0.00    -0.000 C 
BRANCH  27  28
ATOM     28  C   UNL     1      24.366  -1.672   6.976  1.00  0.00    -0.000 C 
BRANCH  28  29
ATOM     29  C   UNL     1      23.511  -2.933   7.186  1.00  0.00    -0.000 C 
BRANCH  29  30
ATOM     30  C   UNL     1      22.088  -2.604   7.673  1.00  0.00    -0.000 C 
BRANCH  30  31
ATOM     31  C   UNL     1      21.005  -3.269   6.809  1.00  0.00    -0.003 C 
ATOM     32  C   UNL     1      21.587  -4.220   5.764  1.00  0.00     0.004 C 
ENDBRANCH  30  31
ENDBRANCH  29  30
ENDBRANCH  28  29
ENDBRANCH  27  28
ENDBRANCH  26  27
ENDBRANCH  25  26
ENDBRANCH  24  25
ENDBRANCH  23  24
ENDBRANCH  22  23
ENDBRANCH  21  22
ENDBRANCH  20  21
ENDBRANCH  19  20
ENDBRANCH  18  19
ENDBRANCH   1  18
TORSDOF 28
ENDMDL
MODEL 3
REMARK VINA RESULT:    -3.553      2.871      9.737
REMARK INTER + INTRA:         -13.139
REMARK INTER:                  -9.690
REMARK INTRA:                  -3.449
REMARK UNBOUND:                -3.771
REMARK SMILES CCCCCCCCCCCCCCCCCCCCCCCCCCCCCC(=O)[O-]
REMARK SMILES IDX 16 1 17 2 18 3 19 4 20 5 21 6 22 7 23 8 24 9 25 10 26 11
REMARK SMILES IDX 27 12 28 13 29 14 30 15 31 16 32 17 15 18 14 19 13 20 12 21
REMARK SMILES IDX 11 22 10 23 9 24 8 25 7 26 6 27 5 28 4 29 3 30 2 31 1 32
REMARK H PARENT
REMARK Flexibility Score: inf
ROOT
ATOM      1  C   UNL     1      16.534  -0.820  14.762  1.00  0.00     0.000 C 
ENDROOT
BRANCH   1   2
ATOM      2  C   UNL     1      15.728  -2.067  14.364  1.00  0.00     0.000 C 
BRANCH   2   3
ATOM      3  C   UNL     1      15.940  -3.240  15.338  1.00  0.00     0.000 C 
BRANCH   3   4
ATOM      4  C   UNL     1      15.975  -4.608  14.621  1.00  0.00     0.000 C 
BRANCH   4   5
ATOM      5  C   UNL     1      15.972  -4.510  13.085  1.00  0.00     0.000 C 
BRANCH   5   6
ATOM      6  C   UNL     1      16.043  -5.856  12.342  1.00  0.00     0.000 C 
BRANCH   6   7
ATOM      7  C   UNL     1      15.654  -5.804  10.849  1.00  0.00     0.000 C 
BRANCH   7   8
ATOM      8  C   UNL     1      16.782  -6.173   9.869  1.00  0.00     0.000 C 
BRANCH   8   9
ATOM      9  C   UNL     1      16.758  -5.332   8.585  1.00  0.00     0.000 C 
BRANCH   9  10
ATOM     10  C   UNL     1      17.980  -5.646   7.708  1.00  0.00     0.000 C 
BRANCH  10  11
ATOM     11  C   UNL     1      19.244  -5.937   8.532  1.00  0.00     0.000 C 
BRANCH  11  12
ATOM     12  C   UNL     1      20.223  -4.751   8.545  1.00  0.00     0.000 C 
BRANCH  12  13
ATOM     13  C   UNL     1      21.657  -5.161   8.930  1.00  0.00     0.006 C 
BRANCH  13  14
ATOM     14  C   UNL     1      22.534  -4.008   9.442  1.00  0.00     0.053 C 
BRANCH  14  15
ATOM     15  C   UNL     1      22.545  -3.928  10.938  1.00  0.00     0.041 C 
ATOM     16  O   UNL     1      22.308  -4.952  11.629  1.00  0.00    -0.550 OA
ATOM     17  O   UNL     1      22.865  -2.733  11.568  1.00  0.00    -0.550 OA
ENDBRANCH  14  15
ENDBRANCH  13  14
ENDBRANCH  12  13
ENDBRANCH  11  12
ENDBRANCH  10  11
ENDBRANCH   9  10
ENDBRANCH   8   9
ENDBRANCH   7   8
ENDBRANCH   6   7
ENDBRANCH   5   6
ENDBRANCH   4   5
ENDBRANCH   3   4
ENDBRANCH   2   3
ENDBRANCH   1   2
BRANCH   1  18
ATOM     18  C   UNL     1      17.574  -1.116  15.855  1.00  0.00     0.000 C 
BRANCH  18  19
ATOM     19  C   UNL     1      17.395  -0.174  17.055  1.00  0.00     0.000 C 
BRANCH  19  20
ATOM     20  C   UNL     1      15.975  -0.222  17.642  1.00  0.00     0.000 C 
BRANCH  20  21
ATOM     21  C   UNL     1      15.889  -1.069  18.924  1.00  0.00     0.000 C 
BRANCH  21  22
ATOM     22  C   UNL     1      15.047  -2.341  18.729  1.00  0.00     0.000 C 
BRANCH  22  23
ATOM     23  C   UNL     1      13.541  -2.041  18.645  1.00  0.00     0.000 C 
BRANCH  23  24
ATOM     24  C   UNL     1      12.971  -2.232  17.227  1.00  0.00    -0.000 C 
BRANCH  24  25
ATOM     25  C   UNL     1      12.629  -0.929  16.479  1.00  0.00    -0.000 C 
BRANCH  25  26
ATOM     26  C   UNL     1      12.190   0.244  17.376  1.00  0.00    -0.000 C 
BRANCH  26  27
ATOM     27  C   UNL     1      12.702   1.620  16.897  1.00  0.00    -0.000 C 
BRANCH  27  28
ATOM     28  C   UNL     1      13.432   2.396  18.006  1.00  0.00    -0.000 C 
BRANCH  28  29
ATOM     29  C   UNL     1      14.779   2.969  17.536  1.00  0.00    -0.000 C 
BRANCH  29  30
ATOM     30  C   UNL     1      14.694   3.596  16.133  1.00  0.00    -0.000 C 
BRANCH  30  31
ATOM     31  C   UNL     1      15.616   2.896  15.121  1.00  0.00    -0.003 C 
ATOM     32  C   UNL     1      16.272   3.874  14.148  1.00  0.00     0.004 C 
ENDBRANCH  30  31
ENDBRANCH  29  30
ENDBRANCH  28  29
ENDBRANCH  27  28
ENDBRANCH  26  27
ENDBRANCH  25  26
ENDBRANCH  24  25
ENDBRANCH  23  24
ENDBRANCH  22  23
ENDBRANCH  21  22
ENDBRANCH  20  21
ENDBRANCH  19  20
ENDBRANCH  18  19
ENDBRANCH   1  18
TORSDOF 28
ENDMDL
MODEL 4
REMARK VINA RESULT:    -3.531      9.378     13.111
REMARK INTER + INTRA:         -13.080
REMARK INTER:                  -6.800
REMARK INTRA:                  -6.280
REMARK UNBOUND:                -3.771
REMARK SMILES CCCCCCCCCCCCCCCCCCCCCCCCCCCCCC(=O)[O-]
REMARK SMILES IDX 16 1 17 2 18 3 19 4 20 5 21 6 22 7 23 8 24 9 25 10 26 11
REMARK SMILES IDX 27 12 28 13 29 14 30 15 31 16 32 17 15 18 14 19 13 20 12 21
REMARK SMILES IDX 11 22 10 23 9 24 8 25 7 26 6 27 5 28 4 29 3 30 2 31 1 32
REMARK H PARENT
REMARK Flexibility Score: inf
ROOT
ATOM      1  C   UNL     1      28.304   1.438   8.385  1.00  0.00     0.000 C 
ENDROOT
BRANCH   1   2
ATOM      2  C   UNL     1      27.063   1.868   7.585  1.00  0.00     0.000 C 
BRANCH   2   3
ATOM      3  C   UNL     1      27.290   1.801   6.064  1.00  0.00     0.000 C 
BRANCH   3   4
ATOM      4  C   UNL     1      25.977   1.925   5.261  1.00  0.00     0.000 C 
BRANCH   4   5
ATOM      5  C   UNL     1      24.771   2.385   6.101  1.00  0.00     0.000 C 
BRANCH   5   6
ATOM      6  C   UNL     1      23.543   2.838   5.291  1.00  0.00     0.000 C 
BRANCH   6   7
ATOM      7  C   UNL     1      22.191   2.722   6.028  1.00  0.00     0.000 C 
BRANCH   7   8
ATOM      8  C   UNL     1      21.454   1.386   5.828  1.00  0.00     0.000 C 
BRANCH   8   9
ATOM      9  C   UNL     1      21.109   1.106   4.359  1.00  0.00     0.000 C 
BRANCH   9  10
ATOM     10  C   UNL     1      21.640  -0.270   3.930  1.00  0.00     0.000 C 
BRANCH  10  11
ATOM     11  C   UNL     1      22.421  -0.221   2.607  1.00  0.00     0.000 C 
BRANCH  11  12
ATOM     12  C   UNL     1      23.922   0.037   2.820  1.00  0.00     0.000 C 
BRANCH  12  13
ATOM     13  C   UNL     1      24.449   1.226   1.995  1.00  0.00     0.006 C 
BRANCH  13  14
ATOM     14  C   UNL     1      23.353   2.107   1.374  1.00  0.00     0.053 C 
BRANCH  14  15
ATOM     15  C   UNL     1      23.588   3.564   1.630  1.00  0.00     0.041 C 
ATOM     16  O   UNL     1      22.721   4.250   2.230  1.00  0.00    -0.550 OA
ATOM     17  O   UNL     1      24.787   4.152   1.249  1.00  0.00    -0.550 OA
ENDBRANCH  14  15
ENDBRANCH  13  14
ENDBRANCH  12  13
ENDBRANCH  11  12
ENDBRANCH  10  11
ENDBRANCH   9  10
ENDBRANCH   8   9
ENDBRANCH   7   8
ENDBRANCH   6   7
ENDBRANCH   5   6
ENDBRANCH   4   5
ENDBRANCH   3   4
ENDBRANCH   2   3
ENDBRANCH   1   2
BRANCH   1  18
ATOM     18  C   UNL     1      27.955   0.503   9.554  1.00  0.00     0.000 C 
BRANCH  18  19
ATOM     19  C   UNL     1      26.434   0.410   9.750  1.00  0.00     0.000 C 
BRANCH  19  20
ATOM     20  C   UNL     1      25.891  -1.010   9.526  1.00  0.00     0.000 C 
BRANCH  20  21
ATOM     21  C   UNL     1      26.967  -1.988   9.024  1.00  0.00     0.000 C 
BRANCH  21  22
ATOM     22  C   UNL     1      26.560  -2.684   7.715  1.00  0.00     0.000 C 
BRANCH  22  23
ATOM     23  C   UNL     1      26.664  -1.751   6.497  1.00  0.00     0.000 C 
BRANCH  23  24
ATOM     24  C   UNL     1      25.329  -1.599   5.744  1.00  0.00    -0.000 C 
BRANCH  24  25
ATOM     25  C   UNL     1      24.154  -1.078   6.593  1.00  0.00    -0.000 C 
BRANCH  25  26
ATOM     26  C   UNL     1      22.941  -2.025   6.682  1.00  0.00    -0.000 C 
BRANCH  26  27
ATOM     27  C   UNL     1      23.195  -3.420   6.072  1.00  0.00    -0.000 C 
BRANCH  27  28
ATOM     28  C   UNL     1      23.337  -4.515   7.143  1.00  0.00    -0.000 C 
BRANCH  28  29
ATOM     29  C   UNL     1      23.155  -3.970   8.570  1.00  0.00    -0.000 C 
BRANCH  29  30
ATOM     30  C   UNL     1      24.115  -4.627   9.578  1.00  0.00    -0.000 C 
BRANCH  30  31
ATOM     31  C   UNL     1      24.077  -3.944  10.954  1.00  0.00    -0.003 C 
ATOM     32  C   UNL     1      23.091  -2.778  11.005  1.00  0.00     0.004 C 
ENDBRANCH  30  31
ENDBRANCH  29  30
ENDBRANCH  28  29
ENDBRANCH  27  28
ENDBRANCH  26  27
ENDBRANCH  25  26
ENDBRANCH  24  25
ENDBRANCH  23  24
ENDBRANCH  22  23
ENDBRANCH  21  22
ENDBRANCH  20  21
ENDBRANCH  19  20
ENDBRANCH  18  19
ENDBRANCH   1  18
TORSDOF 28
ENDMDL
MODEL 5
REMARK VINA RESULT:    -3.530      9.152     13.752
REMARK INTER + INTRA:         -13.078
REMARK INTER:                  -7.250
REMARK INTRA:                  -5.828
REMARK UNBOUND:                -3.771
REMARK SMILES CCCCCCCCCCCCCCCCCCCCCCCCCCCCCC(=O)[O-]
REMARK SMILES IDX 16 1 17 2 18 3 19 4 20 5 21 6 22 7 23 8 24 9 25 10 26 11
REMARK SMILES IDX 27 12 28 13 29 14 30 15 31 16 32 17 15 18 14 19 13 20 12 21
REMARK SMILES IDX 11 22 10 23 9 24 8 25 7 26 6 27 5 28 4 29 3 30 2 31 1 32
REMARK H PARENT
REMARK Flexibility Score: inf
ROOT
ATOM      1  C   UNL     1      26.790   0.454   5.621  1.00  0.00     0.000 C 
ENDROOT
BRANCH   1   2
ATOM      2  C   UNL     1      26.213   1.879   5.629  1.00  0.00     0.000 C 
BRANCH   2   3
ATOM      3  C   UNL     1      24.978   2.009   6.539  1.00  0.00     0.000 C 
BRANCH   3   4
ATOM      4  C   UNL     1      23.959   3.043   6.012  1.00  0.00     0.000 C 
BRANCH   4   5
ATOM      5  C   UNL     1      22.508   2.528   5.974  1.00  0.00     0.000 C 
BRANCH   5   6
ATOM      6  C   UNL     1      22.262   1.333   5.036  1.00  0.00     0.000 C 
BRANCH   6   7
ATOM      7  C   UNL     1      22.012  -0.016   5.744  1.00  0.00     0.000 C 
BRANCH   7   8
ATOM      8  C   UNL     1      23.032  -1.122   5.417  1.00  0.00     0.000 C 
BRANCH   8   9
ATOM      9  C   UNL     1      23.879  -1.533   6.630  1.00  0.00     0.000 C 
BRANCH   9  10
ATOM     10  C   UNL     1      24.207  -3.033   6.579  1.00  0.00     0.000 C 
BRANCH  10  11
ATOM     11  C   UNL     1      23.958  -3.742   7.919  1.00  0.00     0.000 C 
BRANCH  11  12
ATOM     12  C   UNL     1      23.077  -2.913   8.869  1.00  0.00     0.000 C 
BRANCH  12  13
ATOM     13  C   UNL     1      21.829  -3.677   9.349  1.00  0.00     0.006 C 
BRANCH  13  14
ATOM     14  C   UNL     1      21.186  -4.581   8.285  1.00  0.00     0.053 C 
BRANCH  14  15
ATOM     15  C   UNL     1      20.173  -3.848   7.459  1.00  0.00     0.041 C 
ATOM     16  O   UNL     1      20.530  -3.213   6.434  1.00  0.00    -0.550 OA
ATOM     17  O   UNL     1      18.827  -3.910   7.797  1.00  0.00    -0.550 OA
ENDBRANCH  14  15
ENDBRANCH  13  14
ENDBRANCH  12  13
ENDBRANCH  11  12
ENDBRANCH  10  11
ENDBRANCH   9  10
ENDBRANCH   8   9
ENDBRANCH   7   8
ENDBRANCH   6   7
ENDBRANCH   5   6
ENDBRANCH   4   5
ENDBRANCH   3   4
ENDBRANCH   2   3
ENDBRANCH   1   2
BRANCH   1  18
ATOM     18  C   UNL     1      28.315   0.436   5.811  1.00  0.00     0.000 C 
BRANCH  18  19
ATOM     19  C   UNL     1      28.771  -0.869   6.481  1.00  0.00     0.000 C 
BRANCH  19  20
ATOM     20  C   UNL     1      27.610  -1.649   7.118  1.00  0.00     0.000 C 
BRANCH  20  21
ATOM     21  C   UNL     1      27.825  -1.920   8.617  1.00  0.00     0.000 C 
BRANCH  21  22
ATOM     22  C   UNL     1      26.561  -1.643   9.448  1.00  0.00     0.000 C 
BRANCH  22  23
ATOM     23  C   UNL     1      26.093  -0.182   9.337  1.00  0.00     0.000 C 
BRANCH  23  24
ATOM     24  C   UNL     1      27.078   0.812   9.982  1.00  0.00    -0.000 C 
BRANCH  24  25
ATOM     25  C   UNL     1      27.654   1.874   9.027  1.00  0.00    -0.000 C 
BRANCH  25  26
ATOM     26  C   UNL     1      29.151   2.185   9.222  1.00  0.00    -0.000 C 
BRANCH  26  27
ATOM     27  C   UNL     1      30.024   0.929   9.437  1.00  0.00    -0.000 C 
BRANCH  27  28
ATOM     28  C   UNL     1      30.725   0.926  10.806  1.00  0.00    -0.000 C 
BRANCH  28  29
ATOM     29  C   UNL     1      30.248  -0.224  11.708  1.00  0.00    -0.000 C 
BRANCH  29  30
ATOM     30  C   UNL     1      29.252   0.246  12.783  1.00  0.00    -0.000 C 
BRANCH  30  31
ATOM     31  C   UNL     1      29.223   1.776  12.926  1.00  0.00    -0.003 C 
ATOM     32  C   UNL     1      29.693   2.247  14.301  1.00  0.00     0.004 C 
ENDBRANCH  30  31
ENDBRANCH  29  30
ENDBRANCH  28  29
ENDBRANCH  27  28
ENDBRANCH  26  27
ENDBRANCH  25  26
ENDBRANCH  24  25
ENDBRANCH  23  24
ENDBRANCH  22  23
ENDBRANCH  21  22
ENDBRANCH  20  21
ENDBRANCH  19  20
ENDBRANCH  18  19
ENDBRANCH   1  18
TORSDOF 28
ENDMDL
MODEL 6
REMARK VINA RESULT:    -3.524      9.196     13.021
REMARK INTER + INTRA:         -13.064
REMARK INTER:                  -7.599
REMARK INTRA:                  -5.465
REMARK UNBOUND:                -3.771
REMARK SMILES CCCCCCCCCCCCCCCCCCCCCCCCCCCCCC(=O)[O-]
REMARK SMILES IDX 16 1 17 2 18 3 19 4 20 5 21 6 22 7 23 8 24 9 25 10 26 11
REMARK SMILES IDX 27 12 28 13 29 14 30 15 31 16 32 17 15 18 14 19 13 20 12 21
REMARK SMILES IDX 11 22 10 23 9 24 8 25 7 26 6 27 5 28 4 29 3 30 2 31 1 32
REMARK H PARENT
REMARK Flexibility Score: inf
ROOT
ATOM      1  C   UNL     1      22.070   1.768   5.979  1.00  0.00     0.000 C 
ENDROOT
BRANCH   1   2
ATOM      2  C   UNL     1      20.870   1.536   5.046  1.00  0.00     0.000 C 
BRANCH   2   3
ATOM      3  C   UNL     1      21.198   0.569   3.894  1.00  0.00     0.000 C 
BRANCH   3   4
ATOM      4  C   UNL     1      22.499  -0.227   4.139  1.00  0.00     0.000 C 
BRANCH   4   5
ATOM      5  C   UNL     1      23.541  -0.084   3.014  1.00  0.00     0.000 C 
BRANCH   5   6
ATOM      6  C   UNL     1      23.208   0.970   1.943  1.00  0.00     0.000 C 
BRANCH   6   7
ATOM      7  C   UNL     1      23.952   2.315   2.091  1.00  0.00     0.000 C 
BRANCH   7   8
ATOM      8  C   UNL     1      23.084   3.567   1.875  1.00  0.00     0.000 C 
BRANCH   8   9
ATOM      9  C   UNL     1      21.800   3.276   1.085  1.00  0.00     0.000 C 
BRANCH   9  10
ATOM     10  C   UNL     1      20.568   3.789   1.846  1.00  0.00     0.000 C 
BRANCH  10  11
ATOM     11  C   UNL     1      20.937   4.624   3.083  1.00  0.00     0.000 C 
BRANCH  11  12
ATOM     12  C   UNL     1      19.731   5.385   3.659  1.00  0.00     0.000 C 
BRANCH  12  13
ATOM     13  C   UNL     1      19.300   4.865   5.043  1.00  0.00     0.006 C 
BRANCH  13  14
ATOM     14  C   UNL     1      17.801   4.548   5.166  1.00  0.00     0.053 C 
BRANCH  14  15
ATOM     15  C   UNL     1      17.253   3.916   3.923  1.00  0.00     0.041 C 
ATOM     16  O   UNL     1      16.398   4.523   3.228  1.00  0.00    -0.550 OA
ATOM     17  O   UNL     1      17.725   2.678   3.508  1.00  0.00    -0.550 OA
ENDBRANCH  14  15
ENDBRANCH  13  14
ENDBRANCH  12  13
ENDBRANCH  11  12
ENDBRANCH  10  11
ENDBRANCH   9  10
ENDBRANCH   8   9
ENDBRANCH   7   8
ENDBRANCH   6   7
ENDBRANCH   5   6
ENDBRANCH   4   5
ENDBRANCH   3   4
ENDBRANCH   2   3
ENDBRANCH   1   2
BRANCH   1  18
ATOM     18  C   UNL     1      22.866   3.030   5.611  1.00  0.00     0.000 C 
BRANCH  18  19
ATOM     19  C   UNL     1      24.254   3.018   6.269  1.00  0.00     0.000 C 
BRANCH  19  20
ATOM     20  C   UNL     1      25.179   1.938   5.686  1.00  0.00     0.000 C 
BRANCH  20  21
ATOM     21  C   UNL     1      25.494   0.817   6.691  1.00  0.00     0.000 C 
BRANCH  21  22
ATOM     22  C   UNL     1      26.913   0.934   7.272  1.00  0.00     0.000 C 
BRANCH  22  23
ATOM     23  C   UNL     1      26.911   1.053   8.806  1.00  0.00     0.000 C 
BRANCH  23  24
ATOM     24  C   UNL     1      26.006   0.008   9.486  1.00  0.00    -0.000 C 
BRANCH  24  25
ATOM     25  C   UNL     1      26.687  -1.335   9.813  1.00  0.00    -0.000 C 
BRANCH  25  26
ATOM     26  C   UNL     1      25.739  -2.448  10.300  1.00  0.00    -0.000 C 
BRANCH  26  27
ATOM     27  C   UNL     1      24.494  -2.640   9.406  1.00  0.00    -0.000 C 
BRANCH  27  28
ATOM     28  C   UNL     1      24.815  -3.385   8.100  1.00  0.00    -0.000 C 
BRANCH  28  29
ATOM     29  C   UNL     1      24.152  -2.737   6.874  1.00  0.00    -0.000 C 
BRANCH  29  30
ATOM     30  C   UNL     1      22.954  -1.849   7.253  1.00  0.00    -0.000 C 
BRANCH  30  31
ATOM     31  C   UNL     1      21.609  -2.481   6.862  1.00  0.00    -0.003 C 
ATOM     32  C   UNL     1      20.495  -2.157   7.856  1.00  0.00     0.004 C 
ENDBRANCH  30  31
ENDBRANCH  29  30
ENDBRANCH  28  29
ENDBRANCH  27  28
ENDBRANCH  26  27
ENDBRANCH  25  26
ENDBRANCH  24  25
ENDBRANCH  23  24
ENDBRANCH  22  23
ENDBRANCH  21  22
ENDBRANCH  20  21
ENDBRANCH  19  20
ENDBRANCH  18  19
ENDBRANCH   1  18
TORSDOF 28
ENDMDL
MODEL 7
REMARK VINA RESULT:    -3.522      9.142     12.933
REMARK INTER + INTRA:         -13.058
REMARK INTER:                  -7.710
REMARK INTRA:                  -5.348
REMARK UNBOUND:                -3.771
REMARK SMILES CCCCCCCCCCCCCCCCCCCCCCCCCCCCCC(=O)[O-]
REMARK SMILES IDX 16 1 17 2 18 3 19 4 20 5 21 6 22 7 23 8 24 9 25 10 26 11
REMARK SMILES IDX 27 12 28 13 29 14 30 15 31 16 32 17 15 18 14 19 13 20 12 21
REMARK SMILES IDX 11 22 10 23 9 24 8 25 7 26 6 27 5 28 4 29 3 30 2 31 1 32
REMARK H PARENT
REMARK Flexibility Score: inf
ROOT
ATOM      1  C   UNL     1      26.946   0.939   6.022  1.00  0.00     0.000 C 
ENDROOT
BRANCH   1   2
ATOM      2  C   UNL     1      27.114   1.884   7.224  1.00  0.00     0.000 C 
BRANCH   2   3
ATOM      3  C   UNL     1      28.534   1.835   7.817  1.00  0.00     0.000 C 
BRANCH   3   4
ATOM      4  C   UNL     1      28.538   1.949   9.357  1.00  0.00     0.000 C 
BRANCH   4   5
ATOM      5  C   UNL     1      28.790   0.613  10.082  1.00  0.00     0.000 C 
BRANCH   5   6
ATOM      6  C   UNL     1      27.559   0.002  10.774  1.00  0.00     0.000 C 
BRANCH   6   7
ATOM      7  C   UNL     1      26.548  -0.684   9.830  1.00  0.00     0.000 C 
BRANCH   7   8
ATOM      8  C   UNL     1      27.159  -1.699   8.847  1.00  0.00     0.000 C 
BRANCH   8   9
ATOM      9  C   UNL     1      26.102  -2.437   8.014  1.00  0.00     0.000 C 
BRANCH   9  10
ATOM     10  C   UNL     1      24.887  -1.532   7.758  1.00  0.00     0.000 C 
BRANCH  10  11
ATOM     11  C   UNL     1      23.730  -2.272   7.066  1.00  0.00     0.000 C 
BRANCH  11  12
ATOM     12  C   UNL     1      23.632  -3.744   7.497  1.00  0.00     0.000 C 
BRANCH  12  13
ATOM     13  C   UNL     1      22.323  -4.065   8.242  1.00  0.00     0.006 C 
BRANCH  13  14
ATOM     14  C   UNL     1      22.046  -3.171   9.461  1.00  0.00     0.053 C 
BRANCH  14  15
ATOM     15  C   UNL     1      22.892  -3.546  10.639  1.00  0.00     0.041 C 
ATOM     16  O   UNL     1      23.961  -2.926  10.875  1.00  0.00    -0.550 OA
ATOM     17  O   UNL     1      22.473  -4.549  11.504  1.00  0.00    -0.550 OA
ENDBRANCH  14  15
ENDBRANCH  13  14
ENDBRANCH  12  13
ENDBRANCH  11  12
ENDBRANCH  10  11
ENDBRANCH   9  10
ENDBRANCH   8   9
ENDBRANCH   7   8
ENDBRANCH   6   7
ENDBRANCH   5   6
ENDBRANCH   4   5
ENDBRANCH   3   4
ENDBRANCH   2   3
ENDBRANCH   1   2
BRANCH   1  18
ATOM     18  C   UNL     1      25.567   1.073   5.357  1.00  0.00     0.000 C 
BRANCH  18  19
ATOM     19  C   UNL     1      24.559   1.734   6.308  1.00  0.00     0.000 C 
BRANCH  19  20
ATOM     20  C   UNL     1      23.879   2.967   5.691  1.00  0.00     0.000 C 
BRANCH  20  21
ATOM     21  C   UNL     1      22.348   2.945   5.850  1.00  0.00     0.000 C 
BRANCH  21  22
ATOM     22  C   UNL     1      21.811   1.535   6.142  1.00  0.00     0.000 C 
BRANCH  22  23
ATOM     23  C   UNL     1      21.200   0.869   4.897  1.00  0.00     0.000 C 
BRANCH  23  24
ATOM     24  C   UNL     1      22.026  -0.330   4.393  1.00  0.00    -0.000 C 
BRANCH  24  25
ATOM     25  C   UNL     1      22.796  -0.088   3.082  1.00  0.00    -0.000 C 
BRANCH  25  26
ATOM     26  C   UNL     1      22.259   1.064   2.210  1.00  0.00    -0.000 C 
BRANCH  26  27
ATOM     27  C   UNL     1      23.309   2.154   1.905  1.00  0.00    -0.000 C 
BRANCH  27  28
ATOM     28  C   UNL     1      22.750   3.577   2.076  1.00  0.00    -0.000 C 
BRANCH  28  29
ATOM     29  C   UNL     1      21.212   3.605   2.105  1.00  0.00    -0.000 C 
BRANCH  29  30
ATOM     30  C   UNL     1      20.661   4.491   3.237  1.00  0.00    -0.000 C 
BRANCH  30  31
ATOM     31  C   UNL     1      19.316   3.981   3.777  1.00  0.00    -0.003 C 
ATOM     32  C   UNL     1      18.973   4.563   5.147  1.00  0.00     0.004 C 
ENDBRANCH  30  31
ENDBRANCH  29  30
ENDBRANCH  28  29
ENDBRANCH  27  28
ENDBRANCH  26  27
ENDBRANCH  25  26
ENDBRANCH  24  25
ENDBRANCH  23  24
ENDBRANCH  22  23
ENDBRANCH  21  22
ENDBRANCH  20  21
ENDBRANCH  19  20
ENDBRANCH  18  19
ENDBRANCH   1  18
TORSDOF 28
ENDMDL
MODEL 8
REMARK VINA RESULT:    -3.494      9.153     12.914
REMARK INTER + INTRA:         -12.985
REMARK INTER:                  -7.858
REMARK INTRA:                  -5.127
REMARK UNBOUND:                -3.771
REMARK SMILES CCCCCCCCCCCCCCCCCCCCCCCCCCCCCC(=O)[O-]
REMARK SMILES IDX 16 1 17 2 18 3 19 4 20 5 21 6 22 7 23 8 24 9 25 10 26 11
REMARK SMILES IDX 27 12 28 13 29 14 30 15 31 16 32 17 15 18 14 19 13 20 12 21
REMARK SMILES IDX 11 22 10 23 9 24 8 25 7 26 6 27 5 28 4 29 3 30 2 31 1 32
REMARK H PARENT
REMARK Flexibility Score: inf
ROOT
ATOM      1  C   UNL     1      29.034   0.850   7.112  1.00  0.00     0.000 C 
ENDROOT
BRANCH   1   2
ATOM      2  C   UNL     1      29.232   2.275   7.655  1.00  0.00     0.000 C 
BRANCH   2   3
ATOM      3  C   UNL     1      29.637   2.287   9.140  1.00  0.00     0.000 C 
BRANCH   3   4
ATOM      4  C   UNL     1      28.472   1.898  10.077  1.00  0.00     0.000 C 
BRANCH   4   5
ATOM      5  C   UNL     1      28.718   0.604  10.875  1.00  0.00     0.000 C 
BRANCH   5   6
ATOM      6  C   UNL     1      27.592  -0.442  10.788  1.00  0.00     0.000 C 
BRANCH   6   7
ATOM      7  C   UNL     1      26.366  -0.019   9.951  1.00  0.00     0.000 C 
BRANCH   7   8
ATOM      8  C   UNL     1      25.826  -1.098   8.996  1.00  0.00     0.000 C 
BRANCH   8   9
ATOM      9  C   UNL     1      25.101  -2.237   9.728  1.00  0.00     0.000 C 
BRANCH   9  10
ATOM     10  C   UNL     1      23.805  -2.614   8.994  1.00  0.00     0.000 C 
BRANCH  10  11
ATOM     11  C   UNL     1      23.926  -2.485   7.467  1.00  0.00     0.000 C 
BRANCH  11  12
ATOM     12  C   UNL     1      23.478  -3.760   6.733  1.00  0.00     0.000 C 
BRANCH  12  13
ATOM     13  C   UNL     1      22.002  -3.713   6.297  1.00  0.00     0.006 C 
BRANCH  13  14
ATOM     14  C   UNL     1      21.014  -4.283   7.327  1.00  0.00     0.053 C 
BRANCH  14  15
ATOM     15  C   UNL     1      19.980  -3.278   7.734  1.00  0.00     0.041 C 
ATOM     16  O   UNL     1      20.330  -2.152   8.174  1.00  0.00    -0.550 OA
ATOM     17  O   UNL     1      18.631  -3.568   7.581  1.00  0.00    -0.550 OA
ENDBRANCH  14  15
ENDBRANCH  13  14
ENDBRANCH  12  13
ENDBRANCH  11  12
ENDBRANCH  10  11
ENDBRANCH   9  10
ENDBRANCH   8   9
ENDBRANCH   7   8
ENDBRANCH   6   7
ENDBRANCH   5   6
ENDBRANCH   4   5
ENDBRANCH   3   4
ENDBRANCH   2   3
ENDBRANCH   1   2
BRANCH   1  18
ATOM     18  C   UNL     1      27.648   0.650   6.478  1.00  0.00     0.000 C 
BRANCH  18  19
ATOM     19  C   UNL     1      26.722   1.834   6.794  1.00  0.00     0.000 C 
BRANCH  19  20
ATOM     20  C   UNL     1      25.266   1.579   6.371  1.00  0.00     0.000 C 
BRANCH  20  21
ATOM     21  C   UNL     1      24.890   2.304   5.067  1.00  0.00     0.000 C 
BRANCH  21  22
ATOM     22  C   UNL     1      25.098   1.420   3.826  1.00  0.00     0.000 C 
BRANCH  22  23
ATOM     23  C   UNL     1      24.070   1.709   2.719  1.00  0.00     0.000 C 
BRANCH  23  24
ATOM     24  C   UNL     1      23.208   0.482   2.367  1.00  0.00    -0.000 C 
BRANCH  24  25
ATOM     25  C   UNL     1      22.983  -0.513   3.522  1.00  0.00    -0.000 C 
BRANCH  25  26
ATOM     26  C   UNL     1      21.627  -0.380   4.244  1.00  0.00    -0.000 C 
BRANCH  26  27
ATOM     27  C   UNL     1      21.753  -0.079   5.753  1.00  0.00    -0.000 C 
BRANCH  27  28
ATOM     28  C   UNL     1      21.515   1.405   6.080  1.00  0.00    -0.000 C 
BRANCH  28  29
ATOM     29  C   UNL     1      20.786   2.148   4.948  1.00  0.00    -0.000 C 
BRANCH  29  30
ATOM     30  C   UNL     1      21.166   3.638   4.882  1.00  0.00    -0.000 C 
BRANCH  30  31
ATOM     31  C   UNL     1      21.427   4.112   3.444  1.00  0.00    -0.003 C 
ATOM     32  C   UNL     1      20.644   3.308   2.407  1.00  0.00     0.004 C 
ENDBRANCH  30  31
ENDBRANCH  29  30
ENDBRANCH  28  29
ENDBRANCH  27  28
ENDBRANCH  26  27
ENDBRANCH  25  26
ENDBRANCH  24  25
ENDBRANCH  23  24
ENDBRANCH  22  23
ENDBRANCH  21  22
ENDBRANCH  20  21
ENDBRANCH  19  20
ENDBRANCH  18  19
ENDBRANCH   1  18
TORSDOF 28
ENDMDL
MODEL 9
REMARK VINA RESULT:    -3.487      9.049     13.108
REMARK INTER + INTRA:         -12.967
REMARK INTER:                  -6.776
REMARK INTRA:                  -6.191
REMARK UNBOUND:                -3.771
REMARK SMILES CCCCCCCCCCCCCCCCCCCCCCCCCCCCCC(=O)[O-]
REMARK SMILES IDX 16 1 17 2 18 3 19 4 20 5 21 6 22 7 23 8 24 9 25 10 26 11
REMARK SMILES IDX 27 12 28 13 29 14 30 15 31 16 32 17 15 18 14 19 13 20 12 21
REMARK SMILES IDX 11 22 10 23 9 24 8 25 7 26 6 27 5 28 4 29 3 30 2 31 1 32
REMARK H PARENT
REMARK Flexibility Score: inf
ROOT
ATOM      1  C   UNL     1      26.217  -0.006   4.912  1.00  0.00     0.000 C 
ENDROOT
BRANCH   1   2
ATOM      2  C   UNL     1      25.649  -0.324   6.304  1.00  0.00     0.000 C 
BRANCH   2   3
ATOM      3  C   UNL     1      24.806   0.831   6.874  1.00  0.00     0.000 C 
BRANCH   3   4
ATOM      4  C   UNL     1      25.098   2.179   6.177  1.00  0.00     0.000 C 
BRANCH   4   5
ATOM      5  C   UNL     1      23.840   3.021   5.895  1.00  0.00     0.000 C 
BRANCH   5   6
ATOM      6  C   UNL     1      22.505   2.265   6.015  1.00  0.00     0.000 C 
BRANCH   6   7
ATOM      7  C   UNL     1      21.800   1.961   4.676  1.00  0.00     0.000 C 
BRANCH   7   8
ATOM      8  C   UNL     1      22.613   1.101   3.693  1.00  0.00     0.000 C 
BRANCH   8   9
ATOM      9  C   UNL     1      22.046  -0.316   3.527  1.00  0.00     0.000 C 
BRANCH   9  10
ATOM     10  C   UNL     1      22.690  -1.278   4.538  1.00  0.00     0.000 C 
BRANCH  10  11
ATOM     11  C   UNL     1      21.656  -1.985   5.429  1.00  0.00     0.000 C 
BRANCH  11  12
ATOM     12  C   UNL     1      21.493  -1.301   6.796  1.00  0.00     0.000 C 
BRANCH  12  13
ATOM     13  C   UNL     1      20.752  -2.180   7.821  1.00  0.00     0.006 C 
BRANCH  13  14
ATOM     14  C   UNL     1      20.801  -3.687   7.524  1.00  0.00     0.053 C 
BRANCH  14  15
ATOM     15  C   UNL     1      19.491  -4.360   7.799  1.00  0.00     0.041 C 
ATOM     16  O   UNL     1      19.464  -5.519   8.286  1.00  0.00    -0.550 OA
ATOM     17  O   UNL     1      18.300  -3.685   7.563  1.00  0.00    -0.550 OA
ENDBRANCH  14  15
ENDBRANCH  13  14
ENDBRANCH  12  13
ENDBRANCH  11  12
ENDBRANCH  10  11
ENDBRANCH   9  10
ENDBRANCH   8   9
ENDBRANCH   7   8
ENDBRANCH   6   7
ENDBRANCH   5   6
ENDBRANCH   4   5
ENDBRANCH   3   4
ENDBRANCH   2   3
ENDBRANCH   1   2
BRANCH   1  18
ATOM     18  C   UNL     1      27.727  -0.277   4.817  1.00  0.00     0.000 C 
BRANCH  18  19
ATOM     19  C   UNL     1      28.316  -0.602   6.198  1.00  0.00     0.000 C 
BRANCH  19  20
ATOM     20  C   UNL     1      29.326   0.453   6.678  1.00  0.00     0.000 C 
BRANCH  20  21
ATOM     21  C   UNL     1      28.651   1.747   7.164  1.00  0.00     0.000 C 
BRANCH  21  22
ATOM     22  C   UNL     1      28.715   1.902   8.692  1.00  0.00     0.000 C 
BRANCH  22  23
ATOM     23  C   UNL     1      27.371   1.588   9.371  1.00  0.00     0.000 C 
BRANCH  23  24
ATOM     24  C   UNL     1      27.463   0.414  10.364  1.00  0.00    -0.000 C 
BRANCH  24  25
ATOM     25  C   UNL     1      27.131  -0.970   9.774  1.00  0.00    -0.000 C 
BRANCH  25  26
ATOM     26  C   UNL     1      25.629  -1.309   9.708  1.00  0.00    -0.000 C 
BRANCH  26  27
ATOM     27  C   UNL     1      25.253  -2.616  10.438  1.00  0.00    -0.000 C 
BRANCH  27  28
ATOM     28  C   UNL     1      24.435  -3.572   9.553  1.00  0.00    -0.000 C 
BRANCH  28  29
ATOM     29  C   UNL     1      24.468  -3.173   8.069  1.00  0.00    -0.000 C 
BRANCH  29  30
ATOM     30  C   UNL     1      24.956  -4.317   7.162  1.00  0.00    -0.000 C 
BRANCH  30  31
ATOM     31  C   UNL     1      24.743  -4.015   5.671  1.00  0.00    -0.003 C 
ATOM     32  C   UNL     1      26.052  -3.729   4.936  1.00  0.00     0.004 C 
ENDBRANCH  30  31
ENDBRANCH  29  30
ENDBRANCH  28  29
ENDBRANCH  27  28
ENDBRANCH  26  27
ENDBRANCH  25  26
ENDBRANCH  24  25
ENDBRANCH  23  24
ENDBRANCH  22  23
ENDBRANCH  21  22
ENDBRANCH  20  21
ENDBRANCH  19  20
ENDBRANCH  18  19
ENDBRANCH   1  18
TORSDOF 28
ENDMDL
