MODEL 1
REMARK VINA RESULT:    -6.419      0.000      0.000
REMARK INTER + INTRA:          -6.419
REMARK INTER:                  -6.419
REMARK INTRA:                   0.000
REMARK UNBOUND:                 0.000
REMARK SMILES C=C1CCC[C@]2(C)C=C3OC(=O)C(C)=C3C[C@H]12
REMARK SMILES IDX 14 1 13 2 15 3 16 4 17 5 2 6 1 7 3 8 4 9 5 10 6 11 8 12 9 13
REMARK SMILES IDX 10 14 11 15 12 16 7 17
REMARK H PARENT
REMARK Flexibility Score: inf
ROOT
ATOM      1  C   UNL     1      16.147  47.446  41.130  1.00  0.00     0.053 C 
ATOM      2  C   UNL     1      16.910  48.611  41.676  1.00  0.00     0.041 C 
ATOM      3  C   UNL     1      17.897  48.563  42.567  1.00  0.00     0.005 C 
ATOM      4  C   UNL     1      18.480  47.380  43.264  1.00  0.00     0.049 C 
ATOM      5  C   UNL     1      19.875  47.750  43.835  1.00  0.00     0.029 C 
ATOM      6  C   UNL     1      20.367  46.623  44.725  1.00  0.00    -0.073 C 
ATOM      7  C   UNL     1      21.174  45.669  44.234  1.00  0.00     0.008 C 
ATOM      8  C   UNL     1      19.806  46.502  46.124  1.00  0.00     0.031 C 
ATOM      9  C   UNL     1      19.834  47.850  46.848  1.00  0.00     0.005 C 
ATOM     10  C   UNL     1      19.221  48.976  45.998  1.00  0.00     0.012 C 
ATOM     11  C   UNL     1      19.899  49.125  44.609  1.00  0.00    -0.004 C 
ATOM     12  C   UNL     1      19.166  50.221  43.841  1.00  0.00     0.027 C 
ATOM     13  C   UNL     1      18.240  49.921  42.937  1.00  0.00     0.131 C 
ATOM     14  O   UNL     1      17.455  50.823  42.234  1.00  0.00    -0.423 OA
ATOM     15  C   UNL     1      16.623  50.031  41.454  1.00  0.00     0.339 C 
ATOM     16  O   UNL     1      15.739  50.487  40.683  1.00  0.00    -0.246 OA
ATOM     17  C   UNL     1      21.365  49.595  44.772  1.00  0.00     0.016 C 
ENDROOT
TORSDOF 0
ENDMDL
MODEL 2
REMARK VINA RESULT:    -6.408      2.218      3.168
REMARK INTER + INTRA:          -6.408
REMARK INTER:                  -6.408
REMARK INTRA:                   0.000
REMARK UNBOUND:                 0.000
REMARK SMILES C=C1CCC[C@]2(C)C=C3OC(=O)C(C)=C3C[C@H]12
REMARK SMILES IDX 14 1 13 2 15 3 16 4 17 5 2 6 1 7 3 8 4 9 5 10 6 11 8 12 9 13
REMARK SMILES IDX 10 14 11 15 12 16 7 17
REMARK H PARENT
REMARK Flexibility Score: inf
ROOT
ATOM      1  C   UNL     1      15.374  47.965  42.645  1.00  0.00     0.053 C 
ATOM      2  C   UNL     1      16.554  47.165  42.195  1.00  0.00     0.041 C 
ATOM      3  C   UNL     1      17.697  47.000  42.857  1.00  0.00     0.005 C 
ATOM      4  C   UNL     1      18.114  47.567  44.173  1.00  0.00     0.049 C 
ATOM      5  C   UNL     1      19.302  46.745  44.739  1.00  0.00     0.029 C 
ATOM      6  C   UNL     1      19.863  47.451  45.960  1.00  0.00    -0.073 C 
ATOM      7  C   UNL     1      19.454  47.110  47.193  1.00  0.00     0.008 C 
ATOM      8  C   UNL     1      20.763  48.648  45.760  1.00  0.00     0.031 C 
ATOM      9  C   UNL     1      21.853  48.353  44.725  1.00  0.00     0.005 C 
ATOM     10  C   UNL     1      21.275  47.752  43.432  1.00  0.00     0.012 C 
ATOM     11  C   UNL     1      20.440  46.465  43.682  1.00  0.00    -0.004 C 
ATOM     12  C   UNL     1      19.872  46.005  42.343  1.00  0.00     0.027 C 
ATOM     13  C   UNL     1      18.622  46.294  41.995  1.00  0.00     0.131 C 
ATOM     14  O   UNL     1      18.019  46.000  40.781  1.00  0.00    -0.423 OA
ATOM     15  C   UNL     1      16.742  46.537  40.885  1.00  0.00     0.339 C 
ATOM     16  O   UNL     1      15.885  46.494  39.964  1.00  0.00    -0.246 OA
ATOM     17  C   UNL     1      21.350  45.325  44.200  1.00  0.00     0.016 C 
ENDROOT
TORSDOF 0
ENDMDL
MODEL 3
REMARK VINA RESULT:    -6.323      1.846      2.707
REMARK INTER + INTRA:          -6.323
REMARK INTER:                  -6.323
REMARK INTRA:                   0.000
REMARK UNBOUND:                 0.000
REMARK SMILES C=C1CCC[C@]2(C)C=C3OC(=O)C(C)=C3C[C@H]12
REMARK SMILES IDX 14 1 13 2 15 3 16 4 17 5 2 6 1 7 3 8 4 9 5 10 6 11 8 12 9 13
REMARK SMILES IDX 10 14 11 15 12 16 7 17
REMARK H PARENT
REMARK Flexibility Score: inf
ROOT
ATOM      1  C   UNL     1      16.325  50.069  41.518  1.00  0.00     0.053 C 
ATOM      2  C   UNL     1      16.328  49.633  42.948  1.00  0.00     0.041 C 
ATOM      3  C   UNL     1      17.384  49.227  43.649  1.00  0.00     0.005 C 
ATOM      4  C   UNL     1      18.803  49.074  43.212  1.00  0.00     0.049 C 
ATOM      5  C   UNL     1      19.726  49.027  44.458  1.00  0.00     0.029 C 
ATOM      6  C   UNL     1      21.133  48.653  44.024  1.00  0.00    -0.073 C 
ATOM      7  C   UNL     1      22.046  49.606  43.778  1.00  0.00     0.008 C 
ATOM      8  C   UNL     1      21.440  47.205  43.719  1.00  0.00     0.031 C 
ATOM      9  C   UNL     1      20.926  46.286  44.829  1.00  0.00     0.005 C 
ATOM     10  C   UNL     1      19.458  46.576  45.187  1.00  0.00     0.012 C 
ATOM     11  C   UNL     1      19.214  48.056  45.591  1.00  0.00    -0.004 C 
ATOM     12  C   UNL     1      17.722  48.232  45.858  1.00  0.00     0.027 C 
ATOM     13  C   UNL     1      16.918  48.746  44.933  1.00  0.00     0.131 C 
ATOM     14  O   UNL     1      15.541  48.884  45.027  1.00  0.00    -0.423 OA
ATOM     15  C   UNL     1      15.159  49.425  43.806  1.00  0.00     0.339 C 
ATOM     16  O   UNL     1      13.966  49.680  43.493  1.00  0.00    -0.246 OA
ATOM     17  C   UNL     1      19.948  48.381  46.915  1.00  0.00     0.016 C 
ENDROOT
TORSDOF 0
ENDMDL
MODEL 4
REMARK VINA RESULT:    -6.124      2.278      4.920
REMARK INTER + INTRA:          -6.124
REMARK INTER:                  -6.124
REMARK INTRA:                   0.000
REMARK UNBOUND:                 0.000
REMARK SMILES C=C1CCC[C@]2(C)C=C3OC(=O)C(C)=C3C[C@H]12
REMARK SMILES IDX 14 1 13 2 15 3 16 4 17 5 2 6 1 7 3 8 4 9 5 10 6 11 8 12 9 13
REMARK SMILES IDX 10 14 11 15 12 16 7 17
REMARK H PARENT
REMARK Flexibility Score: inf
ROOT
ATOM      1  C   UNL     1      21.448  46.629  43.982  1.00  0.00     0.053 C 
ATOM      2  C   UNL     1      20.837  47.950  44.324  1.00  0.00     0.041 C 
ATOM      3  C   UNL     1      19.586  48.330  44.077  1.00  0.00     0.005 C 
ATOM      4  C   UNL     1      18.492  47.583  43.391  1.00  0.00     0.049 C 
ATOM      5  C   UNL     1      17.124  48.226  43.745  1.00  0.00     0.029 C 
ATOM      6  C   UNL     1      16.041  47.607  42.879  1.00  0.00    -0.073 C 
ATOM      7  C   UNL     1      15.313  46.574  43.332  1.00  0.00     0.008 C 
ATOM      8  C   UNL     1      15.906  48.064  41.445  1.00  0.00     0.031 C 
ATOM      9  C   UNL     1      15.903  49.592  41.350  1.00  0.00     0.005 C 
ATOM     10  C   UNL     1      17.075  50.221  42.124  1.00  0.00     0.012 C 
ATOM     11  C   UNL     1      17.110  49.798  43.618  1.00  0.00    -0.004 C 
ATOM     12  C   UNL     1      18.344  50.430  44.257  1.00  0.00     0.027 C 
ATOM     13  C   UNL     1      19.462  49.732  44.423  1.00  0.00     0.131 C 
ATOM     14  O   UNL     1      20.665  50.213  44.917  1.00  0.00    -0.423 OA
ATOM     15  C   UNL     1      21.528  49.126  44.858  1.00  0.00     0.339 C 
ATOM     16  O   UNL     1      22.738  49.170  45.203  1.00  0.00    -0.246 OA
ATOM     17  C   UNL     1      15.878  50.362  44.367  1.00  0.00     0.016 C 
ENDROOT
TORSDOF 0
ENDMDL
MODEL 5
REMARK VINA RESULT:    -6.115      2.265      3.817
REMARK INTER + INTRA:          -6.115
REMARK INTER:                  -6.115
REMARK INTRA:                   0.000
REMARK UNBOUND:                 0.000
REMARK SMILES C=C1CCC[C@]2(C)C=C3OC(=O)C(C)=C3C[C@H]12
REMARK SMILES IDX 14 1 13 2 15 3 16 4 17 5 2 6 1 7 3 8 4 9 5 10 6 11 8 12 9 13
REMARK SMILES IDX 10 14 11 15 12 16 7 17
REMARK H PARENT
REMARK Flexibility Score: inf
ROOT
ATOM      1  C   UNL     1      21.453  45.259  43.665  1.00  0.00     0.053 C 
ATOM      2  C   UNL     1      20.361  46.243  43.389  1.00  0.00     0.041 C 
ATOM      3  C   UNL     1      20.059  47.315  44.117  1.00  0.00     0.005 C 
ATOM      4  C   UNL     1      20.684  47.802  45.381  1.00  0.00     0.049 C 
ATOM      5  C   UNL     1      20.321  49.295  45.597  1.00  0.00     0.029 C 
ATOM      6  C   UNL     1      20.771  49.725  46.983  1.00  0.00    -0.073 C 
ATOM      7  C   UNL     1      21.961  50.320  47.158  1.00  0.00     0.008 C 
ATOM      8  C   UNL     1      19.933  49.328  48.176  1.00  0.00     0.031 C 
ATOM      9  C   UNL     1      18.453  49.639  47.939  1.00  0.00     0.005 C 
ATOM     10  C   UNL     1      17.956  49.095  46.589  1.00  0.00     0.012 C 
ATOM     11  C   UNL     1      18.790  49.612  45.384  1.00  0.00    -0.004 C 
ATOM     12  C   UNL     1      18.245  48.956  44.118  1.00  0.00     0.027 C 
ATOM     13  C   UNL     1      18.840  47.892  43.590  1.00  0.00     0.131 C 
ATOM     14  O   UNL     1      18.400  47.166  42.493  1.00  0.00    -0.423 OA
ATOM     15  C   UNL     1      19.325  46.138  42.359  1.00  0.00     0.339 C 
ATOM     16  O   UNL     1      19.256  45.241  41.478  1.00  0.00    -0.246 OA
ATOM     17  C   UNL     1      18.601  51.139  45.215  1.00  0.00     0.016 C 
ENDROOT
TORSDOF 0
ENDMDL
MODEL 6
REMARK VINA RESULT:    -6.055      3.038      5.379
REMARK INTER + INTRA:          -6.055
REMARK INTER:                  -6.055
REMARK INTRA:                   0.000
REMARK UNBOUND:                 0.000
REMARK SMILES C=C1CCC[C@]2(C)C=C3OC(=O)C(C)=C3C[C@H]12
REMARK SMILES IDX 14 1 13 2 15 3 16 4 17 5 2 6 1 7 3 8 4 9 5 10 6 11 8 12 9 13
REMARK SMILES IDX 10 14 11 15 12 16 7 17
REMARK H PARENT
REMARK Flexibility Score: inf
ROOT
ATOM      1  C   UNL     1      23.286  50.722  47.060  1.00  0.00     0.053 C 
ATOM      2  C   UNL     1      21.839  50.439  47.307  1.00  0.00     0.041 C 
ATOM      3  C   UNL     1      21.094  49.527  46.687  1.00  0.00     0.005 C 
ATOM      4  C   UNL     1      21.473  48.585  45.594  1.00  0.00     0.049 C 
ATOM      5  C   UNL     1      20.439  47.430  45.523  1.00  0.00     0.029 C 
ATOM      6  C   UNL     1      20.702  46.599  44.279  1.00  0.00    -0.073 C 
ATOM      7  C   UNL     1      21.457  45.491  44.347  1.00  0.00     0.008 C 
ATOM      8  C   UNL     1      20.236  47.124  42.941  1.00  0.00     0.031 C 
ATOM      9  C   UNL     1      18.782  47.599  43.009  1.00  0.00     0.005 C 
ATOM     10  C   UNL     1      18.538  48.544  44.198  1.00  0.00     0.012 C 
ATOM     11  C   UNL     1      18.939  47.919  45.562  1.00  0.00    -0.004 C 
ATOM     12  C   UNL     1      18.712  48.969  46.646  1.00  0.00     0.027 C 
ATOM     13  C   UNL     1      19.720  49.699  47.112  1.00  0.00     0.131 C 
ATOM     14  O   UNL     1      19.628  50.730  48.035  1.00  0.00    -0.423 OA
ATOM     15  C   UNL     1      20.928  51.203  48.163  1.00  0.00     0.339 C 
ATOM     16  O   UNL     1      21.255  52.167  48.905  1.00  0.00    -0.246 OA
ATOM     17  C   UNL     1      18.019  46.721  45.897  1.00  0.00     0.016 C 
ENDROOT
TORSDOF 0
ENDMDL
MODEL 7
REMARK VINA RESULT:    -6.051      3.120      5.265
REMARK INTER + INTRA:          -6.051
REMARK INTER:                  -6.051
REMARK INTRA:                   0.000
REMARK UNBOUND:                 0.000
REMARK SMILES C=C1CCC[C@]2(C)C=C3OC(=O)C(C)=C3C[C@H]12
REMARK SMILES IDX 14 1 13 2 15 3 16 4 17 5 2 6 1 7 3 8 4 9 5 10 6 11 8 12 9 13
REMARK SMILES IDX 10 14 11 15 12 16 7 17
REMARK H PARENT
REMARK Flexibility Score: inf
ROOT
ATOM      1  C   UNL     1      22.853  50.091  43.813  1.00  0.00     0.053 C 
ATOM      2  C   UNL     1      21.970  49.864  44.999  1.00  0.00     0.041 C 
ATOM      3  C   UNL     1      20.676  49.558  44.974  1.00  0.00     0.005 C 
ATOM      4  C   UNL     1      19.769  49.388  43.801  1.00  0.00     0.049 C 
ATOM      5  C   UNL     1      18.506  48.598  44.232  1.00  0.00     0.029 C 
ATOM      6  C   UNL     1      17.493  48.617  43.100  1.00  0.00    -0.073 C 
ATOM      7  C   UNL     1      17.436  47.605  42.220  1.00  0.00     0.008 C 
ATOM      8  C   UNL     1      16.664  49.862  42.886  1.00  0.00     0.031 C 
ATOM      9  C   UNL     1      16.054  50.353  44.201  1.00  0.00     0.005 C 
ATOM     10  C   UNL     1      17.102  50.456  45.322  1.00  0.00     0.012 C 
ATOM     11  C   UNL     1      17.857  49.122  45.571  1.00  0.00    -0.004 C 
ATOM     12  C   UNL     1      18.905  49.368  46.652  1.00  0.00     0.027 C 
ATOM     13  C   UNL     1      20.176  49.590  46.333  1.00  0.00     0.131 C 
ATOM     14  O   UNL     1      21.202  49.901  47.214  1.00  0.00    -0.423 OA
ATOM     15  C   UNL     1      22.317  50.080  46.406  1.00  0.00     0.339 C 
ATOM     16  O   UNL     1      23.455  50.399  46.839  1.00  0.00    -0.246 OA
ATOM     17  C   UNL     1      16.887  48.049  46.124  1.00  0.00     0.016 C 
ENDROOT
TORSDOF 0
ENDMDL
MODEL 8
REMARK VINA RESULT:    -6.041      3.757      6.293
REMARK INTER + INTRA:          -6.041
REMARK INTER:                  -6.041
REMARK INTRA:                   0.000
REMARK UNBOUND:                 0.000
REMARK SMILES C=C1CCC[C@]2(C)C=C3OC(=O)C(C)=C3C[C@H]12
REMARK SMILES IDX 14 1 13 2 15 3 16 4 17 5 2 6 1 7 3 8 4 9 5 10 6 11 8 12 9 13
REMARK SMILES IDX 10 14 11 15 12 16 7 17
REMARK H PARENT
REMARK Flexibility Score: inf
ROOT
ATOM      1  C   UNL     1      21.866  51.220  49.875  1.00  0.00     0.053 C 
ATOM      2  C   UNL     1      22.259  50.926  48.462  1.00  0.00     0.041 C 
ATOM      3  C   UNL     1      21.501  50.347  47.534  1.00  0.00     0.005 C 
ATOM      4  C   UNL     1      20.108  49.824  47.647  1.00  0.00     0.049 C 
ATOM      5  C   UNL     1      19.495  49.673  46.230  1.00  0.00     0.029 C 
ATOM      6  C   UNL     1      18.169  48.940  46.333  1.00  0.00    -0.073 C 
ATOM      7  C   UNL     1      17.016  49.624  46.411  1.00  0.00     0.008 C 
ATOM      8  C   UNL     1      18.178  47.439  46.510  1.00  0.00     0.031 C 
ATOM      9  C   UNL     1      19.119  46.771  45.503  1.00  0.00     0.005 C 
ATOM     10  C   UNL     1      20.508  47.430  45.484  1.00  0.00     0.012 C 
ATOM     11  C   UNL     1      20.450  48.956  45.198  1.00  0.00    -0.004 C 
ATOM     12  C   UNL     1      21.874  49.503  45.269  1.00  0.00     0.027 C 
ATOM     13  C   UNL     1      22.320  50.107  46.365  1.00  0.00     0.131 C 
ATOM     14  O   UNL     1      23.609  50.574  46.577  1.00  0.00    -0.423 OA
ATOM     15  C   UNL     1      23.591  51.078  47.871  1.00  0.00     0.339 C 
ATOM     16  O   UNL     1      24.594  51.578  48.445  1.00  0.00    -0.246 OA
ATOM     17  C   UNL     1      19.940  49.217  43.760  1.00  0.00     0.016 C 
ENDROOT
TORSDOF 0
ENDMDL
