MODEL 1
REMARK VINA RESULT:    19.162      0.000      0.000
REMARK INTER + INTRA:          25.057
REMARK INTER:                  26.443
REMARK INTRA:                  -1.386
REMARK UNBOUND:                -1.386
REMARK SMILES CC[C@@H](CC[C@H](C)[C@H]1CC[C@H]2[C@@H]3CC=C4C[C@@H](O)CC[C@]4(C)[C@H]3CC[C@]12C)C(C)C
REMARK SMILES IDX 5 1 4 2 3 3 2 4 1 5 28 6 29 7 30 8 6 9 7 10 8 11 9 12 26 13
REMARK SMILES IDX 10 14 11 15 25 16 27 17 12 18 24 19 23 20 13 21 21 22 14 23
REMARK SMILES IDX 15 24 20 25 22 26 16 27 19 28 17 29 18 30
REMARK H PARENT 18 31
REMARK Flexibility Score: inf
ROOT
ATOM      1  C   UNL     1      13.411  22.163  -4.952  1.00  0.00     0.004 C 
ENDROOT
BRANCH   1   2
ATOM      2  C   UNL     1      12.431  20.983  -5.122  1.00  0.00     0.004 C 
BRANCH   2   3
ATOM      3  C   UNL     1      12.770  19.734  -4.253  1.00  0.00    -0.009 C 
BRANCH   3   4
ATOM      4  C   UNL     1      13.874  18.875  -4.929  1.00  0.00     0.000 C 
ATOM      5  C   UNL     1      15.233  18.989  -4.229  1.00  0.00     0.004 C 
ENDBRANCH   3   4
BRANCH   3   6
ATOM      6  C   UNL     1      11.492  18.896  -3.910  1.00  0.00    -0.014 C 
ATOM      7  C   UNL     1      10.377  19.110  -4.948  1.00  0.00     0.007 C 
ATOM      8  C   UNL     1      10.946  19.144  -2.492  1.00  0.00     0.007 C 
ENDBRANCH   3   6
ENDBRANCH   2   3
ENDBRANCH   1   2
BRANCH   1   9
ATOM      9  C   UNL     1      12.970  23.198  -3.869  1.00  0.00    -0.011 C 
ATOM     10  C   UNL     1      12.925  24.598  -4.520  1.00  0.00     0.008 C 
BRANCH   9  11
ATOM     11  C   UNL     1      13.918  23.181  -2.617  1.00  0.00    -0.002 C 
ATOM     12  C   UNL     1      14.807  24.448  -2.488  1.00  0.00     0.005 C 
ATOM     13  C   UNL     1      13.265  23.066  -1.203  1.00  0.00    -0.026 C 
ATOM     14  C   UNL     1      15.094  24.646  -0.991  1.00  0.00     0.005 C 
ATOM     15  C   UNL     1      14.476  23.424  -0.327  1.00  0.00    -0.001 C 
ATOM     16  C   UNL     1      12.805  21.650  -0.780  1.00  0.00     0.007 C 
ATOM     17  C   UNL     1      12.082  24.079  -1.057  1.00  0.00     0.012 C 
ATOM     18  C   UNL     1      14.155  23.502   1.183  1.00  0.00     0.000 C 
ATOM     19  C   UNL     1      12.461  21.590   0.726  1.00  0.00     0.005 C 
ATOM     20  C   UNL     1      13.601  22.123   1.651  1.00  0.00     0.003 C 
ATOM     21  C   UNL     1      15.424  23.836   1.982  1.00  0.00     0.031 C 
ATOM     22  C   UNL     1      13.227  22.143   3.184  1.00  0.00    -0.008 C 
ATOM     23  C   UNL     1      15.254  23.637   3.461  1.00  0.00    -0.027 C 
ATOM     24  C   UNL     1      14.361  22.780   4.004  1.00  0.00    -0.065 C 
ATOM     25  C   UNL     1      13.021  20.675   3.673  1.00  0.00     0.014 C 
ATOM     26  C   UNL     1      11.928  22.957   3.442  1.00  0.00     0.016 C 
ATOM     27  C   UNL     1      14.372  22.586   5.510  1.00  0.00     0.063 C 
ATOM     28  C   UNL     1      12.939  20.537   5.201  1.00  0.00     0.033 C 
ATOM     29  C   UNL     1      14.194  21.110   5.872  1.00  0.00     0.118 C 
BRANCH  29  30
ATOM     30  O   UNL     1      14.086  20.991   7.267  1.00  0.00    -0.393 OA
ATOM     31  H   UNL     1      13.225  21.411   7.525  1.00  0.00     0.210 HD
ENDBRANCH  29  30
ENDBRANCH   9  11
ENDBRANCH   1   9
TORSDOF 7
ENDMDL
MODEL 2
REMARK VINA RESULT:    20.681      0.538      1.527
REMARK INTER + INTRA:          27.154
REMARK INTER:                  26.120
REMARK INTRA:                   1.034
REMARK UNBOUND:                -1.386
REMARK SMILES CC[C@@H](CC[C@H](C)[C@H]1CC[C@H]2[C@@H]3CC=C4C[C@@H](O)CC[C@]4(C)[C@H]3CC[C@]12C)C(C)C
REMARK SMILES IDX 5 1 4 2 3 3 2 4 1 5 28 6 29 7 30 8 6 9 7 10 8 11 9 12 26 13
REMARK SMILES IDX 10 14 11 15 25 16 27 17 12 18 24 19 23 20 13 21 21 22 14 23
REMARK SMILES IDX 15 24 20 25 22 26 16 27 19 28 17 29 18 30
REMARK H PARENT 18 31
REMARK Flexibility Score: inf
ROOT
ATOM      1  C   UNL     1      13.088  21.782  -4.802  1.00  0.00     0.004 C 
ENDROOT
BRANCH   1   2
ATOM      2  C   UNL     1      11.743  21.086  -5.102  1.00  0.00     0.004 C 
BRANCH   2   3
ATOM      3  C   UNL     1      11.817  19.529  -5.124  1.00  0.00    -0.009 C 
BRANCH   3   4
ATOM      4  C   UNL     1      10.395  18.909  -5.039  1.00  0.00     0.000 C 
ATOM      5  C   UNL     1       9.841  18.875  -3.610  1.00  0.00     0.004 C 
ENDBRANCH   3   4
BRANCH   3   6
ATOM      6  C   UNL     1      12.775  18.973  -4.017  1.00  0.00    -0.014 C 
ATOM      7  C   UNL     1      12.375  19.470  -2.617  1.00  0.00     0.007 C 
ATOM      8  C   UNL     1      14.264  19.270  -4.275  1.00  0.00     0.007 C 
ENDBRANCH   3   6
ENDBRANCH   2   3
ENDBRANCH   1   2
BRANCH   1   9
ATOM      9  C   UNL     1      12.948  23.079  -3.943  1.00  0.00    -0.011 C 
ATOM     10  C   UNL     1      13.224  24.299  -4.849  1.00  0.00     0.008 C 
BRANCH   9  11
ATOM     11  C   UNL     1      13.906  23.066  -2.699  1.00  0.00    -0.002 C 
ATOM     12  C   UNL     1      14.824  24.315  -2.601  1.00  0.00     0.005 C 
ATOM     13  C   UNL     1      13.262  22.993  -1.278  1.00  0.00    -0.026 C 
ATOM     14  C   UNL     1      15.127  24.536  -1.111  1.00  0.00     0.005 C 
ATOM     15  C   UNL     1      14.488  23.342  -0.418  1.00  0.00    -0.001 C 
ATOM     16  C   UNL     1      12.775  21.596  -0.824  1.00  0.00     0.007 C 
ATOM     17  C   UNL     1      12.103  24.034  -1.142  1.00  0.00     0.012 C 
ATOM     18  C   UNL     1      14.181  23.456   1.092  1.00  0.00     0.000 C 
ATOM     19  C   UNL     1      12.441  21.573   0.686  1.00  0.00     0.005 C 
ATOM     20  C   UNL     1      13.600  22.098   1.591  1.00  0.00     0.003 C 
ATOM     21  C   UNL     1      15.463  23.777   1.876  1.00  0.00     0.031 C 
ATOM     22  C   UNL     1      13.239  22.156   3.127  1.00  0.00    -0.008 C 
ATOM     23  C   UNL     1      15.301  23.611   3.360  1.00  0.00    -0.027 C 
ATOM     24  C   UNL     1      14.394  22.785   3.926  1.00  0.00    -0.065 C 
ATOM     25  C   UNL     1      13.006  20.703   3.646  1.00  0.00     0.014 C 
ATOM     26  C   UNL     1      11.961  23.003   3.378  1.00  0.00     0.016 C 
ATOM     27  C   UNL     1      14.413  22.620   5.435  1.00  0.00     0.063 C 
ATOM     28  C   UNL     1      12.933  20.597   5.178  1.00  0.00     0.033 C 
ATOM     29  C   UNL     1      14.206  21.155   5.827  1.00  0.00     0.118 C 
BRANCH  29  30
ATOM     30  O   UNL     1      14.107  21.065   7.225  1.00  0.00    -0.393 OA
ATOM     31  H   UNL     1      14.854  21.600   7.600  1.00  0.00     0.210 HD
ENDBRANCH  29  30
ENDBRANCH   9  11
ENDBRANCH   1   9
TORSDOF 7
ENDMDL
MODEL 3
REMARK VINA RESULT:    21.984      2.762      7.807
REMARK INTER + INTRA:          28.951
REMARK INTER:                  29.959
REMARK INTRA:                  -1.008
REMARK UNBOUND:                -1.386
REMARK SMILES CC[C@@H](CC[C@H](C)[C@H]1CC[C@H]2[C@@H]3CC=C4C[C@@H](O)CC[C@]4(C)[C@H]3CC[C@]12C)C(C)C
REMARK SMILES IDX 5 1 4 2 3 3 2 4 1 5 28 6 29 7 30 8 6 9 7 10 8 11 9 12 26 13
REMARK SMILES IDX 10 14 11 15 25 16 27 17 12 18 24 19 23 20 13 21 21 22 14 23
REMARK SMILES IDX 15 24 20 25 22 26 16 27 19 28 17 29 18 30
REMARK H PARENT 18 31
REMARK Flexibility Score: inf
ROOT
ATOM      1  C   UNL     1      16.006  22.887   3.726  1.00  0.00     0.004 C 
ENDROOT
BRANCH   1   2
ATOM      2  C   UNL     1      15.402  23.576   4.968  1.00  0.00     0.004 C 
BRANCH   2   3
ATOM      3  C   UNL     1      14.300  22.744   5.692  1.00  0.00    -0.009 C 
BRANCH   3   4
ATOM      4  C   UNL     1      14.871  22.064   6.966  1.00  0.00     0.000 C 
ATOM      5  C   UNL     1      16.395  21.912   6.932  1.00  0.00     0.004 C 
ENDBRANCH   3   4
BRANCH   3   6
ATOM      6  C   UNL     1      13.613  21.719   4.727  1.00  0.00    -0.014 C 
ATOM      7  C   UNL     1      12.440  22.355   3.963  1.00  0.00     0.007 C 
ATOM      8  C   UNL     1      13.149  20.425   5.421  1.00  0.00     0.007 C 
ENDBRANCH   3   6
ENDBRANCH   2   3
ENDBRANCH   1   2
BRANCH   1   9
ATOM      9  C   UNL     1      16.582  23.884   2.670  1.00  0.00    -0.011 C 
ATOM     10  C   UNL     1      16.889  25.222   3.378  1.00  0.00     0.008 C 
BRANCH   9  11
ATOM     11  C   UNL     1      15.602  24.091   1.461  1.00  0.00    -0.002 C 
ATOM     12  C   UNL     1      16.099  25.135   0.423  1.00  0.00     0.005 C 
ATOM     13  C   UNL     1      15.261  22.852   0.573  1.00  0.00    -0.026 C 
ATOM     14  C   UNL     1      15.509  24.735  -0.938  1.00  0.00     0.005 C 
ATOM     15  C   UNL     1      14.595  23.561  -0.618  1.00  0.00    -0.001 C 
ATOM     16  C   UNL     1      14.217  21.868   1.154  1.00  0.00     0.007 C 
ATOM     17  C   UNL     1      16.562  22.080   0.177  1.00  0.00     0.012 C 
ATOM     18  C   UNL     1      14.202  22.610  -1.771  1.00  0.00     0.000 C 
ATOM     19  C   UNL     1      13.730  20.861   0.087  1.00  0.00     0.005 C 
ATOM     20  C   UNL     1      13.214  21.536  -1.223  1.00  0.00     0.003 C 
ATOM     21  C   UNL     1      13.520  23.395  -2.902  1.00  0.00     0.031 C 
ATOM     22  C   UNL     1      12.793  20.514  -2.350  1.00  0.00    -0.008 C 
ATOM     23  C   UNL     1      12.852  22.508  -3.913  1.00  0.00    -0.027 C 
ATOM     24  C   UNL     1      12.404  21.263  -3.636  1.00  0.00    -0.065 C 
ATOM     25  C   UNL     1      11.558  19.697  -1.854  1.00  0.00     0.014 C 
ATOM     26  C   UNL     1      13.951  19.536  -2.692  1.00  0.00     0.016 C 
ATOM     27  C   UNL     1      11.640  20.515  -4.714  1.00  0.00     0.063 C 
ATOM     28  C   UNL     1      10.875  18.877  -2.960  1.00  0.00     0.033 C 
ATOM     29  C   UNL     1      10.437  19.779  -4.121  1.00  0.00     0.118 C 
BRANCH  29  30
ATOM     30  O   UNL     1       9.834  19.005  -5.125  1.00  0.00    -0.393 OA
ATOM     31  H   UNL     1      10.124  19.386  -5.994  1.00  0.00     0.210 HD
ENDBRANCH  29  30
ENDBRANCH   9  11
ENDBRANCH   1   9
TORSDOF 7
ENDMDL
