MODEL 1
REMARK VINA RESULT:    -4.564      0.000      0.000
REMARK INTER + INTRA:          -6.687
REMARK INTER:                  -6.431
REMARK INTRA:                  -0.256
REMARK UNBOUND:                -0.256
REMARK SMILES CC1=CCC(=C(C)C)C(=O)CC(C)=CCC1
REMARK SMILES IDX 12 1 14 2 13 3 15 4 16 5 2 6 1 7 3 8 11 10 9 11 10 12 5 13
REMARK SMILES IDX 6 14 7 15 8 16 4 17
REMARK H PARENT
REMARK Flexibility Score: 60.00
ROOT
ATOM      1  C   UNL     1       6.160  -1.501  47.245  1.00  0.00    -0.070 C 
ATOM      2  C   UNL     1       5.968  -2.257  46.140  1.00  0.00    -0.027 C 
ATOM      3  C   UNL     1       6.952  -0.226  47.077  1.00  0.00     0.039 C 
ENDROOT
BRANCH   2   4
ATOM      4  C   UNL     1       5.177  -3.539  46.059  1.00  0.00     0.032 C 
BRANCH   4   5
ATOM      5  C   UNL     1       5.769  -4.730  46.849  1.00  0.00     0.034 C 
BRANCH   5   6
ATOM      6  C   UNL     1       4.894  -5.277  47.967  1.00  0.00    -0.077 C 
ATOM      7  C   UNL     1       3.532  -5.810  47.591  1.00  0.00     0.039 C 
ATOM      8  C   UNL     1       5.215  -5.273  49.290  1.00  0.00    -0.023 CG0
ATOM      9  G   UNL     1       6.536  -4.946  49.973  1.00  0.00     0.000 G0
ENDBRANCH   5   6
ENDBRANCH   4   5
ENDBRANCH   2   4
BRANCH   1  10
ATOM     10  C   UNL     1       5.598  -1.812  48.627  1.00  0.00     0.111 C 
BRANCH  10  11
ATOM     11  C   UNL     1       6.571  -2.362  49.645  1.00  0.00     0.163 C 
ATOM     12  O   UNL     1       6.777  -1.650  50.665  1.00  0.00    -0.294 OA
BRANCH  11  13
ATOM     13  C   UNL     1       7.271  -3.691  49.504  1.00  0.00    -0.002 C 
ATOM     14  C   UNL     1       8.549  -3.791  49.018  1.00  0.00    -0.069 C 
ATOM     15  C   UNL     1       9.290  -2.604  48.444  1.00  0.00     0.039 C 
ATOM     16  C   UNL     1       9.282  -5.116  48.997  1.00  0.00     0.039 C 
BRANCH  13  17
ATOM     17  C   UNL     1       6.544  -4.940  49.978  1.00  0.00     0.066 CG0
ATOM     18  G   UNL     1       5.225  -5.267  49.293  1.00  0.00     0.000 G0
ENDBRANCH  13  17
ENDBRANCH  11  13
ENDBRANCH  10  11
ENDBRANCH   1  10
TORSDOF 0
ENDMDL
MODEL 2
REMARK VINA RESULT:    -4.510      1.939      3.805
REMARK INTER + INTRA:          -6.612
REMARK INTER:                  -6.244
REMARK INTRA:                  -0.368
REMARK UNBOUND:                -0.256
REMARK SMILES CC1=CCC(=C(C)C)C(=O)CC(C)=CCC1
REMARK SMILES IDX 12 1 14 2 13 3 15 4 16 5 2 6 1 7 3 8 11 10 9 11 10 12 5 13
REMARK SMILES IDX 6 14 7 15 8 16 4 17
REMARK H PARENT
REMARK Flexibility Score: 60.00
ROOT
ATOM      1  C   UNL     1       5.984  -1.766  48.742  1.00  0.00    -0.070 C 
ATOM      2  C   UNL     1       7.199  -1.318  48.352  1.00  0.00    -0.027 C 
ATOM      3  C   UNL     1       5.497  -1.338  50.106  1.00  0.00     0.039 C 
ENDROOT
BRANCH   2   4
ATOM      4  C   UNL     1       7.867  -1.577  47.025  1.00  0.00     0.032 C 
BRANCH   4   5
ATOM      5  C   UNL     1       8.818  -2.797  46.993  1.00  0.00     0.034 C 
BRANCH   5   6
ATOM      6  C   UNL     1       9.211  -3.359  48.352  1.00  0.00    -0.077 C 
ATOM      7  C   UNL     1      10.281  -2.628  49.127  1.00  0.00     0.039 C 
ATOM      8  C   UNL     1       8.719  -4.503  48.902  1.00  0.00    -0.023 CG0
ATOM      9  G   UNL     1       7.556  -5.377  48.457  1.00  0.00     0.000 G0
ENDBRANCH   5   6
ENDBRANCH   4   5
ENDBRANCH   2   4
BRANCH   1  10
ATOM     10  C   UNL     1       5.054  -2.625  47.892  1.00  0.00     0.111 C 
BRANCH  10  11
ATOM     11  C   UNL     1       5.436  -4.078  47.728  1.00  0.00     0.163 C 
ATOM     12  O   UNL     1       5.130  -4.616  46.630  1.00  0.00    -0.294 OA
BRANCH  11  13
ATOM     13  C   UNL     1       6.157  -4.880  48.781  1.00  0.00    -0.002 C 
ATOM     14  C   UNL     1       5.567  -5.211  49.974  1.00  0.00    -0.069 C 
ATOM     15  C   UNL     1       4.218  -4.666  50.386  1.00  0.00     0.039 C 
ATOM     16  C   UNL     1       6.259  -6.119  50.970  1.00  0.00     0.039 C 
BRANCH  13  17
ATOM     17  C   UNL     1       7.558  -5.382  48.469  1.00  0.00     0.066 CG0
ATOM     18  G   UNL     1       8.717  -4.504  48.918  1.00  0.00     0.000 G0
ENDBRANCH  13  17
ENDBRANCH  11  13
ENDBRANCH  10  11
ENDBRANCH   1  10
TORSDOF 0
ENDMDL
MODEL 3
REMARK VINA RESULT:    -4.353      1.698      3.901
REMARK INTER + INTRA:          -6.390
REMARK INTER:                  -6.344
REMARK INTRA:                  -0.046
REMARK UNBOUND:                -0.256
REMARK SMILES CC1=CCC(=C(C)C)C(=O)CC(C)=CCC1
REMARK SMILES IDX 12 1 14 2 13 3 15 4 16 5 2 6 1 7 3 8 11 10 9 11 10 12 5 13
REMARK SMILES IDX 6 14 7 15 8 16 4 17
REMARK H PARENT
REMARK Flexibility Score: 60.00
ROOT
ATOM      1  C   UNL     1       6.283  -2.215  50.428  1.00  0.00    -0.070 C 
ATOM      2  C   UNL     1       6.823  -1.639  49.330  1.00  0.00    -0.027 C 
ATOM      3  C   UNL     1       6.633  -1.609  51.766  1.00  0.00     0.039 C 
ENDROOT
BRANCH   2   4
ATOM      4  C   UNL     1       6.582  -2.041  47.896  1.00  0.00     0.032 C 
BRANCH   4   5
ATOM      5  C   UNL     1       7.751  -2.794  47.219  1.00  0.00     0.034 C 
BRANCH   5   6
ATOM      6  C   UNL     1       8.705  -3.513  48.162  1.00  0.00    -0.077 C 
ATOM      7  C   UNL     1       9.906  -2.746  48.659  1.00  0.00     0.039 C 
ATOM      8  C   UNL     1       8.595  -4.814  48.549  1.00  0.00    -0.023 CG0
ATOM      9  G   UNL     1       7.452  -5.799  48.347  1.00  0.00     0.000 G0
ENDBRANCH   5   6
ENDBRANCH   4   5
ENDBRANCH   2   4
BRANCH   1  10
ATOM     10  C   UNL     1       5.314  -3.392  50.412  1.00  0.00     0.111 C 
BRANCH  10  11
ATOM     11  C   UNL     1       5.912  -4.758  50.163  1.00  0.00     0.163 C 
ATOM     12  O   UNL     1       6.288  -5.399  51.181  1.00  0.00    -0.294 OA
BRANCH  11  13
ATOM     13  C   UNL     1       6.060  -5.371  48.794  1.00  0.00    -0.002 C 
ATOM     14  C   UNL     1       5.000  -5.492  47.932  1.00  0.00    -0.069 C 
ATOM     15  C   UNL     1       3.583  -5.166  48.346  1.00  0.00     0.039 C 
ATOM     16  C   UNL     1       5.189  -5.997  46.516  1.00  0.00     0.039 C 
BRANCH  13  17
ATOM     17  C   UNL     1       7.447  -5.808  48.348  1.00  0.00     0.066 CG0
ATOM     18  G   UNL     1       8.581  -4.818  48.566  1.00  0.00     0.000 G0
ENDBRANCH  13  17
ENDBRANCH  11  13
ENDBRANCH  10  11
ENDBRANCH   1  10
TORSDOF 0
ENDMDL
MODEL 4
REMARK VINA RESULT:    -4.174      1.888      3.815
REMARK INTER + INTRA:          -6.138
REMARK INTER:                  -6.340
REMARK INTRA:                   0.201
REMARK UNBOUND:                -0.256
REMARK SMILES CC1=CCC(=C(C)C)C(=O)CC(C)=CCC1
REMARK SMILES IDX 12 1 14 2 13 3 15 4 16 5 2 6 1 7 3 8 11 10 9 11 10 12 5 13
REMARK SMILES IDX 6 14 7 15 8 16 4 17
REMARK H PARENT
REMARK Flexibility Score: 60.00
ROOT
ATOM      1  C   UNL     1       8.345  -2.740  48.550  1.00  0.00    -0.070 C 
ATOM      2  C   UNL     1       7.557  -1.651  48.397  1.00  0.00    -0.027 C 
ATOM      3  C   UNL     1       9.724  -2.683  47.935  1.00  0.00     0.039 C 
ENDROOT
BRANCH   2   4
ATOM      4  C   UNL     1       6.169  -1.464  48.958  1.00  0.00     0.032 C 
BRANCH   4   5
ATOM      5  C   UNL     1       5.058  -2.271  48.248  1.00  0.00     0.034 C 
BRANCH   5   6
ATOM      6  C   UNL     1       5.331  -2.627  46.793  1.00  0.00    -0.077 C 
ATOM      7  C   UNL     1       5.558  -1.491  45.827  1.00  0.00     0.039 C 
ATOM      8  C   UNL     1       5.329  -3.888  46.279  1.00  0.00    -0.023 CG0
ATOM      9  G   UNL     1       5.276  -5.233  46.991  1.00  0.00     0.000 G0
ENDBRANCH   5   6
ENDBRANCH   4   5
ENDBRANCH   2   4
BRANCH   1  10
ATOM     10  C   UNL     1       7.967  -3.992  49.333  1.00  0.00     0.111 C 
BRANCH  10  11
ATOM     11  C   UNL     1       7.352  -5.124  48.543  1.00  0.00     0.163 C 
ATOM     12  O   UNL     1       8.156  -5.938  48.014  1.00  0.00    -0.294 OA
BRANCH  11  13
ATOM     13  C   UNL     1       5.867  -5.324  48.379  1.00  0.00    -0.002 C 
ATOM     14  C   UNL     1       5.035  -5.508  49.454  1.00  0.00    -0.069 C 
ATOM     15  C   UNL     1       5.560  -5.681  50.861  1.00  0.00     0.039 C 
ATOM     16  C   UNL     1       3.531  -5.585  49.282  1.00  0.00     0.039 C 
BRANCH  13  17
ATOM     17  C   UNL     1       5.282  -5.255  46.977  1.00  0.00     0.066 CG0
ATOM     18  G   UNL     1       5.313  -3.898  46.288  1.00  0.00     0.000 G0
ENDBRANCH  13  17
ENDBRANCH  11  13
ENDBRANCH  10  11
ENDBRANCH   1  10
TORSDOF 0
ENDMDL
MODEL 5
REMARK VINA RESULT:    -3.977      1.661      2.561
REMARK INTER + INTRA:          -5.860
REMARK INTER:                  -6.393
REMARK INTRA:                   0.532
REMARK UNBOUND:                -0.256
REMARK SMILES CC1=CCC(=C(C)C)C(=O)CC(C)=CCC1
REMARK SMILES IDX 12 1 14 2 13 3 15 4 16 5 2 6 1 7 3 8 11 10 9 11 10 12 5 13
REMARK SMILES IDX 6 14 7 15 8 16 4 17
REMARK H PARENT
REMARK Flexibility Score: 60.00
ROOT
ATOM      1  C   UNL     1       4.971  -2.626  45.979  1.00  0.00    -0.070 C 
ATOM      2  C   UNL     1       5.041  -3.968  46.132  1.00  0.00    -0.027 C 
ATOM      3  C   UNL     1       4.855  -2.099  44.568  1.00  0.00     0.039 C 
ENDROOT
BRANCH   2   4
ATOM      4  C   UNL     1       5.115  -4.718  47.439  1.00  0.00     0.032 C 
BRANCH   4   5
ATOM      5  C   UNL     1       4.572  -3.953  48.669  1.00  0.00     0.034 C 
BRANCH   5   6
ATOM      6  C   UNL     1       5.339  -4.165  49.967  1.00  0.00    -0.077 C 
ATOM      7  C   UNL     1       5.155  -5.484  50.679  1.00  0.00     0.039 C 
ATOM      8  C   UNL     1       6.134  -3.239  50.570  1.00  0.00    -0.023 CG0
ATOM      9  G   UNL     1       6.632  -1.896  50.056  1.00  0.00     0.000 G0
ENDBRANCH   5   6
ENDBRANCH   4   5
ENDBRANCH   2   4
BRANCH   1  10
ATOM     10  C   UNL     1       4.950  -1.614  47.119  1.00  0.00     0.111 C 
BRANCH  10  11
ATOM     11  C   UNL     1       6.292  -1.114  47.605  1.00  0.00     0.163 C 
ATOM     12  O   UNL     1       6.686  -0.016  47.126  1.00  0.00    -0.294 OA
BRANCH  11  13
ATOM     13  C   UNL     1       7.143  -1.841  48.614  1.00  0.00    -0.002 C 
ATOM     14  C   UNL     1       8.356  -2.390  48.282  1.00  0.00    -0.069 C 
ATOM     15  C   UNL     1       8.853  -2.445  46.855  1.00  0.00     0.039 C 
ATOM     16  C   UNL     1       9.254  -3.010  49.332  1.00  0.00     0.039 C 
BRANCH  13  17
ATOM     17  C   UNL     1       6.656  -1.905  50.053  1.00  0.00     0.066 CG0
ATOM     18  G   UNL     1       6.123  -3.245  50.538  1.00  0.00     0.000 G0
ENDBRANCH  13  17
ENDBRANCH  11  13
ENDBRANCH  10  11
ENDBRANCH   1  10
TORSDOF 0
ENDMDL
MODEL 6
REMARK VINA RESULT:    -3.705      9.109     10.521
REMARK INTER + INTRA:          -5.477
REMARK INTER:                  -5.349
REMARK INTRA:                  -0.128
REMARK UNBOUND:                -0.256
REMARK SMILES CC1=CCC(=C(C)C)C(=O)CC(C)=CCC1
REMARK SMILES IDX 12 1 14 2 13 3 15 4 16 5 2 6 1 7 3 8 11 10 9 11 10 12 5 13
REMARK SMILES IDX 6 14 7 15 8 16 4 17
REMARK H PARENT
REMARK Flexibility Score: 60.00
ROOT
ATOM      1  C   UNL     1       7.205   4.275  53.416  1.00  0.00    -0.070 C 
ATOM      2  C   UNL     1       7.148   3.074  54.035  1.00  0.00    -0.027 C 
ATOM      3  C   UNL     1       5.966   4.731  52.683  1.00  0.00     0.039 C 
ENDROOT
BRANCH   2   4
ATOM      4  C   UNL     1       8.240   2.437  54.858  1.00  0.00     0.032 C 
BRANCH   4   5
ATOM      5  C   UNL     1       9.485   1.981  54.061  1.00  0.00     0.034 C 
BRANCH   5   6
ATOM      6  C   UNL     1      10.828   2.384  54.652  1.00  0.00    -0.077 C 
ATOM      7  C   UNL     1      11.187   1.832  56.010  1.00  0.00     0.039 C 
ATOM      8  C   UNL     1      11.710   3.250  54.080  1.00  0.00    -0.023 CG0
ATOM      9  G   UNL     1      11.716   3.857  52.685  1.00  0.00     0.000 G0
ENDBRANCH   5   6
ENDBRANCH   4   5
ENDBRANCH   2   4
BRANCH   1  10
ATOM     10  C   UNL     1       8.403   5.218  53.443  1.00  0.00     0.111 C 
BRANCH  10  11
ATOM     11  C   UNL     1       9.409   5.067  52.326  1.00  0.00     0.163 C 
ATOM     12  O   UNL     1       8.941   4.851  51.175  1.00  0.00    -0.294 OA
BRANCH  11  13
ATOM     13  C   UNL     1      10.901   5.173  52.520  1.00  0.00    -0.002 C 
ATOM     14  C   UNL     1      11.538   6.385  52.611  1.00  0.00    -0.069 C 
ATOM     15  C   UNL     1      10.821   7.693  52.367  1.00  0.00     0.039 C 
ATOM     16  C   UNL     1      13.016   6.476  52.928  1.00  0.00     0.039 C 
BRANCH  13  17
ATOM     17  C   UNL     1      11.699   3.889  52.679  1.00  0.00     0.066 CG0
ATOM     18  G   UNL     1      11.720   3.262  54.066  1.00  0.00     0.000 G0
ENDBRANCH  13  17
ENDBRANCH  11  13
ENDBRANCH  10  11
ENDBRANCH   1  10
TORSDOF 0
ENDMDL
MODEL 7
REMARK VINA RESULT:    -3.619      8.688     10.250
REMARK INTER + INTRA:          -5.356
REMARK INTER:                  -5.122
REMARK INTRA:                  -0.234
REMARK UNBOUND:                -0.256
REMARK SMILES CC1=CCC(=C(C)C)C(=O)CC(C)=CCC1
REMARK SMILES IDX 12 1 14 2 13 3 15 4 16 5 2 6 1 7 3 8 11 10 9 11 10 12 5 13
REMARK SMILES IDX 6 14 7 15 8 16 4 17
REMARK H PARENT
REMARK Flexibility Score: 60.00
ROOT
ATOM      1  C   UNL     1       8.693   5.486  52.338  1.00  0.00    -0.070 C 
ATOM      2  C   UNL     1       7.569   5.050  52.952  1.00  0.00    -0.027 C 
ATOM      3  C   UNL     1       8.966   6.971  52.374  1.00  0.00     0.039 C 
ENDROOT
BRANCH   2   4
ATOM      4  C   UNL     1       7.117   3.617  53.081  1.00  0.00     0.032 C 
BRANCH   4   5
ATOM      5  C   UNL     1       7.392   2.962  54.455  1.00  0.00     0.034 C 
BRANCH   5   6
ATOM      6  C   UNL     1       8.648   2.105  54.535  1.00  0.00    -0.077 C 
ATOM      7  C   UNL     1       8.503   0.627  54.265  1.00  0.00     0.039 C 
ATOM      8  C   UNL     1       9.884   2.554  54.887  1.00  0.00    -0.023 CG0
ATOM      9  G   UNL     1      10.388   3.977  55.078  1.00  0.00     0.000 G0
ENDBRANCH   5   6
ENDBRANCH   4   5
ENDBRANCH   2   4
BRANCH   1  10
ATOM     10  C   UNL     1       9.724   4.589  51.661  1.00  0.00     0.111 C 
BRANCH  10  11
ATOM     11  C   UNL     1      10.873   4.110  52.518  1.00  0.00     0.163 C 
ATOM     12  O   UNL     1      11.638   3.252  52.001  1.00  0.00    -0.294 OA
BRANCH  11  13
ATOM     13  C   UNL     1      11.141   4.609  53.916  1.00  0.00    -0.002 C 
ATOM     14  C   UNL     1      12.018   5.634  54.166  1.00  0.00    -0.069 C 
ATOM     15  C   UNL     1      12.892   6.230  53.086  1.00  0.00     0.039 C 
ATOM     16  C   UNL     1      12.185   6.204  55.560  1.00  0.00     0.039 C 
BRANCH  13  17
ATOM     17  C   UNL     1      10.362   3.986  55.063  1.00  0.00     0.066 CG0
ATOM     18  G   UNL     1       9.911   2.544  54.883  1.00  0.00     0.000 G0
ENDBRANCH  13  17
ENDBRANCH  11  13
ENDBRANCH  10  11
ENDBRANCH   1  10
TORSDOF 0
ENDMDL
MODEL 8
REMARK VINA RESULT:    -3.423      9.632     11.418
REMARK INTER + INTRA:          -5.080
REMARK INTER:                  -4.922
REMARK INTRA:                  -0.158
REMARK UNBOUND:                -0.256
REMARK SMILES CC1=CCC(=C(C)C)C(=O)CC(C)=CCC1
REMARK SMILES IDX 12 1 14 2 13 3 15 4 16 5 2 6 1 7 3 8 11 10 9 11 10 12 5 13
REMARK SMILES IDX 6 14 7 15 8 16 4 17
REMARK H PARENT
REMARK Flexibility Score: 60.00
ROOT
ATOM      1  C   UNL     1       7.358   4.182  53.075  1.00  0.00    -0.070 C 
ATOM      2  C   UNL     1       7.769   3.189  53.896  1.00  0.00    -0.027 C 
ATOM      3  C   UNL     1       5.891   4.540  53.109  1.00  0.00     0.039 C 
ENDROOT
BRANCH   2   4
ATOM      4  C   UNL     1       9.184   2.693  54.063  1.00  0.00     0.032 C 
BRANCH   4   5
ATOM      5  C   UNL     1      10.124   3.638  54.848  1.00  0.00     0.034 C 
BRANCH   5   6
ATOM      6  C   UNL     1      11.428   3.997  54.149  1.00  0.00    -0.077 C 
ATOM      7  C   UNL     1      12.407   2.880  53.879  1.00  0.00     0.039 C 
ATOM      8  C   UNL     1      11.811   5.256  53.799  1.00  0.00    -0.023 CG0
ATOM      9  G   UNL     1      11.016   6.554  53.801  1.00  0.00     0.000 G0
ENDBRANCH   5   6
ENDBRANCH   4   5
ENDBRANCH   2   4
BRANCH   1  10
ATOM     10  C   UNL     1       8.267   4.994  52.159  1.00  0.00     0.111 C 
BRANCH  10  11
ATOM     11  C   UNL     1       8.706   6.347  52.670  1.00  0.00     0.163 C 
ATOM     12  O   UNL     1       7.808   7.074  53.175  1.00  0.00    -0.294 OA
BRANCH  11  13
ATOM     13  C   UNL     1      10.129   6.843  52.615  1.00  0.00    -0.002 C 
ATOM     14  C   UNL     1      10.604   7.575  51.556  1.00  0.00    -0.069 C 
ATOM     15  C   UNL     1       9.790   7.802  50.303  1.00  0.00     0.039 C 
ATOM     16  C   UNL     1      11.997   8.169  51.571  1.00  0.00     0.039 C 
BRANCH  13  17
ATOM     17  C   UNL     1      11.033   6.567  53.806  1.00  0.00     0.066 CG0
ATOM     18  G   UNL     1      11.800   5.253  53.795  1.00  0.00     0.000 G0
ENDBRANCH  13  17
ENDBRANCH  11  13
ENDBRANCH  10  11
ENDBRANCH   1  10
TORSDOF 0
ENDMDL
MODEL 9
REMARK VINA RESULT:    -3.303      8.995     10.898
REMARK INTER + INTRA:          -4.910
REMARK INTER:                  -4.971
REMARK INTRA:                   0.061
REMARK UNBOUND:                -0.256
REMARK SMILES CC1=CCC(=C(C)C)C(=O)CC(C)=CCC1
REMARK SMILES IDX 12 1 14 2 13 3 15 4 16 5 2 6 1 7 3 8 11 10 9 11 10 12 5 13
REMARK SMILES IDX 6 14 7 15 8 16 4 17
REMARK H PARENT
REMARK Flexibility Score: 60.00
ROOT
ATOM      1  C   UNL     1       8.559   2.110  54.568  1.00  0.00    -0.070 C 
ATOM      2  C   UNL     1       7.515   2.569  53.840  1.00  0.00    -0.027 C 
ATOM      3  C   UNL     1       8.762   0.615  54.614  1.00  0.00     0.039 C 
ENDROOT
BRANCH   2   4
ATOM      4  C   UNL     1       7.146   4.014  53.615  1.00  0.00     0.032 C 
BRANCH   4   5
ATOM      5  C   UNL     1       7.915   4.720  52.474  1.00  0.00     0.034 C 
BRANCH   5   6
ATOM      6  C   UNL     1       8.782   5.897  52.896  1.00  0.00    -0.077 C 
ATOM      7  C   UNL     1       8.089   7.206  53.191  1.00  0.00     0.039 C 
ATOM      8  C   UNL     1      10.142   5.884  52.974  1.00  0.00    -0.023 CG0
ATOM      9  G   UNL     1      11.113   4.716  52.883  1.00  0.00     0.000 G0
ENDBRANCH   5   6
ENDBRANCH   4   5
ENDBRANCH   2   4
BRANCH   1  10
ATOM     10  C   UNL     1       9.569   2.988  55.299  1.00  0.00     0.111 C 
BRANCH  10  11
ATOM     11  C   UNL     1      10.988   2.964  54.780  1.00  0.00     0.163 C 
ATOM     12  O   UNL     1      11.599   1.864  54.872  1.00  0.00    -0.294 OA
BRANCH  11  13
ATOM     13  C   UNL     1      11.678   4.155  54.165  1.00  0.00    -0.002 C 
ATOM     14  C   UNL     1      12.811   4.701  54.711  1.00  0.00    -0.069 C 
ATOM     15  C   UNL     1      13.361   4.253  56.046  1.00  0.00     0.039 C 
ATOM     16  C   UNL     1      13.561   5.819  54.015  1.00  0.00     0.039 C 
BRANCH  13  17
ATOM     17  C   UNL     1      11.120   4.717  52.867  1.00  0.00     0.066 CG0
ATOM     18  G   UNL     1      10.142   5.876  52.985  1.00  0.00     0.000 G0
ENDBRANCH  13  17
ENDBRANCH  11  13
ENDBRANCH  10  11
ENDBRANCH   1  10
TORSDOF 0
ENDMDL
