MODEL 1
REMARK VINA RESULT:    -4.250      0.000      0.000
REMARK INTER + INTRA:          -4.489
REMARK INTER:                  -5.244
REMARK INTRA:                   0.755
REMARK UNBOUND:                 0.755
REMARK SMILES CC1=CC=CC(C)(C)CC1=O
REMARK SMILES IDX 1 1 2 2 3 3 10 4 11 5 9 6 4 8 5 9 6 10 7 11 8 12
REMARK H PARENT
REMARK Flexibility Score: 80.00
ROOT
ATOM      1  C   UNL     1      19.797 200.126  15.624  1.00  0.00     0.048 C 
ATOM      2  C   UNL     1      19.824 201.601  15.302  1.00  0.00    -0.008 C 
ATOM      3  C   UNL     1      19.092 202.026  14.249  1.00  0.00     0.007 C 
ENDROOT
BRANCH   2   4
ATOM      4  C   UNL     1      20.593 202.479  16.219  1.00  0.00     0.159 C 
ATOM      5  O   UNL     1      21.013 202.001  17.308  1.00  0.00    -0.295 OA
BRANCH   4   6
ATOM      6  C   UNL     1      20.915 203.911  15.916  1.00  0.00     0.091 CG0
ATOM      7  G   UNL     1      19.660 204.785  15.697  1.00  0.00     0.000 G0
ENDBRANCH   4   6
ENDBRANCH   2   4
BRANCH   3   8
ATOM      8  C   UNL     1      18.902 203.394  13.713  1.00  0.00    -0.003 C 
ATOM      9  C   UNL     1      19.122 204.572  14.309  1.00  0.00    -0.020 C 
BRANCH   9  10
ATOM     10  C   UNL     1      19.662 204.786  15.702  1.00  0.00    -0.010 CG0
ATOM     11  C   UNL     1      20.095 206.264  15.834  1.00  0.00     0.016 C 
ATOM     12  C   UNL     1      18.552 204.520  16.745  1.00  0.00     0.016 C 
ATOM     13  G   UNL     1      20.909 203.900  15.920  1.00  0.00     0.000 G0
ENDBRANCH   9  10
ENDBRANCH   3   8
TORSDOF 0
ENDMDL
MODEL 2
REMARK VINA RESULT:    -3.858      1.722      2.550
REMARK INTER + INTRA:          -4.005
REMARK INTER:                  -4.769
REMARK INTRA:                   0.764
REMARK UNBOUND:                 0.755
REMARK SMILES CC1=CC=CC(C)(C)CC1=O
REMARK SMILES IDX 1 1 2 2 3 3 10 4 11 5 9 6 4 8 5 9 6 10 7 11 8 12
REMARK H PARENT
REMARK Flexibility Score: 80.00
ROOT
ATOM      1  C   UNL     1      19.751 200.931  16.040  1.00  0.00     0.048 C 
ATOM      2  C   UNL     1      19.480 202.380  15.717  1.00  0.00    -0.008 C 
ATOM      3  C   UNL     1      19.332 203.236  16.752  1.00  0.00     0.007 C 
ENDROOT
BRANCH   2   4
ATOM      4  C   UNL     1      19.473 202.764  14.283  1.00  0.00     0.159 C 
ATOM      5  O   UNL     1      19.850 201.918  13.426  1.00  0.00    -0.295 OA
BRANCH   4   6
ATOM      6  C   UNL     1      19.026 204.105  13.787  1.00  0.00     0.091 CG0
ATOM      7  G   UNL     1      19.828 205.277  14.397  1.00  0.00     0.000 G0
ENDBRANCH   4   6
ENDBRANCH   2   4
BRANCH   3   8
ATOM      8  C   UNL     1      19.088 204.697  16.750  1.00  0.00    -0.003 C 
ATOM      9  C   UNL     1      19.301 205.588  15.774  1.00  0.00    -0.020 C 
BRANCH   9  10
ATOM     10  C   UNL     1      19.829 205.294  14.391  1.00  0.00    -0.010 CG0
ATOM     11  C   UNL     1      19.595 206.539  13.506  1.00  0.00     0.016 C 
ATOM     12  C   UNL     1      21.352 205.032  14.452  1.00  0.00     0.016 C 
ATOM     13  G   UNL     1      19.047 204.113  13.774  1.00  0.00     0.000 G0
ENDBRANCH   9  10
ENDBRANCH   3   8
TORSDOF 0
ENDMDL
MODEL 3
REMARK VINA RESULT:    -3.672      1.619      3.669
REMARK INTER + INTRA:          -3.776
REMARK INTER:                  -4.522
REMARK INTRA:                   0.747
REMARK UNBOUND:                 0.755
REMARK SMILES CC1=CC=CC(C)(C)CC1=O
REMARK SMILES IDX 1 1 2 2 3 3 10 4 11 5 9 6 4 8 5 9 6 10 7 11 8 12
REMARK H PARENT
REMARK Flexibility Score: 80.00
ROOT
ATOM      1  C   UNL     1      20.578 207.178  14.807  1.00  0.00     0.048 C 
ATOM      2  C   UNL     1      20.267 205.819  15.386  1.00  0.00    -0.008 C 
ATOM      3  C   UNL     1      19.078 205.660  16.007  1.00  0.00     0.007 C 
ENDROOT
BRANCH   2   4
ATOM      4  C   UNL     1      21.264 204.743  15.159  1.00  0.00     0.159 C 
ATOM      5  O   UNL     1      22.200 204.946  14.338  1.00  0.00    -0.295 OA
BRANCH   4   6
ATOM      6  C   UNL     1      21.231 203.422  15.865  1.00  0.00     0.091 CG0
ATOM      7  G   UNL     1      19.932 202.626  15.607  1.00  0.00     0.000 G0
ENDBRANCH   4   6
ENDBRANCH   2   4
BRANCH   3   8
ATOM      8  C   UNL     1      18.490 204.457  16.641  1.00  0.00    -0.003 C 
ATOM      9  C   UNL     1      18.821 203.170  16.481  1.00  0.00    -0.020 C 
BRANCH   9  10
ATOM     10  C   UNL     1      19.930 202.631  15.609  1.00  0.00    -0.010 CG0
ATOM     11  C   UNL     1      20.198 201.165  16.015  1.00  0.00     0.016 C 
ATOM     12  C   UNL     1      19.490 202.643  14.127  1.00  0.00     0.016 C 
ATOM     13  G   UNL     1      21.224 203.441  15.852  1.00  0.00     0.000 G0
ENDBRANCH   9  10
ENDBRANCH   3   8
TORSDOF 0
ENDMDL
MODEL 4
REMARK VINA RESULT:    -3.582      1.610      3.624
REMARK INTER + INTRA:          -3.665
REMARK INTER:                  -4.703
REMARK INTRA:                   1.038
REMARK UNBOUND:                 0.755
REMARK SMILES CC1=CC=CC(C)(C)CC1=O
REMARK SMILES IDX 1 1 2 2 3 3 10 4 11 5 9 6 4 8 5 9 6 10 7 11 8 12
REMARK H PARENT
REMARK Flexibility Score: 80.00
ROOT
ATOM      1  C   UNL     1      19.725 206.566  16.142  1.00  0.00     0.048 C 
ATOM      2  C   UNL     1      20.089 205.125  15.877  1.00  0.00    -0.008 C 
ATOM      3  C   UNL     1      21.255 204.881  15.240  1.00  0.00     0.007 C 
ENDROOT
BRANCH   2   4
ATOM      4  C   UNL     1      19.171 204.087  16.409  1.00  0.00     0.159 C 
ATOM      5  O   UNL     1      18.008 204.427  16.761  1.00  0.00    -0.295 OA
BRANCH   4   6
ATOM      6  C   UNL     1      19.544 202.642  16.541  1.00  0.00     0.091 CG0
ATOM      7  G   UNL     1      19.908 201.982  15.191  1.00  0.00     0.000 G0
ENDBRANCH   4   6
ENDBRANCH   2   4
BRANCH   3   8
ATOM      8  C   UNL     1      21.884 203.591  14.870  1.00  0.00    -0.003 C 
ATOM      9  C   UNL     1      21.350 202.364  14.858  1.00  0.00    -0.020 C 
BRANCH   9  10
ATOM     10  C   UNL     1      19.926 202.001  15.203  1.00  0.00    -0.010 CG0
ATOM     11  C   UNL     1      19.000 202.566  14.103  1.00  0.00     0.016 C 
ATOM     12  C   UNL     1      19.762 200.463  15.221  1.00  0.00     0.016 C 
ATOM     13  G   UNL     1      19.532 202.657  16.546  1.00  0.00     0.000 G0
ENDBRANCH   9  10
ENDBRANCH   3   8
TORSDOF 0
ENDMDL
MODEL 5
REMARK VINA RESULT:    -3.571      2.638      3.957
REMARK INTER + INTRA:          -3.651
REMARK INTER:                  -4.402
REMARK INTRA:                   0.751
REMARK UNBOUND:                 0.755
REMARK SMILES CC1=CC=CC(C)(C)CC1=O
REMARK SMILES IDX 1 1 2 2 3 3 10 4 11 5 9 6 4 8 5 9 6 10 7 11 8 12
REMARK H PARENT
REMARK Flexibility Score: 80.00
ROOT
ATOM      1  C   UNL     1      18.657 204.047  16.820  1.00  0.00     0.048 C 
ATOM      2  C   UNL     1      19.166 205.282  16.117  1.00  0.00    -0.008 C 
ATOM      3  C   UNL     1      19.344 206.397  16.859  1.00  0.00     0.007 C 
ENDROOT
BRANCH   2   4
ATOM      4  C   UNL     1      19.504 205.150  14.678  1.00  0.00     0.159 C 
ATOM      5  O   UNL     1      19.527 203.998  14.162  1.00  0.00    -0.295 OA
BRANCH   4   6
ATOM      6  C   UNL     1      19.809 206.317  13.789  1.00  0.00     0.091 CG0
ATOM      7  G   UNL     1      21.010 207.157  14.278  1.00  0.00     0.000 G0
ENDBRANCH   4   6
ENDBRANCH   2   4
BRANCH   3   8
ATOM      8  C   UNL     1      19.847 207.733  16.463  1.00  0.00    -0.003 C 
ATOM      9  C   UNL     1      20.560 208.081  15.385  1.00  0.00    -0.020 C 
BRANCH   9  10
ATOM     10  C   UNL     1      21.007 207.165  14.270  1.00  0.00    -0.010 CG0
ATOM     11  C   UNL     1      21.471 208.037  13.081  1.00  0.00     0.016 C 
ATOM     12  C   UNL     1      22.211 206.314  14.736  1.00  0.00     0.016 C 
ATOM     13  G   UNL     1      19.815 206.302  13.796  1.00  0.00     0.000 G0
ENDBRANCH   9  10
ENDBRANCH   3   8
TORSDOF 0
ENDMDL
MODEL 6
REMARK VINA RESULT:    -3.497      1.638      2.357
REMARK INTER + INTRA:          -3.560
REMARK INTER:                  -4.310
REMARK INTRA:                   0.750
REMARK UNBOUND:                 0.755
REMARK SMILES CC1=CC=CC(C)(C)CC1=O
REMARK SMILES IDX 1 1 2 2 3 3 10 4 11 5 9 6 4 8 5 9 6 10 7 11 8 12
REMARK H PARENT
REMARK Flexibility Score: 80.00
ROOT
ATOM      1  C   UNL     1      19.795 201.576  16.411  1.00  0.00     0.048 C 
ATOM      2  C   UNL     1      20.233 202.954  15.977  1.00  0.00    -0.008 C 
ATOM      3  C   UNL     1      21.367 203.051  15.250  1.00  0.00     0.007 C 
ENDROOT
BRANCH   2   4
ATOM      4  C   UNL     1      19.337 204.087  16.320  1.00  0.00     0.159 C 
ATOM      5  O   UNL     1      18.180 203.837  16.756  1.00  0.00    -0.295 OA
BRANCH   4   6
ATOM      6  C   UNL     1      19.737 205.525  16.191  1.00  0.00     0.091 CG0
ATOM      7  G   UNL     1      20.108 205.927  14.746  1.00  0.00     0.000 G0
ENDBRANCH   4   6
ENDBRANCH   2   4
BRANCH   3   8
ATOM      8  C   UNL     1      22.024 204.244  14.668  1.00  0.00    -0.003 C 
ATOM      9  C   UNL     1      21.515 205.460  14.435  1.00  0.00    -0.020 C 
BRANCH   9  10
ATOM     10  C   UNL     1      20.112 205.920  14.750  1.00  0.00    -0.010 CG0
ATOM     11  C   UNL     1      20.075 207.463  14.664  1.00  0.00     0.016 C 
ATOM     12  C   UNL     1      19.124 205.360  13.700  1.00  0.00     0.016 C 
ATOM     13  G   UNL     1      19.741 205.512  16.194  1.00  0.00     0.000 G0
ENDBRANCH   9  10
ENDBRANCH   3   8
TORSDOF 0
ENDMDL
MODEL 7
REMARK VINA RESULT:    -3.469      2.721      3.486
REMARK INTER + INTRA:          -3.526
REMARK INTER:                  -4.271
REMARK INTRA:                   0.745
REMARK UNBOUND:                 0.755
REMARK SMILES CC1=CC=CC(C)(C)CC1=O
REMARK SMILES IDX 1 1 2 2 3 3 10 4 11 5 9 6 4 8 5 9 6 10 7 11 8 12
REMARK H PARENT
REMARK Flexibility Score: 80.00
ROOT
ATOM      1  C   UNL     1      22.064 203.181  14.591  1.00  0.00     0.048 C 
ATOM      2  C   UNL     1      21.224 204.383  14.949  1.00  0.00    -0.008 C 
ATOM      3  C   UNL     1      20.209 204.200  15.821  1.00  0.00     0.007 C 
ENDROOT
BRANCH   2   4
ATOM      4  C   UNL     1      21.630 205.688  14.372  1.00  0.00     0.159 C 
ATOM      5  O   UNL     1      22.744 205.773  13.784  1.00  0.00    -0.295 OA
BRANCH   4   6
ATOM      6  C   UNL     1      20.780 206.920  14.433  1.00  0.00     0.091 CG0
ATOM      7  G   UNL     1      20.442 207.356  15.877  1.00  0.00     0.000 G0
ENDBRANCH   4   6
ENDBRANCH   2   4
BRANCH   3   8
ATOM      8  C   UNL     1      19.243 205.178  16.375  1.00  0.00    -0.003 C 
ATOM      9  C   UNL     1      19.326 206.513  16.423  1.00  0.00    -0.020 C 
BRANCH   9  10
ATOM     10  C   UNL     1      20.449 207.362  15.877  1.00  0.00    -0.010 CG0
ATOM     11  C   UNL     1      19.962 208.827  15.811  1.00  0.00     0.016 C 
ATOM     12  C   UNL     1      21.665 207.306  16.830  1.00  0.00     0.016 C 
ATOM     13  G   UNL     1      20.796 206.906  14.442  1.00  0.00     0.000 G0
ENDBRANCH   9  10
ENDBRANCH   3   8
TORSDOF 0
ENDMDL
MODEL 8
REMARK VINA RESULT:    -3.337      2.350      4.167
REMARK INTER + INTRA:          -3.362
REMARK INTER:                  -4.126
REMARK INTRA:                   0.764
REMARK UNBOUND:                 0.755
REMARK SMILES CC1=CC=CC(C)(C)CC1=O
REMARK SMILES IDX 1 1 2 2 3 3 10 4 11 5 9 6 4 8 5 9 6 10 7 11 8 12
REMARK H PARENT
REMARK Flexibility Score: 80.00
ROOT
ATOM      1  C   UNL     1      23.239 207.995  14.191  1.00  0.00     0.048 C 
ATOM      2  C   UNL     1      21.958 207.241  14.458  1.00  0.00    -0.008 C 
ATOM      3  C   UNL     1      21.160 206.969  13.403  1.00  0.00     0.007 C 
ENDROOT
BRANCH   2   4
ATOM      4  C   UNL     1      21.717 206.791  15.851  1.00  0.00     0.159 C 
ATOM      5  O   UNL     1      22.660 206.865  16.686  1.00  0.00    -0.295 OA
BRANCH   4   6
ATOM      6  C   UNL     1      20.400 206.264  16.334  1.00  0.00     0.091 CG0
ATOM      7  G   UNL     1      19.934 205.002  15.572  1.00  0.00     0.000 G0
ENDBRANCH   4   6
ENDBRANCH   2   4
BRANCH   3   8
ATOM      8  C   UNL     1      19.874 206.235  13.347  1.00  0.00    -0.003 C 
ATOM      9  C   UNL     1      19.347 205.387  14.238  1.00  0.00    -0.020 C 
BRANCH   9  10
ATOM     10  C   UNL     1      19.949 204.990  15.565  1.00  0.00    -0.010 CG0
ATOM     11  C   UNL     1      18.858 204.287  16.403  1.00  0.00     0.016 C 
ATOM     12  C   UNL     1      21.102 203.985  15.342  1.00  0.00     0.016 C 
ATOM     13  G   UNL     1      20.402 206.255  16.330  1.00  0.00     0.000 G0
ENDBRANCH   9  10
ENDBRANCH   3   8
TORSDOF 0
ENDMDL
