MODEL 1
REMARK VINA RESULT:    -2.912      0.000      0.000
REMARK INTER + INTRA:          -2.912
REMARK INTER:                  -2.912
REMARK INTRA:                   0.000
REMARK UNBOUND:                 0.000
REMARK SMILES c1cc[nH]c1
REMARK SMILES IDX 1 1 5 2 4 3 3 4 2 5
REMARK H PARENT 4 6
REMARK Flexibility Score: inf
ROOT
ATOM      1  C   UNL     1     109.818 111.194 115.972  1.00  0.00     0.019 A 
ATOM      2  C   UNL     1     109.143 110.022 116.251  1.00  0.00     0.082 A 
ATOM      3  N   UNL     1     108.848 109.380 115.106  1.00  0.00    -0.368 N 
ATOM      4  C   UNL     1     109.328 110.127 114.097  1.00  0.00     0.082 A 
ATOM      5  C   UNL     1     109.937 111.260 114.598  1.00  0.00     0.019 A 
ATOM      6  H   UNL     1     108.341 108.471 115.019  1.00  0.00     0.165 HD
ENDROOT
TORSDOF 0
ENDMDL
MODEL 2
REMARK VINA RESULT:    -2.907      3.716      4.405
REMARK INTER + INTRA:          -2.907
REMARK INTER:                  -2.907
REMARK INTRA:                   0.000
REMARK UNBOUND:                 0.000
REMARK SMILES c1cc[nH]c1
REMARK SMILES IDX 1 1 5 2 4 3 3 4 2 5
REMARK H PARENT 4 6
REMARK Flexibility Score: inf
ROOT
ATOM      1  C   UNL     1     112.390 111.003 114.548  1.00  0.00     0.019 A 
ATOM      2  C   UNL     1     112.927 112.186 114.081  1.00  0.00     0.082 A 
ATOM      3  N   UNL     1     113.358 112.933 115.113  1.00  0.00    -0.368 N 
ATOM      4  C   UNL     1     113.103 112.241 116.237  1.00  0.00     0.082 A 
ATOM      5  C   UNL     1     112.503 111.038 115.924  1.00  0.00     0.019 A 
ATOM      6  H   UNL     1     113.806 113.874 115.052  1.00  0.00     0.165 HD
ENDROOT
TORSDOF 0
ENDMDL
MODEL 3
REMARK VINA RESULT:    -2.903      5.875      6.473
REMARK INTER + INTRA:          -2.903
REMARK INTER:                  -2.903
REMARK INTRA:                   0.000
REMARK UNBOUND:                 0.000
REMARK SMILES c1cc[nH]c1
REMARK SMILES IDX 1 1 5 2 4 3 3 4 2 5
REMARK H PARENT 4 6
REMARK Flexibility Score: inf
ROOT
ATOM      1  C   UNL     1     112.613 111.047 110.994  1.00  0.00     0.019 A 
ATOM      2  C   UNL     1     113.156 112.283 111.279  1.00  0.00     0.082 A 
ATOM      3  N   UNL     1     113.344 112.975 110.140  1.00  0.00    -0.368 N 
ATOM      4  C   UNL     1     112.925 112.195 109.129  1.00  0.00     0.082 A 
ATOM      5  C   UNL     1     112.465 110.991 109.622  1.00  0.00     0.019 A 
ATOM      6  H   UNL     1     113.740 113.938 110.059  1.00  0.00     0.165 HD
ENDROOT
TORSDOF 0
ENDMDL
MODEL 4
REMARK VINA RESULT:    -2.819      4.211      5.059
REMARK INTER + INTRA:          -2.819
REMARK INTER:                  -2.819
REMARK INTRA:                   0.000
REMARK UNBOUND:                 0.000
REMARK SMILES c1cc[nH]c1
REMARK SMILES IDX 1 1 5 2 4 3 3 4 2 5
REMARK H PARENT 4 6
REMARK Flexibility Score: inf
ROOT
ATOM      1  C   UNL     1     109.813 111.446 109.949  1.00  0.00     0.019 A 
ATOM      2  C   UNL     1     109.208 110.399 109.283  1.00  0.00     0.082 A 
ATOM      3  N   UNL     1     108.858 109.439 110.158  1.00  0.00    -0.368 N 
ATOM      4  C   UNL     1     109.231 109.861 111.379  1.00  0.00     0.082 A 
ATOM      5  C   UNL     1     109.826 111.103 111.287  1.00  0.00     0.019 A 
ATOM      6  H   UNL     1     108.385 108.536 109.931  1.00  0.00     0.165 HD
ENDROOT
TORSDOF 0
ENDMDL
MODEL 5
REMARK VINA RESULT:    -2.810      9.928     10.609
REMARK INTER + INTRA:          -2.810
REMARK INTER:                  -2.810
REMARK INTRA:                   0.000
REMARK UNBOUND:                 0.000
REMARK SMILES c1cc[nH]c1
REMARK SMILES IDX 1 1 5 2 4 3 3 4 2 5
REMARK H PARENT 4 6
REMARK Flexibility Score: inf
ROOT
ATOM      1  C   UNL     1     112.282 111.258 106.197  1.00  0.00     0.019 A 
ATOM      2  C   UNL     1     112.995 112.420 106.418  1.00  0.00     0.082 A 
ATOM      3  N   UNL     1     113.321 112.988 105.244  1.00  0.00    -0.368 N 
ATOM      4  C   UNL     1     112.823 112.204 104.272  1.00  0.00     0.082 A 
ATOM      5  C   UNL     1     112.172 111.121 104.827  1.00  0.00     0.019 A 
ATOM      6  H   UNL     1     113.859 113.874 105.112  1.00  0.00     0.165 HD
ENDROOT
TORSDOF 0
ENDMDL
MODEL 6
REMARK VINA RESULT:    -2.768      7.652      8.500
REMARK INTER + INTRA:          -2.768
REMARK INTER:                  -2.768
REMARK INTRA:                   0.000
REMARK UNBOUND:                 0.000
REMARK SMILES c1cc[nH]c1
REMARK SMILES IDX 1 1 5 2 4 3 3 4 2 5
REMARK H PARENT 4 6
REMARK Flexibility Score: inf
ROOT
ATOM      1  C   UNL     1     112.650 110.649 106.772  1.00  0.00     0.019 A 
ATOM      2  C   UNL     1     112.853 111.946 107.202  1.00  0.00     0.082 A 
ATOM      3  N   UNL     1     113.234 111.947 108.492  1.00  0.00    -0.368 N 
ATOM      4  C   UNL     1     113.277 110.665 108.894  1.00  0.00     0.082 A 
ATOM      5  C   UNL     1     112.921 109.832 107.852  1.00  0.00     0.019 A 
ATOM      6  H   UNL     1     113.454 112.787 109.072  1.00  0.00     0.165 HD
ENDROOT
TORSDOF 0
ENDMDL
MODEL 7
REMARK VINA RESULT:    -2.766      4.431      4.946
REMARK INTER + INTRA:          -2.766
REMARK INTER:                  -2.766
REMARK INTRA:                   0.000
REMARK UNBOUND:                 0.000
REMARK SMILES c1cc[nH]c1
REMARK SMILES IDX 1 1 5 2 4 3 3 4 2 5
REMARK H PARENT 4 6
REMARK Flexibility Score: inf
ROOT
ATOM      1  C   UNL     1     112.665 110.471 111.665  1.00  0.00     0.019 A 
ATOM      2  C   UNL     1     112.893 111.783 112.028  1.00  0.00     0.082 A 
ATOM      3  N   UNL     1     113.295 111.841 113.310  1.00  0.00    -0.368 N 
ATOM      4  C   UNL     1     113.327 110.579 113.773  1.00  0.00     0.082 A 
ATOM      5  C   UNL     1     112.943 109.702 112.779  1.00  0.00     0.019 A 
ATOM      6  H   UNL     1     113.537 112.705 113.845  1.00  0.00     0.165 HD
ENDROOT
TORSDOF 0
ENDMDL
MODEL 8
REMARK VINA RESULT:    -2.755      2.166      2.777
REMARK INTER + INTRA:          -2.755
REMARK INTER:                  -2.755
REMARK INTRA:                   0.000
REMARK UNBOUND:                 0.000
REMARK SMILES c1cc[nH]c1
REMARK SMILES IDX 1 1 5 2 4 3 3 4 2 5
REMARK H PARENT 4 6
REMARK Flexibility Score: inf
ROOT
ATOM      1  C   UNL     1     109.478 112.384 112.694  1.00  0.00     0.019 A 
ATOM      2  C   UNL     1     109.080 111.570 113.736  1.00  0.00     0.082 A 
ATOM      3  N   UNL     1     109.007 110.293 113.319  1.00  0.00    -0.368 N 
ATOM      4  C   UNL     1     109.355 110.280 112.020  1.00  0.00     0.082 A 
ATOM      5  C   UNL     1     109.654 111.560 111.599  1.00  0.00     0.019 A 
ATOM      6  H   UNL     1     108.732 109.468 113.896  1.00  0.00     0.165 HD
ENDROOT
TORSDOF 0
ENDMDL
MODEL 9
REMARK VINA RESULT:    -2.727      4.217      4.640
REMARK INTER + INTRA:          -2.727
REMARK INTER:                  -2.727
REMARK INTRA:                   0.000
REMARK UNBOUND:                 0.000
REMARK SMILES c1cc[nH]c1
REMARK SMILES IDX 1 1 5 2 4 3 3 4 2 5
REMARK H PARENT 4 6
REMARK Flexibility Score: inf
ROOT
ATOM      1  C   UNL     1     112.910 109.593 117.701  1.00  0.00     0.019 A 
ATOM      2  C   UNL     1     113.320 110.503 118.656  1.00  0.00     0.082 A 
ATOM      3  N   UNL     1     113.293 111.747 118.145  1.00  0.00    -0.368 N 
ATOM      4  C   UNL     1     112.868 111.645 116.874  1.00  0.00     0.082 A 
ATOM      5  C   UNL     1     112.621 110.323 116.565  1.00  0.00     0.019 A 
ATOM      6  H   UNL     1     113.553 112.627 118.644  1.00  0.00     0.165 HD
ENDROOT
TORSDOF 0
ENDMDL
