MODEL 1
REMARK VINA RESULT:    -5.584      0.000      0.000
REMARK INTER + INTRA:          -5.584
REMARK INTER:                  -5.584
REMARK INTRA:                   0.000
REMARK UNBOUND:                 0.000
REMARK SMILES C=C1CCC[C@@]2(C)CC(=O)C(=C(C)C)C[C@H]12
REMARK SMILES IDX 13 1 12 2 11 3 15 4 16 5 2 6 1 7 3 8 4 9 5 10 6 11 8 12 9 13
REMARK SMILES IDX 10 14 7 15 14 16
REMARK H PARENT
REMARK Flexibility Score: inf
ROOT
ATOM      1  C   UNL     1     -10.402   5.626 -13.501  1.00  0.00     0.039 C 
ATOM      2  C   UNL     1     -10.237   4.155 -13.187  1.00  0.00    -0.070 C 
ATOM      3  C   UNL     1     -11.306   3.306 -13.139  1.00  0.00    -0.006 C 
ATOM      4  C   UNL     1     -11.130   1.842 -12.761  1.00  0.00     0.047 C 
ATOM      5  C   UNL     1     -12.375   1.252 -12.051  1.00  0.00     0.025 C 
ATOM      6  C   UNL     1     -12.274  -0.229 -11.684  1.00  0.00    -0.073 C 
ATOM      7  C   UNL     1     -11.202  -1.000 -11.952  1.00  0.00     0.008 C 
ATOM      8  C   UNL     1     -13.449  -0.814 -10.938  1.00  0.00     0.031 C 
ATOM      9  C   UNL     1     -14.752  -0.539 -11.695  1.00  0.00     0.005 C 
ATOM     10  C   UNL     1     -14.903   0.954 -12.039  1.00  0.00     0.008 C 
ATOM     11  C   UNL     1     -13.694   1.521 -12.843  1.00  0.00    -0.018 C 
ATOM     12  C   UNL     1     -13.884   3.051 -12.982  1.00  0.00     0.088 C 
ATOM     13  C   UNL     1     -12.674   3.721 -13.567  1.00  0.00     0.159 C 
ATOM     14  O   UNL     1     -12.843   4.624 -14.429  1.00  0.00    -0.295 OA
ATOM     15  C   UNL     1     -13.661   0.877 -14.257  1.00  0.00     0.012 C 
ATOM     16  C   UNL     1      -8.836   3.673 -12.891  1.00  0.00     0.039 C 
ENDROOT
TORSDOF 0
ENDMDL
MODEL 2
REMARK VINA RESULT:    -5.367     16.169     17.653
REMARK INTER + INTRA:          -5.367
REMARK INTER:                  -5.367
REMARK INTRA:                   0.000
REMARK UNBOUND:                 0.000
REMARK SMILES C=C1CCC[C@@]2(C)CC(=O)C(=C(C)C)C[C@H]12
REMARK SMILES IDX 13 1 12 2 11 3 15 4 16 5 2 6 1 7 3 8 4 9 5 10 6 11 8 12 9 13
REMARK SMILES IDX 10 14 7 15 14 16
REMARK H PARENT
REMARK Flexibility Score: inf
ROOT
ATOM      1  C   UNL     1      -6.116   8.631 -26.421  1.00  0.00     0.039 C 
ATOM      2  C   UNL     1      -4.927   8.800 -25.502  1.00  0.00    -0.070 C 
ATOM      3  C   UNL     1      -4.637   9.998 -24.913  1.00  0.00    -0.006 C 
ATOM      4  C   UNL     1      -3.402  10.167 -24.040  1.00  0.00     0.047 C 
ATOM      5  C   UNL     1      -2.830  11.607 -24.081  1.00  0.00     0.025 C 
ATOM      6  C   UNL     1      -1.611  11.848 -23.191  1.00  0.00    -0.073 C 
ATOM      7  C   UNL     1      -1.053  10.907 -22.405  1.00  0.00     0.008 C 
ATOM      8  C   UNL     1      -0.998  13.227 -23.257  1.00  0.00     0.031 C 
ATOM      9  C   UNL     1      -2.065  14.297 -23.006  1.00  0.00     0.005 C 
ATOM     10  C   UNL     1      -3.286  14.106 -23.921  1.00  0.00     0.008 C 
ATOM     11  C   UNL     1      -3.923  12.687 -23.802  1.00  0.00    -0.018 C 
ATOM     12  C   UNL     1      -5.027  12.563 -24.881  1.00  0.00     0.088 C 
ATOM     13  C   UNL     1      -5.564  11.165 -24.983  1.00  0.00     0.159 C 
ATOM     14  O   UNL     1      -6.807  11.005 -25.114  1.00  0.00    -0.295 OA
ATOM     15  C   UNL     1      -4.558  12.518 -22.395  1.00  0.00     0.012 C 
ATOM     16  C   UNL     1      -4.046   7.589 -25.295  1.00  0.00     0.039 C 
ENDROOT
TORSDOF 0
ENDMDL
MODEL 3
REMARK VINA RESULT:    -5.361      6.952     10.492
REMARK INTER + INTRA:          -5.361
REMARK INTER:                  -5.361
REMARK INTRA:                   0.000
REMARK UNBOUND:                 0.000
REMARK SMILES C=C1CCC[C@@]2(C)CC(=O)C(=C(C)C)C[C@H]12
REMARK SMILES IDX 13 1 12 2 11 3 15 4 16 5 2 6 1 7 3 8 4 9 5 10 6 11 8 12 9 13
REMARK SMILES IDX 10 14 7 15 14 16
REMARK H PARENT
REMARK Flexibility Score: inf
ROOT
ATOM      1  C   UNL     1     -13.759   6.590 -14.738  1.00  0.00     0.039 C 
ATOM      2  C   UNL     1     -13.559   7.248 -16.085  1.00  0.00    -0.070 C 
ATOM      3  C   UNL     1     -13.389   8.597 -16.209  1.00  0.00    -0.006 C 
ATOM      4  C   UNL     1     -13.250   9.251 -17.577  1.00  0.00     0.047 C 
ATOM      5  C   UNL     1     -13.800  10.700 -17.608  1.00  0.00     0.025 C 
ATOM      6  C   UNL     1     -13.650  11.423 -18.947  1.00  0.00    -0.073 C 
ATOM      7  C   UNL     1     -13.079  10.878 -20.039  1.00  0.00     0.008 C 
ATOM      8  C   UNL     1     -14.231  12.815 -19.022  1.00  0.00     0.031 C 
ATOM      9  C   UNL     1     -13.687  13.682 -17.882  1.00  0.00     0.005 C 
ATOM     10  C   UNL     1     -13.865  12.997 -16.516  1.00  0.00     0.008 C 
ATOM     11  C   UNL     1     -13.221  11.579 -16.454  1.00  0.00    -0.018 C 
ATOM     12  C   UNL     1     -13.607  10.934 -15.100  1.00  0.00     0.088 C 
ATOM     13  C   UNL     1     -13.205   9.489 -15.027  1.00  0.00     0.159 C 
ATOM     14  O   UNL     1     -12.701   9.058 -13.955  1.00  0.00    -0.295 OA
ATOM     15  C   UNL     1     -11.675  11.704 -16.541  1.00  0.00     0.012 C 
ATOM     16  C   UNL     1     -13.595   6.346 -17.298  1.00  0.00     0.039 C 
ENDROOT
TORSDOF 0
ENDMDL
MODEL 4
REMARK VINA RESULT:    -5.343     11.279     13.311
REMARK INTER + INTRA:          -5.343
REMARK INTER:                  -5.343
REMARK INTRA:                   0.000
REMARK UNBOUND:                 0.000
REMARK SMILES C=C1CCC[C@@]2(C)CC(=O)C(=C(C)C)C[C@H]12
REMARK SMILES IDX 13 1 12 2 11 3 15 4 16 5 2 6 1 7 3 8 4 9 5 10 6 11 8 12 9 13
REMARK SMILES IDX 10 14 7 15 14 16
REMARK H PARENT
REMARK Flexibility Score: inf
ROOT
ATOM      1  C   UNL     1      -1.984  12.831 -10.501  1.00  0.00     0.039 C 
ATOM      2  C   UNL     1      -1.565  12.269 -11.841  1.00  0.00    -0.070 C 
ATOM      3  C   UNL     1      -1.825  10.975 -12.191  1.00  0.00    -0.006 C 
ATOM      4  C   UNL     1      -1.343  10.408 -13.519  1.00  0.00     0.047 C 
ATOM      5  C   UNL     1      -1.047   8.888 -13.450  1.00  0.00     0.025 C 
ATOM      6  C   UNL     1      -0.597   8.253 -14.766  1.00  0.00    -0.073 C 
ATOM      7  C   UNL     1      -0.467   8.929 -15.924  1.00  0.00     0.008 C 
ATOM      8  C   UNL     1      -0.245   6.785 -14.713  1.00  0.00     0.031 C 
ATOM      9  C   UNL     1      -1.395   5.983 -14.097  1.00  0.00     0.005 C 
ATOM     10  C   UNL     1      -1.839   6.574 -12.748  1.00  0.00     0.008 C 
ATOM     11  C   UNL     1      -2.235   8.079 -12.840  1.00  0.00    -0.018 C 
ATOM     12  C   UNL     1      -2.499   8.596 -11.405  1.00  0.00     0.088 C 
ATOM     13  C   UNL     1      -2.692  10.085 -11.366  1.00  0.00     0.159 C 
ATOM     14  O   UNL     1      -3.604  10.555 -10.635  1.00  0.00    -0.295 OA
ATOM     15  C   UNL     1      -3.530   8.226 -13.686  1.00  0.00     0.012 C 
ATOM     16  C   UNL     1      -0.809  13.197 -12.764  1.00  0.00     0.039 C 
ENDROOT
TORSDOF 0
ENDMDL
MODEL 5
REMARK VINA RESULT:    -5.341     13.515     16.880
REMARK INTER + INTRA:          -5.341
REMARK INTER:                  -5.341
REMARK INTRA:                   0.000
REMARK UNBOUND:                 0.000
REMARK SMILES C=C1CCC[C@@]2(C)CC(=O)C(=C(C)C)C[C@H]12
REMARK SMILES IDX 13 1 12 2 11 3 15 4 16 5 2 6 1 7 3 8 4 9 5 10 6 11 8 12 9 13
REMARK SMILES IDX 10 14 7 15 14 16
REMARK H PARENT
REMARK Flexibility Score: inf
ROOT
ATOM      1  C   UNL     1     -10.369  11.266 -21.897  1.00  0.00     0.039 C 
ATOM      2  C   UNL     1     -11.016  12.304 -22.787  1.00  0.00    -0.070 C 
ATOM      3  C   UNL     1     -11.221  13.587 -22.366  1.00  0.00    -0.006 C 
ATOM      4  C   UNL     1     -11.929  14.602 -23.252  1.00  0.00     0.047 C 
ATOM      5  C   UNL     1     -12.711  15.665 -22.439  1.00  0.00     0.025 C 
ATOM      6  C   UNL     1     -13.411  16.737 -23.275  1.00  0.00    -0.073 C 
ATOM      7  C   UNL     1     -13.364  16.794 -24.620  1.00  0.00     0.008 C 
ATOM      8  C   UNL     1     -14.229  17.751 -22.511  1.00  0.00     0.031 C 
ATOM      9  C   UNL     1     -13.385  18.397 -21.409  1.00  0.00     0.005 C 
ATOM     10  C   UNL     1     -12.704  17.340 -20.523  1.00  0.00     0.008 C 
ATOM     11  C   UNL     1     -11.833  16.332 -21.334  1.00  0.00    -0.018 C 
ATOM     12  C   UNL     1     -11.342  15.231 -20.362  1.00  0.00     0.088 C 
ATOM     13  C   UNL     1     -10.662  14.103 -21.082  1.00  0.00     0.159 C 
ATOM     14  O   UNL     1      -9.610  13.617 -20.586  1.00  0.00    -0.295 OA
ATOM     15  C   UNL     1     -10.606  17.071 -21.936  1.00  0.00     0.012 C 
ATOM     16  C   UNL     1     -11.464  11.845 -24.156  1.00  0.00     0.039 C 
ENDROOT
TORSDOF 0
ENDMDL
MODEL 6
REMARK VINA RESULT:    -5.282     11.690     14.138
REMARK INTER + INTRA:          -5.282
REMARK INTER:                  -5.282
REMARK INTRA:                   0.000
REMARK UNBOUND:                 0.000
REMARK SMILES C=C1CCC[C@@]2(C)CC(=O)C(=C(C)C)C[C@H]12
REMARK SMILES IDX 13 1 12 2 11 3 15 4 16 5 2 6 1 7 3 8 4 9 5 10 6 11 8 12 9 13
REMARK SMILES IDX 10 14 7 15 14 16
REMARK H PARENT
REMARK Flexibility Score: inf
ROOT
ATOM      1  C   UNL     1     -11.202  15.772 -23.555  1.00  0.00     0.039 C 
ATOM      2  C   UNL     1     -11.721  14.745 -22.575  1.00  0.00    -0.070 C 
ATOM      3  C   UNL     1     -11.429  13.416 -22.703  1.00  0.00    -0.006 C 
ATOM      4  C   UNL     1     -12.009  12.387 -21.743  1.00  0.00     0.047 C 
ATOM      5  C   UNL     1     -12.215  11.000 -22.403  1.00  0.00     0.025 C 
ATOM      6  C   UNL     1     -12.758   9.913 -21.476  1.00  0.00    -0.073 C 
ATOM      7  C   UNL     1     -13.039  10.105 -20.172  1.00  0.00     0.008 C 
ATOM      8  C   UNL     1     -13.025   8.568 -22.108  1.00  0.00     0.031 C 
ATOM      9  C   UNL     1     -11.779   8.069 -22.845  1.00  0.00     0.005 C 
ATOM     10  C   UNL     1     -11.235   9.128 -23.820  1.00  0.00     0.008 C 
ATOM     11  C   UNL     1     -10.931  10.493 -23.133  1.00  0.00    -0.018 C 
ATOM     12  C   UNL     1     -10.554  11.513 -24.235  1.00  0.00     0.088 C 
ATOM     13  C   UNL     1     -10.438  12.911 -23.697  1.00  0.00     0.159 C 
ATOM     14  O   UNL     1      -9.484  13.632 -24.094  1.00  0.00    -0.295 OA
ATOM     15  C   UNL     1      -9.736  10.329 -22.154  1.00  0.00     0.012 C 
ATOM     16  C   UNL     1     -12.614  15.249 -21.464  1.00  0.00     0.039 C 
ENDROOT
TORSDOF 0
ENDMDL
MODEL 7
REMARK VINA RESULT:    -5.269     10.286     12.664
REMARK INTER + INTRA:          -5.269
REMARK INTER:                  -5.269
REMARK INTRA:                   0.000
REMARK UNBOUND:                 0.000
REMARK SMILES C=C1CCC[C@@]2(C)CC(=O)C(=C(C)C)C[C@H]12
REMARK SMILES IDX 13 1 12 2 11 3 15 4 16 5 2 6 1 7 3 8 4 9 5 10 6 11 8 12 9 13
REMARK SMILES IDX 10 14 7 15 14 16
REMARK H PARENT
REMARK Flexibility Score: inf
ROOT
ATOM      1  C   UNL     1      -0.072   6.011 -14.644  1.00  0.00     0.039 C 
ATOM      2  C   UNL     1      -1.391   6.256 -13.947  1.00  0.00    -0.070 C 
ATOM      3  C   UNL     1      -1.774   7.505 -13.550  1.00  0.00    -0.006 C 
ATOM      4  C   UNL     1      -3.078   7.725 -12.795  1.00  0.00     0.047 C 
ATOM      5  C   UNL     1      -3.011   8.930 -11.821  1.00  0.00     0.025 C 
ATOM      6  C   UNL     1      -4.306   9.226 -11.064  1.00  0.00    -0.073 C 
ATOM      7  C   UNL     1      -5.445   8.521 -11.213  1.00  0.00     0.008 C 
ATOM      8  C   UNL     1      -4.251  10.357 -10.065  1.00  0.00     0.031 C 
ATOM      9  C   UNL     1      -3.717  11.629 -10.729  1.00  0.00     0.005 C 
ATOM     10  C   UNL     1      -2.389  11.371 -11.462  1.00  0.00     0.008 C 
ATOM     11  C   UNL     1      -2.485  10.226 -12.516  1.00  0.00    -0.018 C 
ATOM     12  C   UNL     1      -1.062   9.952 -13.060  1.00  0.00     0.088 C 
ATOM     13  C   UNL     1      -1.015   8.731 -13.933  1.00  0.00     0.159 C 
ATOM     14  O   UNL     1      -0.335   8.773 -14.993  1.00  0.00    -0.295 OA
ATOM     15  C   UNL     1      -3.406  10.670 -13.685  1.00  0.00     0.012 C 
ATOM     16  C   UNL     1      -2.254   5.045 -13.674  1.00  0.00     0.039 C 
ENDROOT
TORSDOF 0
ENDMDL
MODEL 8
REMARK VINA RESULT:    -5.229      5.540      8.810
REMARK INTER + INTRA:          -5.229
REMARK INTER:                  -5.229
REMARK INTRA:                   0.000
REMARK UNBOUND:                 0.000
REMARK SMILES C=C1CCC[C@@]2(C)CC(=O)C(=C(C)C)C[C@H]12
REMARK SMILES IDX 13 1 12 2 11 3 15 4 16 5 2 6 1 7 3 8 4 9 5 10 6 11 8 12 9 13
REMARK SMILES IDX 10 14 7 15 14 16
REMARK H PARENT
REMARK Flexibility Score: inf
ROOT
ATOM      1  C   UNL     1      -6.891   5.301 -10.628  1.00  0.00     0.039 C 
ATOM      2  C   UNL     1      -8.053   5.839 -11.433  1.00  0.00    -0.070 C 
ATOM      3  C   UNL     1      -8.316   7.177 -11.512  1.00  0.00    -0.006 C 
ATOM      4  C   UNL     1      -9.525   7.698 -12.276  1.00  0.00     0.047 C 
ATOM      5  C   UNL     1     -10.086   9.016 -11.685  1.00  0.00     0.025 C 
ATOM      6  C   UNL     1     -11.278   9.610 -12.437  1.00  0.00    -0.073 C 
ATOM      7  C   UNL     1     -11.822   9.062 -13.542  1.00  0.00     0.008 C 
ATOM      8  C   UNL     1     -11.881  10.863 -11.849  1.00  0.00     0.031 C 
ATOM      9  C   UNL     1     -10.800  11.926 -11.635  1.00  0.00     0.005 C 
ATOM     10  C   UNL     1      -9.606  11.369 -10.841  1.00  0.00     0.008 C 
ATOM     11  C   UNL     1      -8.978  10.099 -11.493  1.00  0.00    -0.018 C 
ATOM     12  C   UNL     1      -7.905   9.542 -10.525  1.00  0.00     0.088 C 
ATOM     13  C   UNL     1      -7.382   8.206 -10.968  1.00  0.00     0.159 C 
ATOM     14  O   UNL     1      -6.144   7.985 -10.882  1.00  0.00    -0.295 OA
ATOM     15  C   UNL     1      -8.304  10.484 -12.839  1.00  0.00     0.012 C 
ATOM     16  C   UNL     1      -8.937   4.823 -12.120  1.00  0.00     0.039 C 
ENDROOT
TORSDOF 0
ENDMDL
MODEL 9
REMARK VINA RESULT:    -5.187      7.440      9.729
REMARK INTER + INTRA:          -5.187
REMARK INTER:                  -5.187
REMARK INTRA:                   0.000
REMARK UNBOUND:                 0.000
REMARK SMILES C=C1CCC[C@@]2(C)CC(=O)C(=C(C)C)C[C@H]12
REMARK SMILES IDX 13 1 12 2 11 3 15 4 16 5 2 6 1 7 3 8 4 9 5 10 6 11 8 12 9 13
REMARK SMILES IDX 10 14 7 15 14 16
REMARK H PARENT
REMARK Flexibility Score: inf
ROOT
ATOM      1  C   UNL     1      -1.748  10.430 -11.624  1.00  0.00     0.039 C 
ATOM      2  C   UNL     1      -2.518   9.145 -11.827  1.00  0.00    -0.070 C 
ATOM      3  C   UNL     1      -3.883   9.107 -11.772  1.00  0.00    -0.006 C 
ATOM      4  C   UNL     1      -4.640   7.794 -11.917  1.00  0.00     0.047 C 
ATOM      5  C   UNL     1      -5.976   7.783 -11.131  1.00  0.00     0.025 C 
ATOM      6  C   UNL     1      -6.801   6.504 -11.272  1.00  0.00    -0.073 C 
ATOM      7  C   UNL     1      -6.433   5.447 -12.024  1.00  0.00     0.008 C 
ATOM      8  C   UNL     1      -8.079   6.442 -10.470  1.00  0.00     0.031 C 
ATOM      9  C   UNL     1      -8.946   7.672 -10.753  1.00  0.00     0.005 C 
ATOM     10  C   UNL     1      -8.152   8.978 -10.574  1.00  0.00     0.008 C 
ATOM     11  C   UNL     1      -6.860   9.031 -11.445  1.00  0.00    -0.018 C 
ATOM     12  C   UNL     1      -6.071  10.306 -11.057  1.00  0.00     0.088 C 
ATOM     13  C   UNL     1      -4.711  10.345 -11.694  1.00  0.00     0.159 C 
ATOM     14  O   UNL     1      -4.300  11.438 -12.168  1.00  0.00    -0.295 OA
ATOM     15  C   UNL     1      -7.247   9.104 -12.948  1.00  0.00     0.012 C 
ATOM     16  C   UNL     1      -1.706   7.890 -12.055  1.00  0.00     0.039 C 
ENDROOT
TORSDOF 0
ENDMDL
