MODEL 1
REMARK VINA RESULT:    -3.744      0.000      0.000
REMARK INTER + INTRA:          -4.621
REMARK INTER:                  -4.510
REMARK INTRA:                  -0.111
REMARK UNBOUND:                -0.111
REMARK SMILES CC[C@@H](C)[C@@H]([NH3+])C(=O)[O-]
REMARK SMILES IDX 3 1 4 2 5 3 6 4 7 8 8 9 9 10 2 11 1 12
REMARK H PARENT 6 5 6 6 6 7
REMARK Flexibility Score: inf
ROOT
ATOM      1  C   UNL     1     112.432 119.140 110.111  1.00  0.00     0.050 C 
ATOM      2  C   UNL     1     111.016 119.584 109.707  1.00  0.00     0.014 C 
ENDROOT
BRANCH   1   3
ATOM      3  C   UNL     1     112.682 119.241 111.652  1.00  0.00     0.230 C 
BRANCH   3   4
ATOM      4  N   UNL     1     113.485 118.135 112.199  1.00  0.00    -0.350 N 
ATOM      5  H   UNL     1     114.143 117.772 111.472  1.00  0.00     0.345 HD
ATOM      6  H   UNL     1     112.858 117.340 112.466  1.00  0.00     0.345 HD
ATOM      7  H   UNL     1     114.029 118.424 113.038  1.00  0.00     0.345 HD
ENDBRANCH   3   4
BRANCH   3   8
ATOM      8  C   UNL     1     113.260 120.579 112.042  1.00  0.00     0.099 C 
ATOM      9  O   UNL     1     113.969 121.219 111.220  1.00  0.00    -0.544 OA
ATOM     10  O   UNL     1     113.055 121.099 113.315  1.00  0.00    -0.544 OA
ENDBRANCH   3   8
ENDBRANCH   1   3
BRANCH   1  11
ATOM     11  C   UNL     1     112.844 117.809 109.420  1.00  0.00     0.006 C 
ATOM     12  C   UNL     1     114.030 117.889 108.458  1.00  0.00     0.004 C 
ENDBRANCH   1  11
TORSDOF 4
ENDMDL
MODEL 2
REMARK VINA RESULT:    -3.742      2.876      3.589
REMARK INTER + INTRA:          -4.619
REMARK INTER:                  -4.525
REMARK INTRA:                  -0.094
REMARK UNBOUND:                -0.111
REMARK SMILES CC[C@@H](C)[C@@H]([NH3+])C(=O)[O-]
REMARK SMILES IDX 3 1 4 2 5 3 6 4 7 8 8 9 9 10 2 11 1 12
REMARK H PARENT 6 5 6 6 6 7
REMARK Flexibility Score: inf
ROOT
ATOM      1  C   UNL     1     113.031 117.490 110.250  1.00  0.00     0.050 C 
ATOM      2  C   UNL     1     113.237 116.239 109.380  1.00  0.00     0.014 C 
ENDROOT
BRANCH   1   3
ATOM      3  C   UNL     1     114.162 117.682 111.314  1.00  0.00     0.230 C 
BRANCH   3   4
ATOM      4  N   UNL     1     114.172 119.016 111.939  1.00  0.00    -0.350 N 
ATOM      5  H   UNL     1     113.206 119.416 111.951  1.00  0.00     0.345 HD
ATOM      6  H   UNL     1     114.764 119.667 111.373  1.00  0.00     0.345 HD
ATOM      7  H   UNL     1     114.543 118.989 112.911  1.00  0.00     0.345 HD
ENDBRANCH   3   4
BRANCH   3   8
ATOM      8  C   UNL     1     114.145 116.592 112.356  1.00  0.00     0.099 C 
ATOM      9  O   UNL     1     113.323 116.647 113.309  1.00  0.00    -0.544 OA
ATOM     10  O   UNL     1     115.058 115.544 112.304  1.00  0.00    -0.544 OA
ENDBRANCH   3   8
ENDBRANCH   1   3
BRANCH   1  11
ATOM     11  C   UNL     1     112.650 118.734 109.399  1.00  0.00     0.006 C 
ATOM     12  C   UNL     1     111.330 119.418 109.758  1.00  0.00     0.004 C 
ENDBRANCH   1  11
TORSDOF 4
ENDMDL
MODEL 3
REMARK VINA RESULT:    -3.734     11.191     12.103
REMARK INTER + INTRA:          -4.609
REMARK INTER:                  -4.497
REMARK INTRA:                  -0.112
REMARK UNBOUND:                -0.111
REMARK SMILES CC[C@@H](C)[C@@H]([NH3+])C(=O)[O-]
REMARK SMILES IDX 3 1 4 2 5 3 6 4 7 8 8 9 9 10 2 11 1 12
REMARK H PARENT 6 5 6 6 6 7
REMARK Flexibility Score: inf
ROOT
ATOM      1  C   UNL     1     122.958 126.446 110.089  1.00  0.00     0.050 C 
ATOM      2  C   UNL     1     124.026 127.500 109.750  1.00  0.00     0.014 C 
ENDROOT
BRANCH   1   3
ATOM      3  C   UNL     1     122.892 126.121 111.618  1.00  0.00     0.230 C 
BRANCH   3   4
ATOM      4  N   UNL     1     121.521 125.960 112.133  1.00  0.00    -0.350 N 
ATOM      5  H   UNL     1     121.517 126.034 113.176  1.00  0.00     0.345 HD
ATOM      6  H   UNL     1     121.163 125.006 111.894  1.00  0.00     0.345 HD
ATOM      7  H   UNL     1     120.869 126.669 111.738  1.00  0.00     0.345 HD
ENDBRANCH   3   4
BRANCH   3   8
ATOM      8  C   UNL     1     123.752 124.936 111.978  1.00  0.00     0.099 C 
ATOM      9  O   UNL     1     123.858 123.970 111.176  1.00  0.00    -0.544 OA
ATOM     10  O   UNL     1     124.398 124.874 113.208  1.00  0.00    -0.544 OA
ENDBRANCH   3   8
ENDBRANCH   1   3
BRANCH   1  11
ATOM     11  C   UNL     1     121.608 126.736 109.374  1.00  0.00     0.006 C 
ATOM     12  C   UNL     1     121.125 125.672 108.388  1.00  0.00     0.004 C 
ENDBRANCH   1  11
TORSDOF 4
ENDMDL
MODEL 4
REMARK VINA RESULT:    -3.701     11.177     12.082
REMARK INTER + INTRA:          -4.569
REMARK INTER:                  -4.453
REMARK INTRA:                  -0.117
REMARK UNBOUND:                -0.111
REMARK SMILES CC[C@@H](C)[C@@H]([NH3+])C(=O)[O-]
REMARK SMILES IDX 3 1 4 2 5 3 6 4 7 8 8 9 9 10 2 11 1 12
REMARK H PARENT 6 5 6 6 6 7
REMARK Flexibility Score: inf
ROOT
ATOM      1  C   UNL     1     124.017 113.750 110.073  1.00  0.00     0.050 C 
ATOM      2  C   UNL     1     124.406 112.307 109.711  1.00  0.00     0.014 C 
ENDROOT
BRANCH   1   3
ATOM      3  C   UNL     1     123.836 113.960 111.613  1.00  0.00     0.230 C 
BRANCH   3   4
ATOM      4  N   UNL     1     124.404 115.223 112.113  1.00  0.00    -0.350 N 
ATOM      5  H   UNL     1     123.739 115.681 112.777  1.00  0.00     0.345 HD
ATOM      6  H   UNL     1     124.544 115.888 111.317  1.00  0.00     0.345 HD
ATOM      7  H   UNL     1     125.318 115.080 112.590  1.00  0.00     0.345 HD
ENDBRANCH   3   4
BRANCH   3   8
ATOM      8  C   UNL     1     122.396 113.804 112.037  1.00  0.00     0.099 C 
ATOM      9  O   UNL     1     121.471 114.145 111.253  1.00  0.00    -0.544 OA
ATOM     10  O   UNL     1     122.075 113.328 113.303  1.00  0.00    -0.544 OA
ENDBRANCH   3   8
ENDBRANCH   1   3
BRANCH   1  11
ATOM     11  C   UNL     1     124.889 114.794 109.321  1.00  0.00     0.006 C 
ATOM     12  C   UNL     1     124.137 115.789 108.436  1.00  0.00     0.004 C 
ENDBRANCH   1  11
TORSDOF 4
ENDMDL
MODEL 5
REMARK VINA RESULT:    -3.700      9.963     10.894
REMARK INTER + INTRA:          -4.568
REMARK INTER:                  -4.463
REMARK INTRA:                  -0.105
REMARK UNBOUND:                -0.111
REMARK SMILES CC[C@@H](C)[C@@H]([NH3+])C(=O)[O-]
REMARK SMILES IDX 3 1 4 2 5 3 6 4 7 8 8 9 9 10 2 11 1 12
REMARK H PARENT 6 5 6 6 6 7
REMARK Flexibility Score: inf
ROOT
ATOM      1  C   UNL     1     121.246 126.817 110.303  1.00  0.00     0.050 C 
ATOM      2  C   UNL     1     120.027 127.280 109.488  1.00  0.00     0.014 C 
ENDROOT
BRANCH   1   3
ATOM      3  C   UNL     1     120.890 125.714 111.354  1.00  0.00     0.230 C 
BRANCH   3   4
ATOM      4  N   UNL     1     122.062 125.141 112.038  1.00  0.00    -0.350 N 
ATOM      5  H   UNL     1     121.871 125.043 113.061  1.00  0.00     0.345 HD
ATOM      6  H   UNL     1     122.879 125.788 111.942  1.00  0.00     0.345 HD
ATOM      7  H   UNL     1     122.326 124.213 111.649  1.00  0.00     0.345 HD
ENDBRANCH   3   4
BRANCH   3   8
ATOM      8  C   UNL     1     119.860 126.195 112.346  1.00  0.00     0.099 C 
ATOM      9  O   UNL     1     120.198 126.987 113.266  1.00  0.00    -0.544 OA
ATOM     10  O   UNL     1     118.548 125.740 112.287  1.00  0.00    -0.544 OA
ENDBRANCH   3   8
ENDBRANCH   1   3
BRANCH   1  11
ATOM     11  C   UNL     1     122.482 126.549 109.398  1.00  0.00     0.006 C 
ATOM     12  C   UNL     1     123.744 127.348 109.728  1.00  0.00     0.004 C 
ENDBRANCH   1  11
TORSDOF 4
ENDMDL
MODEL 6
REMARK VINA RESULT:    -3.666      1.819      2.018
REMARK INTER + INTRA:          -4.528
REMARK INTER:                  -4.403
REMARK INTRA:                  -0.125
REMARK UNBOUND:                -0.111
REMARK SMILES CC[C@@H](C)[C@@H]([NH3+])C(=O)[O-]
REMARK SMILES IDX 3 1 4 2 5 3 6 4 7 8 8 9 9 10 2 11 1 12
REMARK H PARENT 6 5 6 6 6 7
REMARK Flexibility Score: inf
ROOT
ATOM      1  C   UNL     1     113.016 119.373 109.548  1.00  0.00     0.050 C 
ATOM      2  C   UNL     1     111.527 119.272 109.918  1.00  0.00     0.014 C 
ENDROOT
BRANCH   1   3
ATOM      3  C   UNL     1     113.864 120.103 110.641  1.00  0.00     0.230 C 
BRANCH   3   4
ATOM      4  N   UNL     1     113.896 121.568 110.489  1.00  0.00    -0.350 N 
ATOM      5  H   UNL     1     114.869 121.925 110.631  1.00  0.00     0.345 HD
ATOM      6  H   UNL     1     113.299 122.013 111.224  1.00  0.00     0.345 HD
ATOM      7  H   UNL     1     113.554 121.872 109.555  1.00  0.00     0.345 HD
ENDBRANCH   3   4
BRANCH   3   8
ATOM      8  C   UNL     1     113.446 119.708 112.035  1.00  0.00     0.099 C 
ATOM      9  O   UNL     1     112.911 120.560 112.794  1.00  0.00    -0.544 OA
ATOM     10  O   UNL     1     113.684 118.424 112.512  1.00  0.00    -0.544 OA
ENDBRANCH   3   8
ENDBRANCH   1   3
BRANCH   1  11
ATOM     11  C   UNL     1     113.575 118.024 109.012  1.00  0.00     0.006 C 
ATOM     12  C   UNL     1     112.927 116.756 109.572  1.00  0.00     0.004 C 
ENDBRANCH   1  11
TORSDOF 4
ENDMDL
MODEL 7
REMARK VINA RESULT:    -3.660     12.200     12.806
REMARK INTER + INTRA:          -4.520
REMARK INTER:                  -4.414
REMARK INTRA:                  -0.106
REMARK UNBOUND:                -0.111
REMARK SMILES CC[C@@H](C)[C@@H]([NH3+])C(=O)[O-]
REMARK SMILES IDX 3 1 4 2 5 3 6 4 7 8 8 9 9 10 2 11 1 12
REMARK H PARENT 6 5 6 6 6 7
REMARK Flexibility Score: inf
ROOT
ATOM      1  C   UNL     1     125.230 115.072 110.285  1.00  0.00     0.050 C 
ATOM      2  C   UNL     1     126.233 115.891 109.455  1.00  0.00     0.014 C 
ENDROOT
BRANCH   1   3
ATOM      3  C   UNL     1     124.492 115.932 111.364  1.00  0.00     0.230 C 
BRANCH   3   4
ATOM      4  N   UNL     1     123.538 115.167 112.185  1.00  0.00    -0.350 N 
ATOM      5  H   UNL     1     123.951 114.964 113.124  1.00  0.00     0.345 HD
ATOM      6  H   UNL     1     123.342 114.244 111.732  1.00  0.00     0.345 HD
ATOM      7  H   UNL     1     122.637 115.672 112.311  1.00  0.00     0.345 HD
ENDBRANCH   3   4
BRANCH   3   8
ATOM      8  C   UNL     1     125.459 116.703 112.227  1.00  0.00     0.099 C 
ATOM      9  O   UNL     1     126.156 116.096 113.084  1.00  0.00    -0.544 OA
ATOM     10  O   UNL     1     125.560 118.086 112.121  1.00  0.00    -0.544 OA
ENDBRANCH   3   8
ENDBRANCH   1   3
BRANCH   1  11
ATOM     11  C   UNL     1     124.345 114.157 109.392  1.00  0.00     0.006 C 
ATOM     12  C   UNL     1     124.351 112.668 109.739  1.00  0.00     0.004 C 
ENDBRANCH   1  11
TORSDOF 4
ENDMDL
MODEL 8
REMARK VINA RESULT:    -3.635     10.068     10.992
REMARK INTER + INTRA:          -4.490
REMARK INTER:                  -4.390
REMARK INTRA:                  -0.101
REMARK UNBOUND:                -0.111
REMARK SMILES CC[C@@H](C)[C@@H]([NH3+])C(=O)[O-]
REMARK SMILES IDX 3 1 4 2 5 3 6 4 7 8 8 9 9 10 2 11 1 12
REMARK H PARENT 6 5 6 6 6 7
REMARK Flexibility Score: inf
ROOT
ATOM      1  C   UNL     1     121.364 126.763 109.504  1.00  0.00     0.050 C 
ATOM      2  C   UNL     1     121.099 125.739 108.388  1.00  0.00     0.014 C 
ENDROOT
BRANCH   1   3
ATOM      3  C   UNL     1     120.140 126.946 110.462  1.00  0.00     0.230 C 
BRANCH   3   4
ATOM      4  N   UNL     1     118.837 126.733 109.810  1.00  0.00    -0.350 N 
ATOM      5  H   UNL     1     118.941 126.776 108.771  1.00  0.00     0.345 HD
ATOM      6  H   UNL     1     118.176 127.497 110.083  1.00  0.00     0.345 HD
ATOM      7  H   UNL     1     118.413 125.819 110.073  1.00  0.00     0.345 HD
ENDBRANCH   3   4
BRANCH   3   8
ATOM      8  C   UNL     1     120.271 126.106 111.708  1.00  0.00     0.099 C 
ATOM      9  O   UNL     1     120.119 124.857 111.641  1.00  0.00    -0.544 OA
ATOM     10  O   UNL     1     120.515 126.697 112.942  1.00  0.00    -0.544 OA
ENDBRANCH   3   8
ENDBRANCH   1   3
BRANCH   1  11
ATOM     11  C   UNL     1     122.752 126.550 110.172  1.00  0.00     0.006 C 
ATOM     12  C   UNL     1     123.885 127.448 109.673  1.00  0.00     0.004 C 
ENDBRANCH   1  11
TORSDOF 4
ENDMDL
MODEL 9
REMARK VINA RESULT:    -3.592     10.471     11.821
REMARK INTER + INTRA:          -4.438
REMARK INTER:                  -4.292
REMARK INTRA:                  -0.146
REMARK UNBOUND:                -0.111
REMARK SMILES CC[C@@H](C)[C@@H]([NH3+])C(=O)[O-]
REMARK SMILES IDX 3 1 4 2 5 3 6 4 7 8 8 9 9 10 2 11 1 12
REMARK H PARENT 6 5 6 6 6 7
REMARK Flexibility Score: inf
ROOT
ATOM      1  C   UNL     1     124.142 114.032 109.553  1.00  0.00     0.050 C 
ATOM      2  C   UNL     1     124.495 112.549 109.757  1.00  0.00     0.014 C 
ENDROOT
BRANCH   1   3
ATOM      3  C   UNL     1     122.622 114.329 109.774  1.00  0.00     0.230 C 
BRANCH   3   4
ATOM      4  N   UNL     1     122.146 114.023 111.133  1.00  0.00    -0.350 N 
ATOM      5  H   UNL     1     121.691 113.082 111.154  1.00  0.00     0.345 HD
ATOM      6  H   UNL     1     121.419 114.719 111.419  1.00  0.00     0.345 HD
ATOM      7  H   UNL     1     122.918 114.045 111.832  1.00  0.00     0.345 HD
ENDBRANCH   3   4
BRANCH   3   8
ATOM      8  C   UNL     1     122.259 115.738 109.373  1.00  0.00     0.099 C 
ATOM      9  O   UNL     1     121.642 116.481 110.182  1.00  0.00    -0.544 OA
ATOM     10  O   UNL     1     122.560 116.216 108.103  1.00  0.00    -0.544 OA
ENDBRANCH   3   8
ENDBRANCH   1   3
BRANCH   1  11
ATOM     11  C   UNL     1     125.151 114.974 110.268  1.00  0.00     0.006 C 
ATOM     12  C   UNL     1     125.991 115.876 109.362  1.00  0.00     0.004 C 
ENDBRANCH   1  11
TORSDOF 4
ENDMDL
