MODEL 1
REMARK VINA RESULT:     0.000      0.000      0.000
REMARK INTER + INTRA:           0.000
REMARK INTER:                   0.000
REMARK INTRA:                   0.000
REMARK UNBOUND:                 0.000
REMARK SMILES O=c1ccc2cc(O)c(O)cc2o1
REMARK SMILES IDX 4 1 3 2 2 3 1 4 13 5 12 6 11 7 9 8 7 9 6 10 5 11 8 12 10 14
REMARK H PARENT 8 13 10 15
REMARK Flexibility Score: inf
ROOT
ATOM      1  C   UNL     1     -15.119  32.760  91.551  1.00  0.00     0.019 A 
ATOM      2  C   UNL     1     -14.235  33.818  91.766  1.00  0.00     0.094 A 
ATOM      3  C   UNL     1     -14.546  34.773  92.740  1.00  0.00     0.336 A 
ATOM      4  O   UNL     1     -13.762  35.735  92.950  1.00  0.00    -0.246 OA
ATOM      5  O   UNL     1     -15.669  34.673  93.448  1.00  0.00    -0.423 OA
ATOM      6  C   UNL     1     -16.538  33.680  93.274  1.00  0.00     0.142 A 
ATOM      7  C   UNL     1     -17.702  33.626  94.048  1.00  0.00     0.098 A 
ATOM      8  C   UNL     1     -18.622  32.586  93.871  1.00  0.00     0.161 A 
ATOM      9  C   UNL     1     -18.376  31.587  92.911  1.00  0.00     0.158 A 
ATOM     10  C   UNL     1     -17.210  31.637  92.131  1.00  0.00     0.062 A 
ATOM     11  C   UNL     1     -16.291  32.680  92.310  1.00  0.00     0.022 A 
ENDROOT
BRANCH   9  12
ATOM     12  O   UNL     1     -19.291  30.550  92.733  1.00  0.00    -0.504 OA
ATOM     13  H   UNL     1     -20.185  30.702  92.281  1.00  0.00     0.293 HD
ENDBRANCH   9  12
BRANCH   8  14
ATOM     14  O   UNL     1     -19.772  32.560  94.658  1.00  0.00    -0.504 OA
ATOM     15  H   UNL     1     -20.440  33.321  94.660  1.00  0.00     0.293 HD
ENDBRANCH   8  14
TORSDOF 2
ENDMDL
MODEL 2
REMARK VINA RESULT:     0.000      1.823      2.367
REMARK INTER + INTRA:           0.000
REMARK INTER:                   0.000
REMARK INTRA:                   0.000
REMARK UNBOUND:                 0.000
REMARK SMILES O=c1ccc2cc(O)c(O)cc2o1
REMARK SMILES IDX 4 1 3 2 2 3 1 4 13 5 12 6 11 7 9 8 7 9 6 10 5 11 8 12 10 14
REMARK H PARENT 8 13 10 15
REMARK Flexibility Score: inf
ROOT
ATOM      1  C   UNL     1     -15.235  31.089  89.879  1.00  0.00     0.019 A 
ATOM      2  C   UNL     1     -14.351  32.146  90.094  1.00  0.00     0.094 A 
ATOM      3  C   UNL     1     -14.662  33.102  91.068  1.00  0.00     0.336 A 
ATOM      4  O   UNL     1     -13.878  34.064  91.278  1.00  0.00    -0.246 OA
ATOM      5  O   UNL     1     -15.785  33.001  91.776  1.00  0.00    -0.423 OA
ATOM      6  C   UNL     1     -16.654  32.008  91.602  1.00  0.00     0.142 A 
ATOM      7  C   UNL     1     -17.818  31.955  92.376  1.00  0.00     0.098 A 
ATOM      8  C   UNL     1     -18.738  30.914  92.199  1.00  0.00     0.161 A 
ATOM      9  C   UNL     1     -18.492  29.916  91.239  1.00  0.00     0.158 A 
ATOM     10  C   UNL     1     -17.326  29.966  90.459  1.00  0.00     0.062 A 
ATOM     11  C   UNL     1     -16.407  31.008  90.638  1.00  0.00     0.022 A 
ENDROOT
BRANCH   9  12
ATOM     12  O   UNL     1     -19.407  28.879  91.061  1.00  0.00    -0.504 OA
ATOM     13  H   UNL     1     -20.300  29.031  90.609  1.00  0.00     0.293 HD
ENDBRANCH   9  12
BRANCH   8  14
ATOM     14  O   UNL     1     -19.888  30.888  92.986  1.00  0.00    -0.504 OA
ATOM     15  H   UNL     1     -20.556  31.650  92.988  1.00  0.00     0.293 HD
ENDBRANCH   8  14
TORSDOF 2
ENDMDL
MODEL 3
REMARK VINA RESULT:     0.000      2.631      3.325
REMARK INTER + INTRA:           0.000
REMARK INTER:                   0.000
REMARK INTRA:                   0.000
REMARK UNBOUND:                 0.000
REMARK SMILES O=c1ccc2cc(O)c(O)cc2o1
REMARK SMILES IDX 4 1 3 2 2 3 1 4 13 5 12 6 11 7 9 8 7 9 6 10 5 11 8 12 10 14
REMARK H PARENT 8 13 10 15
REMARK Flexibility Score: inf
ROOT
ATOM      1  C   UNL     1     -13.584  32.469  88.724  1.00  0.00     0.019 A 
ATOM      2  C   UNL     1     -12.540  33.367  88.941  1.00  0.00     0.094 A 
ATOM      3  C   UNL     1     -12.712  34.394  89.876  1.00  0.00     0.336 A 
ATOM      4  O   UNL     1     -11.781  35.215  90.087  1.00  0.00    -0.246 OA
ATOM      5  O   UNL     1     -13.857  34.510  90.545  1.00  0.00    -0.423 OA
ATOM      6  C   UNL     1     -14.877  33.674  90.368  1.00  0.00     0.142 A 
ATOM      7  C   UNL     1     -16.056  33.846  91.101  1.00  0.00     0.098 A 
ATOM      8  C   UNL     1     -17.135  32.972  90.920  1.00  0.00     0.161 A 
ATOM      9  C   UNL     1     -17.035  31.914  89.998  1.00  0.00     0.158 A 
ATOM     10  C   UNL     1     -15.854  31.739  89.260  1.00  0.00     0.062 A 
ATOM     11  C   UNL     1     -14.776  32.615  89.442  1.00  0.00     0.022 A 
ENDROOT
BRANCH   9  12
ATOM     12  O   UNL     1     -18.108  31.043  89.816  1.00  0.00    -0.504 OA
ATOM     13  H   UNL     1     -18.573  30.954  88.921  1.00  0.00     0.293 HD
ENDBRANCH   9  12
BRANCH   8  14
ATOM     14  O   UNL     1     -18.296  33.169  91.666  1.00  0.00    -0.504 OA
ATOM     15  H   UNL     1     -18.606  32.504  92.365  1.00  0.00     0.293 HD
ENDBRANCH   8  14
TORSDOF 2
ENDMDL
MODEL 4
REMARK VINA RESULT:     0.000      3.106      3.941
REMARK INTER + INTRA:           0.000
REMARK INTER:                   0.000
REMARK INTRA:                   0.000
REMARK UNBOUND:                 0.000
REMARK SMILES O=c1ccc2cc(O)c(O)cc2o1
REMARK SMILES IDX 4 1 3 2 2 3 1 4 13 5 12 6 11 7 9 8 7 9 6 10 5 11 8 12 10 14
REMARK H PARENT 8 13 10 15
REMARK Flexibility Score: inf
ROOT
ATOM      1  C   UNL     1     -13.786  31.050  89.477  1.00  0.00     0.019 A 
ATOM      2  C   UNL     1     -13.272  32.157  90.152  1.00  0.00     0.094 A 
ATOM      3  C   UNL     1     -14.149  32.987  90.858  1.00  0.00     0.336 A 
ATOM      4  O   UNL     1     -13.705  33.992  91.474  1.00  0.00    -0.246 OA
ATOM      5  O   UNL     1     -15.453  32.723  90.884  1.00  0.00    -0.423 OA
ATOM      6  C   UNL     1     -15.984  31.677  90.255  1.00  0.00     0.142 A 
ATOM      7  C   UNL     1     -17.363  31.449  90.317  1.00  0.00     0.098 A 
ATOM      8  C   UNL     1     -17.929  30.352  89.657  1.00  0.00     0.161 A 
ATOM      9  C   UNL     1     -17.109  29.472  88.928  1.00  0.00     0.158 A 
ATOM     10  C   UNL     1     -15.725  29.697  88.861  1.00  0.00     0.062 A 
ATOM     11  C   UNL     1     -15.161  30.796  89.522  1.00  0.00     0.022 A 
ENDROOT
BRANCH   9  12
ATOM     12  O   UNL     1     -17.671  28.379  88.269  1.00  0.00    -0.504 OA
ATOM     13  H   UNL     1     -17.114  27.576  88.002  1.00  0.00     0.293 HD
ENDBRANCH   9  12
BRANCH   8  14
ATOM     14  O   UNL     1     -19.306  30.152  89.739  1.00  0.00    -0.504 OA
ATOM     15  H   UNL     1     -19.706  29.353  90.216  1.00  0.00     0.293 HD
ENDBRANCH   8  14
TORSDOF 2
ENDMDL
MODEL 5
REMARK VINA RESULT:     0.000      3.610      4.661
REMARK INTER + INTRA:           0.000
REMARK INTER:                   0.000
REMARK INTRA:                   0.000
REMARK UNBOUND:                 0.000
REMARK SMILES O=c1ccc2cc(O)c(O)cc2o1
REMARK SMILES IDX 4 1 3 2 2 3 1 4 13 5 12 6 11 7 9 8 7 9 6 10 5 11 8 12 10 14
REMARK H PARENT 8 13 10 15
REMARK Flexibility Score: inf
ROOT
ATOM      1  C   UNL     1     -15.470  29.337  89.491  1.00  0.00     0.019 A 
ATOM      2  C   UNL     1     -14.808  30.448  90.013  1.00  0.00     0.094 A 
ATOM      3  C   UNL     1     -15.536  31.388  90.750  1.00  0.00     0.336 A 
ATOM      4  O   UNL     1     -14.957  32.397  91.230  1.00  0.00    -0.246 OA
ATOM      5  O   UNL     1     -16.842  31.222  90.947  1.00  0.00    -0.423 OA
ATOM      6  C   UNL     1     -17.512  30.178  90.467  1.00  0.00     0.142 A 
ATOM      7  C   UNL     1     -18.885  30.057  90.707  1.00  0.00     0.098 A 
ATOM      8  C   UNL     1     -19.597  28.962  90.205  1.00  0.00     0.161 A 
ATOM      9  C   UNL     1     -18.931  27.975  89.455  1.00  0.00     0.158 A 
ATOM     10  C   UNL     1     -17.554  28.092  89.211  1.00  0.00     0.062 A 
ATOM     11  C   UNL     1     -16.843  29.189  89.714  1.00  0.00     0.022 A 
ENDROOT
BRANCH   9  12
ATOM     12  O   UNL     1     -19.639  26.883  88.954  1.00  0.00    -0.504 OA
ATOM     13  H   UNL     1     -19.285  26.329  88.183  1.00  0.00     0.293 HD
ENDBRANCH   9  12
BRANCH   8  14
ATOM     14  O   UNL     1     -20.964  28.870  90.462  1.00  0.00    -0.504 OA
ATOM     15  H   UNL     1     -21.330  28.771  91.401  1.00  0.00     0.293 HD
ENDBRANCH   8  14
TORSDOF 2
ENDMDL
MODEL 6
REMARK VINA RESULT:     0.000      8.598     10.670
REMARK INTER + INTRA:           0.000
REMARK INTER:                   0.000
REMARK INTRA:                   0.000
REMARK UNBOUND:                 0.000
REMARK SMILES O=c1ccc2cc(O)c(O)cc2o1
REMARK SMILES IDX 4 1 3 2 2 3 1 4 13 5 12 6 11 7 9 8 7 9 6 10 5 11 8 12 10 14
REMARK H PARENT 8 13 10 15
REMARK Flexibility Score: inf
ROOT
ATOM      1  C   UNL     1      -9.212  29.043  89.328  1.00  0.00     0.019 A 
ATOM      2  C   UNL     1      -8.201  28.083  89.300  1.00  0.00     0.094 A 
ATOM      3  C   UNL     1      -7.337  28.040  88.200  1.00  0.00     0.336 A 
ATOM      4  O   UNL     1      -6.418  27.181  88.155  1.00  0.00    -0.246 OA
ATOM      5  O   UNL     1      -7.480  28.904  87.197  1.00  0.00    -0.423 OA
ATOM      6  C   UNL     1      -8.431  29.835  87.186  1.00  0.00     0.142 A 
ATOM      7  C   UNL     1      -8.533  30.716  86.103  1.00  0.00     0.098 A 
ATOM      8  C   UNL     1      -9.531  31.698  86.083  1.00  0.00     0.161 A 
ATOM      9  C   UNL     1     -10.436  31.802  87.155  1.00  0.00     0.158 A 
ATOM     10  C   UNL     1     -10.337  30.920  88.242  1.00  0.00     0.062 A 
ATOM     11  C   UNL     1      -9.339  29.938  88.261  1.00  0.00     0.022 A 
ENDROOT
BRANCH   9  12
ATOM     12  O   UNL     1     -11.430  32.780  87.136  1.00  0.00    -0.504 OA
ATOM     13  H   UNL     1     -12.260  32.704  87.711  1.00  0.00     0.293 HD
ENDBRANCH   9  12
BRANCH   8  14
ATOM     14  O   UNL     1      -9.606  32.561  84.991  1.00  0.00    -0.504 OA
ATOM     15  H   UNL     1      -8.860  33.208  84.764  1.00  0.00     0.293 HD
ENDBRANCH   8  14
TORSDOF 2
ENDMDL
MODEL 7
REMARK VINA RESULT:     0.000     13.050     13.878
REMARK INTER + INTRA:           0.000
REMARK INTER:                   0.000
REMARK INTRA:                   0.000
REMARK UNBOUND:                 0.000
REMARK SMILES O=c1ccc2cc(O)c(O)cc2o1
REMARK SMILES IDX 4 1 3 2 2 3 1 4 13 5 12 6 11 7 9 8 7 9 6 10 5 11 8 12 10 14
REMARK H PARENT 8 13 10 15
REMARK Flexibility Score: inf
ROOT
ATOM      1  C   UNL     1      -9.860  20.069  93.654  1.00  0.00     0.019 A 
ATOM      2  C   UNL     1      -9.773  21.177  92.811  1.00  0.00     0.094 A 
ATOM      3  C   UNL     1     -10.620  22.269  93.038  1.00  0.00     0.336 A 
ATOM      4  O   UNL     1     -10.557  23.278  92.289  1.00  0.00    -0.246 OA
ATOM      5  O   UNL     1     -11.493  22.246  94.042  1.00  0.00    -0.423 OA
ATOM      6  C   UNL     1     -11.606  21.210  94.869  1.00  0.00     0.142 A 
ATOM      7  C   UNL     1     -12.543  21.243  95.907  1.00  0.00     0.098 A 
ATOM      8  C   UNL     1     -12.670  20.157  96.781  1.00  0.00     0.161 A 
ATOM      9  C   UNL     1     -11.852  19.024  96.616  1.00  0.00     0.158 A 
ATOM     10  C   UNL     1     -10.912  18.985  95.575  1.00  0.00     0.062 A 
ATOM     11  C   UNL     1     -10.786  20.073  94.701  1.00  0.00     0.022 A 
ENDROOT
BRANCH   9  12
ATOM     12  O   UNL     1     -11.977  17.940  97.484  1.00  0.00    -0.504 OA
ATOM     13  H   UNL     1     -12.861  17.462  97.613  1.00  0.00     0.293 HD
ENDBRANCH   9  12
BRANCH   8  14
ATOM     14  O   UNL     1     -13.612  20.221  97.806  1.00  0.00    -0.504 OA
ATOM     15  H   UNL     1     -14.543  20.590  97.659  1.00  0.00     0.293 HD
ENDBRANCH   8  14
TORSDOF 2
ENDMDL
MODEL 8
REMARK VINA RESULT:     0.000     14.529     15.670
REMARK INTER + INTRA:           0.000
REMARK INTER:                   0.000
REMARK INTRA:                   0.000
REMARK UNBOUND:                 0.000
REMARK SMILES O=c1ccc2cc(O)c(O)cc2o1
REMARK SMILES IDX 4 1 3 2 2 3 1 4 13 5 12 6 11 7 9 8 7 9 6 10 5 11 8 12 10 14
REMARK H PARENT 8 13 10 15
REMARK Flexibility Score: inf
ROOT
ATOM      1  C   UNL     1      -9.860  20.069  93.654  1.00  0.00     0.019 A 
ATOM      2  C   UNL     1     -10.608  21.029  92.973  1.00  0.00     0.094 A 
ATOM      3  C   UNL     1     -12.003  20.925  92.970  1.00  0.00     0.336 A 
ATOM      4  O   UNL     1     -12.697  21.781  92.361  1.00  0.00    -0.246 OA
ATOM      5  O   UNL     1     -12.605  19.923  93.608  1.00  0.00    -0.423 OA
ATOM      6  C   UNL     1     -11.928  18.988  94.269  1.00  0.00     0.142 A 
ATOM      7  C   UNL     1     -12.615  17.958  94.922  1.00  0.00     0.098 A 
ATOM      8  C   UNL     1     -11.911  16.969  95.619  1.00  0.00     0.161 A 
ATOM      9  C   UNL     1     -10.506  17.009  95.667  1.00  0.00     0.158 A 
ATOM     10  C   UNL     1      -9.812  18.040  95.014  1.00  0.00     0.062 A 
ATOM     11  C   UNL     1     -10.518  19.028  94.316  1.00  0.00     0.022 A 
ENDROOT
BRANCH   9  12
ATOM     12  O   UNL     1      -9.803  16.025  96.361  1.00  0.00    -0.504 OA
ATOM     13  H   UNL     1      -9.362  16.217  97.253  1.00  0.00     0.293 HD
ENDBRANCH   9  12
BRANCH   8  14
ATOM     14  O   UNL     1     -12.625  15.957  96.260  1.00  0.00    -0.504 OA
ATOM     15  H   UNL     1     -12.951  16.050  97.214  1.00  0.00     0.293 HD
ENDBRANCH   8  14
TORSDOF 2
ENDMDL
MODEL 9
REMARK VINA RESULT:     0.000     15.037     16.199
REMARK INTER + INTRA:           0.000
REMARK INTER:                   0.000
REMARK INTRA:                   0.000
REMARK UNBOUND:                 0.000
REMARK SMILES O=c1ccc2cc(O)c(O)cc2o1
REMARK SMILES IDX 4 1 3 2 2 3 1 4 13 5 12 6 11 7 9 8 7 9 6 10 5 11 8 12 10 14
REMARK H PARENT 8 13 10 15
REMARK Flexibility Score: inf
ROOT
ATOM      1  C   UNL     1      -9.093  21.030  92.371  1.00  0.00     0.019 A 
ATOM      2  C   UNL     1     -10.383  21.558  92.338  1.00  0.00     0.094 A 
ATOM      3  C   UNL     1     -11.416  20.862  92.976  1.00  0.00     0.336 A 
ATOM      4  O   UNL     1     -12.588  21.322  92.958  1.00  0.00    -0.246 OA
ATOM      5  O   UNL     1     -11.169  19.715  93.604  1.00  0.00    -0.423 OA
ATOM      6  C   UNL     1      -9.952  19.178  93.659  1.00  0.00     0.142 A 
ATOM      7  C   UNL     1      -9.753  17.969  94.334  1.00  0.00     0.098 A 
ATOM      8  C   UNL     1      -8.476  17.396  94.396  1.00  0.00     0.161 A 
ATOM      9  C   UNL     1      -7.388  18.038  93.778  1.00  0.00     0.158 A 
ATOM     10  C   UNL     1      -7.584  19.251  93.100  1.00  0.00     0.062 A 
ATOM     11  C   UNL     1      -8.861  19.822  93.038  1.00  0.00     0.022 A 
ENDROOT
BRANCH   9  12
ATOM     12  O   UNL     1      -6.116  17.470  93.839  1.00  0.00    -0.504 OA
ATOM     13  H   UNL     1      -5.849  16.844  94.590  1.00  0.00     0.293 HD
ENDBRANCH   9  12
BRANCH   8  14
ATOM     14  O   UNL     1      -8.310  16.191  95.076  1.00  0.00    -0.504 OA
ATOM     15  H   UNL     1      -7.410  15.730  95.141  1.00  0.00     0.293 HD
ENDBRANCH   8  14
TORSDOF 2
ENDMDL
