MODEL 1
REMARK VINA RESULT:    -5.622      0.000      0.000
REMARK INTER + INTRA:          -5.786
REMARK INTER:                  -5.786
REMARK INTRA:                   0.000
REMARK UNBOUND:                 0.000
REMARK SMILES Oc1ccc2[nH]ccc2c1
REMARK SMILES IDX 3 1 4 2 5 3 9 4 8 5 7 6 6 7 10 8 2 9 1 11
REMARK H PARENT 6 10 1 12
REMARK Flexibility Score: inf
ROOT
ATOM      1  C   UNL     1     110.169 153.012 149.165  1.00  0.00     0.048 A 
ATOM      2  C   UNL     1     110.850 151.793 148.992  1.00  0.00     0.030 A 
ATOM      3  C   UNL     1     110.257 150.639 149.499  1.00  0.00     0.046 A 
ATOM      4  C   UNL     1     109.050 150.674 150.147  1.00  0.00     0.003 A 
ATOM      5  C   UNL     1     108.745 149.383 150.519  1.00  0.00     0.028 A 
ATOM      6  C   UNL     1     109.812 148.613 150.066  1.00  0.00     0.083 A 
ATOM      7  N   UNL     1     110.733 149.384 149.444  1.00  0.00    -0.361 N 
ATOM      8  C   UNL     1     108.349 151.863 150.333  1.00  0.00     0.056 A 
ATOM      9  C   UNL     1     108.919 153.050 149.833  1.00  0.00     0.116 A 
ATOM     10  H   UNL     1     111.627 149.065 149.011  1.00  0.00     0.166 HD
ENDROOT
BRANCH   9  11
ATOM     11  O   UNL     1     108.246 154.257 150.004  1.00  0.00    -0.508 OA
ATOM     12  H   UNL     1     107.862 154.764 149.215  1.00  0.00     0.293 HD
ENDBRANCH   9  11
TORSDOF 1
ENDMDL
MODEL 2
REMARK VINA RESULT:    -5.587      2.314      3.526
REMARK INTER + INTRA:          -5.750
REMARK INTER:                  -5.750
REMARK INTRA:                   0.000
REMARK UNBOUND:                 0.000
REMARK SMILES Oc1ccc2[nH]ccc2c1
REMARK SMILES IDX 3 1 4 2 5 3 9 4 8 5 7 6 6 7 10 8 2 9 1 11
REMARK H PARENT 6 10 1 12
REMARK Flexibility Score: inf
ROOT
ATOM      1  C   UNL     1     110.218 149.675 149.621  1.00  0.00     0.048 A 
ATOM      2  C   UNL     1     110.821 150.835 149.103  1.00  0.00     0.030 A 
ATOM      3  C   UNL     1     110.175 152.052 149.311  1.00  0.00     0.046 A 
ATOM      4  C   UNL     1     108.991 152.132 149.995  1.00  0.00     0.003 A 
ATOM      5  C   UNL     1     108.622 153.459 150.025  1.00  0.00     0.028 A 
ATOM      6  C   UNL     1     109.627 154.132 149.339  1.00  0.00     0.083 A 
ATOM      7  N   UNL     1     110.574 153.269 148.904  1.00  0.00    -0.361 N 
ATOM      8  C   UNL     1     108.368 151.003 150.521  1.00  0.00     0.056 A 
ATOM      9  C   UNL     1     108.993 149.755 150.331  1.00  0.00     0.116 A 
ATOM     10  H   UNL     1     111.436 153.504 148.365  1.00  0.00     0.166 HD
ENDROOT
BRANCH   9  11
ATOM     11  O   UNL     1     108.397 148.606 150.843  1.00  0.00    -0.508 OA
ATOM     12  H   UNL     1     107.437 148.366 150.624  1.00  0.00     0.293 HD
ENDBRANCH   9  11
TORSDOF 1
ENDMDL
MODEL 3
REMARK VINA RESULT:    -5.555      1.273      2.086
REMARK INTER + INTRA:          -5.717
REMARK INTER:                  -5.717
REMARK INTRA:                   0.000
REMARK UNBOUND:                 0.000
REMARK SMILES Oc1ccc2[nH]ccc2c1
REMARK SMILES IDX 3 1 4 2 5 3 9 4 8 5 7 6 6 7 10 8 2 9 1 11
REMARK H PARENT 6 10 1 12
REMARK Flexibility Score: inf
ROOT
ATOM      1  C   UNL     1     108.567 153.550 150.017  1.00  0.00     0.048 A 
ATOM      2  C   UNL     1     108.044 152.329 150.484  1.00  0.00     0.030 A 
ATOM      3  C   UNL     1     108.779 151.171 150.239  1.00  0.00     0.046 A 
ATOM      4  C   UNL     1     109.972 151.204 149.568  1.00  0.00     0.003 A 
ATOM      5  C   UNL     1     110.438 149.910 149.493  1.00  0.00     0.028 A 
ATOM      6  C   UNL     1     109.477 149.139 150.140  1.00  0.00     0.083 A 
ATOM      7  N   UNL     1     108.465 149.915 150.594  1.00  0.00    -0.361 N 
ATOM      8  C   UNL     1     110.518 152.395 149.094  1.00  0.00     0.056 A 
ATOM      9  C   UNL     1     109.802 153.586 149.323  1.00  0.00     0.116 A 
ATOM     10  H   UNL     1     107.617 149.597 151.113  1.00  0.00     0.166 HD
ENDROOT
BRANCH   9  11
ATOM     11  O   UNL     1     110.319 154.794 148.862  1.00  0.00    -0.508 OA
ATOM     12  H   UNL     1     110.755 155.457 149.492  1.00  0.00     0.293 HD
ENDBRANCH   9  11
TORSDOF 1
ENDMDL
MODEL 4
REMARK VINA RESULT:    -5.545      2.568      3.578
REMARK INTER + INTRA:          -5.707
REMARK INTER:                  -5.707
REMARK INTRA:                   0.000
REMARK UNBOUND:                 0.000
REMARK SMILES Oc1ccc2[nH]ccc2c1
REMARK SMILES IDX 3 1 4 2 5 3 9 4 8 5 7 6 6 7 10 8 2 9 1 11
REMARK H PARENT 6 10 1 12
REMARK Flexibility Score: inf
ROOT
ATOM      1  C   UNL     1     111.056 150.655 148.832  1.00  0.00     0.048 A 
ATOM      2  C   UNL     1     110.871 152.049 148.783  1.00  0.00     0.030 A 
ATOM      3  C   UNL     1     109.752 152.579 149.423  1.00  0.00     0.046 A 
ATOM      4  C   UNL     1     108.853 151.782 150.081  1.00  0.00     0.003 A 
ATOM      5  C   UNL     1     107.875 152.603 150.597  1.00  0.00     0.028 A 
ATOM      6  C   UNL     1     108.241 153.890 150.215  1.00  0.00     0.083 A 
ATOM      7  N   UNL     1     109.388 153.870 149.497  1.00  0.00    -0.361 N 
ATOM      8  C   UNL     1     109.008 150.399 150.149  1.00  0.00     0.056 A 
ATOM      9  C   UNL     1     110.129 149.829 149.514  1.00  0.00     0.116 A 
ATOM     10  H   UNL     1     109.885 154.692 149.088  1.00  0.00     0.166 HD
ENDROOT
BRANCH   9  11
ATOM     11  O   UNL     1     110.313 148.449 149.562  1.00  0.00    -0.508 OA
ATOM     12  H   UNL     1     110.778 147.952 148.811  1.00  0.00     0.293 HD
ENDBRANCH   9  11
TORSDOF 1
ENDMDL
MODEL 5
REMARK VINA RESULT:    -5.425      2.479      3.932
REMARK INTER + INTRA:          -5.583
REMARK INTER:                  -5.583
REMARK INTRA:                   0.000
REMARK UNBOUND:                 0.000
REMARK SMILES Oc1ccc2[nH]ccc2c1
REMARK SMILES IDX 3 1 4 2 5 3 9 4 8 5 7 6 6 7 10 8 2 9 1 11
REMARK H PARENT 6 10 1 12
REMARK Flexibility Score: inf
ROOT
ATOM      1  C   UNL     1     109.998 150.075 149.394  1.00  0.00     0.048 A 
ATOM      2  C   UNL     1     108.912 150.647 150.082  1.00  0.00     0.030 A 
ATOM      3  C   UNL     1     108.828 152.038 150.120  1.00  0.00     0.046 A 
ATOM      4  C   UNL     1     109.763 152.833 149.513  1.00  0.00     0.003 A 
ATOM      5  C   UNL     1     109.395 154.143 149.733  1.00  0.00     0.028 A 
ATOM      6  C   UNL     1     108.224 154.070 150.483  1.00  0.00     0.083 A 
ATOM      7  N   UNL     1     107.882 152.782 150.717  1.00  0.00    -0.361 N 
ATOM      8  C   UNL     1     110.848 152.299 148.824  1.00  0.00     0.056 A 
ATOM      9  C   UNL     1     110.966 150.897 148.764  1.00  0.00     0.116 A 
ATOM     10  H   UNL     1     107.053 152.442 151.251  1.00  0.00     0.166 HD
ENDROOT
BRANCH   9  11
ATOM     11  O   UNL     1     112.040 150.329 148.084  1.00  0.00    -0.508 OA
ATOM     12  H   UNL     1     112.121 149.325 147.966  1.00  0.00     0.293 HD
ENDBRANCH   9  11
TORSDOF 1
ENDMDL
MODEL 6
REMARK VINA RESULT:    -5.341     17.492     18.125
REMARK INTER + INTRA:          -5.497
REMARK INTER:                  -5.497
REMARK INTRA:                   0.000
REMARK UNBOUND:                 0.000
REMARK SMILES Oc1ccc2[nH]ccc2c1
REMARK SMILES IDX 3 1 4 2 5 3 9 4 8 5 7 6 6 7 10 8 2 9 1 11
REMARK H PARENT 6 10 1 12
REMARK Flexibility Score: inf
ROOT
ATOM      1  C   UNL     1     124.716 143.278 146.328  1.00  0.00     0.048 A 
ATOM      2  C   UNL     1     125.742 143.667 147.208  1.00  0.00     0.030 A 
ATOM      3  C   UNL     1     125.859 142.980 148.415  1.00  0.00     0.046 A 
ATOM      4  C   UNL     1     125.010 141.958 148.747  1.00  0.00     0.003 A 
ATOM      5  C   UNL     1     125.388 141.495 149.988  1.00  0.00     0.028 A 
ATOM      6  C   UNL     1     126.476 142.282 150.353  1.00  0.00     0.083 A 
ATOM      7  N   UNL     1     126.760 143.188 149.389  1.00  0.00    -0.361 N 
ATOM      8  C   UNL     1     123.984 141.548 147.898  1.00  0.00     0.056 A 
ATOM      9  C   UNL     1     123.837 142.220 146.669  1.00  0.00     0.116 A 
ATOM     10  H   UNL     1     127.523 143.900 149.404  1.00  0.00     0.166 HD
ENDROOT
BRANCH   9  11
ATOM     11  O   UNL     1     122.821 141.836 145.797  1.00  0.00    -0.508 OA
ATOM     12  H   UNL     1     122.997 141.199 145.029  1.00  0.00     0.293 HD
ENDBRANCH   9  11
TORSDOF 1
ENDMDL
MODEL 7
REMARK VINA RESULT:    -5.272     17.907     18.976
REMARK INTER + INTRA:          -5.427
REMARK INTER:                  -5.427
REMARK INTRA:                   0.000
REMARK UNBOUND:                 0.000
REMARK SMILES Oc1ccc2[nH]ccc2c1
REMARK SMILES IDX 3 1 4 2 5 3 9 4 8 5 7 6 6 7 10 8 2 9 1 11
REMARK H PARENT 6 10 1 12
REMARK Flexibility Score: inf
ROOT
ATOM      1  C   UNL     1     127.687 142.656 149.410  1.00  0.00     0.048 A 
ATOM      2  C   UNL     1     127.204 143.294 148.253  1.00  0.00     0.030 A 
ATOM      3  C   UNL     1     125.932 142.948 147.802  1.00  0.00     0.046 A 
ATOM      4  C   UNL     1     125.165 142.019 148.454  1.00  0.00     0.003 A 
ATOM      5  C   UNL     1     123.978 141.907 147.763  1.00  0.00     0.028 A 
ATOM      6  C   UNL     1     124.091 142.798 146.700  1.00  0.00     0.083 A 
ATOM      7  N   UNL     1     125.286 143.431 146.728  1.00  0.00    -0.361 N 
ATOM      8  C   UNL     1     125.612 141.370 149.602  1.00  0.00     0.056 A 
ATOM      9  C   UNL     1     126.894 141.695 150.087  1.00  0.00     0.116 A 
ATOM     10  H   UNL     1     125.631 144.148 146.052  1.00  0.00     0.166 HD
ENDROOT
BRANCH   9  11
ATOM     11  O   UNL     1     127.373 141.064 151.232  1.00  0.00    -0.508 OA
ATOM     12  H   UNL     1     126.745 140.631 151.899  1.00  0.00     0.293 HD
ENDBRANCH   9  11
TORSDOF 1
ENDMDL
MODEL 8
REMARK VINA RESULT:    -5.103      5.378      7.278
REMARK INTER + INTRA:          -5.253
REMARK INTER:                  -5.253
REMARK INTRA:                   0.000
REMARK UNBOUND:                 0.000
REMARK SMILES Oc1ccc2[nH]ccc2c1
REMARK SMILES IDX 3 1 4 2 5 3 9 4 8 5 7 6 6 7 10 8 2 9 1 11
REMARK H PARENT 6 10 1 12
REMARK Flexibility Score: inf
ROOT
ATOM      1  C   UNL     1     108.730 144.447 153.138  1.00  0.00     0.048 A 
ATOM      2  C   UNL     1     108.650 145.836 152.926  1.00  0.00     0.030 A 
ATOM      3  C   UNL     1     108.930 146.316 151.648  1.00  0.00     0.046 A 
ATOM      4  C   UNL     1     109.272 145.475 150.622  1.00  0.00     0.003 A 
ATOM      5  C   UNL     1     109.481 146.254 149.505  1.00  0.00     0.028 A 
ATOM      6  C   UNL     1     109.249 147.560 149.923  1.00  0.00     0.083 A 
ATOM      7  N   UNL     1     108.913 147.593 151.234  1.00  0.00    -0.361 N 
ATOM      8  C   UNL     1     109.358 144.096 150.798  1.00  0.00     0.056 A 
ATOM      9  C   UNL     1     109.082 143.576 152.077  1.00  0.00     0.116 A 
ATOM     10  H   UNL     1     108.687 148.440 151.801  1.00  0.00     0.166 HD
ENDROOT
BRANCH   9  11
ATOM     11  O   UNL     1     109.161 142.202 152.288  1.00  0.00    -0.508 OA
ATOM     12  H   UNL     1     110.051 141.717 152.291  1.00  0.00     0.293 HD
ENDBRANCH   9  11
TORSDOF 1
ENDMDL
