MODEL 1
REMARK VINA RESULT:    -5.964      0.000      0.000
REMARK INTER + INTRA:          -6.138
REMARK INTER:                  -6.138
REMARK INTRA:                   0.000
REMARK UNBOUND:                 0.000
REMARK SMILES Oc1ccc2[nH]ccc2c1
REMARK SMILES IDX 3 1 4 2 5 3 9 4 8 5 7 6 6 7 10 8 2 9 1 11
REMARK H PARENT 6 10 1 12
REMARK Flexibility Score: inf
ROOT
ATOM      1  C   UNL     1      -4.902  -4.296   7.598  1.00  0.00     0.048 A 
ATOM      2  C   UNL     1      -6.268  -3.975   7.706  1.00  0.00     0.030 A 
ATOM      3  C   UNL     1      -6.637  -3.004   8.635  1.00  0.00     0.046 A 
ATOM      4  C   UNL     1      -5.710  -2.375   9.424  1.00  0.00     0.003 A 
ATOM      5  C   UNL     1      -6.389  -1.482  10.223  1.00  0.00     0.028 A 
ATOM      6  C   UNL     1      -7.727  -1.620   9.869  1.00  0.00     0.083 A 
ATOM      7  N   UNL     1      -7.873  -2.552   8.898  1.00  0.00    -0.361 N 
ATOM      8  C   UNL     1      -4.351  -2.668   9.341  1.00  0.00     0.056 A 
ATOM      9  C   UNL     1      -3.944  -3.647   8.410  1.00  0.00     0.116 A 
ATOM     10  H   UNL     1      -8.766  -2.854   8.448  1.00  0.00     0.166 HD
ENDROOT
BRANCH   9  11
ATOM     11  O   UNL     1      -2.598  -3.983   8.282  1.00  0.00    -0.508 OA
ATOM     12  H   UNL     1      -1.963  -3.933   9.070  1.00  0.00     0.293 HD
ENDBRANCH   9  11
TORSDOF 1
ENDMDL
MODEL 2
REMARK VINA RESULT:    -5.703      2.690      3.644
REMARK INTER + INTRA:          -5.870
REMARK INTER:                  -5.870
REMARK INTRA:                   0.000
REMARK UNBOUND:                 0.000
REMARK SMILES Oc1ccc2[nH]ccc2c1
REMARK SMILES IDX 3 1 4 2 5 3 9 4 8 5 7 6 6 7 10 8 2 9 1 11
REMARK H PARENT 6 10 1 12
REMARK Flexibility Score: inf
ROOT
ATOM      1  C   UNL     1      -7.361  -2.589   7.374  1.00  0.00     0.048 A 
ATOM      2  C   UNL     1      -6.234  -3.303   6.926  1.00  0.00     0.030 A 
ATOM      3  C   UNL     1      -5.301  -3.711   7.878  1.00  0.00     0.046 A 
ATOM      4  C   UNL     1      -5.464  -3.433   9.209  1.00  0.00     0.003 A 
ATOM      5  C   UNL     1      -4.383  -3.967   9.876  1.00  0.00     0.028 A 
ATOM      6  C   UNL     1      -3.600  -4.555   8.887  1.00  0.00     0.083 A 
ATOM      7  N   UNL     1      -4.165  -4.396   7.669  1.00  0.00    -0.361 N 
ATOM      8  C   UNL     1      -6.567  -2.730   9.686  1.00  0.00     0.056 A 
ATOM      9  C   UNL     1      -7.531  -2.302   8.748  1.00  0.00     0.116 A 
ATOM     10  H   UNL     1      -3.793  -4.738   6.755  1.00  0.00     0.166 HD
ENDROOT
BRANCH   9  11
ATOM     11  O   UNL     1      -8.657  -1.595   9.165  1.00  0.00    -0.508 OA
ATOM     12  H   UNL     1      -8.658  -1.064  10.028  1.00  0.00     0.293 HD
ENDBRANCH   9  11
TORSDOF 1
ENDMDL
MODEL 3
REMARK VINA RESULT:    -5.555      1.909      2.349
REMARK INTER + INTRA:          -5.717
REMARK INTER:                  -5.717
REMARK INTRA:                   0.000
REMARK UNBOUND:                 0.000
REMARK SMILES Oc1ccc2[nH]ccc2c1
REMARK SMILES IDX 3 1 4 2 5 3 9 4 8 5 7 6 6 7 10 8 2 9 1 11
REMARK H PARENT 6 10 1 12
REMARK Flexibility Score: inf
ROOT
ATOM      1  C   UNL     1      -3.805  -4.658   8.945  1.00  0.00     0.048 A 
ATOM      2  C   UNL     1      -4.295  -4.364   7.658  1.00  0.00     0.030 A 
ATOM      3  C   UNL     1      -5.478  -3.634   7.563  1.00  0.00     0.046 A 
ATOM      4  C   UNL     1      -6.152  -3.209   8.677  1.00  0.00     0.003 A 
ATOM      5  C   UNL     1      -7.267  -2.523   8.247  1.00  0.00     0.028 A 
ATOM      6  C   UNL     1      -7.208  -2.569   6.857  1.00  0.00     0.083 A 
ATOM      7  N   UNL     1      -6.114  -3.249   6.445  1.00  0.00    -0.361 N 
ATOM      8  C   UNL     1      -5.695  -3.482   9.964  1.00  0.00     0.056 A 
ATOM      9  C   UNL     1      -4.500  -4.220  10.096  1.00  0.00     0.116 A 
ATOM     10  H   UNL     1      -5.825  -3.434   5.458  1.00  0.00     0.166 HD
ENDROOT
BRANCH   9  11
ATOM     11  O   UNL     1      -3.993  -4.524  11.357  1.00  0.00    -0.508 OA
ATOM     12  H   UNL     1      -4.502  -5.114  12.004  1.00  0.00     0.293 HD
ENDBRANCH   9  11
TORSDOF 1
ENDMDL
MODEL 4
REMARK VINA RESULT:    -5.447      1.600      1.706
REMARK INTER + INTRA:          -5.607
REMARK INTER:                  -5.607
REMARK INTRA:                   0.000
REMARK UNBOUND:                 0.000
REMARK SMILES Oc1ccc2[nH]ccc2c1
REMARK SMILES IDX 3 1 4 2 5 3 9 4 8 5 7 6 6 7 10 8 2 9 1 11
REMARK H PARENT 6 10 1 12
REMARK Flexibility Score: inf
ROOT
ATOM      1  C   UNL     1      -4.804  -4.524   7.628  1.00  0.00     0.048 A 
ATOM      2  C   UNL     1      -5.901  -4.158   6.826  1.00  0.00     0.030 A 
ATOM      3  C   UNL     1      -6.474  -2.905   7.040  1.00  0.00     0.046 A 
ATOM      4  C   UNL     1      -5.996  -2.050   7.997  1.00  0.00     0.003 A 
ATOM      5  C   UNL     1      -6.770  -0.911   7.955  1.00  0.00     0.028 A 
ATOM      6  C   UNL     1      -7.703  -1.143   6.949  1.00  0.00     0.083 A 
ATOM      7  N   UNL     1      -7.517  -2.362   6.393  1.00  0.00    -0.361 N 
ATOM      8  C   UNL     1      -4.912  -2.381   8.808  1.00  0.00     0.056 A 
ATOM      9  C   UNL     1      -4.309  -3.642   8.616  1.00  0.00     0.116 A 
ATOM     10  H   UNL     1      -8.073  -2.790   5.619  1.00  0.00     0.166 HD
ENDROOT
BRANCH   9  11
ATOM     11  O   UNL     1      -3.222  -4.030   9.396  1.00  0.00    -0.508 OA
ATOM     12  H   UNL     1      -2.318  -4.228   8.983  1.00  0.00     0.293 HD
ENDBRANCH   9  11
TORSDOF 1
ENDMDL
MODEL 5
REMARK VINA RESULT:    -5.326      1.993      2.709
REMARK INTER + INTRA:          -5.482
REMARK INTER:                  -5.482
REMARK INTRA:                   0.000
REMARK UNBOUND:                 0.000
REMARK SMILES Oc1ccc2[nH]ccc2c1
REMARK SMILES IDX 3 1 4 2 5 3 9 4 8 5 7 6 6 7 10 8 2 9 1 11
REMARK H PARENT 6 10 1 12
REMARK Flexibility Score: inf
ROOT
ATOM      1  C   UNL     1      -5.922  -3.497   8.160  1.00  0.00     0.048 A 
ATOM      2  C   UNL     1      -6.395  -2.943   9.365  1.00  0.00     0.030 A 
ATOM      3  C   UNL     1      -7.352  -1.933   9.283  1.00  0.00     0.046 A 
ATOM      4  C   UNL     1      -7.824  -1.484   8.078  1.00  0.00     0.003 A 
ATOM      5  C   UNL     1      -8.747  -0.495   8.340  1.00  0.00     0.028 A 
ATOM      6  C   UNL     1      -8.786  -0.393   9.727  1.00  0.00     0.083 A 
ATOM      7  N   UNL     1      -7.932  -1.273  10.299  1.00  0.00    -0.361 N 
ATOM      8  C   UNL     1      -7.377  -2.011   6.869  1.00  0.00     0.056 A 
ATOM      9  C   UNL     1      -6.408  -3.036   6.916  1.00  0.00     0.116 A 
ATOM     10  H   UNL     1      -7.762  -1.409  11.320  1.00  0.00     0.166 HD
ENDROOT
BRANCH   9  11
ATOM     11  O   UNL     1      -5.923  -3.603   5.739  1.00  0.00    -0.508 OA
ATOM     12  H   UNL     1      -4.967  -3.931   5.665  1.00  0.00     0.293 HD
ENDBRANCH   9  11
TORSDOF 1
ENDMDL
MODEL 6
REMARK VINA RESULT:    -5.310      1.447      2.370
REMARK INTER + INTRA:          -5.465
REMARK INTER:                  -5.465
REMARK INTRA:                   0.000
REMARK UNBOUND:                 0.000
REMARK SMILES Oc1ccc2[nH]ccc2c1
REMARK SMILES IDX 3 1 4 2 5 3 9 4 8 5 7 6 6 7 10 8 2 9 1 11
REMARK H PARENT 6 10 1 12
REMARK Flexibility Score: inf
ROOT
ATOM      1  C   UNL     1      -3.950  -3.019   9.279  1.00  0.00     0.048 A 
ATOM      2  C   UNL     1      -4.803  -1.904   9.176  1.00  0.00     0.030 A 
ATOM      3  C   UNL     1      -5.853  -1.971   8.261  1.00  0.00     0.046 A 
ATOM      4  C   UNL     1      -6.060  -3.079   7.483  1.00  0.00     0.003 A 
ATOM      5  C   UNL     1      -7.164  -2.830   6.698  1.00  0.00     0.028 A 
ATOM      6  C   UNL     1      -7.579  -1.550   7.049  1.00  0.00     0.083 A 
ATOM      7  N   UNL     1      -6.775  -1.029   8.005  1.00  0.00    -0.361 N 
ATOM      8  C   UNL     1      -5.236  -4.199   7.561  1.00  0.00     0.056 A 
ATOM      9  C   UNL     1      -4.162  -4.164   8.477  1.00  0.00     0.116 A 
ATOM     10  H   UNL     1      -6.858  -0.088   8.450  1.00  0.00     0.166 HD
ENDROOT
BRANCH   9  11
ATOM     11  O   UNL     1      -3.304  -5.254   8.601  1.00  0.00    -0.508 OA
ATOM     12  H   UNL     1      -3.644  -6.206   8.529  1.00  0.00     0.293 HD
ENDBRANCH   9  11
TORSDOF 1
ENDMDL
MODEL 7
REMARK VINA RESULT:    -5.290      2.459      3.686
REMARK INTER + INTRA:          -5.445
REMARK INTER:                  -5.445
REMARK INTRA:                   0.000
REMARK UNBOUND:                 0.000
REMARK SMILES Oc1ccc2[nH]ccc2c1
REMARK SMILES IDX 3 1 4 2 5 3 9 4 8 5 7 6 6 7 10 8 2 9 1 11
REMARK H PARENT 6 10 1 12
REMARK Flexibility Score: inf
ROOT
ATOM      1  C   UNL     1      -7.543  -2.124   8.499  1.00  0.00     0.048 A 
ATOM      2  C   UNL     1      -6.777  -2.504   9.618  1.00  0.00     0.030 A 
ATOM      3  C   UNL     1      -5.643  -3.282   9.395  1.00  0.00     0.046 A 
ATOM      4  C   UNL     1      -5.273  -3.672   8.135  1.00  0.00     0.003 A 
ATOM      5  C   UNL     1      -4.123  -4.420   8.257  1.00  0.00     0.028 A 
ATOM      6  C   UNL     1      -3.849  -4.447   9.620  1.00  0.00     0.083 A 
ATOM      7  N   UNL     1      -4.780  -3.750  10.312  1.00  0.00    -0.361 N 
ATOM      8  C   UNL     1      -6.008  -3.313   7.007  1.00  0.00     0.056 A 
ATOM      9  C   UNL     1      -7.163  -2.524   7.197  1.00  0.00     0.116 A 
ATOM     10  H   UNL     1      -4.817  -3.607  11.346  1.00  0.00     0.166 HD
ENDROOT
BRANCH   9  11
ATOM     11  O   UNL     1      -7.938  -2.133   6.108  1.00  0.00    -0.508 OA
ATOM     12  H   UNL     1      -8.910  -2.406   6.026  1.00  0.00     0.293 HD
ENDBRANCH   9  11
TORSDOF 1
ENDMDL
MODEL 8
REMARK VINA RESULT:    -5.197      1.205      2.040
REMARK INTER + INTRA:          -5.349
REMARK INTER:                  -5.349
REMARK INTRA:                   0.000
REMARK UNBOUND:                 0.000
REMARK SMILES Oc1ccc2[nH]ccc2c1
REMARK SMILES IDX 3 1 4 2 5 3 9 4 8 5 7 6 6 7 10 8 2 9 1 11
REMARK H PARENT 6 10 1 12
REMARK Flexibility Score: inf
ROOT
ATOM      1  C   UNL     1      -3.977  -3.202   9.087  1.00  0.00     0.048 A 
ATOM      2  C   UNL     1      -4.524  -2.190   9.899  1.00  0.00     0.030 A 
ATOM      3  C   UNL     1      -5.879  -1.899   9.750  1.00  0.00     0.046 A 
ATOM      4  C   UNL     1      -6.664  -2.567   8.848  1.00  0.00     0.003 A 
ATOM      5  C   UNL     1      -7.936  -2.049   8.947  1.00  0.00     0.028 A 
ATOM      6  C   UNL     1      -7.854  -1.068   9.930  1.00  0.00     0.083 A 
ATOM      7  N   UNL     1      -6.595  -0.980  10.417  1.00  0.00    -0.361 N 
ATOM      8  C   UNL     1      -6.154  -3.573   8.030  1.00  0.00     0.056 A 
ATOM      9  C   UNL     1      -4.785  -3.893   8.155  1.00  0.00     0.116 A 
ATOM     10  H   UNL     1      -6.254  -0.330  11.161  1.00  0.00     0.166 HD
ENDROOT
BRANCH   9  11
ATOM     11  O   UNL     1      -4.218  -4.890   7.365  1.00  0.00    -0.508 OA
ATOM     12  H   UNL     1      -3.428  -4.700   6.759  1.00  0.00     0.293 HD
ENDBRANCH   9  11
TORSDOF 1
ENDMDL
MODEL 9
REMARK VINA RESULT:    -5.153      3.112      4.377
REMARK INTER + INTRA:          -5.304
REMARK INTER:                  -5.304
REMARK INTRA:                   0.000
REMARK UNBOUND:                 0.000
REMARK SMILES Oc1ccc2[nH]ccc2c1
REMARK SMILES IDX 3 1 4 2 5 3 9 4 8 5 7 6 6 7 10 8 2 9 1 11
REMARK H PARENT 6 10 1 12
REMARK Flexibility Score: inf
ROOT
ATOM      1  C   UNL     1      -8.751  -0.247   7.864  1.00  0.00     0.048 A 
ATOM      2  C   UNL     1      -8.095  -0.930   6.822  1.00  0.00     0.030 A 
ATOM      3  C   UNL     1      -7.341  -2.053   7.155  1.00  0.00     0.046 A 
ATOM      4  C   UNL     1      -7.232  -2.489   8.449  1.00  0.00     0.003 A 
ATOM      5  C   UNL     1      -6.427  -3.607   8.439  1.00  0.00     0.028 A 
ATOM      6  C   UNL     1      -6.080  -3.795   7.105  1.00  0.00     0.083 A 
ATOM      7  N   UNL     1      -6.641  -2.843   6.325  1.00  0.00    -0.361 N 
ATOM      8  C   UNL     1      -7.868  -1.837   9.503  1.00  0.00     0.056 A 
ATOM      9  C   UNL     1      -8.641  -0.696   9.200  1.00  0.00     0.116 A 
ATOM     10  H   UNL     1      -6.547  -2.745   5.289  1.00  0.00     0.166 HD
ENDROOT
BRANCH   9  11
ATOM     11  O   UNL     1      -9.301  -0.002  10.212  1.00  0.00    -0.508 OA
ATOM     12  H   UNL     1     -10.259  -0.217  10.462  1.00  0.00     0.293 HD
ENDBRANCH   9  11
TORSDOF 1
ENDMDL
