MODEL 1
REMARK VINA RESULT:    -3.266      0.000      0.000
REMARK INTER + INTRA:          -4.228
REMARK INTER:                  -4.029
REMARK INTRA:                  -0.199
REMARK UNBOUND:                -0.199
REMARK SMILES CCCCCC(=O)[O-]
REMARK SMILES IDX 4 1 5 2 6 3 7 4 8 5 3 6 2 7 1 8
REMARK H PARENT
REMARK Flexibility Score: inf
ROOT
ATOM      1  C   UNL     1       3.909   0.126  -3.877  1.00  0.00     0.006 C 
ENDROOT
BRANCH   1   2
ATOM      2  C   UNL     1       2.486   0.482  -4.338  1.00  0.00     0.053 C 
BRANCH   2   3
ATOM      3  C   UNL     1       2.492   1.411  -5.512  1.00  0.00     0.041 C 
ATOM      4  O   UNL     1       2.842   2.611  -5.368  1.00  0.00    -0.550 OA
ATOM      5  O   UNL     1       2.143   0.941  -6.773  1.00  0.00    -0.550 OA
ENDBRANCH   2   3
ENDBRANCH   1   2
BRANCH   1   6
ATOM      6  C   UNL     1       4.410  -1.244  -4.369  1.00  0.00     0.000 C 
BRANCH   6   7
ATOM      7  C   UNL     1       3.270  -2.162  -4.831  1.00  0.00    -0.003 C 
ATOM      8  C   UNL     1       3.339  -2.407  -6.336  1.00  0.00     0.004 C 
ENDBRANCH   6   7
ENDBRANCH   1   6
TORSDOF 4
ENDMDL
MODEL 2
REMARK VINA RESULT:    -3.266      0.177      1.138
REMARK INTER + INTRA:          -4.228
REMARK INTER:                  -4.027
REMARK INTRA:                  -0.200
REMARK UNBOUND:                -0.199
REMARK SMILES CCCCCC(=O)[O-]
REMARK SMILES IDX 4 1 5 2 6 3 7 4 8 5 3 6 2 7 1 8
REMARK H PARENT
REMARK Flexibility Score: inf
ROOT
ATOM      1  C   UNL     1       3.968   0.121  -3.909  1.00  0.00     0.006 C 
ENDROOT
BRANCH   1   2
ATOM      2  C   UNL     1       2.534   0.472  -4.339  1.00  0.00     0.053 C 
BRANCH   2   3
ATOM      3  C   UNL     1       2.510   1.348  -5.553  1.00  0.00     0.041 C 
ATOM      4  O   UNL     1       2.425   0.838  -6.701  1.00  0.00    -0.550 OA
ATOM      5  O   UNL     1       2.548   2.730  -5.415  1.00  0.00    -0.550 OA
ENDBRANCH   2   3
ENDBRANCH   1   2
BRANCH   1   6
ATOM      6  C   UNL     1       4.402  -1.312  -4.265  1.00  0.00     0.000 C 
BRANCH   6   7
ATOM      7  C   UNL     1       3.252  -2.159  -4.829  1.00  0.00    -0.003 C 
ATOM      8  C   UNL     1       3.476  -2.475  -6.305  1.00  0.00     0.004 C 
ENDBRANCH   6   7
ENDBRANCH   1   6
TORSDOF 4
ENDMDL
MODEL 3
REMARK VINA RESULT:    -3.162      1.062      1.854
REMARK INTER + INTRA:          -4.099
REMARK INTER:                  -4.017
REMARK INTRA:                  -0.082
REMARK UNBOUND:                -0.199
REMARK SMILES CCCCCC(=O)[O-]
REMARK SMILES IDX 4 1 5 2 6 3 7 4 8 5 3 6 2 7 1 8
REMARK H PARENT
REMARK Flexibility Score: inf
ROOT
ATOM      1  C   UNL     1       2.855   0.141  -4.161  1.00  0.00     0.006 C 
ENDROOT
BRANCH   1   2
ATOM      2  C   UNL     1       3.445   1.245  -5.053  1.00  0.00     0.053 C 
BRANCH   2   3
ATOM      3  C   UNL     1       2.391   1.938  -5.861  1.00  0.00     0.041 C 
ATOM      4  O   UNL     1       1.770   1.313  -6.760  1.00  0.00    -0.550 OA
ATOM      5  O   UNL     1       2.071   3.264  -5.596  1.00  0.00    -0.550 OA
ENDBRANCH   2   3
ENDBRANCH   1   2
BRANCH   1   6
ATOM      6  C   UNL     1       3.294  -1.285  -4.543  1.00  0.00     0.000 C 
BRANCH   6   7
ATOM      7  C   UNL     1       4.630  -1.686  -3.903  1.00  0.00    -0.003 C 
ATOM      8  C   UNL     1       4.898  -3.178  -4.081  1.00  0.00     0.004 C 
ENDBRANCH   6   7
ENDBRANCH   1   6
TORSDOF 4
ENDMDL
MODEL 4
REMARK VINA RESULT:    -3.108     15.423     16.038
REMARK INTER + INTRA:          -4.033
REMARK INTER:                  -3.851
REMARK INTRA:                  -0.182
REMARK UNBOUND:                -0.199
REMARK SMILES CCCCCC(=O)[O-]
REMARK SMILES IDX 4 1 5 2 6 3 7 4 8 5 3 6 2 7 1 8
REMARK H PARENT
REMARK Flexibility Score: inf
ROOT
ATOM      1  C   UNL     1      -5.535 -12.243  -6.376  1.00  0.00     0.006 C 
ENDROOT
BRANCH   1   2
ATOM      2  C   UNL     1      -6.122 -12.633  -7.743  1.00  0.00     0.053 C 
BRANCH   2   3
ATOM      3  C   UNL     1      -7.518 -12.121  -7.921  1.00  0.00     0.041 C 
ATOM      4  O   UNL     1      -8.343 -12.188  -6.973  1.00  0.00    -0.550 OA
ATOM      5  O   UNL     1      -7.896 -11.539  -9.125  1.00  0.00    -0.550 OA
ENDBRANCH   2   3
ENDBRANCH   1   2
BRANCH   1   6
ATOM      6  C   UNL     1      -4.861 -13.404  -5.622  1.00  0.00     0.000 C 
BRANCH   6   7
ATOM      7  C   UNL     1      -5.526 -13.699  -4.270  1.00  0.00    -0.003 C 
ATOM      8  C   UNL     1      -6.533 -12.612  -3.905  1.00  0.00     0.004 C 
ENDBRANCH   6   7
ENDBRANCH   1   6
TORSDOF 4
ENDMDL
MODEL 5
REMARK VINA RESULT:    -3.072      2.276      3.562
REMARK INTER + INTRA:          -3.989
REMARK INTER:                  -3.834
REMARK INTRA:                  -0.154
REMARK UNBOUND:                -0.199
REMARK SMILES CCCCCC(=O)[O-]
REMARK SMILES IDX 4 1 5 2 6 3 7 4 8 5 3 6 2 7 1 8
REMARK H PARENT
REMARK Flexibility Score: inf
ROOT
ATOM      1  C   UNL     1       4.430  -1.350  -4.261  1.00  0.00     0.006 C 
ENDROOT
BRANCH   1   2
ATOM      2  C   UNL     1       3.283  -2.224  -4.795  1.00  0.00     0.053 C 
BRANCH   2   3
ATOM      3  C   UNL     1       3.424  -2.503  -6.260  1.00  0.00     0.041 C 
ATOM      4  O   UNL     1       2.408  -2.524  -7.001  1.00  0.00    -0.550 OA
ATOM      5  O   UNL     1       4.684  -2.704  -6.811  1.00  0.00    -0.550 OA
ENDBRANCH   2   3
ENDBRANCH   1   2
BRANCH   1   6
ATOM      6  C   UNL     1       4.011   0.083  -3.883  1.00  0.00     0.000 C 
BRANCH   6   7
ATOM      7  C   UNL     1       2.553   0.393  -4.254  1.00  0.00    -0.003 C 
ATOM      8  C   UNL     1       2.480   1.333  -5.453  1.00  0.00     0.004 C 
ENDBRANCH   6   7
ENDBRANCH   1   6
TORSDOF 4
ENDMDL
MODEL 6
REMARK VINA RESULT:    -3.042     15.148     15.717
REMARK INTER + INTRA:          -3.952
REMARK INTER:                  -3.723
REMARK INTRA:                  -0.228
REMARK UNBOUND:                -0.199
REMARK SMILES CCCCCC(=O)[O-]
REMARK SMILES IDX 4 1 5 2 6 3 7 4 8 5 3 6 2 7 1 8
REMARK H PARENT
REMARK Flexibility Score: inf
ROOT
ATOM      1  C   UNL     1      -4.373 -13.314  -6.007  1.00  0.00     0.006 C 
ENDROOT
BRANCH   1   2
ATOM      2  C   UNL     1      -5.362 -13.547  -4.853  1.00  0.00     0.053 C 
BRANCH   2   3
ATOM      3  C   UNL     1      -6.174 -12.324  -4.554  1.00  0.00     0.041 C 
ATOM      4  O   UNL     1      -6.877 -12.270  -3.511  1.00  0.00    -0.550 OA
ATOM      5  O   UNL     1      -6.127 -11.232  -5.412  1.00  0.00    -0.550 OA
ENDBRANCH   2   3
ENDBRANCH   1   2
BRANCH   1   6
ATOM      6  C   UNL     1      -4.792 -13.961  -7.340  1.00  0.00     0.000 C 
BRANCH   6   7
ATOM      7  C   UNL     1      -5.047 -12.928  -8.447  1.00  0.00    -0.003 C 
ATOM      8  C   UNL     1      -6.540 -12.664  -8.617  1.00  0.00     0.004 C 
ENDBRANCH   6   7
ENDBRANCH   1   6
TORSDOF 4
ENDMDL
MODEL 7
REMARK VINA RESULT:    -3.004     20.458     21.002
REMARK INTER + INTRA:          -3.905
REMARK INTER:                  -3.862
REMARK INTRA:                  -0.043
REMARK UNBOUND:                -0.199
REMARK SMILES CCCCCC(=O)[O-]
REMARK SMILES IDX 4 1 5 2 6 3 7 4 8 5 3 6 2 7 1 8
REMARK H PARENT
REMARK Flexibility Score: inf
ROOT
ATOM      1  C   UNL     1     -12.815 -11.862   2.932  1.00  0.00     0.006 C 
ENDROOT
BRANCH   1   2
ATOM      2  C   UNL     1     -12.886 -10.773   4.014  1.00  0.00     0.053 C 
BRANCH   2   3
ATOM      3  C   UNL     1     -11.612 -10.672   4.795  1.00  0.00     0.041 C 
ATOM      4  O   UNL     1     -10.904  -9.634   4.720  1.00  0.00    -0.550 OA
ATOM      5  O   UNL     1     -11.225 -11.713   5.631  1.00  0.00    -0.550 OA
ENDBRANCH   2   3
ENDBRANCH   1   2
BRANCH   1   6
ATOM      6  C   UNL     1     -13.522 -11.493   1.615  1.00  0.00     0.000 C 
BRANCH   6   7
ATOM      7  C   UNL     1     -12.793 -12.035   0.377  1.00  0.00    -0.003 C 
ATOM      8  C   UNL     1     -13.484 -11.586  -0.907  1.00  0.00     0.004 C 
ENDBRANCH   6   7
ENDBRANCH   1   6
TORSDOF 4
ENDMDL
MODEL 8
REMARK VINA RESULT:    -2.983      1.671      3.315
REMARK INTER + INTRA:          -3.879
REMARK INTER:                  -3.638
REMARK INTRA:                  -0.241
REMARK UNBOUND:                -0.199
REMARK SMILES CCCCCC(=O)[O-]
REMARK SMILES IDX 4 1 5 2 6 3 7 4 8 5 3 6 2 7 1 8
REMARK H PARENT
REMARK Flexibility Score: inf
ROOT
ATOM      1  C   UNL     1       3.700  -2.463  -6.235  1.00  0.00     0.006 C 
ENDROOT
BRANCH   1   2
ATOM      2  C   UNL     1       2.531  -2.491  -7.233  1.00  0.00     0.053 C 
BRANCH   2   3
ATOM      3  C   UNL     1       2.356  -1.177  -7.930  1.00  0.00     0.041 C 
ATOM      4  O   UNL     1       1.342  -0.969  -8.646  1.00  0.00    -0.550 OA
ATOM      5  O   UNL     1       3.299  -0.170  -7.761  1.00  0.00    -0.550 OA
ENDBRANCH   2   3
ENDBRANCH   1   2
BRANCH   1   6
ATOM      6  C   UNL     1       3.282  -2.187  -4.779  1.00  0.00     0.000 C 
BRANCH   6   7
ATOM      7  C   UNL     1       3.862  -0.873  -4.234  1.00  0.00    -0.003 C 
ATOM      8  C   UNL     1       2.803   0.225  -4.208  1.00  0.00     0.004 C 
ENDBRANCH   6   7
ENDBRANCH   1   6
TORSDOF 4
ENDMDL
MODEL 9
REMARK VINA RESULT:    -2.954     20.890     21.403
REMARK INTER + INTRA:          -3.844
REMARK INTER:                  -3.691
REMARK INTRA:                  -0.153
REMARK UNBOUND:                -0.199
REMARK SMILES CCCCCC(=O)[O-]
REMARK SMILES IDX 4 1 5 2 6 3 7 4 8 5 3 6 2 7 1 8
REMARK H PARENT
REMARK Flexibility Score: inf
ROOT
ATOM      1  C   UNL     1     -13.622 -10.351   4.401  1.00  0.00     0.006 C 
ENDROOT
BRANCH   1   2
ATOM      2  C   UNL     1     -12.107 -10.088   4.413  1.00  0.00     0.053 C 
BRANCH   2   3
ATOM      3  C   UNL     1     -11.418 -10.824   5.520  1.00  0.00     0.041 C 
ATOM      4  O   UNL     1     -11.432 -10.363   6.692  1.00  0.00    -0.550 OA
ATOM      5  O   UNL     1     -10.789 -12.036   5.263  1.00  0.00    -0.550 OA
ENDBRANCH   2   3
ENDBRANCH   1   2
BRANCH   1   6
ATOM      6  C   UNL     1     -14.141 -10.999   3.104  1.00  0.00     0.000 C 
BRANCH   6   7
ATOM      7  C   UNL     1     -13.050 -11.769   2.347  1.00  0.00    -0.003 C 
ATOM      8  C   UNL     1     -13.206 -11.599   0.838  1.00  0.00     0.004 C 
ENDBRANCH   6   7
ENDBRANCH   1   6
TORSDOF 4
ENDMDL
