MODEL 1
REMARK VINA RESULT:    -6.972      0.000      0.000
REMARK INTER + INTRA:          -8.406
REMARK INTER:                  -8.195
REMARK INTRA:                  -0.211
REMARK UNBOUND:                -0.211
REMARK SMILES O=c1c(O)c(-c2ccc(O)c(O)c2)oc2cc(O)ccc12
REMARK SMILES IDX 5 1 3 2 2 3 1 4 21 5 15 6 14 7 16 8 17 9 19 10 20 11 6 12
REMARK SMILES IDX 7 13 8 14 9 15 13 16 11 17 10 18 12 20 4 22 18 24
REMARK H PARENT 10 19 12 21 4 23 18 25
REMARK Flexibility Score: inf
ROOT
ATOM      1  C   UNL     1     140.401 -18.233  78.708  1.00  0.00     0.180 A 
ATOM      2  C   UNL     1     139.046 -18.151  78.323  1.00  0.00     0.208 A 
ATOM      3  C   UNL     1     138.292 -17.040  78.733  1.00  0.00     0.235 A 
ATOM      4  O   UNL     1     137.081 -16.939  78.393  1.00  0.00    -0.285 OA
ATOM      5  C   UNL     1     138.896 -16.052  79.527  1.00  0.00     0.069 A 
ATOM      6  C   UNL     1     140.249 -16.219  79.890  1.00  0.00     0.142 A 
ATOM      7  O   UNL     1     140.930 -17.281  79.474  1.00  0.00    -0.452 OA
ATOM      8  C   UNL     1     140.882 -15.262  80.690  1.00  0.00     0.094 A 
ATOM      9  C   UNL     1     140.178 -14.134  81.131  1.00  0.00     0.119 A 
ATOM     10  C   UNL     1     138.837 -13.965  80.773  1.00  0.00     0.047 A 
ATOM     11  C   UNL     1     138.195 -14.917  79.975  1.00  0.00     0.020 A 
ENDROOT
BRANCH   1  12
ATOM     12  C   UNL     1     141.266 -19.362  78.301  1.00  0.00     0.025 A 
ATOM     13  C   UNL     1     141.078 -20.655  78.822  1.00  0.00     0.016 A 
ATOM     14  C   UNL     1     141.892 -21.711  78.404  1.00  0.00     0.051 A 
ATOM     15  C   UNL     1     142.896 -21.497  77.455  1.00  0.00     0.157 A 
ATOM     16  C   UNL     1     142.262 -19.156  77.331  1.00  0.00     0.062 A 
ATOM     17  C   UNL     1     143.080 -20.214  76.911  1.00  0.00     0.158 A 
BRANCH  15  18
ATOM     18  O   UNL     1     143.694 -22.570  77.059  1.00  0.00    -0.504 OA
ATOM     19  H   UNL     1     144.475 -22.454  76.425  1.00  0.00     0.293 HD
ENDBRANCH  15  18
BRANCH  17  20
ATOM     20  O   UNL     1     144.074 -19.996  75.959  1.00  0.00    -0.504 OA
ATOM     21  H   UNL     1     144.945 -20.513  75.973  1.00  0.00     0.293 HD
ENDBRANCH  17  20
ENDBRANCH   1  12
BRANCH   2  22
ATOM     22  O   UNL     1     138.460 -19.173  77.574  1.00  0.00    -0.502 OA
ATOM     23  H   UNL     1     137.487 -19.433  77.678  1.00  0.00     0.293 HD
ENDBRANCH   2  22
BRANCH   9  24
ATOM     24  O   UNL     1     140.802 -13.175  81.927  1.00  0.00    -0.508 OA
ATOM     25  H   UNL     1     140.495 -12.209  81.931  1.00  0.00     0.293 HD
ENDBRANCH   9  24
TORSDOF 5
ENDMDL
MODEL 2
REMARK VINA RESULT:    -6.030      4.769      9.942
REMARK INTER + INTRA:          -7.298
REMARK INTER:                  -7.774
REMARK INTRA:                   0.476
REMARK UNBOUND:                -0.211
REMARK SMILES O=c1c(O)c(-c2ccc(O)c(O)c2)oc2cc(O)ccc12
REMARK SMILES IDX 5 1 3 2 2 3 1 4 21 5 15 6 14 7 16 8 17 9 19 10 20 11 6 12
REMARK SMILES IDX 7 13 8 14 9 15 13 16 11 17 10 18 12 20 4 22 18 24
REMARK H PARENT 10 19 12 21 4 23 18 25
REMARK Flexibility Score: inf
ROOT
ATOM      1  C   UNL     1     145.995 -22.206  76.668  1.00  0.00     0.180 A 
ATOM      2  C   UNL     1     146.873 -21.452  75.862  1.00  0.00     0.208 A 
ATOM      3  C   UNL     1     148.149 -21.967  75.585  1.00  0.00     0.235 A 
ATOM      4  O   UNL     1     148.948 -21.315  74.858  1.00  0.00    -0.285 OA
ATOM      5  C   UNL     1     148.526 -23.204  76.130  1.00  0.00     0.069 A 
ATOM      6  C   UNL     1     147.600 -23.887  76.947  1.00  0.00     0.142 A 
ATOM      7  O   UNL     1     146.398 -23.369  77.177  1.00  0.00    -0.452 OA
ATOM      8  C   UNL     1     147.943 -25.118  77.517  1.00  0.00     0.094 A 
ATOM      9  C   UNL     1     149.205 -25.678  77.278  1.00  0.00     0.119 A 
ATOM     10  C   UNL     1     150.125 -25.005  76.468  1.00  0.00     0.047 A 
ATOM     11  C   UNL     1     149.792 -23.774  75.895  1.00  0.00     0.020 A 
ENDROOT
BRANCH   1  12
ATOM     12  C   UNL     1     144.628 -21.741  76.990  1.00  0.00     0.025 A 
ATOM     13  C   UNL     1     143.899 -22.292  78.058  1.00  0.00     0.016 A 
ATOM     14  C   UNL     1     142.618 -21.820  78.359  1.00  0.00     0.051 A 
ATOM     15  C   UNL     1     142.052 -20.786  77.608  1.00  0.00     0.157 A 
ATOM     16  C   UNL     1     144.064 -20.687  76.252  1.00  0.00     0.062 A 
ATOM     17  C   UNL     1     142.779 -20.212  76.551  1.00  0.00     0.158 A 
BRANCH  15  18
ATOM     18  O   UNL     1     140.772 -20.336  77.930  1.00  0.00    -0.504 OA
ATOM     19  H   UNL     1     140.053 -20.960  78.275  1.00  0.00     0.293 HD
ENDBRANCH  15  18
BRANCH  17  20
ATOM     20  O   UNL     1     142.223 -19.175  75.803  1.00  0.00    -0.504 OA
ATOM     21  H   UNL     1     141.935 -19.311  74.841  1.00  0.00     0.293 HD
ENDBRANCH  17  20
ENDBRANCH   1  12
BRANCH   2  22
ATOM     22  O   UNL     1     146.487 -20.201  75.374  1.00  0.00    -0.502 OA
ATOM     23  H   UNL     1     146.999 -19.354  75.589  1.00  0.00     0.293 HD
ENDBRANCH   2  22
BRANCH   9  24
ATOM     24  O   UNL     1     149.554 -26.904  77.841  1.00  0.00    -0.508 OA
ATOM     25  H   UNL     1     150.289 -26.978  78.535  1.00  0.00     0.293 HD
ENDBRANCH   9  24
TORSDOF 5
ENDMDL
MODEL 3
REMARK VINA RESULT:    -4.940      1.231      6.594
REMARK INTER + INTRA:          -6.017
REMARK INTER:                  -6.522
REMARK INTRA:                   0.505
REMARK UNBOUND:                -0.211
REMARK SMILES O=c1c(O)c(-c2ccc(O)c(O)c2)oc2cc(O)ccc12
REMARK SMILES IDX 5 1 3 2 2 3 1 4 21 5 15 6 14 7 16 8 17 9 19 10 20 11 6 12
REMARK SMILES IDX 7 13 8 14 9 15 13 16 11 17 10 18 12 20 4 22 18 24
REMARK H PARENT 10 19 12 21 4 23 18 25
REMARK Flexibility Score: inf
ROOT
ATOM      1  C   UNL     1     140.549 -17.536  78.952  1.00  0.00     0.180 A 
ATOM      2  C   UNL     1     139.314 -18.156  78.666  1.00  0.00     0.208 A 
ATOM      3  C   UNL     1     139.311 -19.349  77.926  1.00  0.00     0.235 A 
ATOM      4  O   UNL     1     138.220 -19.927  77.667  1.00  0.00    -0.285 OA
ATOM      5  C   UNL     1     140.528 -19.883  77.474  1.00  0.00     0.069 A 
ATOM      6  C   UNL     1     141.719 -19.190  77.780  1.00  0.00     0.142 A 
ATOM      7  O   UNL     1     141.679 -18.069  78.491  1.00  0.00    -0.452 OA
ATOM      8  C   UNL     1     142.950 -19.685  77.338  1.00  0.00     0.094 A 
ATOM      9  C   UNL     1     143.007 -20.870  76.592  1.00  0.00     0.119 A 
ATOM     10  C   UNL     1     141.828 -21.559  76.287  1.00  0.00     0.047 A 
ATOM     11  C   UNL     1     140.593 -21.072  76.724  1.00  0.00     0.020 A 
ENDROOT
BRANCH   1  12
ATOM     12  C   UNL     1     140.637 -16.287  79.742  1.00  0.00     0.025 A 
ATOM     13  C   UNL     1     141.871 -15.806  80.215  1.00  0.00     0.016 A 
ATOM     14  C   UNL     1     141.933 -14.612  80.938  1.00  0.00     0.051 A 
ATOM     15  C   UNL     1     140.771 -13.876  81.189  1.00  0.00     0.157 A 
ATOM     16  C   UNL     1     139.475 -15.534  79.978  1.00  0.00     0.062 A 
ATOM     17  C   UNL     1     139.535 -14.336  80.703  1.00  0.00     0.158 A 
BRANCH  15  18
ATOM     18  O   UNL     1     140.864 -12.689  81.915  1.00  0.00    -0.504 OA
ATOM     19  H   UNL     1     141.601 -12.015  81.752  1.00  0.00     0.293 HD
ENDBRANCH  15  18
BRANCH  17  20
ATOM     20  O   UNL     1     138.374 -13.603  80.944  1.00  0.00    -0.504 OA
ATOM     21  H   UNL     1     137.875 -13.140  80.194  1.00  0.00     0.293 HD
ENDBRANCH  17  20
ENDBRANCH   1  12
BRANCH   2  22
ATOM     22  O   UNL     1     138.116 -17.574  79.088  1.00  0.00    -0.502 OA
ATOM     23  H   UNL     1     137.444 -17.186  78.438  1.00  0.00     0.293 HD
ENDBRANCH   2  22
BRANCH   9  24
ATOM     24  O   UNL     1     144.229 -21.371  76.148  1.00  0.00    -0.508 OA
ATOM     25  H   UNL     1     145.107 -20.960  76.441  1.00  0.00     0.293 HD
ENDBRANCH   9  24
TORSDOF 5
ENDMDL
MODEL 4
REMARK VINA RESULT:    -4.644      4.661      9.668
REMARK INTER + INTRA:          -5.669
REMARK INTER:                  -6.069
REMARK INTRA:                   0.400
REMARK UNBOUND:                -0.211
REMARK SMILES O=c1c(O)c(-c2ccc(O)c(O)c2)oc2cc(O)ccc12
REMARK SMILES IDX 5 1 3 2 2 3 1 4 21 5 15 6 14 7 16 8 17 9 19 10 20 11 6 12
REMARK SMILES IDX 7 13 8 14 9 15 13 16 11 17 10 18 12 20 4 22 18 24
REMARK H PARENT 10 19 12 21 4 23 18 25
REMARK Flexibility Score: inf
ROOT
ATOM      1  C   UNL     1     145.816 -22.084  76.658  1.00  0.00     0.180 A 
ATOM      2  C   UNL     1     146.575 -22.855  77.563  1.00  0.00     0.208 A 
ATOM      3  C   UNL     1     147.875 -23.241  77.201  1.00  0.00     0.235 A 
ATOM      4  O   UNL     1     148.576 -23.922  77.998  1.00  0.00    -0.285 OA
ATOM      5  C   UNL     1     148.379 -22.869  75.945  1.00  0.00     0.069 A 
ATOM      6  C   UNL     1     147.549 -22.117  75.085  1.00  0.00     0.142 A 
ATOM      7  O   UNL     1     146.328 -21.764  75.471  1.00  0.00    -0.452 OA
ATOM      8  C   UNL     1     148.012 -21.737  73.821  1.00  0.00     0.094 A 
ATOM      9  C   UNL     1     149.300 -22.097  73.404  1.00  0.00     0.119 A 
ATOM     10  C   UNL     1     150.125 -22.841  74.254  1.00  0.00     0.047 A 
ATOM     11  C   UNL     1     149.671 -23.228  75.518  1.00  0.00     0.020 A 
ENDROOT
BRANCH   1  12
ATOM     12  C   UNL     1     144.446 -21.622  76.974  1.00  0.00     0.025 A 
ATOM     13  C   UNL     1     143.689 -22.221  77.997  1.00  0.00     0.016 A 
ATOM     14  C   UNL     1     142.406 -21.752  78.294  1.00  0.00     0.051 A 
ATOM     15  C   UNL     1     141.866 -20.675  77.585  1.00  0.00     0.157 A 
ATOM     16  C   UNL     1     143.908 -20.527  76.279  1.00  0.00     0.062 A 
ATOM     17  C   UNL     1     142.621 -20.055  76.574  1.00  0.00     0.158 A 
BRANCH  15  18
ATOM     18  O   UNL     1     140.582 -20.230  77.902  1.00  0.00    -0.504 OA
ATOM     19  H   UNL     1     140.173 -20.376  78.816  1.00  0.00     0.293 HD
ENDBRANCH  15  18
BRANCH  17  20
ATOM     20  O   UNL     1     142.090 -18.977  75.869  1.00  0.00    -0.504 OA
ATOM     21  H   UNL     1     142.637 -18.143  75.685  1.00  0.00     0.293 HD
ENDBRANCH  17  20
ENDBRANCH   1  12
BRANCH   2  22
ATOM     22  O   UNL     1     146.028 -23.251  78.786  1.00  0.00    -0.502 OA
ATOM     23  H   UNL     1     145.057 -23.523  78.883  1.00  0.00     0.293 HD
ENDBRANCH   2  22
BRANCH   9  24
ATOM     24  O   UNL     1     149.770 -21.721  72.147  1.00  0.00    -0.508 OA
ATOM     25  H   UNL     1     149.873 -22.395  71.397  1.00  0.00     0.293 HD
ENDBRANCH   9  24
TORSDOF 5
ENDMDL
MODEL 5
REMARK VINA RESULT:    -4.560      2.464      5.937
REMARK INTER + INTRA:          -5.571
REMARK INTER:                  -5.925
REMARK INTRA:                   0.355
REMARK UNBOUND:                -0.211
REMARK SMILES O=c1c(O)c(-c2ccc(O)c(O)c2)oc2cc(O)ccc12
REMARK SMILES IDX 5 1 3 2 2 3 1 4 21 5 15 6 14 7 16 8 17 9 19 10 20 11 6 12
REMARK SMILES IDX 7 13 8 14 9 15 13 16 11 17 10 18 12 20 4 22 18 24
REMARK H PARENT 10 19 12 21 4 23 18 25
REMARK Flexibility Score: inf
ROOT
ATOM      1  C   UNL     1     139.201 -17.469  78.887  1.00  0.00     0.180 A 
ATOM      2  C   UNL     1     139.711 -18.743  78.563  1.00  0.00     0.208 A 
ATOM      3  C   UNL     1     138.879 -19.657  77.898  1.00  0.00     0.235 A 
ATOM      4  O   UNL     1     139.316 -20.799  77.588  1.00  0.00    -0.285 OA
ATOM      5  C   UNL     1     137.559 -19.290  77.591  1.00  0.00     0.069 A 
ATOM      6  C   UNL     1     137.115 -18.005  77.970  1.00  0.00     0.142 A 
ATOM      7  O   UNL     1     137.938 -17.166  78.590  1.00  0.00    -0.452 OA
ATOM      8  C   UNL     1     135.804 -17.607  77.691  1.00  0.00     0.094 A 
ATOM      9  C   UNL     1     134.927 -18.480  77.032  1.00  0.00     0.119 A 
ATOM     10  C   UNL     1     135.364 -19.753  76.655  1.00  0.00     0.047 A 
ATOM     11  C   UNL     1     136.672 -20.161  76.930  1.00  0.00     0.020 A 
ENDROOT
BRANCH   1  12
ATOM     12  C   UNL     1     140.021 -16.443  79.570  1.00  0.00     0.025 A 
ATOM     13  C   UNL     1     139.437 -15.480  80.412  1.00  0.00     0.016 A 
ATOM     14  C   UNL     1     140.234 -14.537  81.067  1.00  0.00     0.051 A 
ATOM     15  C   UNL     1     141.622 -14.548  80.900  1.00  0.00     0.157 A 
ATOM     16  C   UNL     1     141.417 -16.464  79.423  1.00  0.00     0.062 A 
ATOM     17  C   UNL     1     142.219 -15.518  80.078  1.00  0.00     0.158 A 
BRANCH  15  18
ATOM     18  O   UNL     1     142.392 -13.593  81.564  1.00  0.00    -0.504 OA
ATOM     19  H   UNL     1     143.403 -13.632  81.578  1.00  0.00     0.293 HD
ENDBRANCH  15  18
BRANCH  17  20
ATOM     20  O   UNL     1     143.603 -15.539  79.914  1.00  0.00    -0.504 OA
ATOM     21  H   UNL     1     144.221 -15.837  80.659  1.00  0.00     0.293 HD
ENDBRANCH  17  20
ENDBRANCH   1  12
BRANCH   2  22
ATOM     22  O   UNL     1     141.013 -19.096  78.925  1.00  0.00    -0.502 OA
ATOM     23  H   UNL     1     141.570 -19.744  78.381  1.00  0.00     0.293 HD
ENDBRANCH   2  22
BRANCH   9  24
ATOM     24  O   UNL     1     133.619 -18.091  76.749  1.00  0.00    -0.508 OA
ATOM     25  H   UNL     1     133.317 -17.898  75.801  1.00  0.00     0.293 HD
ENDBRANCH   9  24
TORSDOF 5
ENDMDL
MODEL 6
REMARK VINA RESULT:    -4.155      4.946      8.356
REMARK INTER + INTRA:          -5.095
REMARK INTER:                  -5.267
REMARK INTRA:                   0.173
REMARK UNBOUND:                -0.211
REMARK SMILES O=c1c(O)c(-c2ccc(O)c(O)c2)oc2cc(O)ccc12
REMARK SMILES IDX 5 1 3 2 2 3 1 4 21 5 15 6 14 7 16 8 17 9 19 10 20 11 6 12
REMARK SMILES IDX 7 13 8 14 9 15 13 16 11 17 10 18 12 20 4 22 18 24
REMARK H PARENT 10 19 12 21 4 23 18 25
REMARK Flexibility Score: inf
ROOT
ATOM      1  C   UNL     1     146.468 -22.013  75.950  1.00  0.00     0.180 A 
ATOM      2  C   UNL     1     146.811 -22.631  77.170  1.00  0.00     0.208 A 
ATOM      3  C   UNL     1     145.846 -22.705  78.187  1.00  0.00     0.235 A 
ATOM      4  O   UNL     1     146.127 -23.262  79.284  1.00  0.00    -0.285 OA
ATOM      5  C   UNL     1     144.576 -22.147  77.974  1.00  0.00     0.069 A 
ATOM      6  C   UNL     1     144.317 -21.524  76.734  1.00  0.00     0.142 A 
ATOM      7  O   UNL     1     145.255 -21.484  75.794  1.00  0.00    -0.452 OA
ATOM      8  C   UNL     1     143.067 -20.948  76.488  1.00  0.00     0.094 A 
ATOM      9  C   UNL     1     142.066 -20.988  77.468  1.00  0.00     0.119 A 
ATOM     10  C   UNL     1     142.319 -21.605  78.697  1.00  0.00     0.047 A 
ATOM     11  C   UNL     1     143.566 -22.183  78.953  1.00  0.00     0.020 A 
ENDROOT
BRANCH   1  12
ATOM     12  C   UNL     1     147.422 -21.912  74.823  1.00  0.00     0.025 A 
ATOM     13  C   UNL     1     148.788 -21.658  75.041  1.00  0.00     0.016 A 
ATOM     14  C   UNL     1     149.675 -21.592  73.963  1.00  0.00     0.051 A 
ATOM     15  C   UNL     1     149.217 -21.789  72.657  1.00  0.00     0.157 A 
ATOM     16  C   UNL     1     146.970 -22.131  73.512  1.00  0.00     0.062 A 
ATOM     17  C   UNL     1     147.858 -22.064  72.429  1.00  0.00     0.158 A 
BRANCH  15  18
ATOM     18  O   UNL     1     150.125 -21.715  71.601  1.00  0.00    -0.504 OA
ATOM     19  H   UNL     1     151.057 -21.337  71.719  1.00  0.00     0.293 HD
ENDBRANCH  15  18
BRANCH  17  20
ATOM     20  O   UNL     1     147.396 -22.269  71.130  1.00  0.00    -0.504 OA
ATOM     21  H   UNL     1     148.026 -22.513  70.375  1.00  0.00     0.293 HD
ENDBRANCH  17  20
ENDBRANCH   1  12
BRANCH   2  22
ATOM     22  O   UNL     1     148.099 -23.134  77.371  1.00  0.00    -0.502 OA
ATOM     23  H   UNL     1     148.773 -23.213  76.619  1.00  0.00     0.293 HD
ENDBRANCH   2  22
BRANCH   9  24
ATOM     24  O   UNL     1     140.817 -20.417  77.230  1.00  0.00    -0.508 OA
ATOM     25  H   UNL     1     140.096 -20.407  77.942  1.00  0.00     0.293 HD
ENDBRANCH   9  24
TORSDOF 5
ENDMDL
