MODEL 1
REMARK VINA RESULT:    75.749      0.000      0.000
REMARK INTER + INTRA:         184.633
REMARK INTER:                 179.813
REMARK INTRA:                   4.820
REMARK UNBOUND:                 4.820
REMARK SMILES O=C(OC[C@H]1O[C@H](OC(=O)c2cc(O)c(O)c(O)c2)[C@H](OC(=O)c2cc(O)c(O)c(O)c2)[C@@H](OC(=O)c2cc(O)c(O)c(O)c2)[C@H]1OC(=O)c1cc(O)c(O)c(O)c1)c1cc(O)c(O)c(O)c1
REMARK SMILES IDX 5 1 46 2 33 3 20 4 7 5 6 6 4 7 3 8 2 9 1 10 59 11 60 12
REMARK SMILES IDX 61 13 67 14 63 15 65 16 62 17 64 19 66 21 47 23 48 24 49 25
REMARK SMILES IDX 50 26 58 27 51 28 56 29 52 30 54 31 57 32 53 34 55 36 34 38
REMARK SMILES IDX 35 39 36 40 37 41 45 42 38 43 43 44 39 45 41 46 44 47 40 49
REMARK SMILES IDX 42 51 8 53 9 54 10 55 11 56 19 57 12 58 17 59 13 60 15 61
REMARK SMILES IDX 18 62 14 64 16 66 21 68 22 69 23 70 24 71 32 72 25 73 30 74
REMARK SMILES IDX 26 75 28 76 31 77 27 79 29 81
REMARK H PARENT 62 18 64 20 66 22 57 33 53 35 55 37 44 48 40 50 42 52 18 63
REMARK H PARENT 14 65 16 67 31 78 27 80 29 82
REMARK Flexibility Score: inf
ROOT
ATOM      1  C   UNL     1      75.394  39.986  24.543  1.00  0.00     0.205 C 
ATOM      2  C   UNL     1      75.951  39.433  25.867  1.00  0.00     0.254 C 
ATOM      3  C   UNL     1      77.334  38.843  25.573  1.00  0.00     0.267 C 
ATOM      4  C   UNL     1      78.238  39.925  24.955  1.00  0.00     0.290 C 
ATOM      5  C   UNL     1      77.526  40.564  23.740  1.00  0.00     0.357 C 
ATOM      6  O   UNL     1      76.224  41.036  24.065  1.00  0.00    -0.329 OA
ENDROOT
BRANCH   1   7
ATOM      7  C   UNL     1      73.952  40.508  24.686  1.00  0.00     0.269 C 
BRANCH   7   8
ATOM      8  O   UNL     1      73.087  39.747  23.849  1.00  0.00    -0.459 OA
BRANCH   8   9
ATOM      9  C   UNL     1      72.406  40.313  22.762  1.00  0.00     0.338 C 
ATOM     10  O   UNL     1      73.019  41.083  21.967  1.00  0.00    -0.246 OA
BRANCH   9  11
ATOM     11  C   UNL     1      70.968  40.036  22.566  1.00  0.00     0.067 A 
ATOM     12  C   UNL     1      70.274  40.625  21.500  1.00  0.00     0.066 A 
ATOM     13  C   UNL     1      68.904  40.415  21.332  1.00  0.00     0.162 A 
ATOM     14  C   UNL     1      70.269  39.214  23.473  1.00  0.00     0.066 A 
ATOM     15  C   UNL     1      68.196  39.619  22.264  1.00  0.00     0.200 A 
ATOM     16  C   UNL     1      68.891  39.017  23.329  1.00  0.00     0.162 A 
BRANCH  13  17
ATOM     17  O   UNL     1      68.290  41.002  20.225  1.00  0.00    -0.504 OA
ATOM     18  H   UNL     1      68.701  41.749  19.692  1.00  0.00     0.293 HD
ENDBRANCH  13  17
BRANCH  15  19
ATOM     19  O   UNL     1      66.817  39.413  22.166  1.00  0.00    -0.502 OA
ATOM     20  H   UNL     1      66.241  39.749  21.410  1.00  0.00     0.293 HD
ENDBRANCH  15  19
BRANCH  16  21
ATOM     21  O   UNL     1      68.230  38.219  24.262  1.00  0.00    -0.504 OA
ATOM     22  H   UNL     1      68.092  38.515  25.221  1.00  0.00     0.293 HD
ENDBRANCH  16  21
ENDBRANCH   9  11
ENDBRANCH   8   9
ENDBRANCH   7   8
ENDBRANCH   1   7
BRANCH   2  23
ATOM     23  O   UNL     1      76.089  40.485  26.824  1.00  0.00    -0.452 OA
BRANCH  23  24
ATOM     24  C   UNL     1      76.199  40.282  28.207  1.00  0.00     0.338 C 
ATOM     25  O   UNL     1      76.820  41.116  28.914  1.00  0.00    -0.246 OA
BRANCH  24  26
ATOM     26  C   UNL     1      75.564  39.096  28.822  1.00  0.00     0.067 A 
ATOM     27  C   UNL     1      74.990  38.089  28.023  1.00  0.00     0.066 A 
ATOM     28  C   UNL     1      75.477  38.989  30.220  1.00  0.00     0.066 A 
ATOM     29  C   UNL     1      74.328  36.999  28.613  1.00  0.00     0.162 A 
ATOM     30  C   UNL     1      74.828  37.901  30.812  1.00  0.00     0.162 A 
ATOM     31  C   UNL     1      74.250  36.904  30.013  1.00  0.00     0.200 A 
BRANCH  29  32
ATOM     32  O   UNL     1      73.745  36.018  27.816  1.00  0.00    -0.504 OA
ATOM     33  H   UNL     1      73.859  35.033  28.021  1.00  0.00     0.293 HD
ENDBRANCH  29  32
BRANCH  30  34
ATOM     34  O   UNL     1      74.762  37.833  32.201  1.00  0.00    -0.504 OA
ATOM     35  H   UNL     1      73.879  37.860  32.702  1.00  0.00     0.293 HD
ENDBRANCH  30  34
BRANCH  31  36
ATOM     36  O   UNL     1      73.597  35.835  30.624  1.00  0.00    -0.502 OA
ATOM     37  H   UNL     1      73.594  35.704  31.627  1.00  0.00     0.293 HD
ENDBRANCH  31  36
ENDBRANCH  24  26
ENDBRANCH  23  24
ENDBRANCH   2  23
BRANCH   3  38
ATOM     38  O   UNL     1      77.910  38.307  26.763  1.00  0.00    -0.450 OA
BRANCH  38  39
ATOM     39  C   UNL     1      77.388  37.179  27.414  1.00  0.00     0.338 C 
ATOM     40  O   UNL     1      76.220  36.782  27.149  1.00  0.00    -0.246 OA
BRANCH  39  41
ATOM     41  C   UNL     1      78.211  36.440  28.396  1.00  0.00     0.067 A 
ATOM     42  C   UNL     1      77.606  35.800  29.491  1.00  0.00     0.066 A 
ATOM     43  C   UNL     1      79.605  36.366  28.242  1.00  0.00     0.066 A 
ATOM     44  C   UNL     1      78.379  35.101  30.422  1.00  0.00     0.162 A 
ATOM     45  C   UNL     1      80.391  35.674  29.169  1.00  0.00     0.162 A 
ATOM     46  C   UNL     1      79.775  35.040  30.280  1.00  0.00     0.200 A 
BRANCH  44  47
ATOM     47  O   UNL     1      77.758  34.461  31.496  1.00  0.00    -0.504 OA
ATOM     48  H   UNL     1      78.013  34.666  32.459  1.00  0.00     0.293 HD
ENDBRANCH  44  47
BRANCH  45  49
ATOM     49  O   UNL     1      81.768  35.644  28.952  1.00  0.00    -0.504 OA
ATOM     50  H   UNL     1      82.196  35.490  28.051  1.00  0.00     0.293 HD
ENDBRANCH  45  49
BRANCH  46  51
ATOM     51  O   UNL     1      80.500  34.351  31.256  1.00  0.00    -0.502 OA
ATOM     52  H   UNL     1      81.126  34.803  31.914  1.00  0.00     0.293 HD
ENDBRANCH  46  51
ENDBRANCH  39  41
ENDBRANCH  38  39
ENDBRANCH   3  38
BRANCH   5  53
ATOM     53  O   UNL     1      77.476  39.644  22.651  1.00  0.00    -0.428 OA
BRANCH  53  54
ATOM     54  C   UNL     1      77.069  40.001  21.360  1.00  0.00     0.340 C 
ATOM     55  O   UNL     1      77.852  40.606  20.584  1.00  0.00    -0.246 OA
BRANCH  54  56
ATOM     56  C   UNL     1      75.710  39.655  20.912  1.00  0.00     0.067 A 
ATOM     57  C   UNL     1      74.972  40.539  20.115  1.00  0.00     0.066 A 
ATOM     58  C   UNL     1      75.149  38.425  21.271  1.00  0.00     0.066 A 
ATOM     59  C   UNL     1      73.697  40.194  19.647  1.00  0.00     0.162 A 
ATOM     60  C   UNL     1      73.870  38.073  20.841  1.00  0.00     0.162 A 
ATOM     61  C   UNL     1      73.135  38.944  20.011  1.00  0.00     0.200 A 
BRANCH  59  62
ATOM     62  O   UNL     1      73.040  41.117  18.827  1.00  0.00    -0.504 OA
ATOM     63  H   UNL     1      73.433  42.009  18.549  1.00  0.00     0.293 HD
ENDBRANCH  59  62
BRANCH  60  64
ATOM     64  O   UNL     1      73.341  36.850  21.256  1.00  0.00    -0.504 OA
ATOM     65  H   UNL     1      73.591  35.976  20.805  1.00  0.00     0.293 HD
ENDBRANCH  60  64
BRANCH  61  66
ATOM     66  O   UNL     1      71.867  38.539  19.567  1.00  0.00    -0.502 OA
ATOM     67  H   UNL     1      71.711  37.927  18.778  1.00  0.00     0.293 HD
ENDBRANCH  61  66
ENDBRANCH  54  56
ENDBRANCH  53  54
ENDBRANCH   5  53
BRANCH   4  68
ATOM     68  O   UNL     1      79.459  39.346  24.500  1.00  0.00    -0.448 OA
BRANCH  68  69
ATOM     69  C   UNL     1      80.526  40.076  23.968  1.00  0.00     0.339 C 
ATOM     70  O   UNL     1      80.938  41.117  24.552  1.00  0.00    -0.246 OA
BRANCH  69  71
ATOM     71  C   UNL     1      81.159  39.628  22.710  1.00  0.00     0.067 A 
ATOM     72  C   UNL     1      81.411  38.271  22.473  1.00  0.00     0.066 A 
ATOM     73  C   UNL     1      81.511  40.565  21.725  1.00  0.00     0.066 A 
ATOM     74  C   UNL     1      81.991  37.848  21.268  1.00  0.00     0.162 A 
ATOM     75  C   UNL     1      82.087  40.154  20.519  1.00  0.00     0.162 A 
ATOM     76  C   UNL     1      82.329  38.792  20.285  1.00  0.00     0.200 A 
BRANCH  74  77
ATOM     77  O   UNL     1      82.224  36.491  21.039  1.00  0.00    -0.504 OA
ATOM     78  H   UNL     1      81.479  35.806  21.108  1.00  0.00     0.293 HD
ENDBRANCH  74  77
BRANCH  75  79
ATOM     79  O   UNL     1      82.411  41.116  19.561  1.00  0.00    -0.504 OA
ATOM     80  H   UNL     1      83.195  41.010  18.932  1.00  0.00     0.293 HD
ENDBRANCH  75  79
BRANCH  76  81
ATOM     81  O   UNL     1      82.904  38.390  19.077  1.00  0.00    -0.502 OA
ATOM     82  H   UNL     1      83.693  37.762  19.034  1.00  0.00     0.293 HD
ENDBRANCH  76  81
ENDBRANCH  69  71
ENDBRANCH  68  69
ENDBRANCH   4  68
TORSDOF 31
ENDMDL
