MODEL 1
REMARK VINA RESULT:    -3.715      0.000      0.000
REMARK INTER + INTRA:          -5.860
REMARK INTER:                  -5.235
REMARK INTRA:                  -0.626
REMARK UNBOUND:                -0.626
REMARK SMILES CCCCCCCCC(=O)[O-]
REMARK SMILES IDX 6 1 7 2 8 3 9 4 10 5 11 6 5 7 4 8 3 9 2 10 1 11
REMARK H PARENT
REMARK Flexibility Score: inf
ROOT
ATOM      1  C   UNL     1      26.583  56.745  25.197  1.00  0.00     0.000 C 
ENDROOT
BRANCH   1   2
ATOM      2  C   UNL     1      27.153  58.049  25.782  1.00  0.00     0.006 C 
BRANCH   2   3
ATOM      3  C   UNL     1      26.246  59.261  25.531  1.00  0.00     0.053 C 
BRANCH   3   4
ATOM      4  C   UNL     1      26.584  60.370  26.476  1.00  0.00     0.041 C 
ATOM      5  O   UNL     1      27.617  61.066  26.293  1.00  0.00    -0.550 OA
ATOM      6  O   UNL     1      25.731  60.670  27.531  1.00  0.00    -0.550 OA
ENDBRANCH   3   4
ENDBRANCH   2   3
ENDBRANCH   1   2
BRANCH   1   7
ATOM      7  C   UNL     1      25.601  56.930  24.022  1.00  0.00     0.000 C 
BRANCH   7   8
ATOM      8  C   UNL     1      24.142  56.546  24.323  1.00  0.00    -0.000 C 
BRANCH   8   9
ATOM      9  C   UNL     1      23.969  55.888  25.700  1.00  0.00    -0.000 C 
BRANCH   9  10
ATOM     10  C   UNL     1      22.778  56.492  26.452  1.00  0.00    -0.003 C 
ATOM     11  C   UNL     1      22.813  58.016  26.408  1.00  0.00     0.004 C 
ENDBRANCH   9  10
ENDBRANCH   8   9
ENDBRANCH   7   8
ENDBRANCH   1   7
TORSDOF 7
ENDMDL
MODEL 2
REMARK VINA RESULT:    -3.669      0.966      1.552
REMARK INTER + INTRA:          -5.796
REMARK INTER:                  -5.344
REMARK INTRA:                  -0.452
REMARK UNBOUND:                -0.626
REMARK SMILES CCCCCCCCC(=O)[O-]
REMARK SMILES IDX 6 1 7 2 8 3 9 4 10 5 11 6 5 7 4 8 3 9 2 10 1 11
REMARK H PARENT
REMARK Flexibility Score: inf
ROOT
ATOM      1  C   UNL     1      27.265  57.743  25.755  1.00  0.00     0.000 C 
ENDROOT
BRANCH   1   2
ATOM      2  C   UNL     1      26.523  59.073  25.529  1.00  0.00     0.006 C 
BRANCH   2   3
ATOM      3  C   UNL     1      26.854  60.127  26.592  1.00  0.00     0.053 C 
BRANCH   3   4
ATOM      4  C   UNL     1      26.909  61.490  25.977  1.00  0.00     0.041 C 
ATOM      5  O   UNL     1      27.983  62.148  25.993  1.00  0.00    -0.550 OA
ATOM      6  O   UNL     1      25.791  62.013  25.342  1.00  0.00    -0.550 OA
ENDBRANCH   3   4
ENDBRANCH   2   3
ENDBRANCH   1   2
BRANCH   1   7
ATOM      7  C   UNL     1      26.502  56.483  25.297  1.00  0.00     0.000 C 
BRANCH   7   8
ATOM      8  C   UNL     1      25.663  56.656  24.019  1.00  0.00    -0.000 C 
BRANCH   8   9
ATOM      9  C   UNL     1      24.153  56.534  24.274  1.00  0.00    -0.000 C 
BRANCH   9  10
ATOM     10  C   UNL     1      23.877  55.928  25.654  1.00  0.00    -0.003 C 
ATOM     11  C   UNL     1      22.812  56.722  26.402  1.00  0.00     0.004 C 
ENDBRANCH   9  10
ENDBRANCH   8   9
ENDBRANCH   7   8
ENDBRANCH   1   7
TORSDOF 7
ENDMDL
MODEL 3
REMARK VINA RESULT:    -3.570      1.204      1.708
REMARK INTER + INTRA:          -5.657
REMARK INTER:                  -5.082
REMARK INTRA:                  -0.575
REMARK UNBOUND:                -0.626
REMARK SMILES CCCCCCCCC(=O)[O-]
REMARK SMILES IDX 6 1 7 2 8 3 9 4 10 5 11 6 5 7 4 8 3 9 2 10 1 11
REMARK H PARENT
REMARK Flexibility Score: inf
ROOT
ATOM      1  C   UNL     1      27.086  57.682  25.558  1.00  0.00     0.000 C 
ENDROOT
BRANCH   1   2
ATOM      2  C   UNL     1      26.556  59.095  25.256  1.00  0.00     0.006 C 
BRANCH   2   3
ATOM      3  C   UNL     1      26.547  60.004  26.492  1.00  0.00     0.053 C 
BRANCH   3   4
ATOM      4  C   UNL     1      25.141  60.315  26.901  1.00  0.00     0.041 C 
ATOM      5  O   UNL     1      24.891  61.357  27.561  1.00  0.00    -0.550 OA
ATOM      6  O   UNL     1      24.102  59.481  26.510  1.00  0.00    -0.550 OA
ENDBRANCH   3   4
ENDBRANCH   2   3
ENDBRANCH   1   2
BRANCH   1   7
ATOM      7  C   UNL     1      26.341  56.537  24.842  1.00  0.00     0.000 C 
BRANCH   7   8
ATOM      8  C   UNL     1      25.181  56.981  23.934  1.00  0.00    -0.000 C 
BRANCH   8   9
ATOM      9  C   UNL     1      23.817  56.459  24.409  1.00  0.00    -0.000 C 
BRANCH   9  10
ATOM     10  C   UNL     1      23.907  55.905  25.835  1.00  0.00    -0.003 C 
ATOM     11  C   UNL     1      22.558  55.979  26.542  1.00  0.00     0.004 C 
ENDBRANCH   9  10
ENDBRANCH   8   9
ENDBRANCH   7   8
ENDBRANCH   1   7
TORSDOF 7
ENDMDL
MODEL 4
REMARK VINA RESULT:    -3.548     19.977     21.641
REMARK INTER + INTRA:          -5.626
REMARK INTER:                  -5.104
REMARK INTRA:                  -0.522
REMARK UNBOUND:                -0.626
REMARK SMILES CCCCCCCCC(=O)[O-]
REMARK SMILES IDX 6 1 7 2 8 3 9 4 10 5 11 6 5 7 4 8 3 9 2 10 1 11
REMARK H PARENT
REMARK Flexibility Score: inf
ROOT
ATOM      1  C   UNL     1       9.556  56.283  42.337  1.00  0.00     0.000 C 
ENDROOT
BRANCH   1   2
ATOM      2  C   UNL     1      11.093  56.285  42.425  1.00  0.00     0.006 C 
BRANCH   2   3
ATOM      3  C   UNL     1      11.756  55.514  41.277  1.00  0.00     0.053 C 
BRANCH   3   4
ATOM      4  C   UNL     1      13.246  55.586  41.392  1.00  0.00     0.041 C 
ATOM      5  O   UNL     1      13.929  54.529  41.430  1.00  0.00    -0.550 OA
ATOM      6  O   UNL     1      13.885  56.819  41.406  1.00  0.00    -0.550 OA
ENDBRANCH   3   4
ENDBRANCH   2   3
ENDBRANCH   1   2
BRANCH   1   7
ATOM      7  C   UNL     1       8.919  57.645  41.993  1.00  0.00     0.000 C 
BRANCH   7   8
ATOM      8  C   UNL     1       9.737  58.876  42.421  1.00  0.00    -0.000 C 
BRANCH   8   9
ATOM      9  C   UNL     1       9.444  60.116  41.566  1.00  0.00    -0.000 C 
BRANCH   9  10
ATOM     10  C   UNL     1      10.642  60.466  40.677  1.00  0.00    -0.003 C 
ATOM     11  C   UNL     1      11.909  59.767  41.158  1.00  0.00     0.004 C 
ENDBRANCH   9  10
ENDBRANCH   8   9
ENDBRANCH   7   8
ENDBRANCH   1   7
TORSDOF 7
ENDMDL
MODEL 5
REMARK VINA RESULT:    -3.540     19.535     21.484
REMARK INTER + INTRA:          -5.615
REMARK INTER:                  -5.113
REMARK INTRA:                  -0.502
REMARK UNBOUND:                -0.626
REMARK SMILES CCCCCCCCC(=O)[O-]
REMARK SMILES IDX 6 1 7 2 8 3 9 4 10 5 11 6 5 7 4 8 3 9 2 10 1 11
REMARK H PARENT
REMARK Flexibility Score: inf
ROOT
ATOM      1  C   UNL     1       8.965  57.640  42.038  1.00  0.00     0.000 C 
ENDROOT
BRANCH   1   2
ATOM      2  C   UNL     1       9.867  58.843  42.369  1.00  0.00     0.006 C 
BRANCH   2   3
ATOM      3  C   UNL     1       9.749  59.976  41.342  1.00  0.00     0.053 C 
BRANCH   3   4
ATOM      4  C   UNL     1      11.106  60.460  40.940  1.00  0.00     0.041 C 
ATOM      5  O   UNL     1      11.330  60.798  39.748  1.00  0.00    -0.550 OA
ATOM      6  O   UNL     1      12.110  60.588  41.892  1.00  0.00    -0.550 OA
ENDBRANCH   3   4
ENDBRANCH   2   3
ENDBRANCH   1   2
BRANCH   1   7
ATOM      7  C   UNL     1       9.567  56.260  42.372  1.00  0.00     0.000 C 
BRANCH   7   8
ATOM      8  C   UNL     1      11.099  56.235  42.526  1.00  0.00    -0.000 C 
BRANCH   8   9
ATOM      9  C   UNL     1      11.804  55.517  41.367  1.00  0.00    -0.000 C 
BRANCH   9  10
ATOM     10  C   UNL     1      13.279  55.929  41.282  1.00  0.00    -0.003 C 
ATOM     11  C   UNL     1      13.420  57.397  40.894  1.00  0.00     0.004 C 
ENDBRANCH   9  10
ENDBRANCH   8   9
ENDBRANCH   7   8
ENDBRANCH   1   7
TORSDOF 7
ENDMDL
MODEL 6
REMARK VINA RESULT:    -3.511      2.820      4.256
REMARK INTER + INTRA:          -5.574
REMARK INTER:                  -4.876
REMARK INTRA:                  -0.697
REMARK UNBOUND:                -0.626
REMARK SMILES CCCCCCCCC(=O)[O-]
REMARK SMILES IDX 6 1 7 2 8 3 9 4 10 5 11 6 5 7 4 8 3 9 2 10 1 11
REMARK H PARENT
REMARK Flexibility Score: inf
ROOT
ATOM      1  C   UNL     1      27.005  57.592  25.526  1.00  0.00     0.000 C 
ENDROOT
BRANCH   1   2
ATOM      2  C   UNL     1      26.285  56.498  24.717  1.00  0.00     0.006 C 
BRANCH   2   3
ATOM      3  C   UNL     1      24.993  56.997  24.059  1.00  0.00     0.053 C 
BRANCH   3   4
ATOM      4  C   UNL     1      23.825  56.181  24.517  1.00  0.00     0.041 C 
ATOM      5  O   UNL     1      22.969  55.780  23.685  1.00  0.00    -0.550 OA
ATOM      6  O   UNL     1      23.708  55.822  25.853  1.00  0.00    -0.550 OA
ENDBRANCH   3   4
ENDBRANCH   2   3
ENDBRANCH   1   2
BRANCH   1   7
ATOM      7  C   UNL     1      26.502  59.028  25.275  1.00  0.00     0.000 C 
BRANCH   7   8
ATOM      8  C   UNL     1      26.620  59.981  26.477  1.00  0.00    -0.000 C 
BRANCH   8   9
ATOM      9  C   UNL     1      25.256  60.452  27.003  1.00  0.00    -0.000 C 
BRANCH   9  10
ATOM     10  C   UNL     1      24.122  59.977  26.088  1.00  0.00    -0.003 C 
ATOM     11  C   UNL     1      23.068  59.203  26.872  1.00  0.00     0.004 C 
ENDBRANCH   9  10
ENDBRANCH   8   9
ENDBRANCH   7   8
ENDBRANCH   1   7
TORSDOF 7
ENDMDL
MODEL 7
REMARK VINA RESULT:    -3.499      2.517      4.143
REMARK INTER + INTRA:          -5.557
REMARK INTER:                  -4.848
REMARK INTRA:                  -0.709
REMARK UNBOUND:                -0.626
REMARK SMILES CCCCCCCCC(=O)[O-]
REMARK SMILES IDX 6 1 7 2 8 3 9 4 10 5 11 6 5 7 4 8 3 9 2 10 1 11
REMARK H PARENT
REMARK Flexibility Score: inf
ROOT
ATOM      1  C   UNL     1      26.260  60.788  25.160  1.00  0.00     0.000 C 
ENDROOT
BRANCH   1   2
ATOM      2  C   UNL     1      25.737  59.569  24.379  1.00  0.00     0.006 C 
BRANCH   2   3
ATOM      3  C   UNL     1      25.461  58.358  25.279  1.00  0.00     0.053 C 
BRANCH   3   4
ATOM      4  C   UNL     1      26.486  57.293  25.049  1.00  0.00     0.041 C 
ATOM      5  O   UNL     1      26.299  56.415  24.166  1.00  0.00    -0.550 OA
ATOM      6  O   UNL     1      27.671  57.298  25.774  1.00  0.00    -0.550 OA
ENDBRANCH   3   4
ENDBRANCH   2   3
ENDBRANCH   1   2
BRANCH   1   7
ATOM      7  C   UNL     1      26.378  60.585  26.685  1.00  0.00     0.000 C 
BRANCH   7   8
ATOM      8  C   UNL     1      25.457  61.478  27.535  1.00  0.00    -0.000 C 
BRANCH   8   9
ATOM      9  C   UNL     1      24.378  60.682  28.284  1.00  0.00    -0.000 C 
BRANCH   9  10
ATOM     10  C   UNL     1      23.132  60.491  27.412  1.00  0.00    -0.003 C 
ATOM     11  C   UNL     1      22.552  59.091  27.579  1.00  0.00     0.004 C 
ENDBRANCH   9  10
ENDBRANCH   8   9
ENDBRANCH   7   8
ENDBRANCH   1   7
TORSDOF 7
ENDMDL
MODEL 8
REMARK VINA RESULT:    -3.473      3.628      5.324
REMARK INTER + INTRA:          -5.521
REMARK INTER:                  -5.073
REMARK INTRA:                  -0.448
REMARK UNBOUND:                -0.626
REMARK SMILES CCCCCCCCC(=O)[O-]
REMARK SMILES IDX 6 1 7 2 8 3 9 4 10 5 11 6 5 7 4 8 3 9 2 10 1 11
REMARK H PARENT
REMARK Flexibility Score: inf
ROOT
ATOM      1  C   UNL     1      24.910  56.211  25.480  1.00  0.00     0.000 C 
ENDROOT
BRANCH   1   2
ATOM      2  C   UNL     1      23.435  56.628  25.344  1.00  0.00     0.006 C 
BRANCH   2   3
ATOM      3  C   UNL     1      22.485  55.722  26.138  1.00  0.00     0.053 C 
BRANCH   3   4
ATOM      4  C   UNL     1      21.552  55.006  25.214  1.00  0.00     0.041 C 
ATOM      5  O   UNL     1      21.373  55.430  24.042  1.00  0.00    -0.550 OA
ATOM      6  O   UNL     1      20.918  53.842  25.629  1.00  0.00    -0.550 OA
ENDBRANCH   3   4
ENDBRANCH   2   3
ENDBRANCH   1   2
BRANCH   1   7
ATOM      7  C   UNL     1      25.849  56.761  24.386  1.00  0.00     0.000 C 
BRANCH   7   8
ATOM      8  C   UNL     1      26.248  58.238  24.552  1.00  0.00    -0.000 C 
BRANCH   8   9
ATOM      9  C   UNL     1      26.973  58.516  25.877  1.00  0.00    -0.000 C 
BRANCH   9  10
ATOM     10  C   UNL     1      26.668  59.930  26.384  1.00  0.00    -0.003 C 
ATOM     11  C   UNL     1      25.167  60.143  26.555  1.00  0.00     0.004 C 
ENDBRANCH   9  10
ENDBRANCH   8   9
ENDBRANCH   7   8
ENDBRANCH   1   7
TORSDOF 7
ENDMDL
MODEL 9
REMARK VINA RESULT:    -3.416     12.106     13.102
REMARK INTER + INTRA:          -5.440
REMARK INTER:                  -4.646
REMARK INTRA:                  -0.793
REMARK UNBOUND:                -0.626
REMARK SMILES CCCCCCCCC(=O)[O-]
REMARK SMILES IDX 6 1 7 2 8 3 9 4 10 5 11 6 5 7 4 8 3 9 2 10 1 11
REMARK H PARENT
REMARK Flexibility Score: inf
ROOT
ATOM      1  C   UNL     1      14.245  54.399  28.462  1.00  0.00     0.000 C 
ENDROOT
BRANCH   1   2
ATOM      2  C   UNL     1      15.099  54.030  29.688  1.00  0.00     0.006 C 
BRANCH   2   3
ATOM      3  C   UNL     1      15.844  52.700  29.517  1.00  0.00     0.053 C 
BRANCH   3   4
ATOM      4  C   UNL     1      15.402  51.716  30.553  1.00  0.00     0.041 C 
ATOM      5  O   UNL     1      14.225  51.268  30.539  1.00  0.00    -0.550 OA
ATOM      6  O   UNL     1      16.302  51.256  31.505  1.00  0.00    -0.550 OA
ENDBRANCH   3   4
ENDBRANCH   2   3
ENDBRANCH   1   2
BRANCH   1   7
ATOM      7  C   UNL     1      12.900  53.652  28.354  1.00  0.00     0.000 C 
BRANCH   7   8
ATOM      8  C   UNL     1      12.676  52.898  27.031  1.00  0.00    -0.000 C 
BRANCH   8   9
ATOM      9  C   UNL     1      13.210  51.459  27.065  1.00  0.00    -0.000 C 
BRANCH   9  10
ATOM     10  C   UNL     1      14.545  51.351  26.320  1.00  0.00    -0.003 C 
ATOM     11  C   UNL     1      14.680  52.446  25.268  1.00  0.00     0.004 C 
ENDBRANCH   9  10
ENDBRANCH   8   9
ENDBRANCH   7   8
ENDBRANCH   1   7
TORSDOF 7
ENDMDL
