MODEL 1
REMARK VINA RESULT:    -4.203      0.000      0.000
REMARK INTER + INTRA:          -5.846
REMARK INTER:                  -5.677
REMARK INTRA:                  -0.169
REMARK UNBOUND:                -0.169
REMARK SMILES [NH3+]CCCC[C@H]([NH3+])C(=O)[O-]
REMARK SMILES IDX 4 1 3 2 2 3 1 4 5 8 6 9 7 10 8 14 9 15 10 16
REMARK H PARENT 1 5 1 6 1 7 7 11 7 12 7 13
REMARK Flexibility Score: inf
ROOT
ATOM      1  C   UNL     1     -19.709 -22.692  12.256  1.00  0.00     0.012 C 
ENDROOT
BRANCH   1   2
ATOM      2  C   UNL     1     -18.664 -22.364  11.178  1.00  0.00     0.061 C 
BRANCH   2   3
ATOM      3  C   UNL     1     -17.232 -22.720  11.611  1.00  0.00     0.258 C 
BRANCH   3   4
ATOM      4  N   UNL     1     -17.188 -24.047  12.223  1.00  0.00    -0.358 N 
ATOM      5  H   UNL     1     -17.895 -24.674  11.775  1.00  0.00     0.344 HD
ATOM      6  H   UNL     1     -16.236 -24.458  12.084  1.00  0.00     0.344 HD
ATOM      7  H   UNL     1     -17.378 -23.976  13.250  1.00  0.00     0.344 HD
ENDBRANCH   3   4
ENDBRANCH   2   3
ENDBRANCH   1   2
BRANCH   1   8
ATOM      8  C   UNL     1     -20.179 -21.444  13.023  1.00  0.00     0.072 C 
BRANCH   8   9
ATOM      9  C   UNL     1     -19.114 -20.921  14.013  1.00  0.00     0.227 C 
BRANCH   9  10
ATOM     10  N   UNL     1     -19.543 -21.082  15.409  1.00  0.00    -0.350 N 
ATOM     11  H   UNL     1     -19.798 -22.077  15.595  1.00  0.00     0.345 HD
ATOM     12  H   UNL     1     -18.756 -20.832  16.054  1.00  0.00     0.345 HD
ATOM     13  H   UNL     1     -20.364 -20.469  15.619  1.00  0.00     0.345 HD
ENDBRANCH   9  10
BRANCH   9  14
ATOM     14  C   UNL     1     -18.820 -19.473  13.723  1.00  0.00     0.099 C 
ATOM     15  O   UNL     1     -18.237 -18.755  14.579  1.00  0.00    -0.544 OA
ATOM     16  O   UNL     1     -19.211 -18.914  12.513  1.00  0.00    -0.544 OA
ENDBRANCH   9  14
ENDBRANCH   8   9
ENDBRANCH   1   8
TORSDOF 7
ENDMDL
MODEL 2
REMARK VINA RESULT:    -4.080      2.160      3.838
REMARK INTER + INTRA:          -5.679
REMARK INTER:                  -5.230
REMARK INTRA:                  -0.449
REMARK UNBOUND:                -0.169
REMARK SMILES [NH3+]CCCC[C@H]([NH3+])C(=O)[O-]
REMARK SMILES IDX 4 1 3 2 2 3 1 4 5 8 6 9 7 10 8 14 9 15 10 16
REMARK H PARENT 1 5 1 6 1 7 7 11 7 12 7 13
REMARK Flexibility Score: inf
ROOT
ATOM      1  C   UNL     1     -19.592 -22.701  12.243  1.00  0.00     0.012 C 
ENDROOT
BRANCH   1   2
ATOM      2  C   UNL     1     -20.227 -21.529  13.009  1.00  0.00     0.061 C 
BRANCH   2   3
ATOM      3  C   UNL     1     -19.186 -20.668  13.745  1.00  0.00     0.258 C 
BRANCH   3   4
ATOM      4  N   UNL     1     -18.272 -21.506  14.520  1.00  0.00    -0.358 N 
ATOM      5  H   UNL     1     -17.682 -20.911  15.146  1.00  0.00     0.344 HD
ATOM      6  H   UNL     1     -18.828 -22.168  15.108  1.00  0.00     0.344 HD
ATOM      7  H   UNL     1     -17.659 -22.059  13.877  1.00  0.00     0.344 HD
ENDBRANCH   3   4
ENDBRANCH   2   3
ENDBRANCH   1   2
BRANCH   1   8
ATOM      8  C   UNL     1     -18.737 -22.233  11.051  1.00  0.00     0.072 C 
BRANCH   8   9
ATOM      9  C   UNL     1     -17.348 -22.910  11.018  1.00  0.00     0.227 C 
BRANCH   9  10
ATOM     10  N   UNL     1     -17.182 -23.865  12.122  1.00  0.00    -0.350 N 
ATOM     11  H   UNL     1     -17.281 -23.376  13.039  1.00  0.00     0.345 HD
ATOM     12  H   UNL     1     -17.928 -24.599  12.073  1.00  0.00     0.345 HD
ATOM     13  H   UNL     1     -16.245 -24.328  12.075  1.00  0.00     0.345 HD
ENDBRANCH   9  10
BRANCH   9  14
ATOM     14  C   UNL     1     -16.272 -21.858  11.075  1.00  0.00     0.099 C 
ATOM     15  O   UNL     1     -15.305 -21.888  10.267  1.00  0.00    -0.544 OA
ATOM     16  O   UNL     1     -16.329 -20.857  12.036  1.00  0.00    -0.544 OA
ENDBRANCH   9  14
ENDBRANCH   8   9
ENDBRANCH   1   8
TORSDOF 7
ENDMDL
MODEL 3
REMARK VINA RESULT:    -4.034      5.797      7.620
REMARK INTER + INTRA:          -5.617
REMARK INTER:                  -5.380
REMARK INTRA:                  -0.237
REMARK UNBOUND:                -0.169
REMARK SMILES [NH3+]CCCC[C@H]([NH3+])C(=O)[O-]
REMARK SMILES IDX 4 1 3 2 2 3 1 4 5 8 6 9 7 10 8 14 9 15 10 16
REMARK H PARENT 1 5 1 6 1 7 7 11 7 12 7 13
REMARK Flexibility Score: inf
ROOT
ATOM      1  C   UNL     1     -17.624 -24.657   8.086  1.00  0.00     0.012 C 
ENDROOT
BRANCH   1   2
ATOM      2  C   UNL     1     -17.990 -23.175   8.259  1.00  0.00     0.061 C 
BRANCH   2   3
ATOM      3  C   UNL     1     -17.629 -22.634   9.653  1.00  0.00     0.258 C 
BRANCH   3   4
ATOM      4  N   UNL     1     -17.228 -23.720  10.545  1.00  0.00    -0.358 N 
ATOM      5  H   UNL     1     -17.213 -23.385  11.536  1.00  0.00     0.344 HD
ATOM      6  H   UNL     1     -17.916 -24.503  10.463  1.00  0.00     0.344 HD
ATOM      7  H   UNL     1     -16.280 -24.074  10.276  1.00  0.00     0.344 HD
ENDBRANCH   3   4
ENDBRANCH   2   3
ENDBRANCH   1   2
BRANCH   1   8
ATOM      8  C   UNL     1     -16.458 -24.868   7.104  1.00  0.00     0.072 C 
BRANCH   8   9
ATOM      9  C   UNL     1     -16.334 -23.720   6.077  1.00  0.00     0.227 C 
BRANCH   9  10
ATOM     10  N   UNL     1     -16.512 -24.200   4.700  1.00  0.00    -0.350 N 
ATOM     11  H   UNL     1     -17.484 -24.558   4.567  1.00  0.00     0.345 HD
ATOM     12  H   UNL     1     -16.371 -23.411   4.027  1.00  0.00     0.345 HD
ATOM     13  H   UNL     1     -15.830 -24.963   4.481  1.00  0.00     0.345 HD
ENDBRANCH   9  10
BRANCH   9  14
ATOM     14  C   UNL     1     -14.993 -23.050   6.225  1.00  0.00     0.099 C 
ATOM     15  O   UNL     1     -14.427 -22.525   5.229  1.00  0.00    -0.544 OA
ATOM     16  O   UNL     1     -14.361 -23.028   7.462  1.00  0.00    -0.544 OA
ENDBRANCH   9  14
ENDBRANCH   8   9
ENDBRANCH   1   8
TORSDOF 7
ENDMDL
MODEL 4
REMARK VINA RESULT:    -4.022      5.763      7.616
REMARK INTER + INTRA:          -5.602
REMARK INTER:                  -5.410
REMARK INTRA:                  -0.192
REMARK UNBOUND:                -0.169
REMARK SMILES [NH3+]CCCC[C@H]([NH3+])C(=O)[O-]
REMARK SMILES IDX 4 1 3 2 2 3 1 4 5 8 6 9 7 10 8 14 9 15 10 16
REMARK H PARENT 1 5 1 6 1 7 7 11 7 12 7 13
REMARK Flexibility Score: inf
ROOT
ATOM      1  C   UNL     1     -16.513 -24.791   6.869  1.00  0.00     0.012 C 
ENDROOT
BRANCH   1   2
ATOM      2  C   UNL     1     -17.297 -24.950   8.182  1.00  0.00     0.061 C 
BRANCH   2   3
ATOM      3  C   UNL     1     -17.505 -23.614   8.914  1.00  0.00     0.258 C 
BRANCH   3   4
ATOM      4  N   UNL     1     -17.211 -23.751  10.340  1.00  0.00    -0.358 N 
ATOM      5  H   UNL     1     -17.661 -22.974  10.876  1.00  0.00     0.344 HD
ATOM      6  H   UNL     1     -17.591 -24.663  10.682  1.00  0.00     0.344 HD
ATOM      7  H   UNL     1     -16.176 -23.737  10.497  1.00  0.00     0.344 HD
ENDBRANCH   3   4
ENDBRANCH   2   3
ENDBRANCH   1   2
BRANCH   1   8
ATOM      8  C   UNL     1     -15.503 -23.630   6.920  1.00  0.00     0.072 C 
BRANCH   8   9
ATOM      9  C   UNL     1     -15.538 -22.759   5.644  1.00  0.00     0.227 C 
BRANCH   9  10
ATOM     10  N   UNL     1     -14.352 -22.979   4.804  1.00  0.00    -0.350 N 
ATOM     11  H   UNL     1     -14.612 -23.521   3.950  1.00  0.00     0.345 HD
ATOM     12  H   UNL     1     -13.965 -22.059   4.487  1.00  0.00     0.345 HD
ATOM     13  H   UNL     1     -13.612 -23.497   5.332  1.00  0.00     0.345 HD
ENDBRANCH   9  10
BRANCH   9  14
ATOM     14  C   UNL     1     -15.642 -21.306   6.025  1.00  0.00     0.099 C 
ATOM     15  O   UNL     1     -15.581 -20.408   5.144  1.00  0.00    -0.544 OA
ATOM     16  O   UNL     1     -15.787 -20.947   7.360  1.00  0.00    -0.544 OA
ENDBRANCH   9  14
ENDBRANCH   8   9
ENDBRANCH   1   8
TORSDOF 7
ENDMDL
MODEL 5
REMARK VINA RESULT:    -4.018      3.057      4.012
REMARK INTER + INTRA:          -5.596
REMARK INTER:                  -5.489
REMARK INTRA:                  -0.107
REMARK UNBOUND:                -0.169
REMARK SMILES [NH3+]CCCC[C@H]([NH3+])C(=O)[O-]
REMARK SMILES IDX 4 1 3 2 2 3 1 4 5 8 6 9 7 10 8 14 9 15 10 16
REMARK H PARENT 1 5 1 6 1 7 7 11 7 12 7 13
REMARK Flexibility Score: inf
ROOT
ATOM      1  C   UNL     1     -16.993 -23.259   9.368  1.00  0.00     0.012 C 
ENDROOT
BRANCH   1   2
ATOM      2  C   UNL     1     -17.449 -24.430   8.483  1.00  0.00     0.061 C 
BRANCH   2   3
ATOM      3  C   UNL     1     -16.381 -24.850   7.459  1.00  0.00     0.258 C 
BRANCH   3   4
ATOM      4  N   UNL     1     -15.084 -24.263   7.789  1.00  0.00    -0.358 N 
ATOM      5  H   UNL     1     -15.187 -23.577   8.572  1.00  0.00     0.344 HD
ATOM      6  H   UNL     1     -14.430 -25.023   8.089  1.00  0.00     0.344 HD
ATOM      7  H   UNL     1     -14.682 -23.784   6.950  1.00  0.00     0.344 HD
ENDBRANCH   3   4
ENDBRANCH   2   3
ENDBRANCH   1   2
BRANCH   1   8
ATOM      8  C   UNL     1     -18.121 -22.727  10.271  1.00  0.00     0.072 C 
BRANCH   8   9
ATOM      9  C   UNL     1     -17.729 -22.723  11.766  1.00  0.00     0.227 C 
BRANCH   9  10
ATOM     10  N   UNL     1     -17.138 -24.004  12.177  1.00  0.00    -0.350 N 
ATOM     11  H   UNL     1     -16.280 -24.201  11.614  1.00  0.00     0.345 HD
ATOM     12  H   UNL     1     -16.851 -23.957  13.183  1.00  0.00     0.345 HD
ATOM     13  H   UNL     1     -17.821 -24.787  12.053  1.00  0.00     0.345 HD
ENDBRANCH   9  10
BRANCH   9  14
ATOM     14  C   UNL     1     -18.942 -22.418  12.606  1.00  0.00     0.099 C 
ATOM     15  O   UNL     1     -18.826 -21.790  13.692  1.00  0.00    -0.544 OA
ATOM     16  O   UNL     1     -20.197 -22.848  12.194  1.00  0.00    -0.544 OA
ENDBRANCH   9  14
ENDBRANCH   8   9
ENDBRANCH   1   8
TORSDOF 7
ENDMDL
MODEL 6
REMARK VINA RESULT:    -4.011      1.929      2.315
REMARK INTER + INTRA:          -5.587
REMARK INTER:                  -5.127
REMARK INTRA:                  -0.460
REMARK UNBOUND:                -0.169
REMARK SMILES [NH3+]CCCC[C@H]([NH3+])C(=O)[O-]
REMARK SMILES IDX 4 1 3 2 2 3 1 4 5 8 6 9 7 10 8 14 9 15 10 16
REMARK H PARENT 1 5 1 6 1 7 7 11 7 12 7 13
REMARK Flexibility Score: inf
ROOT
ATOM      1  C   UNL     1     -20.464 -21.107  13.009  1.00  0.00     0.012 C 
ENDROOT
BRANCH   1   2
ATOM      2  C   UNL     1     -20.262 -22.409  12.218  1.00  0.00     0.061 C 
BRANCH   2   3
ATOM      3  C   UNL     1     -18.851 -22.527  11.618  1.00  0.00     0.258 C 
BRANCH   3   4
ATOM      4  N   UNL     1     -17.983 -23.325  12.482  1.00  0.00    -0.358 N 
ATOM      5  H   UNL     1     -18.557 -23.870  13.165  1.00  0.00     0.344 HD
ATOM      6  H   UNL     1     -17.433 -23.992  11.893  1.00  0.00     0.344 HD
ATOM      7  H   UNL     1     -17.317 -22.702  12.996  1.00  0.00     0.344 HD
ENDBRANCH   3   4
ENDBRANCH   2   3
ENDBRANCH   1   2
BRANCH   1   8
ATOM      8  C   UNL     1     -19.495 -19.994  12.571  1.00  0.00     0.072 C 
BRANCH   8   9
ATOM      9  C   UNL     1     -18.977 -19.158  13.763  1.00  0.00     0.227 C 
BRANCH   9  10
ATOM     10  N   UNL     1     -18.032 -18.119  13.330  1.00  0.00    -0.350 N 
ATOM     11  H   UNL     1     -18.220 -17.227  13.840  1.00  0.00     0.345 HD
ATOM     12  H   UNL     1     -17.053 -18.412  13.558  1.00  0.00     0.345 HD
ATOM     13  H   UNL     1     -18.108 -17.953  12.300  1.00  0.00     0.345 HD
ENDBRANCH   9  10
BRANCH   9  14
ATOM     14  C   UNL     1     -18.325 -20.065  14.773  1.00  0.00     0.099 C 
ATOM     15  O   UNL     1     -17.376 -20.823  14.434  1.00  0.00    -0.544 OA
ATOM     16  O   UNL     1     -18.783 -20.087  16.084  1.00  0.00    -0.544 OA
ENDBRANCH   9  14
ENDBRANCH   8   9
ENDBRANCH   1   8
TORSDOF 7
ENDMDL
MODEL 7
REMARK VINA RESULT:    -3.909      4.619      6.249
REMARK INTER + INTRA:          -5.449
REMARK INTER:                  -5.276
REMARK INTRA:                  -0.173
REMARK UNBOUND:                -0.169
REMARK SMILES [NH3+]CCCC[C@H]([NH3+])C(=O)[O-]
REMARK SMILES IDX 4 1 3 2 2 3 1 4 5 8 6 9 7 10 8 14 9 15 10 16
REMARK H PARENT 1 5 1 6 1 7 7 11 7 12 7 13
REMARK Flexibility Score: inf
ROOT
ATOM      1  C   UNL     1     -17.529 -22.424   9.950  1.00  0.00     0.012 C 
ENDROOT
BRANCH   1   2
ATOM      2  C   UNL     1     -18.670 -22.317  10.974  1.00  0.00     0.061 C 
BRANCH   2   3
ATOM      3  C   UNL     1     -18.277 -22.858  12.359  1.00  0.00     0.258 C 
BRANCH   3   4
ATOM      4  N   UNL     1     -17.202 -23.842  12.248  1.00  0.00    -0.358 N 
ATOM      5  H   UNL     1     -17.242 -24.512  13.050  1.00  0.00     0.344 HD
ATOM      6  H   UNL     1     -17.317 -24.376  11.356  1.00  0.00     0.344 HD
ATOM      7  H   UNL     1     -16.273 -23.360  12.235  1.00  0.00     0.344 HD
ENDBRANCH   3   4
ENDBRANCH   2   3
ENDBRANCH   1   2
BRANCH   1   8
ATOM      8  C   UNL     1     -18.041 -22.620   8.512  1.00  0.00     0.072 C 
BRANCH   8   9
ATOM      9  C   UNL     1     -17.596 -23.969   7.904  1.00  0.00     0.227 C 
BRANCH   9  10
ATOM     10  N   UNL     1     -17.141 -24.909   8.938  1.00  0.00    -0.350 N 
ATOM     11  H   UNL     1     -17.036 -24.414   9.852  1.00  0.00     0.345 HD
ATOM     12  H   UNL     1     -17.853 -25.666   9.069  1.00  0.00     0.345 HD
ATOM     13  H   UNL     1     -16.227 -25.342   8.671  1.00  0.00     0.345 HD
ENDBRANCH   9  10
BRANCH   9  14
ATOM     14  C   UNL     1     -16.501 -23.733   6.898  1.00  0.00     0.099 C 
ATOM     15  O   UNL     1     -16.777 -23.354   5.728  1.00  0.00    -0.544 OA
ATOM     16  O   UNL     1     -15.175 -23.955   7.250  1.00  0.00    -0.544 OA
ENDBRANCH   9  14
ENDBRANCH   8   9
ENDBRANCH   1   8
TORSDOF 7
ENDMDL
MODEL 8
REMARK VINA RESULT:    -3.864      6.118      7.255
REMARK INTER + INTRA:          -5.388
REMARK INTER:                  -4.917
REMARK INTRA:                  -0.471
REMARK UNBOUND:                -0.169
REMARK SMILES [NH3+]CCCC[C@H]([NH3+])C(=O)[O-]
REMARK SMILES IDX 4 1 3 2 2 3 1 4 5 8 6 9 7 10 8 14 9 15 10 16
REMARK H PARENT 1 5 1 6 1 7 7 11 7 12 7 13
REMARK Flexibility Score: inf
ROOT
ATOM      1  C   UNL     1     -15.391 -22.087   8.467  1.00  0.00     0.012 C 
ENDROOT
BRANCH   1   2
ATOM      2  C   UNL     1     -14.260 -22.400   7.474  1.00  0.00     0.061 C 
BRANCH   2   3
ATOM      3  C   UNL     1     -14.557 -21.883   6.056  1.00  0.00     0.258 C 
BRANCH   3   4
ATOM      4  N   UNL     1     -14.366 -22.941   5.066  1.00  0.00    -0.358 N 
ATOM      5  H   UNL     1     -14.595 -22.585   4.109  1.00  0.00     0.344 HD
ATOM      6  H   UNL     1     -13.367 -23.250   5.081  1.00  0.00     0.344 HD
ATOM      7  H   UNL     1     -14.976 -23.761   5.293  1.00  0.00     0.344 HD
ENDBRANCH   3   4
ENDBRANCH   2   3
ENDBRANCH   1   2
BRANCH   1   8
ATOM      8  C   UNL     1     -16.789 -22.267   7.848  1.00  0.00     0.072 C 
BRANCH   8   9
ATOM      9  C   UNL     1     -17.534 -23.495   8.418  1.00  0.00     0.227 C 
BRANCH   9  10
ATOM     10  N   UNL     1     -17.205 -23.723   9.832  1.00  0.00    -0.350 N 
ATOM     11  H   UNL     1     -16.790 -24.673   9.956  1.00  0.00     0.345 HD
ATOM     12  H   UNL     1     -16.493 -23.024  10.149  1.00  0.00     0.345 HD
ATOM     13  H   UNL     1     -18.058 -23.637  10.431  1.00  0.00     0.345 HD
ENDBRANCH   9  10
BRANCH   9  14
ATOM     14  C   UNL     1     -17.196 -24.716   7.603  1.00  0.00     0.099 C 
ATOM     15  O   UNL     1     -17.324 -25.869   8.095  1.00  0.00    -0.544 OA
ATOM     16  O   UNL     1     -16.719 -24.574   6.306  1.00  0.00    -0.544 OA
ENDBRANCH   9  14
ENDBRANCH   8   9
ENDBRANCH   1   8
TORSDOF 7
ENDMDL
MODEL 9
REMARK VINA RESULT:    -3.854      5.593      6.365
REMARK INTER + INTRA:          -5.375
REMARK INTER:                  -4.819
REMARK INTRA:                  -0.556
REMARK UNBOUND:                -0.169
REMARK SMILES [NH3+]CCCC[C@H]([NH3+])C(=O)[O-]
REMARK SMILES IDX 4 1 3 2 2 3 1 4 5 8 6 9 7 10 8 14 9 15 10 16
REMARK H PARENT 1 5 1 6 1 7 7 11 7 12 7 13
REMARK Flexibility Score: inf
ROOT
ATOM      1  C   UNL     1     -15.093 -24.184   7.410  1.00  0.00     0.012 C 
ENDROOT
BRANCH   1   2
ATOM      2  C   UNL     1     -16.546 -24.508   7.029  1.00  0.00     0.061 C 
BRANCH   2   3
ATOM      3  C   UNL     1     -17.320 -25.190   8.170  1.00  0.00     0.258 C 
BRANCH   3   4
ATOM      4  N   UNL     1     -17.229 -24.407   9.401  1.00  0.00    -0.358 N 
ATOM      5  H   UNL     1     -18.037 -23.747   9.469  1.00  0.00     0.344 HD
ATOM      6  H   UNL     1     -17.253 -25.056  10.222  1.00  0.00     0.344 HD
ATOM      7  H   UNL     1     -16.330 -23.871   9.421  1.00  0.00     0.344 HD
ENDBRANCH   3   4
ENDBRANCH   2   3
ENDBRANCH   1   2
BRANCH   1   8
ATOM      8  C   UNL     1     -14.674 -22.765   6.987  1.00  0.00     0.072 C 
BRANCH   8   9
ATOM      9  C   UNL     1     -14.498 -21.816   8.194  1.00  0.00     0.227 C 
BRANCH   9  10
ATOM     10  N   UNL     1     -14.188 -22.554   9.426  1.00  0.00    -0.350 N 
ATOM     11  H   UNL     1     -14.097 -23.574   9.221  1.00  0.00     0.345 HD
ATOM     12  H   UNL     1     -13.272 -22.228   9.816  1.00  0.00     0.345 HD
ATOM     13  H   UNL     1     -14.935 -22.411  10.144  1.00  0.00     0.345 HD
ENDBRANCH   9  10
BRANCH   9  14
ATOM     14  C   UNL     1     -15.748 -20.996   8.380  1.00  0.00     0.099 C 
ATOM     15  O   UNL     1     -16.720 -21.453   9.040  1.00  0.00    -0.544 OA
ATOM     16  O   UNL     1     -15.843 -19.735   7.805  1.00  0.00    -0.544 OA
ENDBRANCH   9  14
ENDBRANCH   8   9
ENDBRANCH   1   8
TORSDOF 7
ENDMDL
