MODEL 1
REMARK VINA RESULT:    -9.445      0.000      0.000
REMARK INTER + INTRA:         -13.793
REMARK INTER:                 -12.482
REMARK INTRA:                  -1.311
REMARK UNBOUND:                -1.311
REMARK SMILES C[C@@H]1O[C@H](O[C@H]2CC[C@]3(C)[C@@H](CC[C@@]4(C)[C@H]3C=C[C@]35OC[C@@]6(CCC(C)(C)C[C@H]63)[C@@H](O)C[C@]45C)[C@]2(C)CO)[C@H](O)[C@@H](O[C@H]2O[C@H](CO)[C@H](O)[C@@H](O)[C@@H]2O)[C@@H]1O
REMARK SMILES IDX 1 1 2 2 54 3 41 4 39 5 4 6 3 7 55 8 42 10 43 11 52 12 44 13
REMARK SMILES IDX 50 14 45 15 48 16 53 17 51 19 46 21 47 22 49 24 5 26 6 27
REMARK SMILES IDX 7 28 35 29 8 30 11 31 36 32 9 33 12 34 10 35 16 36 13 37
REMARK SMILES IDX 14 38 17 39 15 40 33 41 18 42 19 43 32 44 34 45 29 46 20 47
REMARK SMILES IDX 30 48 22 49 28 50 21 51 23 52 25 53 24 54 26 55 27 56 37 57
REMARK SMILES IDX 38 58 31 60 40 62
REMARK H PARENT 55 9 53 18 51 20 47 23 49 25 38 59 31 61 40 63
REMARK Flexibility Score: inf
ROOT
ATOM      1  C   UNL     1      -1.849 -28.988  43.102  1.00  0.00     0.041 C 
ATOM      2  C   UNL     1      -2.910 -28.024  44.219  1.00  0.00     0.150 C 
ATOM      3  C   UNL     1      -2.898 -26.925  45.608  1.00  0.00     0.175 C 
ATOM      4  C   UNL     1      -3.657 -25.464  44.902  1.00  0.00     0.186 C 
ATOM      5  C   UNL     1      -4.542 -25.618  43.374  1.00  0.00     0.202 C 
ATOM      6  C   UNL     1      -3.814 -26.500  42.372  1.00  0.00     0.282 C 
ATOM      7  O   UNL     1      -3.875 -27.703  43.267  1.00  0.00    -0.344 OA
ENDROOT
BRANCH   3   8
ATOM      8  O   UNL     1      -1.494 -26.853  45.941  1.00  0.00    -0.388 OA
ATOM      9  H   UNL     1      -1.307 -26.674  47.023  1.00  0.00     0.211 HD
ENDBRANCH   3   8
BRANCH   4  10
ATOM     10  O   UNL     1      -4.228 -24.276  45.776  1.00  0.00    -0.341 OA
BRANCH  10  11
ATOM     11  C   UNL     1      -3.644 -24.594  47.104  1.00  0.00     0.282 C 
ATOM     12  C   UNL     1      -4.748 -24.299  48.256  1.00  0.00     0.202 C 
ATOM     13  O   UNL     1      -2.300 -24.129  47.278  1.00  0.00    -0.341 OA
ATOM     14  C   UNL     1      -4.783 -22.777  48.415  1.00  0.00     0.179 C 
ATOM     15  C   UNL     1      -2.064 -23.417  48.501  1.00  0.00     0.178 C 
ATOM     16  C   UNL     1      -3.300 -22.357  48.846  1.00  0.00     0.177 C 
BRANCH  12  17
ATOM     17  O   UNL     1      -4.659 -24.855  49.595  1.00  0.00    -0.385 OA
ATOM     18  H   UNL     1      -5.641 -24.766  49.885  1.00  0.00     0.211 HD
ENDBRANCH  12  17
BRANCH  14  19
ATOM     19  O   UNL     1      -5.250 -22.257  47.162  1.00  0.00    -0.387 OA
ATOM     20  H   UNL     1      -4.710 -21.409  46.926  1.00  0.00     0.211 HD
ENDBRANCH  14  19
BRANCH  15  21
ATOM     21  C   UNL     1      -1.503 -24.256  49.733  1.00  0.00     0.191 C 
BRANCH  21  22
ATOM     22  O   UNL     1      -2.326 -24.486  50.870  1.00  0.00    -0.394 OA
ATOM     23  H   UNL     1      -3.267 -24.219  50.569  1.00  0.00     0.210 HD
ENDBRANCH  21  22
ENDBRANCH  15  21
BRANCH  16  24
ATOM     24  O   UNL     1      -3.273 -22.022  50.351  1.00  0.00    -0.387 OA
ATOM     25  H   UNL     1      -4.224 -22.303  50.583  1.00  0.00     0.211 HD
ENDBRANCH  16  24
ENDBRANCH  10  11
ENDBRANCH   4  10
BRANCH   6  26
ATOM     26  O   UNL     1      -2.444 -25.482  42.398  1.00  0.00    -0.346 OA
BRANCH  26  27
ATOM     27  C   UNL     1      -0.898 -25.160  41.645  1.00  0.00     0.130 C 
ATOM     28  C   UNL     1      -0.273 -24.857  39.974  1.00  0.00     0.033 C 
ATOM     29  C   UNL     1      -0.227 -23.587  41.723  1.00  0.00     0.020 C 
ATOM     30  C   UNL     1       0.004 -23.164  39.349  1.00  0.00     0.010 C 
ATOM     31  C   UNL     1       0.652 -22.091  41.333  1.00  0.00     0.006 C 
ATOM     32  C   UNL     1       1.754 -23.857  41.816  1.00  0.00     0.017 C 
ATOM     33  C   UNL     1      -0.328 -21.647  40.452  1.00  0.00    -0.022 C 
ATOM     34  C   UNL     1       1.266 -20.805  42.374  1.00  0.00     0.005 C 
ATOM     35  C   UNL     1       0.389 -20.515  39.467  1.00  0.00     0.012 C 
ATOM     36  C   UNL     1      -1.211 -21.207  42.129  1.00  0.00     0.024 C 
ATOM     37  C   UNL     1       0.133 -19.504  42.664  1.00  0.00     0.008 C 
ATOM     38  C   UNL     1      -1.489 -19.686  42.320  1.00  0.00    -0.017 C 
ATOM     39  C   UNL     1      -2.179 -22.079  42.975  1.00  0.00    -0.024 C 
ATOM     40  C   UNL     1      -1.925 -19.267  40.811  1.00  0.00     0.013 C 
ATOM     41  C   UNL     1      -2.870 -19.388  43.401  1.00  0.00     0.009 C 
ATOM     42  C   UNL     1      -3.422 -21.978  42.913  1.00  0.00     0.005 C 
ATOM     43  C   UNL     1      -3.997 -20.637  43.233  1.00  0.00     0.096 C 
ATOM     44  C   UNL     1      -4.080 -18.024  43.386  1.00  0.00     0.043 C 
ATOM     45  C   UNL     1      -2.437 -19.501  44.947  1.00  0.00     0.015 C 
ATOM     46  C   UNL     1      -5.142 -20.409  42.236  1.00  0.00     0.037 C 
ATOM     47  O   UNL     1      -4.591 -20.959  44.481  1.00  0.00    -0.369 OA
ATOM     48  C   UNL     1      -5.590 -18.473  43.814  1.00  0.00     0.124 C 
ATOM     49  C   UNL     1      -6.141 -19.892  43.235  1.00  0.00     0.026 C 
ATOM     50  C   UNL     1      -5.122 -19.539  40.955  1.00  0.00     0.014 C 
ATOM     51  C   UNL     1      -5.979 -20.939  44.289  1.00  0.00     0.171 C 
ATOM     52  C   UNL     1      -7.568 -20.053  42.586  1.00  0.00     0.013 C 
ATOM     53  C   UNL     1      -6.451 -19.698  40.144  1.00  0.00    -0.035 C 
ATOM     54  C   UNL     1      -7.625 -19.355  41.185  1.00  0.00     0.007 C 
ATOM     55  C   UNL     1      -6.430 -21.123  39.425  1.00  0.00     0.011 C 
ATOM     56  C   UNL     1      -6.605 -18.703  38.879  1.00  0.00     0.011 C 
BRANCH  29  57
ATOM     57  C   UNL     1      -2.141 -23.404  40.742  1.00  0.00     0.165 C 
BRANCH  57  58
ATOM     58  O   UNL     1      -2.920 -24.407  39.931  1.00  0.00    -0.396 OA
ATOM     59  H   UNL     1      -3.791 -24.611  40.397  1.00  0.00     0.210 HD
ENDBRANCH  57  58
ENDBRANCH  29  57
BRANCH  48  60
ATOM     60  O   UNL     1      -5.562 -18.495  45.236  1.00  0.00    -0.392 OA
ATOM     61  H   UNL     1      -4.630 -18.239  45.467  1.00  0.00     0.210 HD
ENDBRANCH  48  60
ENDBRANCH  26  27
ENDBRANCH   6  26
BRANCH   5  62
ATOM     62  O   UNL     1      -5.829 -25.131  42.643  1.00  0.00    -0.385 OA
ATOM     63  H   UNL     1      -5.583 -24.281  42.033  1.00  0.00     0.211 HD
ENDBRANCH   5  62
TORSDOF 14
ENDMDL
MODEL 2
REMARK VINA RESULT:    -9.164      2.589      6.781
REMARK INTER + INTRA:         -13.422
REMARK INTER:                 -11.547
REMARK INTRA:                  -1.875
REMARK UNBOUND:                -1.311
REMARK SMILES C[C@@H]1O[C@H](O[C@H]2CC[C@]3(C)[C@@H](CC[C@@]4(C)[C@H]3C=C[C@]35OC[C@@]6(CCC(C)(C)C[C@H]63)[C@@H](O)C[C@]45C)[C@]2(C)CO)[C@H](O)[C@@H](O[C@H]2O[C@H](CO)[C@H](O)[C@@H](O)[C@@H]2O)[C@@H]1O
REMARK SMILES IDX 1 1 2 2 54 3 41 4 39 5 4 6 3 7 55 8 42 10 43 11 52 12 44 13
REMARK SMILES IDX 50 14 45 15 48 16 53 17 51 19 46 21 47 22 49 24 5 26 6 27
REMARK SMILES IDX 7 28 35 29 8 30 11 31 36 32 9 33 12 34 10 35 16 36 13 37
REMARK SMILES IDX 14 38 17 39 15 40 33 41 18 42 19 43 32 44 34 45 29 46 20 47
REMARK SMILES IDX 30 48 22 49 28 50 21 51 23 52 25 53 24 54 26 55 27 56 37 57
REMARK SMILES IDX 38 58 31 60 40 62
REMARK H PARENT 55 9 53 18 51 20 47 23 49 25 38 59 31 61 40 63
REMARK Flexibility Score: inf
ROOT
ATOM      1  C   UNL     1      -6.381 -27.126  41.502  1.00  0.00     0.041 C 
ATOM      2  C   UNL     1      -5.152 -28.450  41.694  1.00  0.00     0.150 C 
ATOM      3  C   UNL     1      -3.731 -29.200  40.948  1.00  0.00     0.175 C 
ATOM      4  C   UNL     1      -2.497 -28.946  42.221  1.00  0.00     0.186 C 
ATOM      5  C   UNL     1      -3.033 -28.516  43.855  1.00  0.00     0.202 C 
ATOM      6  C   UNL     1      -4.151 -27.486  43.843  1.00  0.00     0.282 C 
ATOM      7  O   UNL     1      -5.080 -28.386  43.083  1.00  0.00    -0.344 OA
ENDROOT
BRANCH   3   8
ATOM      8  O   UNL     1      -3.587 -28.452  39.721  1.00  0.00    -0.388 OA
ATOM      9  H   UNL     1      -3.341 -29.090  38.843  1.00  0.00     0.211 HD
ENDBRANCH   3   8
BRANCH   4  10
ATOM     10  O   UNL     1      -1.118 -29.720  42.258  1.00  0.00    -0.341 OA
BRANCH  10  11
ATOM     11  C   UNL     1      -0.358 -28.997  41.206  1.00  0.00     0.282 C 
ATOM     12  C   UNL     1       1.231 -29.149  41.499  1.00  0.00     0.202 C 
ATOM     13  O   UNL     1      -0.896 -27.712  40.876  1.00  0.00    -0.341 OA
ATOM     14  C   UNL     1       1.532 -28.190  42.654  1.00  0.00     0.179 C 
ATOM     15  C   UNL     1       0.067 -26.647  40.842  1.00  0.00     0.178 C 
ATOM     16  C   UNL     1       1.128 -26.737  42.121  1.00  0.00     0.177 C 
BRANCH  12  17
ATOM     17  O   UNL     1       2.245 -28.911  40.487  1.00  0.00    -0.385 OA
ATOM     18  H   UNL     1       2.960 -29.582  40.797  1.00  0.00     0.211 HD
ENDBRANCH  12  17
BRANCH  14  19
ATOM     19  O   UNL     1       0.791 -28.680  43.781  1.00  0.00    -0.387 OA
ATOM     20  H   UNL     1       0.179 -27.928  44.135  1.00  0.00     0.211 HD
ENDBRANCH  14  19
BRANCH  15  21
ATOM     21  C   UNL     1       0.708 -26.293  39.429  1.00  0.00     0.191 C 
BRANCH  21  22
ATOM     22  O   UNL     1       2.085 -26.558  39.186  1.00  0.00    -0.394 OA
ATOM     23  H   UNL     1       2.143 -27.576  39.103  1.00  0.00     0.210 HD
ENDBRANCH  21  22
ENDBRANCH  15  21
BRANCH  16  24
ATOM     24  O   UNL     1       2.403 -25.940  41.776  1.00  0.00    -0.387 OA
ATOM     25  H   UNL     1       2.928 -26.120  42.629  1.00  0.00     0.211 HD
ENDBRANCH  16  24
ENDBRANCH  10  11
ENDBRANCH   4  10
BRANCH   6  26
ATOM     26  O   UNL     1      -3.173 -26.364  43.007  1.00  0.00    -0.346 OA
BRANCH  26  27
ATOM     27  C   UNL     1      -3.147 -25.193  41.707  1.00  0.00     0.130 C 
ATOM     28  C   UNL     1      -4.272 -23.962  41.007  1.00  0.00     0.033 C 
ATOM     29  C   UNL     1      -2.332 -23.703  41.924  1.00  0.00     0.020 C 
ATOM     30  C   UNL     1      -4.181 -22.201  41.484  1.00  0.00     0.010 C 
ATOM     31  C   UNL     1      -1.871 -21.988  41.838  1.00  0.00     0.006 C 
ATOM     32  C   UNL     1      -1.590 -23.234  40.125  1.00  0.00     0.017 C 
ATOM     33  C   UNL     1      -2.869 -21.590  42.721  1.00  0.00    -0.022 C 
ATOM     34  C   UNL     1      -0.329 -21.186  42.145  1.00  0.00     0.005 C 
ATOM     35  C   UNL     1      -3.102 -19.961  42.480  1.00  0.00     0.012 C 
ATOM     36  C   UNL     1      -1.602 -22.314  44.007  1.00  0.00     0.024 C 
ATOM     37  C   UNL     1      -0.095 -20.677  43.802  1.00  0.00     0.008 C 
ATOM     38  C   UNL     1      -1.062 -21.267  45.027  1.00  0.00    -0.017 C 
ATOM     39  C   UNL     1      -1.502 -23.762  44.563  1.00  0.00    -0.024 C 
ATOM     40  C   UNL     1      -2.409 -20.406  45.316  1.00  0.00     0.013 C 
ATOM     41  C   UNL     1      -0.547 -22.022  46.553  1.00  0.00     0.009 C 
ATOM     42  C   UNL     1      -1.993 -24.110  45.657  1.00  0.00     0.005 C 
ATOM     43  C   UNL     1      -1.509 -23.376  46.865  1.00  0.00     0.096 C 
ATOM     44  C   UNL     1      -0.587 -21.353  48.247  1.00  0.00     0.043 C 
ATOM     45  C   UNL     1       0.929 -22.653  46.423  1.00  0.00     0.015 C 
ATOM     46  C   UNL     1      -2.738 -23.162  47.761  1.00  0.00     0.037 C 
ATOM     47  O   UNL     1      -0.746 -24.421  47.450  1.00  0.00    -0.369 OA
ATOM     48  C   UNL     1      -0.923 -22.467  49.392  1.00  0.00     0.124 C 
ATOM     49  C   UNL     1      -2.080 -23.561  49.054  1.00  0.00     0.026 C 
ATOM     50  C   UNL     1      -3.573 -21.869  47.927  1.00  0.00     0.014 C 
ATOM     51  C   UNL     1      -1.429 -24.829  48.603  1.00  0.00     0.171 C 
ATOM     52  C   UNL     1      -3.234 -23.925  50.064  1.00  0.00     0.013 C 
ATOM     53  C   UNL     1      -4.831 -22.122  48.825  1.00  0.00    -0.035 C 
ATOM     54  C   UNL     1      -4.257 -22.745  50.189  1.00  0.00     0.007 C 
ATOM     55  C   UNL     1      -5.896 -22.947  47.970  1.00  0.00     0.011 C 
ATOM     56  C   UNL     1      -5.678 -20.798  49.203  1.00  0.00     0.011 C 
BRANCH  29  57
ATOM     57  C   UNL     1      -3.850 -23.816  43.454  1.00  0.00     0.165 C 
BRANCH  57  58
ATOM     58  O   UNL     1      -5.228 -24.425  43.417  1.00  0.00    -0.396 OA
ATOM     59  H   UNL     1      -5.761 -24.097  44.209  1.00  0.00     0.210 HD
ENDBRANCH  57  58
ENDBRANCH  29  57
BRANCH  48  60
ATOM     60  O   UNL     1       0.320 -23.117  49.629  1.00  0.00    -0.392 OA
ATOM     61  H   UNL     1       0.852 -22.449  50.138  1.00  0.00     0.210 HD
ENDBRANCH  48  60
ENDBRANCH  26  27
ENDBRANCH   6  26
BRANCH   5  62
ATOM     62  O   UNL     1      -2.742 -28.797  45.360  1.00  0.00    -0.385 OA
ATOM     63  H   UNL     1      -3.261 -29.690  45.654  1.00  0.00     0.211 HD
ENDBRANCH   5  62
TORSDOF 14
ENDMDL
MODEL 3
REMARK VINA RESULT:    -9.047      1.785      6.987
REMARK INTER + INTRA:         -13.267
REMARK INTER:                 -11.367
REMARK INTRA:                  -1.900
REMARK UNBOUND:                -1.311
REMARK SMILES C[C@@H]1O[C@H](O[C@H]2CC[C@]3(C)[C@@H](CC[C@@]4(C)[C@H]3C=C[C@]35OC[C@@]6(CCC(C)(C)C[C@H]63)[C@@H](O)C[C@]45C)[C@]2(C)CO)[C@H](O)[C@@H](O[C@H]2O[C@H](CO)[C@H](O)[C@@H](O)[C@@H]2O)[C@@H]1O
REMARK SMILES IDX 1 1 2 2 54 3 41 4 39 5 4 6 3 7 55 8 42 10 43 11 52 12 44 13
REMARK SMILES IDX 50 14 45 15 48 16 53 17 51 19 46 21 47 22 49 24 5 26 6 27
REMARK SMILES IDX 7 28 35 29 8 30 11 31 36 32 9 33 12 34 10 35 16 36 13 37
REMARK SMILES IDX 14 38 17 39 15 40 33 41 18 42 19 43 32 44 34 45 29 46 20 47
REMARK SMILES IDX 30 48 22 49 28 50 21 51 23 52 25 53 24 54 26 55 27 56 37 57
REMARK SMILES IDX 38 58 31 60 40 62
REMARK H PARENT 55 9 53 18 51 20 47 23 49 25 38 59 31 61 40 63
REMARK Flexibility Score: inf
ROOT
ATOM      1  C   UNL     1      -3.733 -21.170  49.352  1.00  0.00     0.041 C 
ATOM      2  C   UNL     1      -2.972 -22.783  49.010  1.00  0.00     0.150 C 
ATOM      3  C   UNL     1      -3.316 -24.450  48.516  1.00  0.00     0.175 C 
ATOM      4  C   UNL     1      -2.369 -24.564  47.000  1.00  0.00     0.186 C 
ATOM      5  C   UNL     1      -1.125 -23.343  46.677  1.00  0.00     0.202 C 
ATOM      6  C   UNL     1      -1.591 -21.938  47.027  1.00  0.00     0.282 C 
ATOM      7  O   UNL     1      -1.789 -22.280  48.475  1.00  0.00    -0.344 OA
ENDROOT
BRANCH   3   8
ATOM      8  O   UNL     1      -4.756 -24.455  48.404  1.00  0.00    -0.388 OA
ATOM      9  H   UNL     1      -5.272 -24.238  49.366  1.00  0.00     0.211 HD
ENDBRANCH   3   8
BRANCH   4  10
ATOM     10  O   UNL     1      -2.014 -25.939  46.302  1.00  0.00    -0.341 OA
BRANCH  10  11
ATOM     11  C   UNL     1      -3.237 -26.170  45.492  1.00  0.00     0.282 C 
ATOM     12  C   UNL     1      -3.312 -27.737  45.077  1.00  0.00     0.202 C 
ATOM     13  O   UNL     1      -3.483 -25.164  44.504  1.00  0.00    -0.341 OA
ATOM     14  C   UNL     1      -2.292 -27.913  43.948  1.00  0.00     0.179 C 
ATOM     15  C   UNL     1      -3.776 -25.669  43.192  1.00  0.00     0.178 C 
ATOM     16  C   UNL     1      -2.772 -26.931  42.780  1.00  0.00     0.177 C 
BRANCH  12  17
ATOM     17  O   UNL     1      -4.537 -28.378  44.633  1.00  0.00    -0.385 OA
ATOM     18  H   UNL     1      -4.361 -28.408  43.621  1.00  0.00     0.211 HD
ENDBRANCH  12  17
BRANCH  14  19
ATOM     19  O   UNL     1      -1.009 -27.633  44.524  1.00  0.00    -0.387 OA
ATOM     20  H   UNL     1      -1.002 -27.955  45.505  1.00  0.00     0.211 HD
ENDBRANCH  14  19
BRANCH  15  21
ATOM     21  C   UNL     1      -5.311 -25.846  42.808  1.00  0.00     0.191 C 
BRANCH  21  22
ATOM     22  O   UNL     1      -5.851 -27.150  42.620  1.00  0.00    -0.394 OA
ATOM     23  H   UNL     1      -5.137 -27.783  42.989  1.00  0.00     0.210 HD
ENDBRANCH  21  22
ENDBRANCH  15  21
BRANCH  16  24
ATOM     24  O   UNL     1      -3.430 -27.751  41.651  1.00  0.00    -0.387 OA
ATOM     25  H   UNL     1      -2.606 -27.892  41.070  1.00  0.00     0.211 HD
ENDBRANCH  16  24
ENDBRANCH  10  11
ENDBRANCH   4  10
BRANCH   6  26
ATOM     26  O   UNL     1      -2.900 -22.049  45.936  1.00  0.00    -0.346 OA
BRANCH  26  27
ATOM     27  C   UNL     1      -4.225 -21.165  45.212  1.00  0.00     0.130 C 
ATOM     28  C   UNL     1      -4.603 -19.446  44.796  1.00  0.00     0.033 C 
ATOM     29  C   UNL     1      -4.422 -21.174  43.512  1.00  0.00     0.020 C 
ATOM     30  C   UNL     1      -4.335 -18.787  43.114  1.00  0.00     0.010 C 
ATOM     31  C   UNL     1      -4.804 -20.701  41.841  1.00  0.00     0.006 C 
ATOM     32  C   UNL     1      -6.399 -21.102  43.205  1.00  0.00     0.017 C 
ATOM     33  C   UNL     1      -3.671 -19.903  41.721  1.00  0.00    -0.022 C 
ATOM     34  C   UNL     1      -5.106 -21.677  40.402  1.00  0.00     0.005 C 
ATOM     35  C   UNL     1      -3.956 -18.853  40.463  1.00  0.00     0.012 C 
ATOM     36  C   UNL     1      -2.835 -21.645  41.498  1.00  0.00     0.024 C 
ATOM     37  C   UNL     1      -3.674 -22.052  39.467  1.00  0.00     0.008 C 
ATOM     38  C   UNL     1      -2.150 -21.848  40.113  1.00  0.00    -0.017 C 
ATOM     39  C   UNL     1      -2.226 -22.576  42.582  1.00  0.00    -0.024 C 
ATOM     40  C   UNL     1      -1.495 -20.378  39.882  1.00  0.00     0.013 C 
ATOM     41  C   UNL     1      -0.831 -23.039  40.186  1.00  0.00     0.009 C 
ATOM     42  C   UNL     1      -1.005 -22.619  42.840  1.00  0.00     0.005 C 
ATOM     43  C   UNL     1      -0.099 -22.976  41.708  1.00  0.00     0.096 C 
ATOM     44  C   UNL     1       0.715 -23.116  39.223  1.00  0.00     0.043 C 
ATOM     45  C   UNL     1      -1.400 -24.544  40.123  1.00  0.00     0.015 C 
ATOM     46  C   UNL     1       1.139 -22.078  41.846  1.00  0.00     0.037 C 
ATOM     47  O   UNL     1       0.279 -24.272  42.147  1.00  0.00    -0.369 OA
ATOM     48  C   UNL     1       1.995 -23.674  40.069  1.00  0.00     0.124 C 
ATOM     49  C   UNL     1       2.162 -23.154  41.603  1.00  0.00     0.026 C 
ATOM     50  C   UNL     1       1.469 -20.794  41.046  1.00  0.00     0.014 C 
ATOM     51  C   UNL     1       1.625 -24.198  42.528  1.00  0.00     0.171 C 
ATOM     52  C   UNL     1       3.530 -22.629  42.183  1.00  0.00     0.013 C 
ATOM     53  C   UNL     1       2.758 -20.099  41.602  1.00  0.00    -0.035 C 
ATOM     54  C   UNL     1       3.895 -21.233  41.573  1.00  0.00     0.007 C 
ATOM     55  C   UNL     1       2.387 -19.391  42.983  1.00  0.00     0.011 C 
ATOM     56  C   UNL     1       3.288 -18.844  40.731  1.00  0.00     0.011 C 
BRANCH  29  57
ATOM     57  C   UNL     1      -2.465 -20.357  43.911  1.00  0.00     0.165 C 
BRANCH  57  58
ATOM     58  O   UNL     1      -2.032 -19.299  44.892  1.00  0.00    -0.396 OA
ATOM     59  H   UNL     1      -2.156 -18.387  44.478  1.00  0.00     0.210 HD
ENDBRANCH  57  58
ENDBRANCH  29  57
BRANCH  48  60
ATOM     60  O   UNL     1       1.850 -25.089  40.038  1.00  0.00    -0.392 OA
ATOM     61  H   UNL     1       1.871 -25.315  39.070  1.00  0.00     0.210 HD
ENDBRANCH  48  60
ENDBRANCH  26  27
ENDBRANCH   6  26
BRANCH   5  62
ATOM     62  O   UNL     1       0.317 -23.174  46.112  1.00  0.00    -0.385 OA
ATOM     63  H   UNL     1       0.321 -22.363  45.407  1.00  0.00     0.211 HD
ENDBRANCH   5  62
TORSDOF 14
ENDMDL
MODEL 4
REMARK VINA RESULT:    -8.340      2.366      7.818
REMARK INTER + INTRA:         -12.332
REMARK INTER:                 -10.651
REMARK INTRA:                  -1.681
REMARK UNBOUND:                -1.311
REMARK SMILES C[C@@H]1O[C@H](O[C@H]2CC[C@]3(C)[C@@H](CC[C@@]4(C)[C@H]3C=C[C@]35OC[C@@]6(CCC(C)(C)C[C@H]63)[C@@H](O)C[C@]45C)[C@]2(C)CO)[C@H](O)[C@@H](O[C@H]2O[C@H](CO)[C@H](O)[C@@H](O)[C@@H]2O)[C@@H]1O
REMARK SMILES IDX 1 1 2 2 54 3 41 4 39 5 4 6 3 7 55 8 42 10 43 11 52 12 44 13
REMARK SMILES IDX 50 14 45 15 48 16 53 17 51 19 46 21 47 22 49 24 5 26 6 27
REMARK SMILES IDX 7 28 35 29 8 30 11 31 36 32 9 33 12 34 10 35 16 36 13 37
REMARK SMILES IDX 14 38 17 39 15 40 33 41 18 42 19 43 32 44 34 45 29 46 20 47
REMARK SMILES IDX 30 48 22 49 28 50 21 51 23 52 25 53 24 54 26 55 27 56 37 57
REMARK SMILES IDX 38 58 31 60 40 62
REMARK H PARENT 55 9 53 18 51 20 47 23 49 25 38 59 31 61 40 63
REMARK Flexibility Score: inf
ROOT
ATOM      1  C   UNL     1      -6.204 -20.213  46.347  1.00  0.00     0.041 C 
ATOM      2  C   UNL     1      -5.192 -19.203  45.227  1.00  0.00     0.150 C 
ATOM      3  C   UNL     1      -3.582 -19.045  44.505  1.00  0.00     0.175 C 
ATOM      4  C   UNL     1      -3.967 -19.183  42.762  1.00  0.00     0.186 C 
ATOM      5  C   UNL     1      -5.650 -18.980  42.242  1.00  0.00     0.202 C 
ATOM      6  C   UNL     1      -6.628 -19.690  43.165  1.00  0.00     0.282 C 
ATOM      7  O   UNL     1      -6.225 -18.869  44.354  1.00  0.00    -0.344 OA
ENDROOT
BRANCH   3   8
ATOM      8  O   UNL     1      -2.855 -20.134  45.116  1.00  0.00    -0.388 OA
ATOM      9  H   UNL     1      -2.708 -21.001  44.434  1.00  0.00     0.211 HD
ENDBRANCH   3   8
BRANCH   4  10
ATOM     10  O   UNL     1      -2.961 -18.762  41.616  1.00  0.00    -0.341 OA
BRANCH  10  11
ATOM     11  C   UNL     1      -2.372 -20.078  41.258  1.00  0.00     0.282 C 
ATOM     12  C   UNL     1      -0.918 -20.219  41.965  1.00  0.00     0.202 C 
ATOM     13  O   UNL     1      -2.525 -20.432  39.879  1.00  0.00    -0.341 OA
ATOM     14  C   UNL     1       0.030 -19.347  41.137  1.00  0.00     0.179 C 
ATOM     15  C   UNL     1      -1.324 -20.888  39.238  1.00  0.00     0.178 C 
ATOM     16  C   UNL     1      -0.010 -19.956  39.658  1.00  0.00     0.177 C 
BRANCH  12  17
ATOM     17  O   UNL     1      -0.252 -21.496  42.150  1.00  0.00    -0.385 OA
ATOM     18  H   UNL     1      -0.207 -21.812  41.173  1.00  0.00     0.211 HD
ENDBRANCH  12  17
BRANCH  14  19
ATOM     19  O   UNL     1      -0.442 -18.000  41.281  1.00  0.00    -0.387 OA
ATOM     20  H   UNL     1      -0.905 -17.709  40.405  1.00  0.00     0.211 HD
ENDBRANCH  14  19
BRANCH  15  21
ATOM     21  C   UNL     1      -1.076 -22.460  39.196  1.00  0.00     0.191 C 
BRANCH  21  22
ATOM     22  O   UNL     1      -0.032 -23.037  39.972  1.00  0.00    -0.394 OA
ATOM     23  H   UNL     1      -0.172 -22.664  40.914  1.00  0.00     0.210 HD
ENDBRANCH  21  22
ENDBRANCH  15  21
BRANCH  16  24
ATOM     24  O   UNL     1       1.282 -20.754  39.391  1.00  0.00    -0.387 OA
ATOM     25  H   UNL     1       0.886 -21.692  39.419  1.00  0.00     0.211 HD
ENDBRANCH  16  24
ENDBRANCH  10  11
ENDBRANCH   4  10
BRANCH   6  26
ATOM     26  O   UNL     1      -5.883 -21.198  42.873  1.00  0.00    -0.346 OA
BRANCH  26  27
ATOM     27  C   UNL     1      -5.801 -22.553  41.770  1.00  0.00     0.130 C 
ATOM     28  C   UNL     1      -4.624 -23.215  40.566  1.00  0.00     0.033 C 
ATOM     29  C   UNL     1      -5.417 -24.111  42.366  1.00  0.00     0.020 C 
ATOM     30  C   UNL     1      -3.470 -24.563  40.997  1.00  0.00     0.010 C 
ATOM     31  C   UNL     1      -4.792 -25.769  42.516  1.00  0.00     0.006 C 
ATOM     32  C   UNL     1      -6.453 -25.389  41.225  1.00  0.00     0.017 C 
ATOM     33  C   UNL     1      -3.486 -25.346  42.734  1.00  0.00    -0.022 C 
ATOM     34  C   UNL     1      -5.267 -27.093  43.580  1.00  0.00     0.005 C 
ATOM     35  C   UNL     1      -2.498 -26.638  42.386  1.00  0.00     0.012 C 
ATOM     36  C   UNL     1      -4.214 -24.996  44.503  1.00  0.00     0.024 C 
ATOM     37  C   UNL     1      -4.411 -27.139  45.106  1.00  0.00     0.008 C 
ATOM     38  C   UNL     1      -3.541 -25.820  45.642  1.00  0.00    -0.017 C 
ATOM     39  C   UNL     1      -4.867 -23.695  45.046  1.00  0.00    -0.024 C 
ATOM     40  C   UNL     1      -1.988 -25.780  45.165  1.00  0.00     0.013 C 
ATOM     41  C   UNL     1      -3.660 -25.006  47.219  1.00  0.00     0.009 C 
ATOM     42  C   UNL     1      -4.247 -22.847  45.720  1.00  0.00     0.005 C 
ATOM     43  C   UNL     1      -3.632 -23.331  46.992  1.00  0.00     0.096 C 
ATOM     44  C   UNL     1      -2.505 -25.037  48.628  1.00  0.00     0.043 C 
ATOM     45  C   UNL     1      -5.101 -25.252  47.895  1.00  0.00     0.015 C 
ATOM     46  C   UNL     1      -2.265 -22.640  47.101  1.00  0.00     0.037 C 
ATOM     47  O   UNL     1      -4.501 -22.678  47.904  1.00  0.00    -0.369 OA
ATOM     48  C   UNL     1      -2.408 -23.622  49.436  1.00  0.00     0.124 C 
ATOM     49  C   UNL     1      -2.381 -22.255  48.551  1.00  0.00     0.026 C 
ATOM     50  C   UNL     1      -0.873 -23.240  46.786  1.00  0.00     0.014 C 
ATOM     51  C   UNL     1      -3.756 -21.669  48.527  1.00  0.00     0.171 C 
ATOM     52  C   UNL     1      -1.347 -21.094  48.804  1.00  0.00     0.013 C 
ATOM     53  C   UNL     1       0.248 -22.152  46.887  1.00  0.00    -0.035 C 
ATOM     54  C   UNL     1       0.092 -21.522  48.356  1.00  0.00     0.007 C 
ATOM     55  C   UNL     1       0.138 -21.203  45.609  1.00  0.00     0.011 C 
ATOM     56  C   UNL     1       1.758 -22.709  46.745  1.00  0.00     0.011 C 
BRANCH  29  57
ATOM     57  C   UNL     1      -3.758 -22.823  42.865  1.00  0.00     0.165 C 
BRANCH  57  58
ATOM     58  O   UNL     1      -2.287 -23.127  42.976  1.00  0.00    -0.396 OA
ATOM     59  H   UNL     1      -1.757 -22.285  42.810  1.00  0.00     0.210 HD
ENDBRANCH  57  58
ENDBRANCH  29  57
BRANCH  48  60
ATOM     60  O   UNL     1      -3.537 -23.630  50.301  1.00  0.00    -0.392 OA
ATOM     61  H   UNL     1      -3.262 -24.215  51.057  1.00  0.00     0.210 HD
ENDBRANCH  48  60
ENDBRANCH  26  27
ENDBRANCH   6  26
BRANCH   5  62
ATOM     62  O   UNL     1      -6.524 -18.342  41.121  1.00  0.00    -0.385 OA
ATOM     63  H   UNL     1      -7.548 -18.326  41.444  1.00  0.00     0.211 HD
ENDBRANCH   5  62
TORSDOF 14
ENDMDL
MODEL 5
REMARK VINA RESULT:    -8.241      2.576      7.444
REMARK INTER + INTRA:         -12.202
REMARK INTER:                 -10.461
REMARK INTRA:                  -1.740
REMARK UNBOUND:                -1.311
REMARK SMILES C[C@@H]1O[C@H](O[C@H]2CC[C@]3(C)[C@@H](CC[C@@]4(C)[C@H]3C=C[C@]35OC[C@@]6(CCC(C)(C)C[C@H]63)[C@@H](O)C[C@]45C)[C@]2(C)CO)[C@H](O)[C@@H](O[C@H]2O[C@H](CO)[C@H](O)[C@@H](O)[C@@H]2O)[C@@H]1O
REMARK SMILES IDX 1 1 2 2 54 3 41 4 39 5 4 6 3 7 55 8 42 10 43 11 52 12 44 13
REMARK SMILES IDX 50 14 45 15 48 16 53 17 51 19 46 21 47 22 49 24 5 26 6 27
REMARK SMILES IDX 7 28 35 29 8 30 11 31 36 32 9 33 12 34 10 35 16 36 13 37
REMARK SMILES IDX 14 38 17 39 15 40 33 41 18 42 19 43 32 44 34 45 29 46 20 47
REMARK SMILES IDX 30 48 22 49 28 50 21 51 23 52 25 53 24 54 26 55 27 56 37 57
REMARK SMILES IDX 38 58 31 60 40 62
REMARK H PARENT 55 9 53 18 51 20 47 23 49 25 38 59 31 61 40 63
REMARK Flexibility Score: inf
ROOT
ATOM      1  C   UNL     1       0.506 -24.379  40.147  1.00  0.00     0.041 C 
ATOM      2  C   UNL     1      -0.222 -22.781  39.685  1.00  0.00     0.150 C 
ATOM      3  C   UNL     1      -1.731 -21.853  39.656  1.00  0.00     0.175 C 
ATOM      4  C   UNL     1      -1.305 -20.465  40.705  1.00  0.00     0.186 C 
ATOM      5  C   UNL     1       0.404 -20.156  41.058  1.00  0.00     0.202 C 
ATOM      6  C   UNL     1       1.172 -21.434  41.357  1.00  0.00     0.282 C 
ATOM      7  O   UNL     1       0.895 -22.012  40.000  1.00  0.00    -0.344 OA
ENDROOT
BRANCH   3   8
ATOM      8  O   UNL     1      -2.695 -22.801  40.163  1.00  0.00    -0.388 OA
ATOM      9  H   UNL     1      -2.957 -23.597  39.431  1.00  0.00     0.211 HD
ENDBRANCH   3   8
BRANCH   4  10
ATOM     10  O   UNL     1      -2.150 -19.128  40.760  1.00  0.00    -0.341 OA
BRANCH  10  11
ATOM     11  C   UNL     1      -3.060 -19.414  41.898  1.00  0.00     0.282 C 
ATOM     12  C   UNL     1      -4.513 -19.851  41.321  1.00  0.00     0.202 C 
ATOM     13  O   UNL     1      -2.980 -18.461  42.964  1.00  0.00    -0.341 OA
ATOM     14  C   UNL     1      -5.179 -18.553  40.856  1.00  0.00     0.179 C 
ATOM     15  C   UNL     1      -4.247 -17.967  43.425  1.00  0.00     0.178 C 
ATOM     16  C   UNL     1      -5.274 -17.630  42.159  1.00  0.00     0.177 C 
BRANCH  12  17
ATOM     17  O   UNL     1      -5.497 -20.561  42.118  1.00  0.00    -0.385 OA
ATOM     18  H   UNL     1      -5.167 -20.316  43.060  1.00  0.00     0.211 HD
ENDBRANCH  12  17
BRANCH  14  19
ATOM     19  O   UNL     1      -4.371 -18.053  39.782  1.00  0.00    -0.387 OA
ATOM     20  H   UNL     1      -4.748 -17.144  39.471  1.00  0.00     0.211 HD
ENDBRANCH  14  19
BRANCH  15  21
ATOM     21  C   UNL     1      -4.901 -18.704  44.675  1.00  0.00     0.191 C 
BRANCH  21  22
ATOM     22  O   UNL     1      -6.090 -19.469  44.508  1.00  0.00    -0.394 OA
ATOM     23  H   UNL     1      -6.805 -18.784  44.249  1.00  0.00     0.210 HD
ENDBRANCH  21  22
ENDBRANCH  15  21
BRANCH  16  24
ATOM     24  O   UNL     1      -6.726 -17.613  42.678  1.00  0.00    -0.387 OA
ATOM     25  H   UNL     1      -6.931 -18.606  42.581  1.00  0.00     0.211 HD
ENDBRANCH  16  24
ENDBRANCH  10  11
ENDBRANCH   4  10
BRANCH   6  26
ATOM     26  O   UNL     1       0.143 -21.802  42.669  1.00  0.00    -0.346 OA
BRANCH  26  27
ATOM     27  C   UNL     1      -0.241 -21.402  44.328  1.00  0.00     0.130 C 
ATOM     28  C   UNL     1      -1.568 -20.551  45.216  1.00  0.00     0.033 C 
ATOM     29  C   UNL     1      -0.898 -22.601  45.359  1.00  0.00     0.020 C 
ATOM     30  C   UNL     1      -2.945 -21.468  45.989  1.00  0.00     0.010 C 
ATOM     31  C   UNL     1      -1.827 -23.430  46.629  1.00  0.00     0.006 C 
ATOM     32  C   UNL     1      -0.172 -22.194  47.180  1.00  0.00     0.017 C 
ATOM     33  C   UNL     1      -3.017 -23.370  45.912  1.00  0.00    -0.022 C 
ATOM     34  C   UNL     1      -1.579 -24.992  47.411  1.00  0.00     0.005 C 
ATOM     35  C   UNL     1      -4.249 -23.573  47.011  1.00  0.00     0.012 C 
ATOM     36  C   UNL     1      -2.170 -24.843  44.965  1.00  0.00     0.024 C 
ATOM     37  C   UNL     1      -2.371 -26.334  46.616  1.00  0.00     0.008 C 
ATOM     38  C   UNL     1      -2.948 -26.190  45.057  1.00  0.00    -0.017 C 
ATOM     39  C   UNL     1      -1.257 -24.792  43.708  1.00  0.00    -0.024 C 
ATOM     40  C   UNL     1      -4.480 -25.662  44.936  1.00  0.00     0.013 C 
ATOM     41  C   UNL     1      -2.615 -27.252  43.671  1.00  0.00     0.009 C 
ATOM     42  C   UNL     1      -1.676 -24.991  42.550  1.00  0.00     0.005 C 
ATOM     43  C   UNL     1      -2.326 -26.312  42.296  1.00  0.00     0.096 C 
ATOM     44  C   UNL     1      -3.701 -28.469  42.857  1.00  0.00     0.043 C 
ATOM     45  C   UNL     1      -1.226 -28.044  43.862  1.00  0.00     0.015 C 
ATOM     46  C   UNL     1      -3.528 -26.034  41.381  1.00  0.00     0.037 C 
ATOM     47  O   UNL     1      -1.314 -26.889  41.486  1.00  0.00    -0.369 OA
ATOM     48  C   UNL     1      -3.492 -28.567  41.241  1.00  0.00     0.124 C 
ATOM     49  C   UNL     1      -3.286 -27.171  40.427  1.00  0.00     0.026 C 
ATOM     50  C   UNL     1      -5.020 -25.940  41.782  1.00  0.00     0.014 C 
ATOM     51  C   UNL     1      -1.825 -26.965  40.184  1.00  0.00     0.171 C 
ATOM     52  C   UNL     1      -4.065 -26.833  39.100  1.00  0.00     0.013 C 
ATOM     53  C   UNL     1      -5.904 -25.493  40.570  1.00  0.00    -0.035 C 
ATOM     54  C   UNL     1      -5.575 -26.542  39.399  1.00  0.00     0.007 C 
ATOM     55  C   UNL     1      -5.660 -23.936  40.322  1.00  0.00     0.011 C 
ATOM     56  C   UNL     1      -7.498 -25.530  40.834  1.00  0.00     0.011 C 
BRANCH  29  57
ATOM     57  C   UNL     1      -2.255 -22.394  43.694  1.00  0.00     0.165 C 
BRANCH  57  58
ATOM     58  O   UNL     1      -3.761 -22.380  43.660  1.00  0.00    -0.396 OA
ATOM     59  H   UNL     1      -4.106 -21.716  44.338  1.00  0.00     0.210 HD
ENDBRANCH  57  58
ENDBRANCH  29  57
BRANCH  48  60
ATOM     60  O   UNL     1      -2.355 -29.406  41.081  1.00  0.00    -0.392 OA
ATOM     61  H   UNL     1      -1.756 -28.895  40.475  1.00  0.00     0.210 HD
ENDBRANCH  48  60
ENDBRANCH  26  27
ENDBRANCH   6  26
BRANCH   5  62
ATOM     62  O   UNL     1       1.440 -19.003  41.212  1.00  0.00    -0.385 OA
ATOM     63  H   UNL     1       2.182 -19.295  41.932  1.00  0.00     0.211 HD
ENDBRANCH   5  62
TORSDOF 14
ENDMDL
MODEL 6
REMARK VINA RESULT:    -8.142      1.838      5.731
REMARK INTER + INTRA:         -12.071
REMARK INTER:                 -11.153
REMARK INTRA:                  -0.918
REMARK UNBOUND:                -1.311
REMARK SMILES C[C@@H]1O[C@H](O[C@H]2CC[C@]3(C)[C@@H](CC[C@@]4(C)[C@H]3C=C[C@]35OC[C@@]6(CCC(C)(C)C[C@H]63)[C@@H](O)C[C@]45C)[C@]2(C)CO)[C@H](O)[C@@H](O[C@H]2O[C@H](CO)[C@H](O)[C@@H](O)[C@@H]2O)[C@@H]1O
REMARK SMILES IDX 1 1 2 2 54 3 41 4 39 5 4 6 3 7 55 8 42 10 43 11 52 12 44 13
REMARK SMILES IDX 50 14 45 15 48 16 53 17 51 19 46 21 47 22 49 24 5 26 6 27
REMARK SMILES IDX 7 28 35 29 8 30 11 31 36 32 9 33 12 34 10 35 16 36 13 37
REMARK SMILES IDX 14 38 17 39 15 40 33 41 18 42 19 43 32 44 34 45 29 46 20 47
REMARK SMILES IDX 30 48 22 49 28 50 21 51 23 52 25 53 24 54 26 55 27 56 37 57
REMARK SMILES IDX 38 58 31 60 40 62
REMARK H PARENT 55 9 53 18 51 20 47 23 49 25 38 59 31 61 40 63
REMARK Flexibility Score: inf
ROOT
ATOM      1  C   UNL     1      -0.539 -26.150  42.623  1.00  0.00     0.041 C 
ATOM      2  C   UNL     1      -1.416 -26.406  44.193  1.00  0.00     0.150 C 
ATOM      3  C   UNL     1      -1.795 -25.663  45.756  1.00  0.00     0.175 C 
ATOM      4  C   UNL     1      -3.583 -25.582  45.678  1.00  0.00     0.186 C 
ATOM      5  C   UNL     1      -4.428 -26.559  44.464  1.00  0.00     0.202 C 
ATOM      6  C   UNL     1      -3.733 -26.527  43.112  1.00  0.00     0.282 C 
ATOM      7  O   UNL     1      -2.474 -27.135  43.656  1.00  0.00    -0.344 OA
ENDROOT
BRANCH   3   8
ATOM      8  O   UNL     1      -1.068 -24.416  45.698  1.00  0.00    -0.388 OA
ATOM      9  H   UNL     1      -0.124 -24.429  46.287  1.00  0.00     0.211 HD
ENDBRANCH   3   8
BRANCH   4  10
ATOM     10  O   UNL     1      -4.495 -25.332  46.946  1.00  0.00    -0.341 OA
BRANCH  10  11
ATOM     11  C   UNL     1      -3.583 -24.528  47.798  1.00  0.00     0.282 C 
ATOM     12  C   UNL     1      -3.973 -24.756  49.357  1.00  0.00     0.202 C 
ATOM     13  O   UNL     1      -3.348 -23.201  47.315  1.00  0.00    -0.341 OA
ATOM     14  C   UNL     1      -5.240 -23.928  49.590  1.00  0.00     0.179 C 
ATOM     15  C   UNL     1      -3.496 -22.167  48.300  1.00  0.00     0.178 C 
ATOM     16  C   UNL     1      -4.832 -22.417  49.260  1.00  0.00     0.177 C 
BRANCH  12  17
ATOM     17  O   UNL     1      -3.068 -24.446  50.449  1.00  0.00    -0.385 OA
ATOM     18  H   UNL     1      -2.543 -23.671  50.025  1.00  0.00     0.211 HD
ENDBRANCH  12  17
BRANCH  14  19
ATOM     19  O   UNL     1      -6.253 -24.508  48.755  1.00  0.00    -0.387 OA
ATOM     20  H   UNL     1      -7.044 -23.849  48.677  1.00  0.00     0.211 HD
ENDBRANCH  14  19
BRANCH  15  21
ATOM     21  C   UNL     1      -2.177 -21.690  49.053  1.00  0.00     0.191 C 
BRANCH  21  22
ATOM     22  O   UNL     1      -2.014 -21.958  50.441  1.00  0.00    -0.394 OA
ATOM     23  H   UNL     1      -1.654 -22.915  50.481  1.00  0.00     0.210 HD
ENDBRANCH  21  22
ENDBRANCH  15  21
BRANCH  16  24
ATOM     24  O   UNL     1      -4.665 -21.626  50.573  1.00  0.00    -0.387 OA
ATOM     25  H   UNL     1      -3.673 -21.411  50.493  1.00  0.00     0.211 HD
ENDBRANCH  16  24
ENDBRANCH  10  11
ENDBRANCH   4  10
BRANCH   6  26
ATOM     26  O   UNL     1      -3.892 -24.830  43.017  1.00  0.00    -0.346 OA
BRANCH  26  27
ATOM     27  C   UNL     1      -4.962 -23.483  43.338  1.00  0.00     0.130 C 
ATOM     28  C   UNL     1      -5.275 -22.331  44.697  1.00  0.00     0.033 C 
ATOM     29  C   UNL     1      -4.609 -21.943  42.678  1.00  0.00     0.020 C 
ATOM     30  C   UNL     1      -4.520 -20.668  44.735  1.00  0.00     0.010 C 
ATOM     31  C   UNL     1      -4.463 -20.187  42.439  1.00  0.00     0.006 C 
ATOM     32  C   UNL     1      -6.387 -21.107  42.296  1.00  0.00     0.017 C 
ATOM     33  C   UNL     1      -3.393 -20.073  43.320  1.00  0.00    -0.022 C 
ATOM     34  C   UNL     1      -4.244 -19.233  40.971  1.00  0.00     0.005 C 
ATOM     35  C   UNL     1      -3.316 -18.476  43.776  1.00  0.00     0.012 C 
ATOM     36  C   UNL     1      -2.443 -20.799  41.786  1.00  0.00     0.024 C 
ATOM     37  C   UNL     1      -2.573 -18.954  40.532  1.00  0.00     0.008 C 
ATOM     38  C   UNL     1      -1.344 -19.853  41.213  1.00  0.00    -0.017 C 
ATOM     39  C   UNL     1      -2.163 -22.285  41.430  1.00  0.00    -0.024 C 
ATOM     40  C   UNL     1      -0.725 -19.244  42.587  1.00  0.00     0.013 C 
ATOM     41  C   UNL     1      -0.059 -20.751  40.373  1.00  0.00     0.009 C 
ATOM     42  C   UNL     1      -1.087 -22.861  41.693  1.00  0.00     0.005 C 
ATOM     43  C   UNL     1       0.148 -22.259  41.108  1.00  0.00     0.096 C 
ATOM     44  C   UNL     1       1.714 -20.359  40.216  1.00  0.00     0.043 C 
ATOM     45  C   UNL     1      -0.502 -21.141  38.875  1.00  0.00     0.015 C 
ATOM     46  C   UNL     1       1.232 -22.359  42.193  1.00  0.00     0.037 C 
ATOM     47  O   UNL     1       0.432 -23.262  40.146  1.00  0.00    -0.369 OA
ATOM     48  C   UNL     1       2.686 -21.671  40.231  1.00  0.00     0.124 C 
ATOM     49  C   UNL     1       2.332 -22.853  41.293  1.00  0.00     0.026 C 
ATOM     50  C   UNL     1       1.734 -21.237  43.134  1.00  0.00     0.014 C 
ATOM     51  C   UNL     1       1.582 -23.933  40.581  1.00  0.00     0.171 C 
ATOM     52  C   UNL     1       3.416 -23.525  42.217  1.00  0.00     0.013 C 
ATOM     53  C   UNL     1       2.742 -21.798  44.192  1.00  0.00    -0.035 C 
ATOM     54  C   UNL     1       3.885 -22.534  43.337  1.00  0.00     0.007 C 
ATOM     55  C   UNL     1       1.918 -22.625  45.279  1.00  0.00     0.011 C 
ATOM     56  C   UNL     1       3.458 -20.680  45.115  1.00  0.00     0.011 C 
BRANCH  29  57
ATOM     57  C   UNL     1      -2.923 -22.501  43.904  1.00  0.00     0.165 C 
BRANCH  57  58
ATOM     58  O   UNL     1      -2.201 -21.728  44.977  1.00  0.00    -0.396 OA
ATOM     59  H   UNL     1      -2.079 -20.772  44.677  1.00  0.00     0.210 HD
ENDBRANCH  57  58
ENDBRANCH  29  57
BRANCH  48  60
ATOM     60  O   UNL     1       2.630 -22.167  38.899  1.00  0.00    -0.392 OA
ATOM     61  H   UNL     1       1.831 -21.725  38.506  1.00  0.00     0.210 HD
ENDBRANCH  48  60
ENDBRANCH  26  27
ENDBRANCH   6  26
BRANCH   5  62
ATOM     62  O   UNL     1      -5.692 -27.448  44.262  1.00  0.00    -0.385 OA
ATOM     63  H   UNL     1      -6.558 -26.900  44.584  1.00  0.00     0.211 HD
ENDBRANCH   5  62
TORSDOF 14
ENDMDL
MODEL 7
REMARK VINA RESULT:    -8.126      3.102      8.588
REMARK INTER + INTRA:         -12.049
REMARK INTER:                 -12.313
REMARK INTRA:                   0.264
REMARK UNBOUND:                -1.311
REMARK SMILES C[C@@H]1O[C@H](O[C@H]2CC[C@]3(C)[C@@H](CC[C@@]4(C)[C@H]3C=C[C@]35OC[C@@]6(CCC(C)(C)C[C@H]63)[C@@H](O)C[C@]45C)[C@]2(C)CO)[C@H](O)[C@@H](O[C@H]2O[C@H](CO)[C@H](O)[C@@H](O)[C@@H]2O)[C@@H]1O
REMARK SMILES IDX 1 1 2 2 54 3 41 4 39 5 4 6 3 7 55 8 42 10 43 11 52 12 44 13
REMARK SMILES IDX 50 14 45 15 48 16 53 17 51 19 46 21 47 22 49 24 5 26 6 27
REMARK SMILES IDX 7 28 35 29 8 30 11 31 36 32 9 33 12 34 10 35 16 36 13 37
REMARK SMILES IDX 14 38 17 39 15 40 33 41 18 42 19 43 32 44 34 45 29 46 20 47
REMARK SMILES IDX 30 48 22 49 28 50 21 51 23 52 25 53 24 54 26 55 27 56 37 57
REMARK SMILES IDX 38 58 31 60 40 62
REMARK H PARENT 55 9 53 18 51 20 47 23 49 25 38 59 31 61 40 63
REMARK Flexibility Score: inf
ROOT
ATOM      1  C   UNL     1      -5.579 -20.664  46.579  1.00  0.00     0.041 C 
ATOM      2  C   UNL     1      -5.663 -19.275  45.412  1.00  0.00     0.150 C 
ATOM      3  C   UNL     1      -4.782 -18.431  44.128  1.00  0.00     0.175 C 
ATOM      4  C   UNL     1      -5.903 -18.635  42.746  1.00  0.00     0.186 C 
ATOM      5  C   UNL     1      -7.576 -19.123  43.070  1.00  0.00     0.202 C 
ATOM      6  C   UNL     1      -7.664 -20.216  44.123  1.00  0.00     0.282 C 
ATOM      7  O   UNL     1      -7.034 -19.358  45.181  1.00  0.00    -0.344 OA
ENDROOT
BRANCH   3   8
ATOM      8  O   UNL     1      -3.529 -19.148  44.082  1.00  0.00    -0.388 OA
ATOM      9  H   UNL     1      -2.821 -18.748  43.322  1.00  0.00     0.211 HD
ENDBRANCH   3   8
BRANCH   4  10
ATOM     10  O   UNL     1      -5.804 -17.783  41.417  1.00  0.00    -0.341 OA
BRANCH  10  11
ATOM     11  C   UNL     1      -6.954 -16.859  41.585  1.00  0.00     0.282 C 
ATOM     12  C   UNL     1      -7.993 -17.074  40.357  1.00  0.00     0.202 C 
ATOM     13  O   UNL     1      -6.586 -15.532  41.976  1.00  0.00    -0.341 OA
ATOM     14  C   UNL     1      -7.355 -16.377  39.151  1.00  0.00     0.179 C 
ATOM     15  C   UNL     1      -7.195 -14.486  41.203  1.00  0.00     0.178 C 
ATOM     16  C   UNL     1      -7.196 -14.843  39.577  1.00  0.00     0.177 C 
BRANCH  12  17
ATOM     17  O   UNL     1      -9.376 -16.633  40.407  1.00  0.00    -0.385 OA
ATOM     18  H   UNL     1      -9.350 -16.080  41.273  1.00  0.00     0.211 HD
ENDBRANCH  12  17
BRANCH  14  19
ATOM     19  O   UNL     1      -6.140 -17.089  38.878  1.00  0.00    -0.387 OA
ATOM     20  H   UNL     1      -5.560 -16.530  38.231  1.00  0.00     0.211 HD
ENDBRANCH  14  19
BRANCH  15  21
ATOM     21  C   UNL     1      -8.536 -13.848  41.776  1.00  0.00     0.191 C 
BRANCH  21  22
ATOM     22  O   UNL     1      -9.768 -14.050  41.093  1.00  0.00    -0.394 OA
ATOM     23  H   UNL     1     -10.158 -14.901  41.506  1.00  0.00     0.210 HD
ENDBRANCH  21  22
ENDBRANCH  15  21
BRANCH  16  24
ATOM     24  O   UNL     1      -8.276 -13.996  38.875  1.00  0.00    -0.387 OA
ATOM     25  H   UNL     1      -7.677 -13.253  38.521  1.00  0.00     0.211 HD
ENDBRANCH  16  24
ENDBRANCH  10  11
ENDBRANCH   4  10
BRANCH   6  26
ATOM     26  O   UNL     1      -6.698 -21.265  43.185  1.00  0.00    -0.346 OA
BRANCH  26  27
ATOM     27  C   UNL     1      -6.618 -22.161  41.684  1.00  0.00     0.130 C 
ATOM     28  C   UNL     1      -5.617 -22.140  40.178  1.00  0.00     0.033 C 
ATOM     29  C   UNL     1      -5.868 -23.700  41.653  1.00  0.00     0.020 C 
ATOM     30  C   UNL     1      -4.192 -23.262  39.960  1.00  0.00     0.010 C 
ATOM     31  C   UNL     1      -4.960 -25.140  41.140  1.00  0.00     0.006 C 
ATOM     32  C   UNL     1      -6.888 -24.762  40.297  1.00  0.00     0.017 C 
ATOM     33  C   UNL     1      -3.726 -24.523  41.310  1.00  0.00    -0.022 C 
ATOM     34  C   UNL     1      -4.983 -26.798  41.743  1.00  0.00     0.005 C 
ATOM     35  C   UNL     1      -2.628 -25.391  40.410  1.00  0.00     0.012 C 
ATOM     36  C   UNL     1      -4.127 -24.906  43.174  1.00  0.00     0.024 C 
ATOM     37  C   UNL     1      -3.840 -27.117  43.028  1.00  0.00     0.008 C 
ATOM     38  C   UNL     1      -3.110 -25.868  43.859  1.00  0.00    -0.017 C 
ATOM     39  C   UNL     1      -4.864 -24.015  44.212  1.00  0.00    -0.024 C 
ATOM     40  C   UNL     1      -1.715 -25.337  43.217  1.00  0.00     0.013 C 
ATOM     41  C   UNL     1      -3.040 -25.626  45.619  1.00  0.00     0.009 C 
ATOM     42  C   UNL     1      -4.269 -23.299  45.044  1.00  0.00     0.005 C 
ATOM     43  C   UNL     1      -3.337 -24.001  45.977  1.00  0.00     0.096 C 
ATOM     44  C   UNL     1      -1.635 -25.830  46.761  1.00  0.00     0.043 C 
ATOM     45  C   UNL     1      -4.253 -26.383  46.361  1.00  0.00     0.015 C 
ATOM     46  C   UNL     1      -2.110 -23.089  46.128  1.00  0.00     0.037 C 
ATOM     47  O   UNL     1      -4.099 -23.871  47.167  1.00  0.00    -0.369 OA
ATOM     48  C   UNL     1      -1.612 -24.747  47.983  1.00  0.00     0.124 C 
ATOM     49  C   UNL     1      -1.992 -23.205  47.624  1.00  0.00     0.026 C 
ATOM     50  C   UNL     1      -0.731 -23.237  45.440  1.00  0.00     0.014 C 
ATOM     51  C   UNL     1      -3.421 -22.962  47.990  1.00  0.00     0.171 C 
ATOM     52  C   UNL     1      -1.135 -21.977  48.115  1.00  0.00     0.013 C 
ATOM     53  C   UNL     1       0.190 -22.010  45.752  1.00  0.00    -0.035 C 
ATOM     54  C   UNL     1       0.234 -21.913  47.355  1.00  0.00     0.007 C 
ATOM     55  C   UNL     1      -0.332 -20.764  44.903  1.00  0.00     0.011 C 
ATOM     56  C   UNL     1       1.712 -22.145  45.223  1.00  0.00     0.011 C 
BRANCH  29  57
ATOM     57  C   UNL     1      -4.380 -22.291  42.331  1.00  0.00     0.165 C 
BRANCH  57  58
ATOM     58  O   UNL     1      -3.973 -20.956  41.764  1.00  0.00    -0.396 OA
ATOM     59  H   UNL     1      -4.749 -20.313  41.829  1.00  0.00     0.210 HD
ENDBRANCH  57  58
ENDBRANCH  29  57
BRANCH  48  60
ATOM     60  O   UNL     1      -2.525 -25.273  48.939  1.00  0.00    -0.392 OA
ATOM     61  H   UNL     1      -3.350 -24.733  48.812  1.00  0.00     0.210 HD
ENDBRANCH  48  60
ENDBRANCH  26  27
ENDBRANCH   6  26
BRANCH   5  62
ATOM     62  O   UNL     1      -9.045 -18.852  42.627  1.00  0.00    -0.385 OA
ATOM     63  H   UNL     1      -9.642 -18.660  43.499  1.00  0.00     0.211 HD
ENDBRANCH   5  62
TORSDOF 14
ENDMDL
MODEL 8
REMARK VINA RESULT:    -7.906      1.680      4.830
REMARK INTER + INTRA:         -11.759
REMARK INTER:                 -10.282
REMARK INTRA:                  -1.478
REMARK UNBOUND:                -1.311
REMARK SMILES C[C@@H]1O[C@H](O[C@H]2CC[C@]3(C)[C@@H](CC[C@@]4(C)[C@H]3C=C[C@]35OC[C@@]6(CCC(C)(C)C[C@H]63)[C@@H](O)C[C@]45C)[C@]2(C)CO)[C@H](O)[C@@H](O[C@H]2O[C@H](CO)[C@H](O)[C@@H](O)[C@@H]2O)[C@@H]1O
REMARK SMILES IDX 1 1 2 2 54 3 41 4 39 5 4 6 3 7 55 8 42 10 43 11 52 12 44 13
REMARK SMILES IDX 50 14 45 15 48 16 53 17 51 19 46 21 47 22 49 24 5 26 6 27
REMARK SMILES IDX 7 28 35 29 8 30 11 31 36 32 9 33 12 34 10 35 16 36 13 37
REMARK SMILES IDX 14 38 17 39 15 40 33 41 18 42 19 43 32 44 34 45 29 46 20 47
REMARK SMILES IDX 30 48 22 49 28 50 21 51 23 52 25 53 24 54 26 55 27 56 37 57
REMARK SMILES IDX 38 58 31 60 40 62
REMARK H PARENT 55 9 53 18 51 20 47 23 49 25 38 59 31 61 40 63
REMARK Flexibility Score: inf
ROOT
ATOM      1  C   UNL     1      -4.610 -21.352  47.053  1.00  0.00     0.041 C 
ATOM      2  C   UNL     1      -4.378 -23.153  47.024  1.00  0.00     0.150 C 
ATOM      3  C   UNL     1      -4.355 -24.574  45.966  1.00  0.00     0.175 C 
ATOM      4  C   UNL     1      -2.676 -25.153  46.199  1.00  0.00     0.186 C 
ATOM      5  C   UNL     1      -1.751 -24.548  47.584  1.00  0.00     0.202 C 
ATOM      6  C   UNL     1      -1.941 -23.055  47.798  1.00  0.00     0.282 C 
ATOM      7  O   UNL     1      -3.417 -23.196  48.030  1.00  0.00    -0.344 OA
ENDROOT
BRANCH   3   8
ATOM      8  O   UNL     1      -4.696 -24.015  44.678  1.00  0.00    -0.388 OA
ATOM      9  H   UNL     1      -4.188 -23.047  44.472  1.00  0.00     0.211 HD
ENDBRANCH   3   8
BRANCH   4  10
ATOM     10  O   UNL     1      -2.190 -26.597  45.774  1.00  0.00    -0.341 OA
BRANCH  10  11
ATOM     11  C   UNL     1      -2.451 -26.566  44.312  1.00  0.00     0.282 C 
ATOM     12  C   UNL     1      -3.644 -27.608  43.962  1.00  0.00     0.202 C 
ATOM     13  O   UNL     1      -1.267 -26.550  43.507  1.00  0.00    -0.341 OA
ATOM     14  C   UNL     1      -3.007 -28.999  44.019  1.00  0.00     0.179 C 
ATOM     15  C   UNL     1      -1.257 -27.504  42.433  1.00  0.00     0.178 C 
ATOM     16  C   UNL     1      -1.845 -28.983  42.919  1.00  0.00     0.177 C 
BRANCH  12  17
ATOM     17  O   UNL     1      -4.405 -27.550  42.727  1.00  0.00    -0.385 OA
ATOM     18  H   UNL     1      -4.605 -28.551  42.599  1.00  0.00     0.211 HD
ENDBRANCH  12  17
BRANCH  14  19
ATOM     19  O   UNL     1      -2.589 -29.190  45.378  1.00  0.00    -0.387 OA
ATOM     20  H   UNL     1      -1.780 -29.831  45.396  1.00  0.00     0.211 HD
ENDBRANCH  14  19
BRANCH  15  21
ATOM     21  C   UNL     1      -1.746 -26.994  41.007  1.00  0.00     0.191 C 
BRANCH  21  22
ATOM     22  O   UNL     1      -2.762 -26.002  40.916  1.00  0.00    -0.394 OA
ATOM     23  H   UNL     1      -2.575 -25.366  41.695  1.00  0.00     0.210 HD
ENDBRANCH  21  22
ENDBRANCH  15  21
BRANCH  16  24
ATOM     24  O   UNL     1      -2.296 -29.779  41.677  1.00  0.00    -0.387 OA
ATOM     25  H   UNL     1      -2.946 -30.414  42.135  1.00  0.00     0.211 HD
ENDBRANCH  16  24
ENDBRANCH  10  11
ENDBRANCH   4  10
BRANCH   6  26
ATOM     26  O   UNL     1      -1.349 -22.707  46.235  1.00  0.00    -0.346 OA
BRANCH  26  27
ATOM     27  C   UNL     1       0.097 -22.580  45.259  1.00  0.00     0.130 C 
ATOM     28  C   UNL     1       0.897 -23.529  43.942  1.00  0.00     0.033 C 
ATOM     29  C   UNL     1       0.128 -21.508  43.924  1.00  0.00     0.020 C 
ATOM     30  C   UNL     1       0.670 -23.101  42.181  1.00  0.00     0.010 C 
ATOM     31  C   UNL     1       0.472 -20.768  42.344  1.00  0.00     0.006 C 
ATOM     32  C   UNL     1       2.011 -20.836  43.825  1.00  0.00     0.017 C 
ATOM     33  C   UNL     1      -0.401 -21.613  41.667  1.00  0.00    -0.022 C 
ATOM     34  C   UNL     1       0.359 -19.093  41.802  1.00  0.00     0.005 C 
ATOM     35  C   UNL     1       0.047 -21.581  40.065  1.00  0.00     0.012 C 
ATOM     36  C   UNL     1      -1.704 -20.394  42.441  1.00  0.00     0.024 C 
ATOM     37  C   UNL     1      -1.199 -18.649  41.141  1.00  0.00     0.008 C 
ATOM     38  C   UNL     1      -2.542 -19.607  41.390  1.00  0.00    -0.017 C 
ATOM     39  C   UNL     1      -2.446 -20.502  43.802  1.00  0.00    -0.024 C 
ATOM     40  C   UNL     1      -2.782 -20.760  40.271  1.00  0.00     0.013 C 
ATOM     41  C   UNL     1      -4.127 -19.113  42.029  1.00  0.00     0.009 C 
ATOM     42  C   UNL     1      -3.601 -20.960  43.917  1.00  0.00     0.005 C 
ATOM     43  C   UNL     1      -4.671 -20.266  43.138  1.00  0.00     0.096 C 
ATOM     44  C   UNL     1      -5.714 -18.909  41.157  1.00  0.00     0.043 C 
ATOM     45  C   UNL     1      -4.006 -17.782  42.926  1.00  0.00     0.015 C 
ATOM     46  C   UNL     1      -5.594 -21.368  42.597  1.00  0.00     0.037 C 
ATOM     47  O   UNL     1      -5.351 -19.652  44.222  1.00  0.00    -0.369 OA
ATOM     48  C   UNL     1      -7.016 -19.342  42.042  1.00  0.00     0.124 C 
ATOM     49  C   UNL     1      -6.893 -20.692  42.943  1.00  0.00     0.026 C 
ATOM     50  C   UNL     1      -5.627 -21.955  41.164  1.00  0.00     0.014 C 
ATOM     51  C   UNL     1      -6.584 -20.305  44.354  1.00  0.00     0.171 C 
ATOM     52  C   UNL     1      -8.002 -21.810  42.965  1.00  0.00     0.013 C 
ATOM     53  C   UNL     1      -6.616 -23.165  41.072  1.00  0.00    -0.035 C 
ATOM     54  C   UNL     1      -8.020 -22.604  41.614  1.00  0.00     0.007 C 
ATOM     55  C   UNL     1      -5.939 -24.418  41.792  1.00  0.00     0.011 C 
ATOM     56  C   UNL     1      -6.855 -23.742  39.581  1.00  0.00     0.011 C 
BRANCH  29  57
ATOM     57  C   UNL     1      -1.481 -22.902  43.571  1.00  0.00     0.165 C 
BRANCH  57  58
ATOM     58  O   UNL     1      -1.841 -23.682  42.333  1.00  0.00    -0.396 OA
ATOM     59  H   UNL     1      -2.452 -23.126  41.752  1.00  0.00     0.210 HD
ENDBRANCH  57  58
ENDBRANCH  29  57
BRANCH  48  60
ATOM     60  O   UNL     1      -7.273 -18.214  42.870  1.00  0.00    -0.392 OA
ATOM     61  H   UNL     1      -7.905 -17.660  42.340  1.00  0.00     0.210 HD
ENDBRANCH  48  60
ENDBRANCH  26  27
ENDBRANCH   6  26
BRANCH   5  62
ATOM     62  O   UNL     1      -0.747 -25.002  48.687  1.00  0.00    -0.385 OA
ATOM     63  H   UNL     1      -0.938 -26.031  48.929  1.00  0.00     0.211 HD
ENDBRANCH   5  62
TORSDOF 14
ENDMDL
MODEL 9
REMARK VINA RESULT:    -7.871      2.357      5.220
REMARK INTER + INTRA:         -11.712
REMARK INTER:                 -10.194
REMARK INTRA:                  -1.518
REMARK UNBOUND:                -1.311
REMARK SMILES C[C@@H]1O[C@H](O[C@H]2CC[C@]3(C)[C@@H](CC[C@@]4(C)[C@H]3C=C[C@]35OC[C@@]6(CCC(C)(C)C[C@H]63)[C@@H](O)C[C@]45C)[C@]2(C)CO)[C@H](O)[C@@H](O[C@H]2O[C@H](CO)[C@H](O)[C@@H](O)[C@@H]2O)[C@@H]1O
REMARK SMILES IDX 1 1 2 2 54 3 41 4 39 5 4 6 3 7 55 8 42 10 43 11 52 12 44 13
REMARK SMILES IDX 50 14 45 15 48 16 53 17 51 19 46 21 47 22 49 24 5 26 6 27
REMARK SMILES IDX 7 28 35 29 8 30 11 31 36 32 9 33 12 34 10 35 16 36 13 37
REMARK SMILES IDX 14 38 17 39 15 40 33 41 18 42 19 43 32 44 34 45 29 46 20 47
REMARK SMILES IDX 30 48 22 49 28 50 21 51 23 52 25 53 24 54 26 55 27 56 37 57
REMARK SMILES IDX 38 58 31 60 40 62
REMARK H PARENT 55 9 53 18 51 20 47 23 49 25 38 59 31 61 40 63
REMARK Flexibility Score: inf
ROOT
ATOM      1  C   UNL     1      -0.271 -19.622  41.572  1.00  0.00     0.041 C 
ATOM      2  C   UNL     1       0.151 -19.970  43.304  1.00  0.00     0.150 C 
ATOM      3  C   UNL     1      -0.525 -20.418  44.878  1.00  0.00     0.175 C 
ATOM      4  C   UNL     1       0.309 -21.973  45.185  1.00  0.00     0.186 C 
ATOM      5  C   UNL     1       1.745 -22.373  44.226  1.00  0.00     0.202 C 
ATOM      6  C   UNL     1       1.571 -22.027  42.755  1.00  0.00     0.282 C 
ATOM      7  O   UNL     1       1.381 -20.566  43.040  1.00  0.00    -0.344 OA
ENDROOT
BRANCH   3   8
ATOM      8  O   UNL     1      -1.944 -20.464  44.610  1.00  0.00    -0.388 OA
ATOM      9  H   UNL     1      -2.537 -20.893  45.449  1.00  0.00     0.211 HD
ENDBRANCH   3   8
BRANCH   4  10
ATOM     10  O   UNL     1       0.362 -22.662  46.608  1.00  0.00    -0.341 OA
BRANCH  10  11
ATOM     11  C   UNL     1      -1.083 -22.882  46.871  1.00  0.00     0.282 C 
ATOM     12  C   UNL     1      -1.532 -21.987  48.148  1.00  0.00     0.202 C 
ATOM     13  O   UNL     1      -1.491 -24.252  46.789  1.00  0.00    -0.341 OA
ATOM     14  C   UNL     1      -0.994 -22.723  49.378  1.00  0.00     0.179 C 
ATOM     15  C   UNL     1      -2.282 -24.711  47.895  1.00  0.00     0.178 C 
ATOM     16  C   UNL     1      -1.683 -24.167  49.349  1.00  0.00     0.177 C 
BRANCH  12  17
ATOM     17  O   UNL     1      -2.918 -21.661  48.434  1.00  0.00    -0.385 OA
ATOM     18  H   UNL     1      -3.058 -22.224  49.283  1.00  0.00     0.211 HD
ENDBRANCH  12  17
BRANCH  14  19
ATOM     19  O   UNL     1       0.436 -22.701  49.260  1.00  0.00    -0.387 OA
ATOM     20  H   UNL     1       0.781 -21.762  49.513  1.00  0.00     0.211 HD
ENDBRANCH  14  19
BRANCH  15  21
ATOM     21  C   UNL     1      -3.865 -24.652  47.728  1.00  0.00     0.191 C 
BRANCH  21  22
ATOM     22  O   UNL     1      -4.462 -23.596  46.984  1.00  0.00    -0.394 OA
ATOM     23  H   UNL     1      -3.870 -23.494  46.156  1.00  0.00     0.210 HD
ENDBRANCH  21  22
ENDBRANCH  15  21
BRANCH  16  24
ATOM     24  O   UNL     1      -2.800 -24.229  50.411  1.00  0.00    -0.387 OA
ATOM     25  H   UNL     1      -2.781 -25.231  50.590  1.00  0.00     0.211 HD
ENDBRANCH  16  24
ENDBRANCH  10  11
ENDBRANCH   4  10
BRANCH   6  26
ATOM     26  O   UNL     1       0.215 -23.057  42.624  1.00  0.00    -0.346 OA
BRANCH  26  27
ATOM     27  C   UNL     1      -0.294 -24.724  42.473  1.00  0.00     0.130 C 
ATOM     28  C   UNL     1      -1.063 -25.977  43.527  1.00  0.00     0.033 C 
ATOM     29  C   UNL     1      -1.768 -25.093  41.685  1.00  0.00     0.020 C 
ATOM     30  C   UNL     1      -2.861 -26.291  43.484  1.00  0.00     0.010 C 
ATOM     31  C   UNL     1      -3.302 -25.861  41.219  1.00  0.00     0.006 C 
ATOM     32  C   UNL     1      -1.459 -26.847  40.772  1.00  0.00     0.017 C 
ATOM     33  C   UNL     1      -3.995 -25.322  42.298  1.00  0.00    -0.022 C 
ATOM     34  C   UNL     1      -4.222 -25.792  39.715  1.00  0.00     0.005 C 
ATOM     35  C   UNL     1      -5.356 -26.255  42.508  1.00  0.00     0.012 C 
ATOM     36  C   UNL     1      -3.938 -23.746  41.161  1.00  0.00     0.024 C 
ATOM     37  C   UNL     1      -5.395 -24.496  39.642  1.00  0.00     0.008 C 
ATOM     38  C   UNL     1      -5.341 -23.227  40.723  1.00  0.00    -0.017 C 
ATOM     39  C   UNL     1      -2.869 -22.619  41.114  1.00  0.00    -0.024 C 
ATOM     40  C   UNL     1      -6.186 -23.452  42.093  1.00  0.00     0.013 C 
ATOM     41  C   UNL     1      -5.327 -21.486  40.357  1.00  0.00     0.009 C 
ATOM     42  C   UNL     1      -2.997 -21.529  41.708  1.00  0.00     0.005 C 
ATOM     43  C   UNL     1      -4.194 -20.712  41.344  1.00  0.00     0.096 C 
ATOM     44  C   UNL     1      -6.650 -20.249  40.562  1.00  0.00     0.043 C 
ATOM     45  C   UNL     1      -4.763 -21.206  38.875  1.00  0.00     0.015 C 
ATOM     46  C   UNL     1      -4.716 -20.103  42.654  1.00  0.00     0.037 C 
ATOM     47  O   UNL     1      -3.529 -19.673  40.640  1.00  0.00    -0.369 OA
ATOM     48  C   UNL     1      -6.113 -18.773  41.006  1.00  0.00     0.124 C 
ATOM     49  C   UNL     1      -4.931 -18.711  42.124  1.00  0.00     0.026 C 
ATOM     50  C   UNL     1      -5.921 -20.577  43.502  1.00  0.00     0.014 C 
ATOM     51  C   UNL     1      -3.621 -18.521  41.431  1.00  0.00     0.171 C 
ATOM     52  C   UNL     1      -4.982 -17.748  43.370  1.00  0.00     0.013 C 
ATOM     53  C   UNL     1      -6.021 -19.772  44.841  1.00  0.00    -0.035 C 
ATOM     54  C   UNL     1      -6.060 -18.227  44.401  1.00  0.00     0.007 C 
ATOM     55  C   UNL     1      -4.867 -20.282  45.818  1.00  0.00     0.011 C 
ATOM     56  C   UNL     1      -7.343 -20.069  45.722  1.00  0.00     0.011 C 
BRANCH  29  57
ATOM     57  C   UNL     1      -2.251 -23.799  43.344  1.00  0.00     0.165 C 
BRANCH  57  58
ATOM     58  O   UNL     1      -3.378 -23.873  44.340  1.00  0.00    -0.396 OA
ATOM     59  H   UNL     1      -3.950 -24.680  44.142  1.00  0.00     0.210 HD
ENDBRANCH  57  58
ENDBRANCH  29  57
BRANCH  48  60
ATOM     60  O   UNL     1      -5.678 -18.175  39.791  1.00  0.00    -0.392 OA
ATOM     61  H   UNL     1      -6.229 -18.615  39.090  1.00  0.00     0.210 HD
ENDBRANCH  48  60
ENDBRANCH  26  27
ENDBRANCH   6  26
BRANCH   5  62
ATOM     62  O   UNL     1       3.164 -23.007  44.340  1.00  0.00    -0.385 OA
ATOM     63  H   UNL     1       3.063 -24.072  44.427  1.00  0.00     0.211 HD
ENDBRANCH   5  62
TORSDOF 14
ENDMDL
