MODEL 1
REMARK VINA RESULT:    -4.806      0.000      0.000
REMARK INTER + INTRA:         -11.239
REMARK INTER:                  -9.021
REMARK INTRA:                  -2.218
REMARK UNBOUND:                -2.218
REMARK SMILES CCCCCCCCC=CCCCCCCCC(=O)[O-]
REMARK SMILES IDX 10 1 9 2 11 3 12 4 13 5 14 6 15 7 16 8 17 9 18 10 19 11
REMARK SMILES IDX 20 12 8 13 7 14 6 15 5 16 4 17 3 18 2 19 1 20
REMARK H PARENT
REMARK Flexibility Score: inf
ROOT
ATOM      1  C   UNL     1       4.274   1.950  16.288  1.00  0.00    -0.031 C 
ATOM      2  C   UNL     1       3.654   1.374  15.240  1.00  0.00    -0.031 C 
ENDROOT
BRANCH   1   3
ATOM      3  C   UNL     1       5.022   1.208  17.372  1.00  0.00     0.027 C 
BRANCH   3   4
ATOM      4  C   UNL     1       6.169   2.054  17.938  1.00  0.00     0.004 C 
BRANCH   4   5
ATOM      5  C   UNL     1       7.112   2.566  16.836  1.00  0.00     0.000 C 
BRANCH   5   6
ATOM      6  C   UNL     1       7.418   4.070  16.989  1.00  0.00     0.000 C 
BRANCH   6   7
ATOM      7  C   UNL     1       6.525   4.777  18.022  1.00  0.00     0.000 C 
BRANCH   7   8
ATOM      8  C   UNL     1       7.315   5.695  18.964  1.00  0.00     0.006 C 
BRANCH   8   9
ATOM      9  C   UNL     1       8.064   4.880  20.024  1.00  0.00     0.053 C 
BRANCH   9  10
ATOM     10  C   UNL     1       7.869   5.471  21.387  1.00  0.00     0.041 C 
ATOM     11  O   UNL     1       8.612   5.122  22.342  1.00  0.00    -0.550 OA
ATOM     12  O   UNL     1       6.847   6.389  21.609  1.00  0.00    -0.550 OA
ENDBRANCH   9  10
ENDBRANCH   8   9
ENDBRANCH   7   8
ENDBRANCH   6   7
ENDBRANCH   5   6
ENDBRANCH   4   5
ENDBRANCH   3   4
ENDBRANCH   1   3
BRANCH   2  13
ATOM     13  C   UNL     1       3.636  -0.107  14.957  1.00  0.00     0.027 C 
BRANCH  13  14
ATOM     14  C   UNL     1       4.710  -0.486  13.928  1.00  0.00     0.004 C 
BRANCH  14  15
ATOM     15  C   UNL     1       5.762  -1.415  14.550  1.00  0.00     0.000 C 
BRANCH  15  16
ATOM     16  C   UNL     1       7.032  -0.665  14.984  1.00  0.00     0.000 C 
BRANCH  16  17
ATOM     17  C   UNL     1       7.955  -1.522  15.868  1.00  0.00    -0.000 C 
BRANCH  17  18
ATOM     18  C   UNL     1       7.775  -1.209  17.369  1.00  0.00    -0.000 C 
BRANCH  18  19
ATOM     19  C   UNL     1       9.097  -0.926  18.103  1.00  0.00    -0.003 C 
ATOM     20  C   UNL     1       9.850   0.276  17.537  1.00  0.00     0.004 C 
ENDBRANCH  18  19
ENDBRANCH  17  18
ENDBRANCH  16  17
ENDBRANCH  15  16
ENDBRANCH  14  15
ENDBRANCH  13  14
ENDBRANCH   2  13
TORSDOF 15
ENDMDL
MODEL 2
REMARK VINA RESULT:    -4.787     12.965     15.473
REMARK INTER + INTRA:         -11.202
REMARK INTER:                  -8.053
REMARK INTRA:                  -3.149
REMARK UNBOUND:                -2.218
REMARK SMILES CCCCCCCCC=CCCCCCCCC(=O)[O-]
REMARK SMILES IDX 10 1 9 2 11 3 12 4 13 5 14 6 15 7 16 8 17 9 18 10 19 11
REMARK SMILES IDX 20 12 8 13 7 14 6 15 5 16 4 17 3 18 2 19 1 20
REMARK H PARENT
REMARK Flexibility Score: inf
ROOT
ATOM      1  C   UNL     1      22.410  -2.705  21.712  1.00  0.00    -0.031 C 
ATOM      2  C   UNL     1      22.340  -1.590  22.465  1.00  0.00    -0.031 C 
ENDROOT
BRANCH   1   3
ATOM      3  C   UNL     1      22.158  -4.110  22.211  1.00  0.00     0.027 C 
BRANCH   3   4
ATOM      4  C   UNL     1      21.057  -4.801  21.398  1.00  0.00     0.004 C 
BRANCH   4   5
ATOM      5  C   UNL     1      19.859  -5.210  22.271  1.00  0.00     0.000 C 
BRANCH   5   6
ATOM      6  C   UNL     1      20.052  -4.802  23.747  1.00  0.00     0.000 C 
BRANCH   6   7
ATOM      7  C   UNL     1      18.980  -3.827  24.261  1.00  0.00     0.000 C 
BRANCH   7   8
ATOM      8  C   UNL     1      17.559  -4.230  23.844  1.00  0.00     0.006 C 
BRANCH   8   9
ATOM      9  C   UNL     1      16.521  -3.675  24.824  1.00  0.00     0.053 C 
BRANCH   9  10
ATOM     10  C   UNL     1      16.337  -2.201  24.627  1.00  0.00     0.041 C 
ATOM     11  O   UNL     1      16.425  -1.414  25.607  1.00  0.00    -0.550 OA
ATOM     12  O   UNL     1      16.042  -1.697  23.364  1.00  0.00    -0.550 OA
ENDBRANCH   9  10
ENDBRANCH   8   9
ENDBRANCH   7   8
ENDBRANCH   6   7
ENDBRANCH   5   6
ENDBRANCH   4   5
ENDBRANCH   3   4
ENDBRANCH   1   3
BRANCH   2  13
ATOM     13  C   UNL     1      21.959  -1.557  23.923  1.00  0.00     0.027 C 
BRANCH  13  14
ATOM     14  C   UNL     1      20.836  -0.543  24.178  1.00  0.00     0.004 C 
BRANCH  14  15
ATOM     15  C   UNL     1      20.458   0.193  22.885  1.00  0.00     0.000 C 
BRANCH  15  16
ATOM     16  C   UNL     1      18.939   0.239  22.653  1.00  0.00     0.000 C 
BRANCH  16  17
ATOM     17  C   UNL     1      18.531  -0.312  21.275  1.00  0.00    -0.000 C 
BRANCH  17  18
ATOM     18  C   UNL     1      18.847  -1.816  21.136  1.00  0.00    -0.000 C 
BRANCH  18  19
ATOM     19  C   UNL     1      18.879  -2.308  19.678  1.00  0.00    -0.003 C 
ATOM     20  C   UNL     1      20.104  -1.818  18.908  1.00  0.00     0.004 C 
ENDBRANCH  18  19
ENDBRANCH  17  18
ENDBRANCH  16  17
ENDBRANCH  15  16
ENDBRANCH  14  15
ENDBRANCH  13  14
ENDBRANCH   2  13
TORSDOF 15
ENDMDL
MODEL 3
REMARK VINA RESULT:    -4.782     10.134     11.837
REMARK INTER + INTRA:         -11.193
REMARK INTER:                  -8.817
REMARK INTRA:                  -2.377
REMARK UNBOUND:                -2.218
REMARK SMILES CCCCCCCCC=CCCCCCCCC(=O)[O-]
REMARK SMILES IDX 10 1 9 2 11 3 12 4 13 5 14 6 15 7 16 8 17 9 18 10 19 11
REMARK SMILES IDX 20 12 8 13 7 14 6 15 5 16 4 17 3 18 2 19 1 20
REMARK H PARENT
REMARK Flexibility Score: inf
ROOT
ATOM      1  C   UNL     1      12.534   1.782   7.886  1.00  0.00    -0.031 C 
ATOM      2  C   UNL     1      13.002   2.515   6.857  1.00  0.00    -0.031 C 
ENDROOT
BRANCH   1   3
ATOM      3  C   UNL     1      13.343   1.354   9.089  1.00  0.00     0.027 C 
BRANCH   3   4
ATOM      4  C   UNL     1      14.306   0.213   8.737  1.00  0.00     0.004 C 
BRANCH   4   5
ATOM      5  C   UNL     1      15.689   0.399   9.385  1.00  0.00     0.000 C 
BRANCH   5   6
ATOM      6  C   UNL     1      15.905   1.844   9.883  1.00  0.00     0.000 C 
BRANCH   6   7
ATOM      7  C   UNL     1      15.908   1.971  11.415  1.00  0.00     0.000 C 
BRANCH   7   8
ATOM      8  C   UNL     1      15.796   3.426  11.891  1.00  0.00     0.006 C 
BRANCH   8   9
ATOM      9  C   UNL     1      15.695   3.497  13.419  1.00  0.00     0.053 C 
BRANCH   9  10
ATOM     10  C   UNL     1      16.857   4.246  13.995  1.00  0.00     0.041 C 
ATOM     11  O   UNL     1      17.726   4.751  13.234  1.00  0.00    -0.550 OA
ATOM     12  O   UNL     1      16.998   4.366  15.374  1.00  0.00    -0.550 OA
ENDBRANCH   9  10
ENDBRANCH   8   9
ENDBRANCH   7   8
ENDBRANCH   6   7
ENDBRANCH   5   6
ENDBRANCH   4   5
ENDBRANCH   3   4
ENDBRANCH   1   3
BRANCH   2  13
ATOM     13  C   UNL     1      14.403   3.063   6.756  1.00  0.00     0.027 C 
BRANCH  13  14
ATOM     14  C   UNL     1      14.433   4.350   5.922  1.00  0.00     0.004 C 
BRANCH  14  15
ATOM     15  C   UNL     1      13.136   5.151   6.101  1.00  0.00     0.000 C 
BRANCH  15  16
ATOM     16  C   UNL     1      13.276   6.282   7.133  1.00  0.00     0.000 C 
BRANCH  16  17
ATOM     17  C   UNL     1      12.487   6.008   8.426  1.00  0.00    -0.000 C 
BRANCH  17  18
ATOM     18  C   UNL     1      13.326   5.231   9.462  1.00  0.00    -0.000 C 
BRANCH  18  19
ATOM     19  C   UNL     1      12.482   4.548  10.551  1.00  0.00    -0.003 C 
ATOM     20  C   UNL     1      11.024   4.347  10.141  1.00  0.00     0.004 C 
ENDBRANCH  18  19
ENDBRANCH  17  18
ENDBRANCH  16  17
ENDBRANCH  15  16
ENDBRANCH  14  15
ENDBRANCH  13  14
ENDBRANCH   2  13
TORSDOF 15
ENDMDL
MODEL 4
REMARK VINA RESULT:    -4.770     11.415     13.836
REMARK INTER + INTRA:         -11.172
REMARK INTER:                  -9.267
REMARK INTRA:                  -1.905
REMARK UNBOUND:                -2.218
REMARK SMILES CCCCCCCCC=CCCCCCCCC(=O)[O-]
REMARK SMILES IDX 10 1 9 2 11 3 12 4 13 5 14 6 15 7 16 8 17 9 18 10 19 11
REMARK SMILES IDX 20 12 8 13 7 14 6 15 5 16 4 17 3 18 2 19 1 20
REMARK H PARENT
REMARK Flexibility Score: inf
ROOT
ATOM      1  C   UNL     1      16.005   2.773  11.737  1.00  0.00    -0.031 C 
ATOM      2  C   UNL     1      14.920   3.484  12.099  1.00  0.00    -0.031 C 
ENDROOT
BRANCH   1   3
ATOM      3  C   UNL     1      16.050   1.763  10.614  1.00  0.00     0.027 C 
BRANCH   3   4
ATOM      4  C   UNL     1      15.591   0.379  11.088  1.00  0.00     0.004 C 
BRANCH   4   5
ATOM      5  C   UNL     1      15.248  -0.554   9.914  1.00  0.00     0.000 C 
BRANCH   5   6
ATOM      6  C   UNL     1      15.070   0.221   8.592  1.00  0.00     0.000 C 
BRANCH   6   7
ATOM      7  C   UNL     1      14.177  -0.502   7.570  1.00  0.00     0.000 C 
BRANCH   7   8
ATOM      8  C   UNL     1      13.614  -1.826   8.105  1.00  0.00     0.006 C 
BRANCH   8   9
ATOM      9  C   UNL     1      13.652  -2.914   7.025  1.00  0.00     0.053 C 
BRANCH   9  10
ATOM     10  C   UNL     1      14.875  -3.767   7.173  1.00  0.00     0.041 C 
ATOM     11  O   UNL     1      15.524  -3.764   8.253  1.00  0.00    -0.550 OA
ATOM     12  O   UNL     1      15.315  -4.546   6.108  1.00  0.00    -0.550 OA
ENDBRANCH   9  10
ENDBRANCH   8   9
ENDBRANCH   7   8
ENDBRANCH   6   7
ENDBRANCH   5   6
ENDBRANCH   4   5
ENDBRANCH   3   4
ENDBRANCH   1   3
BRANCH   2  13
ATOM     13  C   UNL     1      13.579   3.417  11.415  1.00  0.00     0.027 C 
BRANCH  13  14
ATOM     14  C   UNL     1      13.457   4.495  10.329  1.00  0.00     0.004 C 
BRANCH  14  15
ATOM     15  C   UNL     1      12.967   3.889   9.007  1.00  0.00     0.000 C 
BRANCH  15  16
ATOM     16  C   UNL     1      14.111   3.640   8.010  1.00  0.00     0.000 C 
BRANCH  16  17
ATOM     17  C   UNL     1      13.607   3.394   6.576  1.00  0.00    -0.000 C 
BRANCH  17  18
ATOM     18  C   UNL     1      12.847   4.613   6.012  1.00  0.00    -0.000 C 
BRANCH  18  19
ATOM     19  C   UNL     1      13.718   5.874   5.877  1.00  0.00    -0.003 C 
ATOM     20  C   UNL     1      13.145   7.079   6.620  1.00  0.00     0.004 C 
ENDBRANCH  18  19
ENDBRANCH  17  18
ENDBRANCH  16  17
ENDBRANCH  15  16
ENDBRANCH  14  15
ENDBRANCH  13  14
ENDBRANCH   2  13
TORSDOF 15
ENDMDL
MODEL 5
REMARK VINA RESULT:    -4.763      1.870      3.271
REMARK INTER + INTRA:         -11.157
REMARK INTER:                  -9.066
REMARK INTRA:                  -2.091
REMARK UNBOUND:                -2.218
REMARK SMILES CCCCCCCCC=CCCCCCCCC(=O)[O-]
REMARK SMILES IDX 10 1 9 2 11 3 12 4 13 5 14 6 15 7 16 8 17 9 18 10 19 11
REMARK SMILES IDX 20 12 8 13 7 14 6 15 5 16 4 17 3 18 2 19 1 20
REMARK H PARENT
REMARK Flexibility Score: inf
ROOT
ATOM      1  C   UNL     1       8.412   1.760  18.604  1.00  0.00    -0.031 C 
ATOM      2  C   UNL     1       8.788   0.511  18.266  1.00  0.00    -0.031 C 
ENDROOT
BRANCH   1   3
ATOM      3  C   UNL     1       7.000   2.185  18.938  1.00  0.00     0.027 C 
BRANCH   3   4
ATOM      4  C   UNL     1       6.334   2.890  17.751  1.00  0.00     0.004 C 
BRANCH   4   5
ATOM      5  C   UNL     1       7.027   4.219  17.401  1.00  0.00     0.000 C 
BRANCH   5   6
ATOM      6  C   UNL     1       6.415   5.410  18.167  1.00  0.00     0.000 C 
BRANCH   6   7
ATOM      7  C   UNL     1       7.439   6.192  19.007  1.00  0.00     0.000 C 
BRANCH   7   8
ATOM      8  C   UNL     1       7.780   5.494  20.330  1.00  0.00     0.006 C 
BRANCH   8   9
ATOM      9  C   UNL     1       7.014   6.126  21.498  1.00  0.00     0.053 C 
BRANCH   9  10
ATOM     10  C   UNL     1       7.033   5.226  22.696  1.00  0.00     0.041 C 
ATOM     11  O   UNL     1       6.261   5.448  23.667  1.00  0.00    -0.550 OA
ATOM     12  O   UNL     1       7.922   4.157  22.753  1.00  0.00    -0.550 OA
ENDBRANCH   9  10
ENDBRANCH   8   9
ENDBRANCH   7   8
ENDBRANCH   6   7
ENDBRANCH   5   6
ENDBRANCH   4   5
ENDBRANCH   3   4
ENDBRANCH   1   3
BRANCH   2  13
ATOM     13  C   UNL     1       7.864  -0.678  18.203  1.00  0.00     0.027 C 
BRANCH  13  14
ATOM     14  C   UNL     1       8.604  -1.926  17.701  1.00  0.00     0.004 C 
BRANCH  14  15
ATOM     15  C   UNL     1       8.150  -2.301  16.284  1.00  0.00     0.000 C 
BRANCH  15  16
ATOM     16  C   UNL     1       7.046  -1.373  15.752  1.00  0.00     0.000 C 
BRANCH  16  17
ATOM     17  C   UNL     1       7.444  -0.663  14.446  1.00  0.00    -0.000 C 
BRANCH  17  18
ATOM     18  C   UNL     1       8.976  -0.576  14.278  1.00  0.00    -0.000 C 
BRANCH  18  19
ATOM     19  C   UNL     1       9.567   0.780  14.701  1.00  0.00    -0.003 C 
ATOM     20  C   UNL     1       8.517   1.885  14.804  1.00  0.00     0.004 C 
ENDBRANCH  18  19
ENDBRANCH  17  18
ENDBRANCH  16  17
ENDBRANCH  15  16
ENDBRANCH  14  15
ENDBRANCH  13  14
ENDBRANCH   2  13
TORSDOF 15
ENDMDL
MODEL 6
REMARK VINA RESULT:    -4.737     14.207     16.892
REMARK INTER + INTRA:         -11.109
REMARK INTER:                  -9.205
REMARK INTRA:                  -1.904
REMARK UNBOUND:                -2.218
REMARK SMILES CCCCCCCCC=CCCCCCCCC(=O)[O-]
REMARK SMILES IDX 10 1 9 2 11 3 12 4 13 5 14 6 15 7 16 8 17 9 18 10 19 11
REMARK SMILES IDX 20 12 8 13 7 14 6 15 5 16 4 17 3 18 2 19 1 20
REMARK H PARENT
REMARK Flexibility Score: inf
ROOT
ATOM      1  C   UNL     1      18.263   5.451  22.781  1.00  0.00    -0.031 C 
ATOM      2  C   UNL     1      18.057   6.729  23.155  1.00  0.00    -0.031 C 
ENDROOT
BRANCH   1   3
ATOM      3  C   UNL     1      18.930   4.392  23.630  1.00  0.00     0.027 C 
BRANCH   3   4
ATOM      4  C   UNL     1      20.154   3.799  22.922  1.00  0.00     0.004 C 
BRANCH   4   5
ATOM      5  C   UNL     1      21.218   3.305  23.917  1.00  0.00     0.000 C 
BRANCH   5   6
ATOM      6  C   UNL     1      20.849   1.935  24.525  1.00  0.00     0.000 C 
BRANCH   6   7
ATOM      7  C   UNL     1      20.998   0.765  23.539  1.00  0.00     0.000 C 
BRANCH   7   8
ATOM      8  C   UNL     1      21.739  -0.434  24.147  1.00  0.00     0.006 C 
BRANCH   8   9
ATOM      9  C   UNL     1      22.765  -1.003  23.159  1.00  0.00     0.053 C 
BRANCH   9  10
ATOM     10  C   UNL     1      22.193  -2.169  22.412  1.00  0.00     0.041 C 
ATOM     11  O   UNL     1      21.090  -2.668  22.762  1.00  0.00    -0.550 OA
ATOM     12  O   UNL     1      22.891  -2.724  21.344  1.00  0.00    -0.550 OA
ENDBRANCH   9  10
ENDBRANCH   8   9
ENDBRANCH   7   8
ENDBRANCH   6   7
ENDBRANCH   5   6
ENDBRANCH   4   5
ENDBRANCH   3   4
ENDBRANCH   1   3
BRANCH   2  13
ATOM     13  C   UNL     1      18.425   7.303  24.500  1.00  0.00     0.027 C 
BRANCH  13  14
ATOM     14  C   UNL     1      19.367   8.505  24.348  1.00  0.00     0.004 C 
BRANCH  14  15
ATOM     15  C   UNL     1      20.753   8.192  24.930  1.00  0.00     0.000 C 
BRANCH  15  16
ATOM     16  C   UNL     1      21.525   7.156  24.096  1.00  0.00     0.000 C 
BRANCH  16  17
ATOM     17  C   UNL     1      22.205   7.775  22.861  1.00  0.00    -0.000 C 
BRANCH  17  18
ATOM     18  C   UNL     1      21.619   7.227  21.542  1.00  0.00    -0.000 C 
BRANCH  18  19
ATOM     19  C   UNL     1      20.530   8.126  20.931  1.00  0.00    -0.003 C 
ATOM     20  C   UNL     1      20.994   8.855  19.671  1.00  0.00     0.004 C 
ENDBRANCH  18  19
ENDBRANCH  17  18
ENDBRANCH  16  17
ENDBRANCH  15  16
ENDBRANCH  14  15
ENDBRANCH  13  14
ENDBRANCH   2  13
TORSDOF 15
ENDMDL
MODEL 7
REMARK VINA RESULT:    -4.729     12.450     15.592
REMARK INTER + INTRA:         -11.093
REMARK INTER:                  -7.893
REMARK INTRA:                  -3.200
REMARK UNBOUND:                -2.218
REMARK SMILES CCCCCCCCC=CCCCCCCCC(=O)[O-]
REMARK SMILES IDX 10 1 9 2 11 3 12 4 13 5 14 6 15 7 16 8 17 9 18 10 19 11
REMARK SMILES IDX 20 12 8 13 7 14 6 15 5 16 4 17 3 18 2 19 1 20
REMARK H PARENT
REMARK Flexibility Score: inf
ROOT
ATOM      1  C   UNL     1      22.309  -1.602  22.450  1.00  0.00    -0.031 C 
ATOM      2  C   UNL     1      22.459  -2.760  21.778  1.00  0.00    -0.031 C 
ENDROOT
BRANCH   1   3
ATOM      3  C   UNL     1      21.760  -1.476  23.853  1.00  0.00     0.027 C 
BRANCH   3   4
ATOM      4  C   UNL     1      20.425  -0.722  23.865  1.00  0.00     0.004 C 
BRANCH   4   5
ATOM      5  C   UNL     1      20.132  -0.038  22.518  1.00  0.00     0.000 C 
BRANCH   5   6
ATOM      6  C   UNL     1      18.675  -0.262  22.061  1.00  0.00     0.000 C 
BRANCH   6   7
ATOM      7  C   UNL     1      18.541  -0.546  20.555  1.00  0.00     0.000 C 
BRANCH   7   8
ATOM      8  C   UNL     1      19.005  -1.958  20.172  1.00  0.00     0.006 C 
BRANCH   8   9
ATOM      9  C   UNL     1      20.219  -1.902  19.238  1.00  0.00     0.053 C 
BRANCH   9  10
ATOM     10  C   UNL     1      20.105  -2.931  18.156  1.00  0.00     0.041 C 
ATOM     11  O   UNL     1      20.523  -2.678  16.994  1.00  0.00    -0.550 OA
ATOM     12  O   UNL     1      19.514  -4.162  18.422  1.00  0.00    -0.550 OA
ENDBRANCH   9  10
ENDBRANCH   8   9
ENDBRANCH   7   8
ENDBRANCH   6   7
ENDBRANCH   5   6
ENDBRANCH   4   5
ENDBRANCH   3   4
ENDBRANCH   1   3
BRANCH   2  13
ATOM     13  C   UNL     1      22.139  -4.125  22.330  1.00  0.00     0.027 C 
BRANCH  13  14
ATOM     14  C   UNL     1      21.088  -4.838  21.468  1.00  0.00     0.004 C 
BRANCH  14  15
ATOM     15  C   UNL     1      19.858  -5.217  22.306  1.00  0.00     0.000 C 
BRANCH  15  16
ATOM     16  C   UNL     1      20.049  -4.925  23.803  1.00  0.00     0.000 C 
BRANCH  16  17
ATOM     17  C   UNL     1      18.959  -4.001  24.373  1.00  0.00    -0.000 C 
BRANCH  17  18
ATOM     18  C   UNL     1      17.975  -3.524  23.282  1.00  0.00    -0.000 C 
BRANCH  18  19
ATOM     19  C   UNL     1      16.701  -2.870  23.844  1.00  0.00    -0.003 C 
ATOM     20  C   UNL     1      15.658  -2.573  22.770  1.00  0.00     0.004 C 
ENDBRANCH  18  19
ENDBRANCH  17  18
ENDBRANCH  16  17
ENDBRANCH  15  16
ENDBRANCH  14  15
ENDBRANCH  13  14
ENDBRANCH   2  13
TORSDOF 15
ENDMDL
MODEL 8
REMARK VINA RESULT:    -4.702     13.011     15.558
REMARK INTER + INTRA:         -11.043
REMARK INTER:                  -8.295
REMARK INTRA:                  -2.748
REMARK UNBOUND:                -2.218
REMARK SMILES CCCCCCCCC=CCCCCCCCC(=O)[O-]
REMARK SMILES IDX 10 1 9 2 11 3 12 4 13 5 14 6 15 7 16 8 17 9 18 10 19 11
REMARK SMILES IDX 20 12 8 13 7 14 6 15 5 16 4 17 3 18 2 19 1 20
REMARK H PARENT
REMARK Flexibility Score: inf
ROOT
ATOM      1  C   UNL     1      16.536  -2.875  22.513  1.00  0.00    -0.031 C 
ATOM      2  C   UNL     1      15.854  -3.000  23.667  1.00  0.00    -0.031 C 
ENDROOT
BRANCH   1   3
ATOM      3  C   UNL     1      18.003  -3.191  22.329  1.00  0.00     0.027 C 
BRANCH   3   4
ATOM      4  C   UNL     1      18.215  -4.666  21.967  1.00  0.00     0.004 C 
BRANCH   4   5
ATOM      5  C   UNL     1      19.367  -5.301  22.765  1.00  0.00     0.000 C 
BRANCH   5   6
ATOM      6  C   UNL     1      19.830  -4.399  23.929  1.00  0.00     0.000 C 
BRANCH   6   7
ATOM      7  C   UNL     1      21.352  -4.185  23.972  1.00  0.00     0.000 C 
BRANCH   7   8
ATOM      8  C   UNL     1      22.012  -4.326  22.594  1.00  0.00     0.006 C 
BRANCH   8   9
ATOM      9  C   UNL     1      22.335  -2.952  21.997  1.00  0.00     0.053 C 
BRANCH   9  10
ATOM     10  C   UNL     1      22.021  -2.921  20.532  1.00  0.00     0.041 C 
ATOM     11  O   UNL     1      20.839  -3.099  20.133  1.00  0.00    -0.550 OA
ATOM     12  O   UNL     1      23.038  -2.722  19.603  1.00  0.00    -0.550 OA
ENDBRANCH   9  10
ENDBRANCH   8   9
ENDBRANCH   7   8
ENDBRANCH   6   7
ENDBRANCH   5   6
ENDBRANCH   4   5
ENDBRANCH   3   4
ENDBRANCH   1   3
BRANCH   2  13
ATOM     13  C   UNL     1      16.434  -3.515  24.960  1.00  0.00     0.027 C 
BRANCH  13  14
ATOM     14  C   UNL     1      17.214  -2.415  25.693  1.00  0.00     0.004 C 
BRANCH  14  15
ATOM     15  C   UNL     1      16.416  -1.103  25.720  1.00  0.00     0.000 C 
BRANCH  15  16
ATOM     16  C   UNL     1      17.294   0.129  25.449  1.00  0.00     0.000 C 
BRANCH  16  17
ATOM     17  C   UNL     1      18.142  -0.015  24.172  1.00  0.00    -0.000 C 
BRANCH  17  18
ATOM     18  C   UNL     1      19.652  -0.083  24.484  1.00  0.00    -0.000 C 
BRANCH  18  19
ATOM     19  C   UNL     1      20.546   0.087  23.244  1.00  0.00    -0.003 C 
ATOM     20  C   UNL     1      19.797  -0.136  21.931  1.00  0.00     0.004 C 
ENDBRANCH  18  19
ENDBRANCH  17  18
ENDBRANCH  16  17
ENDBRANCH  15  16
ENDBRANCH  14  15
ENDBRANCH  13  14
ENDBRANCH   2  13
TORSDOF 15
ENDMDL
MODEL 9
REMARK VINA RESULT:    -4.648     13.017     15.385
REMARK INTER + INTRA:         -10.942
REMARK INTER:                  -7.980
REMARK INTRA:                  -2.962
REMARK UNBOUND:                -2.218
REMARK SMILES CCCCCCCCC=CCCCCCCCC(=O)[O-]
REMARK SMILES IDX 10 1 9 2 11 3 12 4 13 5 14 6 15 7 16 8 17 9 18 10 19 11
REMARK SMILES IDX 20 12 8 13 7 14 6 15 5 16 4 17 3 18 2 19 1 20
REMARK H PARENT
REMARK Flexibility Score: inf
ROOT
ATOM      1  C   UNL     1      18.951  -4.233  23.207  1.00  0.00    -0.031 C 
ATOM      2  C   UNL     1      17.612  -4.101  23.260  1.00  0.00    -0.031 C 
ENDROOT
BRANCH   1   3
ATOM      3  C   UNL     1      19.847  -4.500  24.395  1.00  0.00     0.027 C 
BRANCH   3   4
ATOM      4  C   UNL     1      21.249  -3.919  24.178  1.00  0.00     0.004 C 
BRANCH   4   5
ATOM      5  C   UNL     1      21.764  -4.159  22.748  1.00  0.00     0.000 C 
BRANCH   5   6
ATOM      6  C   UNL     1      22.178  -2.844  22.054  1.00  0.00     0.000 C 
BRANCH   6   7
ATOM      7  C   UNL     1      22.438  -3.000  20.546  1.00  0.00     0.000 C 
BRANCH   7   8
ATOM      8  C   UNL     1      21.147  -2.990  19.716  1.00  0.00     0.006 C 
BRANCH   8   9
ATOM      9  C   UNL     1      20.123  -2.014  20.306  1.00  0.00     0.053 C 
BRANCH   9  10
ATOM     10  C   UNL     1      18.727  -2.438  19.966  1.00  0.00     0.041 C 
ATOM     11  O   UNL     1      17.793  -1.592  19.954  1.00  0.00    -0.550 OA
ATOM     12  O   UNL     1      18.451  -3.773  19.688  1.00  0.00    -0.550 OA
ENDBRANCH   9  10
ENDBRANCH   8   9
ENDBRANCH   7   8
ENDBRANCH   6   7
ENDBRANCH   5   6
ENDBRANCH   4   5
ENDBRANCH   3   4
ENDBRANCH   1   3
BRANCH   2  13
ATOM     13  C   UNL     1      16.781  -4.238  24.511  1.00  0.00     0.027 C 
BRANCH  13  14
ATOM     14  C   UNL     1      16.185  -2.888  24.929  1.00  0.00     0.004 C 
BRANCH  14  15
ATOM     15  C   UNL     1      17.125  -2.148  25.892  1.00  0.00     0.000 C 
BRANCH  15  16
ATOM     16  C   UNL     1      17.448  -0.720  25.424  1.00  0.00     0.000 C 
BRANCH  16  17
ATOM     17  C   UNL     1      17.125  -0.495  23.936  1.00  0.00    -0.000 C 
BRANCH  17  18
ATOM     18  C   UNL     1      18.391  -0.185  23.108  1.00  0.00    -0.000 C 
BRANCH  18  19
ATOM     19  C   UNL     1      19.697  -0.627  23.791  1.00  0.00    -0.003 C 
ATOM     20  C   UNL     1      20.867   0.313  23.509  1.00  0.00     0.004 C 
ENDBRANCH  18  19
ENDBRANCH  17  18
ENDBRANCH  16  17
ENDBRANCH  15  16
ENDBRANCH  14  15
ENDBRANCH  13  14
ENDBRANCH   2  13
TORSDOF 15
ENDMDL
