MODEL 1
REMARK VINA RESULT:    31.089      0.000      0.000
REMARK INTER + INTRA:          80.532
REMARK INTER:                  81.977
REMARK INTRA:                  -1.445
REMARK UNBOUND:                -1.445
REMARK SMILES CCCCCCCCCCCCCCCCCCCCCCCCCCCCCC(=O)[O-]
REMARK SMILES IDX 16 1 17 2 18 3 19 4 20 5 21 6 22 7 23 8 24 9 25 10 26 11
REMARK SMILES IDX 27 12 28 13 29 14 30 15 31 16 32 17 15 18 14 19 13 20 12 21
REMARK SMILES IDX 11 22 10 23 9 24 8 25 7 26 6 27 5 28 4 29 3 30 2 31 1 32
REMARK H PARENT
REMARK Flexibility Score: inf
ROOT
ATOM      1  C   UNL     1      -8.691 -14.535  19.764  1.00  0.00     0.000 C 
ENDROOT
BRANCH   1   2
ATOM      2  C   UNL     1      -9.232 -13.570  20.831  1.00  0.00     0.000 C 
BRANCH   2   3
ATOM      3  C   UNL     1      -8.260 -12.419  21.136  1.00  0.00     0.000 C 
BRANCH   3   4
ATOM      4  C   UNL     1      -8.130 -12.143  22.644  1.00  0.00     0.000 C 
BRANCH   4   5
ATOM      5  C   UNL     1      -6.690 -12.309  23.154  1.00  0.00     0.000 C 
BRANCH   5   6
ATOM      6  C   UNL     1      -6.513 -11.831  24.606  1.00  0.00     0.000 C 
BRANCH   6   7
ATOM      7  C   UNL     1      -6.328 -13.002  25.586  1.00  0.00     0.000 C 
BRANCH   7   8
ATOM      8  C   UNL     1      -5.320 -14.045  25.070  1.00  0.00     0.000 C 
BRANCH   8   9
ATOM      9  C   UNL     1      -4.435 -14.613  26.192  1.00  0.00     0.000 C 
BRANCH   9  10
ATOM     10  C   UNL     1      -4.623 -16.128  26.383  1.00  0.00     0.000 C 
BRANCH  10  11
ATOM     11  C   UNL     1      -6.060 -16.490  26.816  1.00  0.00     0.000 C 
BRANCH  11  12
ATOM     12  C   UNL     1      -6.436 -17.960  26.549  1.00  0.00     0.000 C 
BRANCH  12  13
ATOM     13  C   UNL     1      -5.390 -18.759  25.753  1.00  0.00     0.006 C 
BRANCH  13  14
ATOM     14  C   UNL     1      -5.786 -18.956  24.282  1.00  0.00     0.053 C 
BRANCH  14  15
ATOM     15  C   UNL     1      -5.165 -17.898  23.424  1.00  0.00     0.041 C 
ATOM     16  O   UNL     1      -4.027 -17.439  23.707  1.00  0.00    -0.550 OA
ATOM     17  O   UNL     1      -5.835 -17.429  22.300  1.00  0.00    -0.550 OA
ENDBRANCH  14  15
ENDBRANCH  13  14
ENDBRANCH  12  13
ENDBRANCH  11  12
ENDBRANCH  10  11
ENDBRANCH   9  10
ENDBRANCH   8   9
ENDBRANCH   7   8
ENDBRANCH   6   7
ENDBRANCH   5   6
ENDBRANCH   4   5
ENDBRANCH   3   4
ENDBRANCH   2   3
ENDBRANCH   1   2
BRANCH   1  18
ATOM     18  C   UNL     1      -9.091 -14.071  18.354  1.00  0.00     0.000 C 
BRANCH  18  19
ATOM     19  C   UNL     1      -9.545 -15.229  17.450  1.00  0.00     0.000 C 
BRANCH  19  20
ATOM     20  C   UNL     1      -9.271 -16.609  18.073  1.00  0.00     0.000 C 
BRANCH  20  21
ATOM     21  C   UNL     1     -10.038 -17.744  17.367  1.00  0.00     0.000 C 
BRANCH  21  22
ATOM     22  C   UNL     1      -9.273 -19.078  17.276  1.00  0.00     0.000 C 
BRANCH  22  23
ATOM     23  C   UNL     1      -8.491 -19.230  15.958  1.00  0.00     0.000 C 
BRANCH  23  24
ATOM     24  C   UNL     1      -9.077 -20.321  15.048  1.00  0.00    -0.000 C 
BRANCH  24  25
ATOM     25  C   UNL     1      -9.924 -19.741  13.902  1.00  0.00    -0.000 C 
BRANCH  25  26
ATOM     26  C   UNL     1     -10.275 -20.786  12.828  1.00  0.00    -0.000 C 
BRANCH  26  27
ATOM     27  C   UNL     1     -10.165 -22.250  13.293  1.00  0.00    -0.000 C 
BRANCH  27  28
ATOM     28  C   UNL     1      -9.163 -23.069  12.460  1.00  0.00    -0.000 C 
BRANCH  28  29
ATOM     29  C   UNL     1      -9.829 -24.223  11.692  1.00  0.00    -0.000 C 
BRANCH  29  30
ATOM     30  C   UNL     1      -9.079 -24.677  10.425  1.00  0.00    -0.000 C 
BRANCH  30  31
ATOM     31  C   UNL     1      -8.968 -26.205  10.309  1.00  0.00    -0.003 C 
ATOM     32  C   UNL     1      -9.000 -26.867  11.684  1.00  0.00     0.004 C 
ENDBRANCH  30  31
ENDBRANCH  29  30
ENDBRANCH  28  29
ENDBRANCH  27  28
ENDBRANCH  26  27
ENDBRANCH  25  26
ENDBRANCH  24  25
ENDBRANCH  23  24
ENDBRANCH  22  23
ENDBRANCH  21  22
ENDBRANCH  20  21
ENDBRANCH  19  20
ENDBRANCH  18  19
ENDBRANCH   1  18
TORSDOF 28
ENDMDL
MODEL 2
REMARK VINA RESULT:    31.246      2.786      5.815
REMARK INTER + INTRA:          80.948
REMARK INTER:                  82.564
REMARK INTRA:                  -1.616
REMARK UNBOUND:                -1.445
REMARK SMILES CCCCCCCCCCCCCCCCCCCCCCCCCCCCCC(=O)[O-]
REMARK SMILES IDX 16 1 17 2 18 3 19 4 20 5 21 6 22 7 23 8 24 9 25 10 26 11
REMARK SMILES IDX 27 12 28 13 29 14 30 15 31 16 32 17 15 18 14 19 13 20 12 21
REMARK SMILES IDX 11 22 10 23 9 24 8 25 7 26 6 27 5 28 4 29 3 30 2 31 1 32
REMARK H PARENT
REMARK Flexibility Score: inf
ROOT
ATOM      1  C   UNL     1      -9.908 -15.675  18.104  1.00  0.00     0.000 C 
ENDROOT
BRANCH   1   2
ATOM      2  C   UNL     1      -9.590 -14.328  17.437  1.00  0.00     0.000 C 
BRANCH   2   3
ATOM      3  C   UNL     1      -8.826 -13.371  18.367  1.00  0.00     0.000 C 
BRANCH   3   4
ATOM      4  C   UNL     1      -8.388 -14.050  19.676  1.00  0.00     0.000 C 
BRANCH   4   5
ATOM      5  C   UNL     1      -9.159 -13.531  20.900  1.00  0.00     0.000 C 
BRANCH   5   6
ATOM      6  C   UNL     1      -8.390 -12.447  21.674  1.00  0.00     0.000 C 
BRANCH   6   7
ATOM      7  C   UNL     1      -7.498 -13.042  22.777  1.00  0.00     0.000 C 
BRANCH   7   8
ATOM      8  C   UNL     1      -6.419 -12.054  23.255  1.00  0.00     0.000 C 
BRANCH   8   9
ATOM      9  C   UNL     1      -6.541 -11.728  24.752  1.00  0.00     0.000 C 
BRANCH   9  10
ATOM     10  C   UNL     1      -6.565 -12.990  25.632  1.00  0.00     0.000 C 
BRANCH  10  11
ATOM     11  C   UNL     1      -5.162 -13.612  25.803  1.00  0.00     0.000 C 
BRANCH  11  12
ATOM     12  C   UNL     1      -5.171 -14.974  26.524  1.00  0.00     0.000 C 
BRANCH  12  13
ATOM     13  C   UNL     1      -4.513 -16.123  25.741  1.00  0.00     0.006 C 
BRANCH  13  14
ATOM     14  C   UNL     1      -5.278 -17.448  25.876  1.00  0.00     0.053 C 
BRANCH  14  15
ATOM     15  C   UNL     1      -5.228 -18.217  24.592  1.00  0.00     0.041 C 
ATOM     16  O   UNL     1      -5.617 -19.414  24.554  1.00  0.00    -0.550 OA
ATOM     17  O   UNL     1      -4.768 -17.607  23.431  1.00  0.00    -0.550 OA
ENDBRANCH  14  15
ENDBRANCH  13  14
ENDBRANCH  12  13
ENDBRANCH  11  12
ENDBRANCH  10  11
ENDBRANCH   9  10
ENDBRANCH   8   9
ENDBRANCH   7   8
ENDBRANCH   6   7
ENDBRANCH   5   6
ENDBRANCH   4   5
ENDBRANCH   3   4
ENDBRANCH   2   3
ENDBRANCH   1   2
BRANCH   1  18
ATOM     18  C   UNL     1      -8.994 -16.784  17.558  1.00  0.00     0.000 C 
BRANCH  18  19
ATOM     19  C   UNL     1      -9.687 -18.156  17.501  1.00  0.00     0.000 C 
BRANCH  19  20
ATOM     20  C   UNL     1      -8.978 -19.137  16.550  1.00  0.00     0.000 C 
BRANCH  20  21
ATOM     21  C   UNL     1      -7.621 -19.621  17.097  1.00  0.00     0.000 C 
BRANCH  21  22
ATOM     22  C   UNL     1      -6.535 -19.836  16.026  1.00  0.00     0.000 C 
BRANCH  22  23
ATOM     23  C   UNL     1      -6.726 -18.934  14.793  1.00  0.00     0.000 C 
BRANCH  23  24
ATOM     24  C   UNL     1      -7.260 -19.706  13.576  1.00  0.00    -0.000 C 
BRANCH  24  25
ATOM     25  C   UNL     1      -8.267 -18.885  12.752  1.00  0.00    -0.000 C 
BRANCH  25  26
ATOM     26  C   UNL     1      -7.675 -17.567  12.221  1.00  0.00    -0.000 C 
BRANCH  26  27
ATOM     27  C   UNL     1      -8.706 -16.449  11.978  1.00  0.00    -0.000 C 
BRANCH  27  28
ATOM     28  C   UNL     1      -8.305 -15.114  12.631  1.00  0.00    -0.000 C 
BRANCH  28  29
ATOM     29  C   UNL     1      -9.275 -13.969  12.290  1.00  0.00    -0.000 C 
BRANCH  29  30
ATOM     30  C   UNL     1      -8.759 -12.558  12.629  1.00  0.00    -0.000 C 
BRANCH  30  31
ATOM     31  C   UNL     1      -9.890 -11.538  12.831  1.00  0.00    -0.003 C 
ATOM     32  C   UNL     1      -9.650 -10.686  14.073  1.00  0.00     0.004 C 
ENDBRANCH  30  31
ENDBRANCH  29  30
ENDBRANCH  28  29
ENDBRANCH  27  28
ENDBRANCH  26  27
ENDBRANCH  25  26
ENDBRANCH  24  25
ENDBRANCH  23  24
ENDBRANCH  22  23
ENDBRANCH  21  22
ENDBRANCH  20  21
ENDBRANCH  19  20
ENDBRANCH  18  19
ENDBRANCH   1  18
TORSDOF 28
ENDMDL
MODEL 3
REMARK VINA RESULT:    31.258      5.344      7.092
REMARK INTER + INTRA:          80.979
REMARK INTER:                  82.423
REMARK INTRA:                  -1.444
REMARK UNBOUND:                -1.445
REMARK SMILES CCCCCCCCCCCCCCCCCCCCCCCCCCCCCC(=O)[O-]
REMARK SMILES IDX 16 1 17 2 18 3 19 4 20 5 21 6 22 7 23 8 24 9 25 10 26 11
REMARK SMILES IDX 27 12 28 13 29 14 30 15 31 16 32 17 15 18 14 19 13 20 12 21
REMARK SMILES IDX 11 22 10 23 9 24 8 25 7 26 6 27 5 28 4 29 3 30 2 31 1 32
REMARK H PARENT
REMARK Flexibility Score: inf
ROOT
ATOM      1  C   UNL     1      -8.247 -14.112  18.650  1.00  0.00     0.000 C 
ENDROOT
BRANCH   1   2
ATOM      2  C   UNL     1      -9.019 -14.613  19.881  1.00  0.00     0.000 C 
BRANCH   2   3
ATOM      3  C   UNL     1      -9.251 -13.509  20.925  1.00  0.00     0.000 C 
BRANCH   3   4
ATOM      4  C   UNL     1      -7.943 -12.825  21.358  1.00  0.00     0.000 C 
BRANCH   4   5
ATOM      5  C   UNL     1      -7.956 -12.404  22.836  1.00  0.00     0.000 C 
BRANCH   5   6
ATOM      6  C   UNL     1      -6.545 -12.174  23.404  1.00  0.00     0.000 C 
BRANCH   6   7
ATOM      7  C   UNL     1      -6.404 -12.702  24.842  1.00  0.00     0.000 C 
BRANCH   7   8
ATOM      8  C   UNL     1      -5.269 -13.731  24.981  1.00  0.00     0.000 C 
BRANCH   8   9
ATOM      9  C   UNL     1      -4.993 -14.110  26.445  1.00  0.00     0.000 C 
BRANCH   9  10
ATOM     10  C   UNL     1      -5.377 -15.566  26.763  1.00  0.00     0.000 C 
BRANCH  10  11
ATOM     11  C   UNL     1      -4.490 -16.582  26.012  1.00  0.00     0.000 C 
BRANCH  11  12
ATOM     12  C   UNL     1      -4.848 -18.052  26.305  1.00  0.00     0.000 C 
BRANCH  12  13
ATOM     13  C   UNL     1      -6.126 -18.556  25.613  1.00  0.00     0.006 C 
BRANCH  13  14
ATOM     14  C   UNL     1      -5.873 -19.037  24.176  1.00  0.00     0.053 C 
BRANCH  14  15
ATOM     15  C   UNL     1      -5.317 -17.927  23.340  1.00  0.00     0.041 C 
ATOM     16  O   UNL     1      -6.091 -17.121  22.760  1.00  0.00    -0.550 OA
ATOM     17  O   UNL     1      -3.941 -17.770  23.215  1.00  0.00    -0.550 OA
ENDBRANCH  14  15
ENDBRANCH  13  14
ENDBRANCH  12  13
ENDBRANCH  11  12
ENDBRANCH  10  11
ENDBRANCH   9  10
ENDBRANCH   8   9
ENDBRANCH   7   8
ENDBRANCH   6   7
ENDBRANCH   5   6
ENDBRANCH   4   5
ENDBRANCH   3   4
ENDBRANCH   2   3
ENDBRANCH   1   2
BRANCH   1  18
ATOM     18  C   UNL     1      -8.636 -14.912  17.398  1.00  0.00     0.000 C 
BRANCH  18  19
ATOM     19  C   UNL     1     -10.156 -14.955  17.164  1.00  0.00     0.000 C 
BRANCH  19  20
ATOM     20  C   UNL     1     -10.763 -13.555  16.960  1.00  0.00     0.000 C 
BRANCH  20  21
ATOM     21  C   UNL     1      -9.903 -12.661  16.046  1.00  0.00     0.000 C 
BRANCH  21  22
ATOM     22  C   UNL     1     -10.129 -12.876  14.537  1.00  0.00     0.000 C 
BRANCH  22  23
ATOM     23  C   UNL     1      -8.855 -12.646  13.704  1.00  0.00     0.000 C 
BRANCH  23  24
ATOM     24  C   UNL     1      -8.736 -13.628  12.527  1.00  0.00    -0.000 C 
BRANCH  24  25
ATOM     25  C   UNL     1      -9.539 -13.174  11.296  1.00  0.00    -0.000 C 
BRANCH  25  26
ATOM     26  C   UNL     1     -11.016 -13.605  11.351  1.00  0.00    -0.000 C 
BRANCH  26  27
ATOM     27  C   UNL     1     -12.023 -12.443  11.423  1.00  0.00    -0.000 C 
BRANCH  27  28
ATOM     28  C   UNL     1     -11.659 -11.276  10.487  1.00  0.00    -0.000 C 
BRANCH  28  29
ATOM     29  C   UNL     1     -11.523  -9.936  11.230  1.00  0.00    -0.000 C 
BRANCH  29  30
ATOM     30  C   UNL     1     -11.446 -10.049  12.764  1.00  0.00    -0.000 C 
BRANCH  30  31
ATOM     31  C   UNL     1     -10.381  -9.129  13.381  1.00  0.00    -0.003 C 
ATOM     32  C   UNL     1      -8.974  -9.648  13.100  1.00  0.00     0.004 C 
ENDBRANCH  30  31
ENDBRANCH  29  30
ENDBRANCH  28  29
ENDBRANCH  27  28
ENDBRANCH  26  27
ENDBRANCH  25  26
ENDBRANCH  24  25
ENDBRANCH  23  24
ENDBRANCH  22  23
ENDBRANCH  21  22
ENDBRANCH  20  21
ENDBRANCH  19  20
ENDBRANCH  18  19
ENDBRANCH   1  18
TORSDOF 28
ENDMDL
MODEL 4
REMARK VINA RESULT:    31.414      4.980      6.691
REMARK INTER + INTRA:          81.389
REMARK INTER:                  81.214
REMARK INTRA:                   0.174
REMARK UNBOUND:                -1.445
REMARK SMILES CCCCCCCCCCCCCCCCCCCCCCCCCCCCCC(=O)[O-]
REMARK SMILES IDX 16 1 17 2 18 3 19 4 20 5 21 6 22 7 23 8 24 9 25 10 26 11
REMARK SMILES IDX 27 12 28 13 29 14 30 15 31 16 32 17 15 18 14 19 13 20 12 21
REMARK SMILES IDX 11 22 10 23 9 24 8 25 7 26 6 27 5 28 4 29 3 30 2 31 1 32
REMARK H PARENT
REMARK Flexibility Score: inf
ROOT
ATOM      1  C   UNL     1      -9.314 -14.792  16.897  1.00  0.00     0.000 C 
ENDROOT
BRANCH   1   2
ATOM      2  C   UNL     1      -9.161 -15.070  18.401  1.00  0.00     0.000 C 
BRANCH   2   3
ATOM      3  C   UNL     1      -8.567 -13.876  19.166  1.00  0.00     0.000 C 
BRANCH   3   4
ATOM      4  C   UNL     1      -8.705 -14.028  20.691  1.00  0.00     0.000 C 
BRANCH   4   5
ATOM      5  C   UNL     1      -8.381 -12.730  21.447  1.00  0.00     0.000 C 
BRANCH   5   6
ATOM      6  C   UNL     1      -7.699 -12.983  22.803  1.00  0.00     0.000 C 
BRANCH   6   7
ATOM      7  C   UNL     1      -6.470 -12.084  23.013  1.00  0.00     0.000 C 
BRANCH   7   8
ATOM      8  C   UNL     1      -6.410 -11.494  24.434  1.00  0.00     0.000 C 
BRANCH   8   9
ATOM      9  C   UNL     1      -6.584 -12.564  25.524  1.00  0.00     0.000 C 
BRANCH   9  10
ATOM     10  C   UNL     1      -5.485 -13.640  25.477  1.00  0.00     0.000 C 
BRANCH  10  11
ATOM     11  C   UNL     1      -5.269 -14.316  26.848  1.00  0.00     0.000 C 
BRANCH  11  12
ATOM     12  C   UNL     1      -4.415 -15.597  26.780  1.00  0.00     0.000 C 
BRANCH  12  13
ATOM     13  C   UNL     1      -5.117 -16.807  26.139  1.00  0.00     0.006 C 
BRANCH  13  14
ATOM     14  C   UNL     1      -4.616 -17.101  24.717  1.00  0.00     0.053 C 
BRANCH  14  15
ATOM     15  C   UNL     1      -5.387 -18.232  24.111  1.00  0.00     0.041 C 
ATOM     16  O   UNL     1      -5.614 -19.274  24.779  1.00  0.00    -0.550 OA
ATOM     17  O   UNL     1      -5.872 -18.127  22.812  1.00  0.00    -0.550 OA
ENDBRANCH  14  15
ENDBRANCH  13  14
ENDBRANCH  12  13
ENDBRANCH  11  12
ENDBRANCH  10  11
ENDBRANCH   9  10
ENDBRANCH   8   9
ENDBRANCH   7   8
ENDBRANCH   6   7
ENDBRANCH   5   6
ENDBRANCH   4   5
ENDBRANCH   3   4
ENDBRANCH   2   3
ENDBRANCH   1   2
BRANCH   1  18
ATOM     18  C   UNL     1     -10.479 -13.824  16.636  1.00  0.00     0.000 C 
BRANCH  18  19
ATOM     19  C   UNL     1     -10.437 -13.203  15.230  1.00  0.00     0.000 C 
BRANCH  19  20
ATOM     20  C   UNL     1      -9.345 -13.826  14.340  1.00  0.00     0.000 C 
BRANCH  20  21
ATOM     21  C   UNL     1      -8.633 -12.784  13.456  1.00  0.00     0.000 C 
BRANCH  21  22
ATOM     22  C   UNL     1      -9.575 -11.809  12.724  1.00  0.00     0.000 C 
BRANCH  22  23
ATOM     23  C   UNL     1      -9.854 -10.529  13.533  1.00  0.00     0.000 C 
BRANCH  23  24
ATOM     24  C   UNL     1     -10.358  -9.375  12.652  1.00  0.00    -0.000 C 
BRANCH  24  25
ATOM     25  C   UNL     1     -11.568  -9.775  11.791  1.00  0.00    -0.000 C 
BRANCH  25  26
ATOM     26  C   UNL     1     -11.509 -11.237  11.315  1.00  0.00    -0.000 C 
BRANCH  26  27
ATOM     27  C   UNL     1     -12.198 -11.504   9.964  1.00  0.00    -0.000 C 
BRANCH  27  28
ATOM     28  C   UNL     1     -11.729 -12.811   9.301  1.00  0.00    -0.000 C 
BRANCH  28  29
ATOM     29  C   UNL     1     -12.598 -14.021   9.687  1.00  0.00    -0.000 C 
BRANCH  29  30
ATOM     30  C   UNL     1     -13.400 -14.641   8.527  1.00  0.00    -0.000 C 
BRANCH  30  31
ATOM     31  C   UNL     1     -12.742 -15.905   7.954  1.00  0.00    -0.003 C 
ATOM     32  C   UNL     1     -13.769 -16.794   7.257  1.00  0.00     0.004 C 
ENDBRANCH  30  31
ENDBRANCH  29  30
ENDBRANCH  28  29
ENDBRANCH  27  28
ENDBRANCH  26  27
ENDBRANCH  25  26
ENDBRANCH  24  25
ENDBRANCH  23  24
ENDBRANCH  22  23
ENDBRANCH  21  22
ENDBRANCH  20  21
ENDBRANCH  19  20
ENDBRANCH  18  19
ENDBRANCH   1  18
TORSDOF 28
ENDMDL
MODEL 5
REMARK VINA RESULT:    31.608      1.190      2.523
REMARK INTER + INTRA:          81.901
REMARK INTER:                  81.751
REMARK INTRA:                   0.150
REMARK UNBOUND:                -1.445
REMARK SMILES CCCCCCCCCCCCCCCCCCCCCCCCCCCCCC(=O)[O-]
REMARK SMILES IDX 16 1 17 2 18 3 19 4 20 5 21 6 22 7 23 8 24 9 25 10 26 11
REMARK SMILES IDX 27 12 28 13 29 14 30 15 31 16 32 17 15 18 14 19 13 20 12 21
REMARK SMILES IDX 11 22 10 23 9 24 8 25 7 26 6 27 5 28 4 29 3 30 2 31 1 32
REMARK H PARENT
REMARK Flexibility Score: inf
ROOT
ATOM      1  C   UNL     1      -9.123 -16.406  17.720  1.00  0.00     0.000 C 
ENDROOT
BRANCH   1   2
ATOM      2  C   UNL     1      -9.591 -14.950  17.876  1.00  0.00     0.000 C 
BRANCH   2   3
ATOM      3  C   UNL     1      -8.547 -14.065  18.577  1.00  0.00     0.000 C 
BRANCH   3   4
ATOM      4  C   UNL     1      -8.629 -14.161  20.110  1.00  0.00     0.000 C 
BRANCH   4   5
ATOM      5  C   UNL     1      -9.055 -12.839  20.765  1.00  0.00     0.000 C 
BRANCH   5   6
ATOM      6  C   UNL     1      -7.918 -12.172  21.559  1.00  0.00     0.000 C 
BRANCH   6   7
ATOM      7  C   UNL     1      -7.823 -12.704  22.999  1.00  0.00     0.000 C 
BRANCH   7   8
ATOM      8  C   UNL     1      -6.436 -12.468  23.622  1.00  0.00     0.000 C 
BRANCH   8   9
ATOM      9  C   UNL     1      -6.437 -12.651  25.148  1.00  0.00     0.000 C 
BRANCH   9  10
ATOM     10  C   UNL     1      -5.317 -13.589  25.632  1.00  0.00     0.000 C 
BRANCH  10  11
ATOM     11  C   UNL     1      -5.838 -15.006  25.952  1.00  0.00     0.000 C 
BRANCH  11  12
ATOM     12  C   UNL     1      -4.812 -15.894  26.682  1.00  0.00     0.000 C 
BRANCH  12  13
ATOM     13  C   UNL     1      -4.218 -17.029  25.829  1.00  0.00     0.006 C 
BRANCH  13  14
ATOM     14  C   UNL     1      -4.800 -17.070  24.408  1.00  0.00     0.053 C 
BRANCH  14  15
ATOM     15  C   UNL     1      -5.616 -18.310  24.209  1.00  0.00     0.041 C 
ATOM     16  O   UNL     1      -6.421 -18.391  23.245  1.00  0.00    -0.550 OA
ATOM     17  O   UNL     1      -5.474 -19.384  25.079  1.00  0.00    -0.550 OA
ENDBRANCH  14  15
ENDBRANCH  13  14
ENDBRANCH  12  13
ENDBRANCH  11  12
ENDBRANCH  10  11
ENDBRANCH   9  10
ENDBRANCH   8   9
ENDBRANCH   7   8
ENDBRANCH   6   7
ENDBRANCH   5   6
ENDBRANCH   4   5
ENDBRANCH   3   4
ENDBRANCH   2   3
ENDBRANCH   1   2
BRANCH   1  18
ATOM     18  C   UNL     1     -10.206 -17.382  18.206  1.00  0.00     0.000 C 
BRANCH  18  19
ATOM     19  C   UNL     1     -10.110 -18.763  17.536  1.00  0.00     0.000 C 
BRANCH  19  20
ATOM     20  C   UNL     1      -8.655 -19.211  17.309  1.00  0.00     0.000 C 
BRANCH  20  21
ATOM     21  C   UNL     1      -8.168 -18.946  15.871  1.00  0.00     0.000 C 
BRANCH  21  22
ATOM     22  C   UNL     1      -6.637 -18.940  15.700  1.00  0.00     0.000 C 
BRANCH  22  23
ATOM     23  C   UNL     1      -6.116 -20.184  14.958  1.00  0.00     0.000 C 
BRANCH  23  24
ATOM     24  C   UNL     1      -7.160 -20.780  14.000  1.00  0.00    -0.000 C 
BRANCH  24  25
ATOM     25  C   UNL     1      -8.122 -19.717  13.441  1.00  0.00    -0.000 C 
BRANCH  25  26
ATOM     26  C   UNL     1      -9.603 -20.095  13.622  1.00  0.00    -0.000 C 
BRANCH  26  27
ATOM     27  C   UNL     1      -9.885 -21.609  13.636  1.00  0.00    -0.000 C 
BRANCH  27  28
ATOM     28  C   UNL     1     -10.305 -22.152  12.258  1.00  0.00    -0.000 C 
BRANCH  28  29
ATOM     29  C   UNL     1      -9.857 -23.606  12.028  1.00  0.00    -0.000 C 
BRANCH  29  30
ATOM     30  C   UNL     1      -9.615 -23.985  10.555  1.00  0.00    -0.000 C 
BRANCH  30  31
ATOM     31  C   UNL     1      -8.811 -25.284  10.395  1.00  0.00    -0.003 C 
ATOM     32  C   UNL     1      -9.028 -26.217  11.582  1.00  0.00     0.004 C 
ENDBRANCH  30  31
ENDBRANCH  29  30
ENDBRANCH  28  29
ENDBRANCH  27  28
ENDBRANCH  26  27
ENDBRANCH  25  26
ENDBRANCH  24  25
ENDBRANCH  23  24
ENDBRANCH  22  23
ENDBRANCH  21  22
ENDBRANCH  20  21
ENDBRANCH  19  20
ENDBRANCH  18  19
ENDBRANCH   1  18
TORSDOF 28
ENDMDL
MODEL 6
REMARK VINA RESULT:    31.617      4.642      5.862
REMARK INTER + INTRA:          81.925
REMARK INTER:                  83.617
REMARK INTRA:                  -1.692
REMARK UNBOUND:                -1.445
REMARK SMILES CCCCCCCCCCCCCCCCCCCCCCCCCCCCCC(=O)[O-]
REMARK SMILES IDX 16 1 17 2 18 3 19 4 20 5 21 6 22 7 23 8 24 9 25 10 26 11
REMARK SMILES IDX 27 12 28 13 29 14 30 15 31 16 32 17 15 18 14 19 13 20 12 21
REMARK SMILES IDX 11 22 10 23 9 24 8 25 7 26 6 27 5 28 4 29 3 30 2 31 1 32
REMARK H PARENT
REMARK Flexibility Score: inf
ROOT
ATOM      1  C   UNL     1      -9.572 -13.626  18.269  1.00  0.00     0.000 C 
ENDROOT
BRANCH   1   2
ATOM      2  C   UNL     1      -8.371 -13.703  19.225  1.00  0.00     0.000 C 
BRANCH   2   3
ATOM      3  C   UNL     1      -8.794 -13.832  20.698  1.00  0.00     0.000 C 
BRANCH   3   4
ATOM      4  C   UNL     1      -8.231 -12.699  21.572  1.00  0.00     0.000 C 
BRANCH   4   5
ATOM      5  C   UNL     1      -7.403 -13.221  22.757  1.00  0.00     0.000 C 
BRANCH   5   6
ATOM      6  C   UNL     1      -6.513 -12.136  23.387  1.00  0.00     0.000 C 
BRANCH   6   7
ATOM      7  C   UNL     1      -7.054 -11.655  24.744  1.00  0.00     0.000 C 
BRANCH   7   8
ATOM      8  C   UNL     1      -6.685 -12.609  25.895  1.00  0.00     0.000 C 
BRANCH   8   9
ATOM      9  C   UNL     1      -5.429 -13.441  25.589  1.00  0.00     0.000 C 
BRANCH   9  10
ATOM     10  C   UNL     1      -5.355 -14.729  26.429  1.00  0.00     0.000 C 
BRANCH  10  11
ATOM     11  C   UNL     1      -4.444 -15.796  25.785  1.00  0.00     0.000 C 
BRANCH  11  12
ATOM     12  C   UNL     1      -4.614 -17.203  26.391  1.00  0.00     0.000 C 
BRANCH  12  13
ATOM     13  C   UNL     1      -5.837 -17.983  25.880  1.00  0.00     0.006 C 
BRANCH  13  14
ATOM     14  C   UNL     1      -5.489 -18.957  24.745  1.00  0.00     0.053 C 
BRANCH  14  15
ATOM     15  C   UNL     1      -5.725 -18.318  23.412  1.00  0.00     0.041 C 
ATOM     16  O   UNL     1      -6.813 -18.500  22.806  1.00  0.00    -0.550 OA
ATOM     17  O   UNL     1      -4.750 -17.505  22.846  1.00  0.00    -0.550 OA
ENDBRANCH  14  15
ENDBRANCH  13  14
ENDBRANCH  12  13
ENDBRANCH  11  12
ENDBRANCH  10  11
ENDBRANCH   9  10
ENDBRANCH   8   9
ENDBRANCH   7   8
ENDBRANCH   6   7
ENDBRANCH   5   6
ENDBRANCH   4   5
ENDBRANCH   3   4
ENDBRANCH   2   3
ENDBRANCH   1   2
BRANCH   1  18
ATOM     18  C   UNL     1      -9.338 -14.501  17.027  1.00  0.00     0.000 C 
BRANCH  18  19
ATOM     19  C   UNL     1      -7.951 -15.164  17.016  1.00  0.00     0.000 C 
BRANCH  19  20
ATOM     20  C   UNL     1      -7.285 -15.122  15.629  1.00  0.00     0.000 C 
BRANCH  20  21
ATOM     21  C   UNL     1      -7.695 -13.882  14.810  1.00  0.00     0.000 C 
BRANCH  21  22
ATOM     22  C   UNL     1      -7.303 -13.935  13.321  1.00  0.00     0.000 C 
BRANCH  22  23
ATOM     23  C   UNL     1      -8.510 -13.770  12.380  1.00  0.00     0.000 C 
BRANCH  23  24
ATOM     24  C   UNL     1      -9.775 -13.307  13.120  1.00  0.00    -0.000 C 
BRANCH  24  25
ATOM     25  C   UNL     1     -11.054 -13.522  12.293  1.00  0.00    -0.000 C 
BRANCH  25  26
ATOM     26  C   UNL     1     -11.173 -12.547  11.108  1.00  0.00    -0.000 C 
BRANCH  26  27
ATOM     27  C   UNL     1     -12.246 -12.923  10.070  1.00  0.00    -0.000 C 
BRANCH  27  28
ATOM     28  C   UNL     1     -11.746 -12.795   8.619  1.00  0.00    -0.000 C 
BRANCH  28  29
ATOM     29  C   UNL     1     -12.606 -13.588   7.620  1.00  0.00    -0.000 C 
BRANCH  29  30
ATOM     30  C   UNL     1     -13.512 -14.661   8.252  1.00  0.00    -0.000 C 
BRANCH  30  31
ATOM     31  C   UNL     1     -13.621 -15.933   7.397  1.00  0.00    -0.003 C 
ATOM     32  C   UNL     1     -12.610 -16.985   7.843  1.00  0.00     0.004 C 
ENDBRANCH  30  31
ENDBRANCH  29  30
ENDBRANCH  28  29
ENDBRANCH  27  28
ENDBRANCH  26  27
ENDBRANCH  25  26
ENDBRANCH  24  25
ENDBRANCH  23  24
ENDBRANCH  22  23
ENDBRANCH  21  22
ENDBRANCH  20  21
ENDBRANCH  19  20
ENDBRANCH  18  19
ENDBRANCH   1  18
TORSDOF 28
ENDMDL
MODEL 7
REMARK VINA RESULT:    31.743      3.099      6.968
REMARK INTER + INTRA:          82.257
REMARK INTER:                  84.133
REMARK INTRA:                  -1.876
REMARK UNBOUND:                -1.445
REMARK SMILES CCCCCCCCCCCCCCCCCCCCCCCCCCCCCC(=O)[O-]
REMARK SMILES IDX 16 1 17 2 18 3 19 4 20 5 21 6 22 7 23 8 24 9 25 10 26 11
REMARK SMILES IDX 27 12 28 13 29 14 30 15 31 16 32 17 15 18 14 19 13 20 12 21
REMARK SMILES IDX 11 22 10 23 9 24 8 25 7 26 6 27 5 28 4 29 3 30 2 31 1 32
REMARK H PARENT
REMARK Flexibility Score: inf
ROOT
ATOM      1  C   UNL     1      -9.918 -18.058  17.891  1.00  0.00     0.000 C 
ENDROOT
BRANCH   1   2
ATOM      2  C   UNL     1      -9.827 -16.634  18.463  1.00  0.00     0.000 C 
BRANCH   2   3
ATOM      3  C   UNL     1      -9.612 -15.571  17.374  1.00  0.00     0.000 C 
BRANCH   3   4
ATOM      4  C   UNL     1      -9.070 -14.249  17.942  1.00  0.00     0.000 C 
BRANCH   4   5
ATOM      5  C   UNL     1      -8.408 -14.422  19.318  1.00  0.00     0.000 C 
BRANCH   5   6
ATOM      6  C   UNL     1      -8.410 -13.127  20.149  1.00  0.00     0.000 C 
BRANCH   6   7
ATOM      7  C   UNL     1      -8.456 -13.406  21.661  1.00  0.00     0.000 C 
BRANCH   7   8
ATOM      8  C   UNL     1      -7.973 -12.206  22.494  1.00  0.00     0.000 C 
BRANCH   8   9
ATOM      9  C   UNL     1      -6.598 -12.450  23.136  1.00  0.00     0.000 C 
BRANCH   9  10
ATOM     10  C   UNL     1      -6.532 -11.964  24.595  1.00  0.00     0.000 C 
BRANCH  10  11
ATOM     11  C   UNL     1      -6.453 -13.135  25.599  1.00  0.00     0.000 C 
BRANCH  11  12
ATOM     12  C   UNL     1      -5.325 -14.140  25.291  1.00  0.00     0.000 C 
BRANCH  12  13
ATOM     13  C   UNL     1      -5.344 -15.415  26.153  1.00  0.00     0.006 C 
BRANCH  13  14
ATOM     14  C   UNL     1      -4.278 -16.435  25.727  1.00  0.00     0.053 C 
BRANCH  14  15
ATOM     15  C   UNL     1      -4.910 -17.589  25.013  1.00  0.00     0.041 C 
ATOM     16  O   UNL     1      -5.391 -18.552  25.667  1.00  0.00    -0.550 OA
ATOM     17  O   UNL     1      -4.984 -17.595  23.626  1.00  0.00    -0.550 OA
ENDBRANCH  14  15
ENDBRANCH  13  14
ENDBRANCH  12  13
ENDBRANCH  11  12
ENDBRANCH  10  11
ENDBRANCH   9  10
ENDBRANCH   8   9
ENDBRANCH   7   8
ENDBRANCH   6   7
ENDBRANCH   5   6
ENDBRANCH   4   5
ENDBRANCH   3   4
ENDBRANCH   2   3
ENDBRANCH   1   2
BRANCH   1  18
ATOM     18  C   UNL     1      -9.091 -18.183  16.602  1.00  0.00     0.000 C 
BRANCH  18  19
ATOM     19  C   UNL     1      -8.107 -19.364  16.635  1.00  0.00     0.000 C 
BRANCH  19  20
ATOM     20  C   UNL     1      -6.694 -18.971  16.166  1.00  0.00     0.000 C 
BRANCH  20  21
ATOM     21  C   UNL     1      -6.192 -19.840  14.997  1.00  0.00     0.000 C 
BRANCH  21  22
ATOM     22  C   UNL     1      -7.109 -19.847  13.759  1.00  0.00     0.000 C 
BRANCH  22  23
ATOM     23  C   UNL     1      -7.030 -18.539  12.951  1.00  0.00     0.000 C 
BRANCH  23  24
ATOM     24  C   UNL     1      -8.410 -18.057  12.475  1.00  0.00    -0.000 C 
BRANCH  24  25
ATOM     25  C   UNL     1      -8.354 -16.671  11.810  1.00  0.00    -0.000 C 
BRANCH  25  26
ATOM     26  C   UNL     1      -7.820 -15.576  12.751  1.00  0.00    -0.000 C 
BRANCH  26  27
ATOM     27  C   UNL     1      -8.263 -14.146  12.391  1.00  0.00    -0.000 C 
BRANCH  27  28
ATOM     28  C   UNL     1      -9.300 -13.576  13.375  1.00  0.00    -0.000 C 
BRANCH  28  29
ATOM     29  C   UNL     1      -9.179 -12.052  13.552  1.00  0.00    -0.000 C 
BRANCH  29  30
ATOM     30  C   UNL     1     -10.106 -11.218  12.648  1.00  0.00    -0.000 C 
BRANCH  30  31
ATOM     31  C   UNL     1     -10.345  -9.798  13.181  1.00  0.00    -0.003 C 
ATOM     32  C   UNL     1      -9.170  -8.880  12.855  1.00  0.00     0.004 C 
ENDBRANCH  30  31
ENDBRANCH  29  30
ENDBRANCH  28  29
ENDBRANCH  27  28
ENDBRANCH  26  27
ENDBRANCH  25  26
ENDBRANCH  24  25
ENDBRANCH  23  24
ENDBRANCH  22  23
ENDBRANCH  21  22
ENDBRANCH  20  21
ENDBRANCH  19  20
ENDBRANCH  18  19
ENDBRANCH   1  18
TORSDOF 28
ENDMDL
MODEL 8
REMARK VINA RESULT:    32.396      2.018      2.860
REMARK INTER + INTRA:          83.979
REMARK INTER:                  85.450
REMARK INTRA:                  -1.471
REMARK UNBOUND:                -1.445
REMARK SMILES CCCCCCCCCCCCCCCCCCCCCCCCCCCCCC(=O)[O-]
REMARK SMILES IDX 16 1 17 2 18 3 19 4 20 5 21 6 22 7 23 8 24 9 25 10 26 11
REMARK SMILES IDX 27 12 28 13 29 14 30 15 31 16 32 17 15 18 14 19 13 20 12 21
REMARK SMILES IDX 11 22 10 23 9 24 8 25 7 26 6 27 5 28 4 29 3 30 2 31 1 32
REMARK H PARENT
REMARK Flexibility Score: inf
ROOT
ATOM      1  C   UNL     1      -8.730 -13.695  18.205  1.00  0.00     0.000 C 
ENDROOT
BRANCH   1   2
ATOM      2  C   UNL     1     -10.065 -13.625  18.964  1.00  0.00     0.000 C 
BRANCH   2   3
ATOM      3  C   UNL     1      -9.881 -13.317  20.459  1.00  0.00     0.000 C 
BRANCH   3   4
ATOM      4  C   UNL     1      -8.402 -13.314  20.881  1.00  0.00     0.000 C 
BRANCH   4   5
ATOM      5  C   UNL     1      -8.136 -12.424  22.104  1.00  0.00     0.000 C 
BRANCH   5   6
ATOM      6  C   UNL     1      -6.906 -12.871  22.913  1.00  0.00     0.000 C 
BRANCH   6   7
ATOM      7  C   UNL     1      -6.333 -11.734  23.776  1.00  0.00     0.000 C 
BRANCH   7   8
ATOM      8  C   UNL     1      -6.608 -11.940  25.277  1.00  0.00     0.000 C 
BRANCH   8   9
ATOM      9  C   UNL     1      -6.485 -13.413  25.701  1.00  0.00     0.000 C 
BRANCH   9  10
ATOM     10  C   UNL     1      -5.030 -13.829  25.980  1.00  0.00     0.000 C 
BRANCH  10  11
ATOM     11  C   UNL     1      -4.939 -15.179  26.722  1.00  0.00     0.000 C 
BRANCH  11  12
ATOM     12  C   UNL     1      -4.674 -16.380  25.793  1.00  0.00     0.000 C 
BRANCH  12  13
ATOM     13  C   UNL     1      -5.502 -17.637  26.112  1.00  0.00     0.006 C 
BRANCH  13  14
ATOM     14  C   UNL     1      -5.289 -18.764  25.090  1.00  0.00     0.053 C 
BRANCH  14  15
ATOM     15  C   UNL     1      -5.464 -18.248  23.695  1.00  0.00     0.041 C 
ATOM     16  O   UNL     1      -4.526 -17.634  23.124  1.00  0.00    -0.550 OA
ATOM     17  O   UNL     1      -6.659 -18.461  23.018  1.00  0.00    -0.550 OA
ENDBRANCH  14  15
ENDBRANCH  13  14
ENDBRANCH  12  13
ENDBRANCH  11  12
ENDBRANCH  10  11
ENDBRANCH   9  10
ENDBRANCH   8   9
ENDBRANCH   7   8
ENDBRANCH   6   7
ENDBRANCH   5   6
ENDBRANCH   4   5
ENDBRANCH   3   4
ENDBRANCH   2   3
ENDBRANCH   1   2
BRANCH   1  18
ATOM     18  C   UNL     1      -8.623 -15.005  17.409  1.00  0.00     0.000 C 
BRANCH  18  19
ATOM     19  C   UNL     1      -9.916 -15.838  17.451  1.00  0.00     0.000 C 
BRANCH  19  20
ATOM     20  C   UNL     1      -9.787 -17.086  18.344  1.00  0.00     0.000 C 
BRANCH  20  21
ATOM     21  C   UNL     1     -10.104 -18.391  17.589  1.00  0.00     0.000 C 
BRANCH  21  22
ATOM     22  C   UNL     1      -8.947 -18.936  16.731  1.00  0.00     0.000 C 
BRANCH  22  23
ATOM     23  C   UNL     1      -7.625 -18.182  16.964  1.00  0.00     0.000 C 
BRANCH  23  24
ATOM     24  C   UNL     1      -6.492 -18.685  16.055  1.00  0.00    -0.000 C 
BRANCH  24  25
ATOM     25  C   UNL     1      -6.127 -20.155  16.325  1.00  0.00    -0.000 C 
BRANCH  25  26
ATOM     26  C   UNL     1      -6.243 -21.041  15.072  1.00  0.00    -0.000 C 
BRANCH  26  27
ATOM     27  C   UNL     1      -6.997 -20.396  13.895  1.00  0.00    -0.000 C 
BRANCH  27  28
ATOM     28  C   UNL     1      -8.236 -21.202  13.464  1.00  0.00    -0.000 C 
BRANCH  28  29
ATOM     29  C   UNL     1      -9.556 -20.468  13.757  1.00  0.00    -0.000 C 
BRANCH  29  30
ATOM     30  C   UNL     1     -10.444 -20.212  12.525  1.00  0.00    -0.000 C 
BRANCH  30  31
ATOM     31  C   UNL     1     -11.408 -21.371  12.230  1.00  0.00    -0.003 C 
ATOM     32  C   UNL     1     -12.341 -21.032  11.072  1.00  0.00     0.004 C 
ENDBRANCH  30  31
ENDBRANCH  29  30
ENDBRANCH  28  29
ENDBRANCH  27  28
ENDBRANCH  26  27
ENDBRANCH  25  26
ENDBRANCH  24  25
ENDBRANCH  23  24
ENDBRANCH  22  23
ENDBRANCH  21  22
ENDBRANCH  20  21
ENDBRANCH  19  20
ENDBRANCH  18  19
ENDBRANCH   1  18
TORSDOF 28
ENDMDL
MODEL 9
REMARK VINA RESULT:    32.492      2.350      3.214
REMARK INTER + INTRA:          84.233
REMARK INTER:                  85.334
REMARK INTRA:                  -1.102
REMARK UNBOUND:                -1.445
REMARK SMILES CCCCCCCCCCCCCCCCCCCCCCCCCCCCCC(=O)[O-]
REMARK SMILES IDX 16 1 17 2 18 3 19 4 20 5 21 6 22 7 23 8 24 9 25 10 26 11
REMARK SMILES IDX 27 12 28 13 29 14 30 15 31 16 32 17 15 18 14 19 13 20 12 21
REMARK SMILES IDX 11 22 10 23 9 24 8 25 7 26 6 27 5 28 4 29 3 30 2 31 1 32
REMARK H PARENT
REMARK Flexibility Score: inf
ROOT
ATOM      1  C   UNL     1      -8.435 -14.516  20.325  1.00  0.00     0.000 C 
ENDROOT
BRANCH   1   2
ATOM      2  C   UNL     1      -7.661 -14.021  21.557  1.00  0.00     0.000 C 
BRANCH   2   3
ATOM      3  C   UNL     1      -8.259 -12.738  22.156  1.00  0.00     0.000 C 
BRANCH   3   4
ATOM      4  C   UNL     1      -7.178 -11.749  22.624  1.00  0.00     0.000 C 
BRANCH   4   5
ATOM      5  C   UNL     1      -6.277 -12.332  23.723  1.00  0.00     0.000 C 
BRANCH   5   6
ATOM      6  C   UNL     1      -6.868 -12.164  25.133  1.00  0.00     0.000 C 
BRANCH   6   7
ATOM      7  C   UNL     1      -6.618 -13.396  26.019  1.00  0.00     0.000 C 
BRANCH   7   8
ATOM      8  C   UNL     1      -5.122 -13.620  26.304  1.00  0.00     0.000 C 
BRANCH   8   9
ATOM      9  C   UNL     1      -4.623 -14.982  25.793  1.00  0.00     0.000 C 
BRANCH   9  10
ATOM     10  C   UNL     1      -5.158 -16.159  26.629  1.00  0.00     0.000 C 
BRANCH  10  11
ATOM     11  C   UNL     1      -4.544 -17.509  26.199  1.00  0.00     0.000 C 
BRANCH  11  12
ATOM     12  C   UNL     1      -5.526 -18.693  26.289  1.00  0.00     0.000 C 
BRANCH  12  13
ATOM     13  C   UNL     1      -6.606 -18.721  25.194  1.00  0.00     0.006 C 
BRANCH  13  14
ATOM     14  C   UNL     1      -6.046 -19.108  23.817  1.00  0.00     0.053 C 
BRANCH  14  15
ATOM     15  C   UNL     1      -5.386 -17.931  23.168  1.00  0.00     0.041 C 
ATOM     16  O   UNL     1      -6.048 -17.171  22.413  1.00  0.00    -0.550 OA
ATOM     17  O   UNL     1      -4.045 -17.662  23.411  1.00  0.00    -0.550 OA
ENDBRANCH  14  15
ENDBRANCH  13  14
ENDBRANCH  12  13
ENDBRANCH  11  12
ENDBRANCH  10  11
ENDBRANCH   9  10
ENDBRANCH   8   9
ENDBRANCH   7   8
ENDBRANCH   6   7
ENDBRANCH   5   6
ENDBRANCH   4   5
ENDBRANCH   3   4
ENDBRANCH   2   3
ENDBRANCH   1   2
BRANCH   1  18
ATOM     18  C   UNL     1      -8.582 -13.394  19.286  1.00  0.00     0.000 C 
BRANCH  18  19
ATOM     19  C   UNL     1      -9.452 -13.801  18.085  1.00  0.00     0.000 C 
BRANCH  19  20
ATOM     20  C   UNL     1      -8.768 -14.847  17.185  1.00  0.00     0.000 C 
BRANCH  20  21
ATOM     21  C   UNL     1      -9.653 -16.082  16.929  1.00  0.00     0.000 C 
BRANCH  21  22
ATOM     22  C   UNL     1      -9.832 -17.009  18.146  1.00  0.00     0.000 C 
BRANCH  22  23
ATOM     23  C   UNL     1      -9.917 -18.496  17.756  1.00  0.00     0.000 C 
BRANCH  23  24
ATOM     24  C   UNL     1      -8.758 -18.933  16.847  1.00  0.00    -0.000 C 
BRANCH  24  25
ATOM     25  C   UNL     1      -7.407 -18.344  17.288  1.00  0.00    -0.000 C 
BRANCH  25  26
ATOM     26  C   UNL     1      -6.202 -19.096  16.695  1.00  0.00    -0.000 C 
BRANCH  26  27
ATOM     27  C   UNL     1      -6.564 -20.352  15.881  1.00  0.00    -0.000 C 
BRANCH  27  28
ATOM     28  C   UNL     1      -6.266 -20.197  14.378  1.00  0.00    -0.000 C 
BRANCH  28  29
ATOM     29  C   UNL     1      -7.472 -20.553  13.491  1.00  0.00    -0.000 C 
BRANCH  29  30
ATOM     30  C   UNL     1      -8.816 -19.961  13.956  1.00  0.00    -0.000 C 
BRANCH  30  31
ATOM     31  C   UNL     1      -9.783 -19.686  12.794  1.00  0.00    -0.003 C 
ATOM     32  C   UNL     1      -9.378 -18.433  12.023  1.00  0.00     0.004 C 
ENDBRANCH  30  31
ENDBRANCH  29  30
ENDBRANCH  28  29
ENDBRANCH  27  28
ENDBRANCH  26  27
ENDBRANCH  25  26
ENDBRANCH  24  25
ENDBRANCH  23  24
ENDBRANCH  22  23
ENDBRANCH  21  22
ENDBRANCH  20  21
ENDBRANCH  19  20
ENDBRANCH  18  19
ENDBRANCH   1  18
TORSDOF 28
ENDMDL
