MODEL 1
REMARK VINA RESULT:    -4.390      0.000      0.000
REMARK INTER + INTRA:          -5.656
REMARK INTER:                  -5.416
REMARK INTRA:                  -0.239
REMARK UNBOUND:                -0.239
REMARK SMILES CCCCC=CC(C)=O
REMARK SMILES IDX 4 1 3 2 2 3 1 4 5 5 6 6 7 7 9 8 8 9
REMARK H PARENT
REMARK Flexibility Score: inf
ROOT
ATOM      1  C   UNL     1     140.899 144.920 112.320  1.00  0.00     0.027 C 
ENDROOT
BRANCH   1   2
ATOM      2  C   UNL     1     140.106 146.235 112.311  1.00  0.00     0.004 C 
BRANCH   2   3
ATOM      3  C   UNL     1     140.589 147.222 113.385  1.00  0.00    -0.003 C 
ATOM      4  C   UNL     1     141.034 148.562 112.800  1.00  0.00     0.004 C 
ENDBRANCH   2   3
ENDBRANCH   1   2
BRANCH   1   5
ATOM      5  C   UNL     1     142.108 145.023 113.206  1.00  0.00    -0.023 C 
ATOM      6  C   UNL     1     143.312 144.605 112.796  1.00  0.00     0.042 C 
BRANCH   6   7
ATOM      7  C   UNL     1     144.525 144.675 113.636  1.00  0.00     0.152 C 
ATOM      8  O   UNL     1     144.898 143.636 114.245  1.00  0.00    -0.295 OA
ATOM      9  C   UNL     1     145.326 145.933 113.791  1.00  0.00     0.093 C 
ENDBRANCH   6   7
ENDBRANCH   1   5
TORSDOF 4
ENDMDL
MODEL 2
REMARK VINA RESULT:    -3.486     12.492     14.122
REMARK INTER + INTRA:          -4.541
REMARK INTER:                  -4.380
REMARK INTRA:                  -0.160
REMARK UNBOUND:                -0.239
REMARK SMILES CCCCC=CC(C)=O
REMARK SMILES IDX 4 1 3 2 2 3 1 4 5 5 6 6 7 7 9 8 8 9
REMARK H PARENT
REMARK Flexibility Score: inf
ROOT
ATOM      1  C   UNL     1     131.301 138.174 114.601  1.00  0.00     0.027 C 
ENDROOT
BRANCH   1   2
ATOM      2  C   UNL     1     129.796 137.928 114.787  1.00  0.00     0.004 C 
BRANCH   2   3
ATOM      3  C   UNL     1     129.341 136.584 114.198  1.00  0.00    -0.003 C 
ATOM      4  C   UNL     1     128.226 136.739 113.164  1.00  0.00     0.004 C 
ENDBRANCH   2   3
ENDBRANCH   1   2
BRANCH   1   5
ATOM      5  C   UNL     1     131.647 139.616 114.836  1.00  0.00    -0.023 C 
ATOM      6  C   UNL     1     130.742 140.484 115.305  1.00  0.00     0.042 C 
BRANCH   6   7
ATOM      7  C   UNL     1     131.034 141.913 115.539  1.00  0.00     0.152 C 
ATOM      8  O   UNL     1     131.997 142.216 116.294  1.00  0.00    -0.295 OA
ATOM      9  C   UNL     1     130.229 143.012 114.913  1.00  0.00     0.093 C 
ENDBRANCH   6   7
ENDBRANCH   1   5
TORSDOF 4
ENDMDL
MODEL 3
REMARK VINA RESULT:    -3.439     13.759     15.154
REMARK INTER + INTRA:          -4.482
REMARK INTER:                  -4.313
REMARK INTRA:                  -0.169
REMARK UNBOUND:                -0.239
REMARK SMILES CCCCC=CC(C)=O
REMARK SMILES IDX 4 1 3 2 2 3 1 4 5 5 6 6 7 7 9 8 8 9
REMARK H PARENT
REMARK Flexibility Score: inf
ROOT
ATOM      1  C   UNL     1     129.286 136.450 114.112  1.00  0.00     0.027 C 
ENDROOT
BRANCH   1   2
ATOM      2  C   UNL     1     127.756 136.523 114.225  1.00  0.00     0.004 C 
BRANCH   2   3
ATOM      3  C   UNL     1     127.146 137.585 113.297  1.00  0.00    -0.003 C 
ATOM      4  C   UNL     1     126.697 137.010 111.954  1.00  0.00     0.004 C 
ENDBRANCH   2   3
ENDBRANCH   1   2
BRANCH   1   5
ATOM      5  C   UNL     1     129.938 137.579 114.858  1.00  0.00    -0.023 C 
ATOM      6  C   UNL     1     131.087 138.123 114.437  1.00  0.00     0.042 C 
BRANCH   6   7
ATOM      7  C   UNL     1     131.770 139.225 115.145  1.00  0.00     0.152 C 
ATOM      8  O   UNL     1     132.864 138.983 115.724  1.00  0.00    -0.295 OA
ATOM      9  C   UNL     1     131.212 140.615 115.200  1.00  0.00     0.093 C 
ENDBRANCH   6   7
ENDBRANCH   1   5
TORSDOF 4
ENDMDL
MODEL 4
REMARK VINA RESULT:    -3.394     12.507     13.893
REMARK INTER + INTRA:          -4.427
REMARK INTER:                  -4.257
REMARK INTRA:                  -0.170
REMARK UNBOUND:                -0.239
REMARK SMILES CCCCC=CC(C)=O
REMARK SMILES IDX 4 1 3 2 2 3 1 4 5 5 6 6 7 7 9 8 8 9
REMARK H PARENT
REMARK Flexibility Score: inf
ROOT
ATOM      1  C   UNL     1     131.843 139.555 115.311  1.00  0.00     0.027 C 
ENDROOT
BRANCH   1   2
ATOM      2  C   UNL     1     131.332 138.321 114.551  1.00  0.00     0.004 C 
BRANCH   2   3
ATOM      3  C   UNL     1     129.944 137.868 115.030  1.00  0.00    -0.003 C 
ATOM      4  C   UNL     1     129.285 136.874 114.074  1.00  0.00     0.004 C 
ENDBRANCH   2   3
ENDBRANCH   1   2
BRANCH   1   5
ATOM      5  C   UNL     1     130.989 140.757 115.028  1.00  0.00    -0.023 C 
ATOM      6  C   UNL     1     131.167 141.910 115.685  1.00  0.00     0.042 C 
BRANCH   6   7
ATOM      7  C   UNL     1     130.343 143.113 115.450  1.00  0.00     0.152 C 
ATOM      8  O   UNL     1     130.793 144.234 115.813  1.00  0.00    -0.295 OA
ATOM      9  C   UNL     1     128.994 143.051 114.797  1.00  0.00     0.093 C 
ENDBRANCH   6   7
ENDBRANCH   1   5
TORSDOF 4
ENDMDL
MODEL 5
REMARK VINA RESULT:    -3.260     12.427     13.349
REMARK INTER + INTRA:          -4.262
REMARK INTER:                  -4.079
REMARK INTRA:                  -0.183
REMARK UNBOUND:                -0.239
REMARK SMILES CCCCC=CC(C)=O
REMARK SMILES IDX 4 1 3 2 2 3 1 4 5 5 6 6 7 7 9 8 8 9
REMARK H PARENT
REMARK Flexibility Score: inf
ROOT
ATOM      1  C   UNL     1     130.395 142.896 115.279  1.00  0.00     0.027 C 
ENDROOT
BRANCH   1   2
ATOM      2  C   UNL     1     128.967 142.876 114.714  1.00  0.00     0.004 C 
BRANCH   2   3
ATOM      3  C   UNL     1     128.036 143.869 115.428  1.00  0.00    -0.003 C 
ATOM      4  C   UNL     1     128.799 144.971 116.161  1.00  0.00     0.004 C 
ENDBRANCH   2   3
ENDBRANCH   1   2
BRANCH   1   5
ATOM      5  C   UNL     1     131.103 141.600 115.009  1.00  0.00    -0.023 C 
ATOM      6  C   UNL     1     130.580 140.426 115.386  1.00  0.00     0.042 C 
BRANCH   6   7
ATOM      7  C   UNL     1     131.246 139.129 115.153  1.00  0.00     0.152 C 
ATOM      8  O   UNL     1     132.473 139.023 115.425  1.00  0.00    -0.295 OA
ATOM      9  C   UNL     1     130.519 137.937 114.608  1.00  0.00     0.093 C 
ENDBRANCH   6   7
ENDBRANCH   1   5
TORSDOF 4
ENDMDL
MODEL 6
REMARK VINA RESULT:    -3.208     14.645     15.940
REMARK INTER + INTRA:          -4.198
REMARK INTER:                  -3.997
REMARK INTRA:                  -0.201
REMARK UNBOUND:                -0.239
REMARK SMILES CCCCC=CC(C)=O
REMARK SMILES IDX 4 1 3 2 2 3 1 4 5 5 6 6 7 7 9 8 8 9
REMARK H PARENT
REMARK Flexibility Score: inf
ROOT
ATOM      1  C   UNL     1     143.560 134.295 121.831  1.00  0.00     0.027 C 
ENDROOT
BRANCH   1   2
ATOM      2  C   UNL     1     144.369 134.005 123.104  1.00  0.00     0.004 C 
BRANCH   2   3
ATOM      3  C   UNL     1     145.575 133.090 122.840  1.00  0.00    -0.003 C 
ATOM      4  C   UNL     1     145.923 132.985 121.355  1.00  0.00     0.004 C 
ENDBRANCH   2   3
ENDBRANCH   1   2
BRANCH   1   5
ATOM      5  C   UNL     1     142.108 134.508 122.149  1.00  0.00    -0.023 C 
ATOM      6  C   UNL     1     141.499 133.824 123.126  1.00  0.00     0.042 C 
BRANCH   6   7
ATOM      7  C   UNL     1     140.071 133.991 123.465  1.00  0.00     0.152 C 
ATOM      8  O   UNL     1     139.735 134.959 124.201  1.00  0.00    -0.295 OA
ATOM      9  C   UNL     1     139.010 133.056 122.969  1.00  0.00     0.093 C 
ENDBRANCH   6   7
ENDBRANCH   1   5
TORSDOF 4
ENDMDL
MODEL 7
REMARK VINA RESULT:    -3.206     14.587     15.439
REMARK INTER + INTRA:          -4.194
REMARK INTER:                  -4.002
REMARK INTRA:                  -0.193
REMARK UNBOUND:                -0.239
REMARK SMILES CCCCC=CC(C)=O
REMARK SMILES IDX 4 1 3 2 2 3 1 4 5 5 6 6 7 7 9 8 8 9
REMARK H PARENT
REMARK Flexibility Score: inf
ROOT
ATOM      1  C   UNL     1     141.645 134.591 122.421  1.00  0.00     0.027 C 
ENDROOT
BRANCH   1   2
ATOM      2  C   UNL     1     141.047 133.670 123.495  1.00  0.00     0.004 C 
BRANCH   2   3
ATOM      3  C   UNL     1     139.600 133.260 123.180  1.00  0.00    -0.003 C 
ATOM      4  C   UNL     1     139.046 133.953 121.936  1.00  0.00     0.004 C 
ENDBRANCH   2   3
ENDBRANCH   1   2
BRANCH   1   5
ATOM      5  C   UNL     1     143.055 134.194 122.091  1.00  0.00    -0.023 C 
ATOM      6  C   UNL     1     143.922 133.838 123.047  1.00  0.00     0.042 C 
BRANCH   6   7
ATOM      7  C   UNL     1     145.321 133.452 122.770  1.00  0.00     0.152 C 
ATOM      8  O   UNL     1     146.022 134.206 122.042  1.00  0.00    -0.295 OA
ATOM      9  C   UNL     1     145.936 132.201 123.323  1.00  0.00     0.093 C 
ENDBRANCH   6   7
ENDBRANCH   1   5
TORSDOF 4
ENDMDL
MODEL 8
REMARK VINA RESULT:    -3.205     14.028     14.835
REMARK INTER + INTRA:          -4.194
REMARK INTER:                  -3.935
REMARK INTRA:                  -0.259
REMARK UNBOUND:                -0.239
REMARK SMILES CCCCC=CC(C)=O
REMARK SMILES IDX 4 1 3 2 2 3 1 4 5 5 6 6 7 7 9 8 8 9
REMARK H PARENT
REMARK Flexibility Score: inf
ROOT
ATOM      1  C   UNL     1     139.721 134.060 123.483  1.00  0.00     0.027 C 
ENDROOT
BRANCH   1   2
ATOM      2  C   UNL     1     139.087 133.670 122.139  1.00  0.00     0.004 C 
BRANCH   2   3
ATOM      3  C   UNL     1     138.261 134.810 121.523  1.00  0.00    -0.003 C 
ATOM      4  C   UNL     1     139.125 135.835 120.789  1.00  0.00     0.004 C 
ENDBRANCH   2   3
ENDBRANCH   1   2
BRANCH   1   5
ATOM      5  C   UNL     1     141.185 133.726 123.507  1.00  0.00    -0.023 C 
ATOM      6  C   UNL     1     142.057 134.348 122.704  1.00  0.00     0.042 C 
BRANCH   6   7
ATOM      7  C   UNL     1     143.502 134.043 122.684  1.00  0.00     0.152 C 
ATOM      8  O   UNL     1     144.107 133.917 123.783  1.00  0.00    -0.295 OA
ATOM      9  C   UNL     1     144.274 133.877 121.409  1.00  0.00     0.093 C 
ENDBRANCH   6   7
ENDBRANCH   1   5
TORSDOF 4
ENDMDL
MODEL 9
REMARK VINA RESULT:    -3.135     13.722     14.932
REMARK INTER + INTRA:          -4.108
REMARK INTER:                  -3.815
REMARK INTRA:                  -0.293
REMARK UNBOUND:                -0.239
REMARK SMILES CCCCC=CC(C)=O
REMARK SMILES IDX 4 1 3 2 2 3 1 4 5 5 6 6 7 7 9 8 8 9
REMARK H PARENT
REMARK Flexibility Score: inf
ROOT
ATOM      1  C   UNL     1     139.892 133.343 123.167  1.00  0.00     0.027 C 
ENDROOT
BRANCH   1   2
ATOM      2  C   UNL     1     140.895 134.402 123.649  1.00  0.00     0.004 C 
BRANCH   2   3
ATOM      3  C   UNL     1     142.355 133.970 123.440  1.00  0.00    -0.003 C 
ATOM      4  C   UNL     1     142.867 134.281 122.034  1.00  0.00     0.004 C 
ENDBRANCH   2   3
ENDBRANCH   1   2
BRANCH   1   5
ATOM      5  C   UNL     1     138.966 133.908 122.129  1.00  0.00    -0.023 C 
ATOM      6  C   UNL     1     139.169 135.119 121.596  1.00  0.00     0.042 C 
BRANCH   6   7
ATOM      7  C   UNL     1     138.278 135.719 120.583  1.00  0.00     0.152 C 
ATOM      8  O   UNL     1     138.738 136.623 119.834  1.00  0.00    -0.295 OA
ATOM      9  C   UNL     1     136.850 135.295 120.413  1.00  0.00     0.093 C 
ENDBRANCH   6   7
ENDBRANCH   1   5
TORSDOF 4
ENDMDL
