MODEL 1
REMARK VINA RESULT:    10.845      0.000      0.000
REMARK INTER + INTRA:          16.127
REMARK INTER:                  14.649
REMARK INTRA:                   1.478
REMARK UNBOUND:                 1.478
REMARK SMILES O=c1c(-c2ccc(O)cc2)coc2c([C@@H]3O[C@H](CO)[C@@H](O)[C@@H](O)[C@@H]3O)c(O)ccc12
REMARK SMILES IDX 3 1 11 2 12 3 13 4 30 5 2 6 1 7 29 8 28 9 26 10 14 11 4 12
REMARK SMILES IDX 5 13 6 14 7 15 10 16 9 17 8 18 15 20 24 21 16 22 22 23 17 24
REMARK SMILES IDX 20 25 25 26 23 28 18 30 19 31 21 33 27 35
REMARK H PARENT 8 19 25 27 23 29 19 32 21 34 27 36
REMARK Flexibility Score: inf
ROOT
ATOM      1  C   UNL     1      -0.105  -4.798   0.831  1.00  0.00     0.065 A 
ATOM      2  C   UNL     1      -1.033  -3.790   1.144  1.00  0.00     0.208 A 
ATOM      3  O   UNL     1      -0.825  -2.534   0.772  1.00  0.00    -0.463 OA
ATOM      4  C   UNL     1       0.255  -2.143   0.097  1.00  0.00     0.147 A 
ATOM      5  C   UNL     1       1.235  -3.092  -0.268  1.00  0.00     0.066 A 
ATOM      6  C   UNL     1       1.042  -4.437   0.100  1.00  0.00     0.200 A 
ATOM      7  O   UNL     1       1.892  -5.312  -0.223  1.00  0.00    -0.288 OA
ATOM      8  C   UNL     1       2.380  -2.674  -0.965  1.00  0.00     0.020 A 
ATOM      9  C   UNL     1       2.554  -1.329  -1.283  1.00  0.00     0.047 A 
ATOM     10  C   UNL     1       1.602  -0.375  -0.905  1.00  0.00     0.125 A 
ATOM     11  C   UNL     1       0.422  -0.777  -0.231  1.00  0.00     0.069 A 
ENDROOT
BRANCH   1  12
ATOM     12  C   UNL     1      -0.355  -6.195   1.270  1.00  0.00    -0.011 A 
ATOM     13  C   UNL     1       0.716  -7.072   1.526  1.00  0.00     0.013 A 
ATOM     14  C   UNL     1       0.474  -8.378   1.959  1.00  0.00     0.047 A 
ATOM     15  C   UNL     1      -0.841  -8.824   2.154  1.00  0.00     0.115 A 
ATOM     16  C   UNL     1      -1.668  -6.649   1.479  1.00  0.00     0.013 A 
ATOM     17  C   UNL     1      -1.910  -7.954   1.919  1.00  0.00     0.047 A 
BRANCH  15  18
ATOM     18  O   UNL     1      -1.090 -10.125   2.584  1.00  0.00    -0.508 OA
ATOM     19  H   UNL     1      -1.213 -10.887   1.928  1.00  0.00     0.293 HD
ENDBRANCH  15  18
ENDBRANCH   1  12
BRANCH  11  20
ATOM     20  C   UNL     1      -0.607   0.238   0.265  1.00  0.00     0.188 C 
ATOM     21  C   UNL     1      -0.485   1.549  -0.550  1.00  0.00     0.179 C 
ATOM     22  O   UNL     1      -1.923  -0.284   0.174  1.00  0.00    -0.362 OA
ATOM     23  C   UNL     1      -1.529   2.578  -0.070  1.00  0.00     0.177 C 
ATOM     24  C   UNL     1      -2.856   0.576   0.805  1.00  0.00     0.176 C 
ATOM     25  C   UNL     1      -2.933   1.935   0.064  1.00  0.00     0.177 C 
BRANCH  21  26
ATOM     26  O   UNL     1      -0.680   1.274  -1.918  1.00  0.00    -0.387 OA
ATOM     27  H   UNL     1      -0.665   0.286  -2.017  1.00  0.00     0.211 HD
ENDBRANCH  21  26
BRANCH  23  28
ATOM     28  O   UNL     1      -1.117   3.200   1.126  1.00  0.00    -0.387 OA
ATOM     29  H   UNL     1      -1.283   4.173   1.049  1.00  0.00     0.211 HD
ENDBRANCH  23  28
BRANCH  24  30
ATOM     30  C   UNL     1      -4.226  -0.112   0.807  1.00  0.00     0.191 C 
BRANCH  30  31
ATOM     31  O   UNL     1      -4.060  -1.502   0.834  1.00  0.00    -0.394 OA
ATOM     32  H   UNL     1      -4.208  -1.837  -0.088  1.00  0.00     0.210 HD
ENDBRANCH  30  31
ENDBRANCH  24  30
BRANCH  25  33
ATOM     33  O   UNL     1      -3.803   2.806   0.743  1.00  0.00    -0.388 OA
ATOM     34  H   UNL     1      -3.258   3.583   1.028  1.00  0.00     0.211 HD
ENDBRANCH  25  33
ENDBRANCH  11  20
BRANCH  10  35
ATOM     35  O   UNL     1       1.834   0.973  -1.192  1.00  0.00    -0.507 OA
ATOM     36  H   UNL     1       2.391   1.555  -0.579  1.00  0.00     0.293 HD
ENDBRANCH  10  35
TORSDOF 9
ENDMDL
