MODEL 1
REMARK VINA RESULT:    -5.396      0.000      0.000
REMARK INTER + INTRA:          -6.105
REMARK INTER:                  -5.869
REMARK INTRA:                  -0.236
REMARK UNBOUND:                -0.236
REMARK SMILES CC1=CC[C@@](O)(C(C)C)CC1
REMARK SMILES IDX 1 1 2 2 3 3 4 4 5 5 10 6 11 7 7 8 8 9 9 10 6 11
REMARK H PARENT 6 12
REMARK Flexibility Score: inf
ROOT
ATOM      1  C   UNL     1     123.492 118.684 120.575  1.00  0.00     0.039 C 
ATOM      2  C   UNL     1     124.713 119.458 120.165  1.00  0.00    -0.077 C 
ATOM      3  C   UNL     1     124.864 119.858 118.892  1.00  0.00    -0.025 C 
ATOM      4  C   UNL     1     126.104 120.611 118.494  1.00  0.00     0.062 C 
ATOM      5  C   UNL     1     127.400 119.939 119.069  1.00  0.00     0.071 C 
ATOM      6  C   UNL     1     127.174 119.346 120.515  1.00  0.00     0.040 C 
ATOM      7  C   UNL     1     125.828 119.742 121.142  1.00  0.00     0.033 C 
ENDROOT
BRANCH   5   8
ATOM      8  C   UNL     1     128.604 120.946 119.075  1.00  0.00     0.015 C 
ATOM      9  C   UNL     1     128.167 122.387 119.394  1.00  0.00     0.010 C 
ATOM     10  C   UNL     1     129.770 120.548 120.005  1.00  0.00     0.010 C 
ENDBRANCH   5   8
BRANCH   5  11
ATOM     11  O   UNL     1     127.761 118.872 118.218  1.00  0.00    -0.389 OA
ATOM     12  H   UNL     1     128.630 118.502 118.530  1.00  0.00     0.211 HD
ENDBRANCH   5  11
TORSDOF 2
ENDMDL
MODEL 2
REMARK VINA RESULT:    -4.836     14.730     15.852
REMARK INTER + INTRA:          -5.496
REMARK INTER:                  -5.291
REMARK INTRA:                  -0.205
REMARK UNBOUND:                -0.236
REMARK SMILES CC1=CC[C@@](O)(C(C)C)CC1
REMARK SMILES IDX 1 1 2 2 3 3 4 4 5 5 10 6 11 7 7 8 8 9 9 10 6 11
REMARK H PARENT 6 12
REMARK Flexibility Score: inf
ROOT
ATOM      1  C   UNL     1     114.433 120.257 132.296  1.00  0.00     0.039 C 
ATOM      2  C   UNL     1     114.186 120.658 130.869  1.00  0.00    -0.077 C 
ATOM      3  C   UNL     1     114.536 119.837 129.866  1.00  0.00    -0.025 C 
ATOM      4  C   UNL     1     114.304 120.266 128.442  1.00  0.00     0.062 C 
ATOM      5  C   UNL     1     114.771 121.743 128.199  1.00  0.00     0.071 C 
ATOM      6  C   UNL     1     114.482 122.674 129.440  1.00  0.00     0.040 C 
ATOM      7  C   UNL     1     113.613 122.011 130.521  1.00  0.00     0.033 C 
ENDROOT
BRANCH   5   8
ATOM      8  C   UNL     1     114.110 122.339 126.905  1.00  0.00     0.015 C 
ATOM      9  C   UNL     1     113.539 121.250 125.979  1.00  0.00     0.010 C 
ATOM     10  C   UNL     1     113.026 123.405 127.169  1.00  0.00     0.010 C 
ENDBRANCH   5   8
BRANCH   5  11
ATOM     11  O   UNL     1     116.165 121.737 127.981  1.00  0.00    -0.389 OA
ATOM     12  H   UNL     1     116.621 121.701 128.864  1.00  0.00     0.211 HD
ENDBRANCH   5  11
TORSDOF 2
ENDMDL
MODEL 3
REMARK VINA RESULT:    -4.765     15.920     17.201
REMARK INTER + INTRA:          -5.419
REMARK INTER:                  -5.255
REMARK INTRA:                  -0.164
REMARK UNBOUND:                -0.236
REMARK SMILES CC1=CC[C@@](O)(C(C)C)CC1
REMARK SMILES IDX 1 1 2 2 3 3 4 4 5 5 10 6 11 7 7 8 8 9 9 10 6 11
REMARK H PARENT 6 12
REMARK Flexibility Score: inf
ROOT
ATOM      1  C   UNL     1     117.851 120.465 135.125  1.00  0.00     0.039 C 
ATOM      2  C   UNL     1     116.981 120.456 133.899  1.00  0.00    -0.077 C 
ATOM      3  C   UNL     1     117.482 120.832 132.712  1.00  0.00    -0.025 C 
ATOM      4  C   UNL     1     116.590 120.841 131.500  1.00  0.00     0.062 C 
ATOM      5  C   UNL     1     115.205 121.511 131.806  1.00  0.00     0.071 C 
ATOM      6  C   UNL     1     114.687 121.177 133.259  1.00  0.00     0.040 C 
ATOM      7  C   UNL     1     115.516 120.101 133.979  1.00  0.00     0.033 C 
ENDROOT
BRANCH   5   8
ATOM      8  C   UNL     1     114.131 121.101 130.736  1.00  0.00     0.015 C 
ATOM      9  C   UNL     1     113.649 122.297 129.895  1.00  0.00     0.010 C 
ATOM     10  C   UNL     1     114.563 119.956 129.796  1.00  0.00     0.010 C 
ENDBRANCH   5   8
BRANCH   5  11
ATOM     11  O   UNL     1     115.360 122.910 131.715  1.00  0.00    -0.389 OA
ATOM     12  H   UNL     1     114.587 123.280 131.210  1.00  0.00     0.211 HD
ENDBRANCH   5  11
TORSDOF 2
ENDMDL
MODEL 4
REMARK VINA RESULT:    -4.738     15.045     16.665
REMARK INTER + INTRA:          -5.390
REMARK INTER:                  -5.241
REMARK INTRA:                  -0.149
REMARK UNBOUND:                -0.236
REMARK SMILES CC1=CC[C@@](O)(C(C)C)CC1
REMARK SMILES IDX 1 1 2 2 3 3 4 4 5 5 10 6 11 7 7 8 8 9 9 10 6 11
REMARK H PARENT 6 12
REMARK Flexibility Score: inf
ROOT
ATOM      1  C   UNL     1     115.897 119.758 134.334  1.00  0.00     0.039 C 
ATOM      2  C   UNL     1     115.469 120.395 133.042  1.00  0.00    -0.077 C 
ATOM      3  C   UNL     1     114.183 120.350 132.660  1.00  0.00    -0.025 C 
ATOM      4  C   UNL     1     113.776 120.972 131.351  1.00  0.00     0.062 C 
ATOM      5  C   UNL     1     114.760 120.580 130.194  1.00  0.00     0.071 C 
ATOM      6  C   UNL     1     116.258 120.498 130.684  1.00  0.00     0.040 C 
ATOM      7  C   UNL     1     116.472 121.032 132.110  1.00  0.00     0.033 C 
ENDROOT
BRANCH   5   8
ATOM      8  C   UNL     1     114.636 121.575 128.985  1.00  0.00     0.015 C 
ATOM      9  C   UNL     1     114.379 120.852 127.650  1.00  0.00     0.010 C 
ATOM     10  C   UNL     1     113.584 122.688 129.174  1.00  0.00     0.010 C 
ENDBRANCH   5   8
BRANCH   5  11
ATOM     11  O   UNL     1     114.394 119.304 129.714  1.00  0.00    -0.389 OA
ATOM     12  H   UNL     1     113.695 119.420 129.016  1.00  0.00     0.211 HD
ENDBRANCH   5  11
TORSDOF 2
ENDMDL
MODEL 5
REMARK VINA RESULT:    -4.634     15.058     16.661
REMARK INTER + INTRA:          -5.276
REMARK INTER:                  -5.091
REMARK INTRA:                  -0.185
REMARK UNBOUND:                -0.236
REMARK SMILES CC1=CC[C@@](O)(C(C)C)CC1
REMARK SMILES IDX 1 1 2 2 3 3 4 4 5 5 10 6 11 7 7 8 8 9 9 10 6 11
REMARK H PARENT 6 12
REMARK Flexibility Score: inf
ROOT
ATOM      1  C   UNL     1     115.471 120.167 133.985  1.00  0.00     0.039 C 
ATOM      2  C   UNL     1     115.371 120.718 132.591  1.00  0.00    -0.077 C 
ATOM      3  C   UNL     1     116.258 121.629 132.159  1.00  0.00    -0.025 C 
ATOM      4  C   UNL     1     116.128 122.188 130.767  1.00  0.00     0.062 C 
ATOM      5  C   UNL     1     114.647 122.590 130.442  1.00  0.00     0.071 C 
ATOM      6  C   UNL     1     113.602 121.589 131.073  1.00  0.00     0.040 C 
ATOM      7  C   UNL     1     114.241 120.325 131.671  1.00  0.00     0.033 C 
ENDROOT
BRANCH   5   8
ATOM      8  C   UNL     1     114.421 122.708 128.892  1.00  0.00     0.015 C 
ATOM      9  C   UNL     1     115.477 123.597 128.208  1.00  0.00     0.010 C 
ATOM     10  C   UNL     1     114.331 121.358 128.151  1.00  0.00     0.010 C 
ENDBRANCH   5   8
BRANCH   5  11
ATOM     11  O   UNL     1     114.404 123.868 130.990  1.00  0.00    -0.389 OA
ATOM     12  H   UNL     1     113.976 124.433 130.292  1.00  0.00     0.211 HD
ENDBRANCH   5  11
TORSDOF 2
ENDMDL
MODEL 6
REMARK VINA RESULT:    -4.567     12.207     13.813
REMARK INTER + INTRA:          -5.203
REMARK INTER:                  -5.012
REMARK INTRA:                  -0.192
REMARK UNBOUND:                -0.236
REMARK SMILES CC1=CC[C@@](O)(C(C)C)CC1
REMARK SMILES IDX 1 1 2 2 3 3 4 4 5 5 10 6 11 7 7 8 8 9 9 10 6 11
REMARK H PARENT 6 12
REMARK Flexibility Score: inf
ROOT
ATOM      1  C   UNL     1     117.744 128.757 130.246  1.00  0.00     0.039 C 
ATOM      2  C   UNL     1     117.833 127.489 129.444  1.00  0.00    -0.077 C 
ATOM      3  C   UNL     1     119.018 126.887 129.259  1.00  0.00    -0.025 C 
ATOM      4  C   UNL     1     119.091 125.632 128.431  1.00  0.00     0.062 C 
ATOM      5  C   UNL     1     118.274 125.769 127.099  1.00  0.00     0.071 C 
ATOM      6  C   UNL     1     116.946 126.600 127.295  1.00  0.00     0.040 C 
ATOM      7  C   UNL     1     116.618 126.903 128.766  1.00  0.00     0.033 C 
ENDROOT
BRANCH   5   8
ATOM      8  C   UNL     1     117.950 124.359 126.488  1.00  0.00     0.015 C 
ATOM      9  C   UNL     1     119.219 123.544 126.179  1.00  0.00     0.010 C 
ATOM     10  C   UNL     1     116.984 123.500 127.330  1.00  0.00     0.010 C 
ENDBRANCH   5   8
BRANCH   5  11
ATOM     11  O   UNL     1     119.073 126.450 126.157  1.00  0.00    -0.389 OA
ATOM     12  H   UNL     1     118.574 126.497 125.297  1.00  0.00     0.211 HD
ENDBRANCH   5  11
TORSDOF 2
ENDMDL
MODEL 7
REMARK VINA RESULT:    -4.541     14.924     16.100
REMARK INTER + INTRA:          -5.175
REMARK INTER:                  -5.031
REMARK INTRA:                  -0.143
REMARK UNBOUND:                -0.236
REMARK SMILES CC1=CC[C@@](O)(C(C)C)CC1
REMARK SMILES IDX 1 1 2 2 3 3 4 4 5 5 10 6 11 7 7 8 8 9 9 10 6 11
REMARK H PARENT 6 12
REMARK Flexibility Score: inf
ROOT
ATOM      1  C   UNL     1     123.051 132.512 128.150  1.00  0.00     0.039 C 
ATOM      2  C   UNL     1     121.812 131.693 128.381  1.00  0.00    -0.077 C 
ATOM      3  C   UNL     1     120.725 132.253 128.935  1.00  0.00    -0.025 C 
ATOM      4  C   UNL     1     119.502 131.412 129.181  1.00  0.00     0.062 C 
ATOM      5  C   UNL     1     119.869 130.035 129.838  1.00  0.00     0.071 C 
ATOM      6  C   UNL     1     121.224 129.449 129.281  1.00  0.00     0.040 C 
ATOM      7  C   UNL     1     121.778 130.216 128.069  1.00  0.00     0.033 C 
ENDROOT
BRANCH   5   8
ATOM      8  C   UNL     1     118.708 128.994 129.654  1.00  0.00     0.015 C 
ATOM      9  C   UNL     1     119.223 127.603 129.239  1.00  0.00     0.010 C 
ATOM     10  C   UNL     1     117.774 128.850 130.874  1.00  0.00     0.010 C 
ENDBRANCH   5   8
BRANCH   5  11
ATOM     11  O   UNL     1     120.025 130.234 131.227  1.00  0.00    -0.389 OA
ATOM     12  H   UNL     1     119.303 130.843 131.539  1.00  0.00     0.211 HD
ENDBRANCH   5  11
TORSDOF 2
ENDMDL
MODEL 8
REMARK VINA RESULT:    -4.509     14.939     16.325
REMARK INTER + INTRA:          -5.140
REMARK INTER:                  -4.953
REMARK INTRA:                  -0.187
REMARK UNBOUND:                -0.236
REMARK SMILES CC1=CC[C@@](O)(C(C)C)CC1
REMARK SMILES IDX 1 1 2 2 3 3 4 4 5 5 10 6 11 7 7 8 8 9 9 10 6 11
REMARK H PARENT 6 12
REMARK Flexibility Score: inf
ROOT
ATOM      1  C   UNL     1     113.936 121.961 126.603  1.00  0.00     0.039 C 
ATOM      2  C   UNL     1     114.045 121.608 128.060  1.00  0.00    -0.077 C 
ATOM      3  C   UNL     1     113.886 122.555 128.998  1.00  0.00    -0.025 C 
ATOM      4  C   UNL     1     114.023 122.187 130.452  1.00  0.00     0.062 C 
ATOM      5  C   UNL     1     115.287 121.295 130.707  1.00  0.00     0.071 C 
ATOM      6  C   UNL     1     115.548 120.277 129.529  1.00  0.00     0.040 C 
ATOM      7  C   UNL     1     114.404 120.211 128.504  1.00  0.00     0.033 C 
ENDROOT
BRANCH   5   8
ATOM      8  C   UNL     1     115.173 120.530 132.073  1.00  0.00     0.015 C 
ATOM      9  C   UNL     1     115.828 121.298 133.236  1.00  0.00     0.010 C 
ATOM     10  C   UNL     1     113.735 120.132 132.469  1.00  0.00     0.010 C 
ENDBRANCH   5   8
BRANCH   5  11
ATOM     11  O   UNL     1     116.414 122.139 130.803  1.00  0.00    -0.389 OA
ATOM     12  H   UNL     1     116.893 122.125 129.931  1.00  0.00     0.211 HD
ENDBRANCH   5  11
TORSDOF 2
ENDMDL
MODEL 9
REMARK VINA RESULT:    -4.341     13.375     14.588
REMARK INTER + INTRA:          -4.958
REMARK INTER:                  -4.835
REMARK INTRA:                  -0.123
REMARK UNBOUND:                -0.236
REMARK SMILES CC1=CC[C@@](O)(C(C)C)CC1
REMARK SMILES IDX 1 1 2 2 3 3 4 4 5 5 10 6 11 7 7 8 8 9 9 10 6 11
REMARK H PARENT 6 12
REMARK Flexibility Score: inf
ROOT
ATOM      1  C   UNL     1     118.467 124.615 126.109  1.00  0.00     0.039 C 
ATOM      2  C   UNL     1     118.456 125.869 126.937  1.00  0.00    -0.077 C 
ATOM      3  C   UNL     1     119.610 126.427 127.336  1.00  0.00    -0.025 C 
ATOM      4  C   UNL     1     119.579 127.669 128.186  1.00  0.00     0.062 C 
ATOM      5  C   UNL     1     118.537 127.546 129.352  1.00  0.00     0.071 C 
ATOM      6  C   UNL     1     117.238 126.764 128.914  1.00  0.00     0.040 C 
ATOM      7  C   UNL     1     117.161 126.490 127.403  1.00  0.00     0.033 C 
ENDROOT
BRANCH   5   8
ATOM      8  C   UNL     1     118.158 128.959 129.923  1.00  0.00     0.015 C 
ATOM      9  C   UNL     1     117.702 128.899 131.393  1.00  0.00     0.010 C 
ATOM     10  C   UNL     1     119.258 130.030 129.772  1.00  0.00     0.010 C 
ENDBRANCH   5   8
BRANCH   5  11
ATOM     11  O   UNL     1     119.137 126.826 130.408  1.00  0.00    -0.389 OA
ATOM     12  H   UNL     1     119.442 127.475 131.097  1.00  0.00     0.211 HD
ENDBRANCH   5  11
TORSDOF 2
ENDMDL
