MODEL 1
REMARK VINA RESULT:     2.113      0.000      0.000
REMARK INTER + INTRA:           2.879
REMARK INTER:                   3.966
REMARK INTRA:                  -1.087
REMARK UNBOUND:                -1.087
REMARK SMILES CCCCCCCCC=CCCCCCCCC(=O)[O-]
REMARK SMILES IDX 10 1 9 2 11 3 12 4 13 5 14 6 15 7 16 8 17 9 18 10 19 11
REMARK SMILES IDX 20 12 8 13 7 14 6 15 5 16 4 17 3 18 2 19 1 20
REMARK H PARENT
REMARK Flexibility Score: inf
ROOT
ATOM      1  C   UNL     1     -18.022   5.785 -14.994  1.00  0.00    -0.031 C 
ATOM      2  C   UNL     1     -19.222   6.358 -15.174  1.00  0.00    -0.031 C 
ENDROOT
BRANCH   1   3
ATOM      3  C   UNL     1     -17.182   5.338 -16.157  1.00  0.00     0.027 C 
BRANCH   3   4
ATOM      4  C   UNL     1     -17.993   4.449 -17.113  1.00  0.00     0.004 C 
BRANCH   4   5
ATOM      5  C   UNL     1     -17.973   4.966 -18.559  1.00  0.00     0.000 C 
BRANCH   5   6
ATOM      6  C   UNL     1     -19.384   5.090 -19.163  1.00  0.00     0.000 C 
BRANCH   6   7
ATOM      7  C   UNL     1     -19.913   6.532 -19.137  1.00  0.00     0.000 C 
BRANCH   7   8
ATOM      8  C   UNL     1     -19.706   7.261 -20.473  1.00  0.00     0.006 C 
BRANCH   8   9
ATOM      9  C   UNL     1     -20.672   8.442 -20.607  1.00  0.00     0.053 C 
BRANCH   9  10
ATOM     10  C   UNL     1     -19.914   9.728 -20.719  1.00  0.00     0.041 C 
ATOM     11  O   UNL     1     -18.665   9.716 -20.869  1.00  0.00    -0.550 OA
ATOM     12  O   UNL     1     -20.595  10.939 -20.708  1.00  0.00    -0.550 OA
ENDBRANCH   9  10
ENDBRANCH   8   9
ENDBRANCH   7   8
ENDBRANCH   6   7
ENDBRANCH   5   6
ENDBRANCH   4   5
ENDBRANCH   3   4
ENDBRANCH   1   3
BRANCH   2  13
ATOM     13  C   UNL     1     -20.063   6.812 -14.011  1.00  0.00     0.027 C 
BRANCH  13  14
ATOM     14  C   UNL     1     -21.562   6.575 -14.247  1.00  0.00     0.004 C 
BRANCH  14  15
ATOM     15  C   UNL     1     -21.847   5.157 -14.770  1.00  0.00     0.000 C 
BRANCH  15  16
ATOM     16  C   UNL     1     -22.661   4.312 -13.776  1.00  0.00     0.000 C 
BRANCH  16  17
ATOM     17  C   UNL     1     -23.055   2.941 -14.346  1.00  0.00    -0.000 C 
BRANCH  17  18
ATOM     18  C   UNL     1     -22.633   1.811 -13.396  1.00  0.00    -0.000 C 
BRANCH  18  19
ATOM     19  C   UNL     1     -23.404   0.506 -13.650  1.00  0.00    -0.003 C 
ATOM     20  C   UNL     1     -23.490   0.148 -15.134  1.00  0.00     0.004 C 
ENDBRANCH  18  19
ENDBRANCH  17  18
ENDBRANCH  16  17
ENDBRANCH  15  16
ENDBRANCH  14  15
ENDBRANCH  13  14
ENDBRANCH   2  13
TORSDOF 15
ENDMDL
MODEL 2
REMARK VINA RESULT:     2.254      3.997      8.150
REMARK INTER + INTRA:           3.143
REMARK INTER:                   4.260
REMARK INTRA:                  -1.117
REMARK UNBOUND:                -1.087
REMARK SMILES CCCCCCCCC=CCCCCCCCC(=O)[O-]
REMARK SMILES IDX 10 1 9 2 11 3 12 4 13 5 14 6 15 7 16 8 17 9 18 10 19 11
REMARK SMILES IDX 20 12 8 13 7 14 6 15 5 16 4 17 3 18 2 19 1 20
REMARK H PARENT
REMARK Flexibility Score: inf
ROOT
ATOM      1  C   UNL     1     -17.485   5.468 -15.739  1.00  0.00    -0.031 C 
ATOM      2  C   UNL     1     -18.346   5.142 -16.714  1.00  0.00    -0.031 C 
ENDROOT
BRANCH   1   3
ATOM      3  C   UNL     1     -17.949   6.111 -14.462  1.00  0.00     0.027 C 
BRANCH   3   4
ATOM      4  C   UNL     1     -19.274   6.861 -14.674  1.00  0.00     0.004 C 
BRANCH   4   5
ATOM      5  C   UNL     1     -20.397   6.341 -13.764  1.00  0.00     0.000 C 
BRANCH   5   6
ATOM      6  C   UNL     1     -21.723   6.136 -14.519  1.00  0.00     0.000 C 
BRANCH   6   7
ATOM      7  C   UNL     1     -21.945   4.674 -14.937  1.00  0.00     0.000 C 
BRANCH   7   8
ATOM      8  C   UNL     1     -22.742   3.877 -13.893  1.00  0.00     0.006 C 
BRANCH   8   9
ATOM      9  C   UNL     1     -23.430   2.669 -14.537  1.00  0.00     0.053 C 
BRANCH   9  10
ATOM     10  C   UNL     1     -23.009   1.403 -13.858  1.00  0.00     0.041 C 
ATOM     11  O   UNL     1     -23.188   0.293 -14.423  1.00  0.00    -0.550 OA
ATOM     12  O   UNL     1     -22.373   1.454 -12.624  1.00  0.00    -0.550 OA
ENDBRANCH   9  10
ENDBRANCH   8   9
ENDBRANCH   7   8
ENDBRANCH   6   7
ENDBRANCH   5   6
ENDBRANCH   4   5
ENDBRANCH   3   4
ENDBRANCH   1   3
BRANCH   2  13
ATOM     13  C   UNL     1     -17.884   4.491 -17.991  1.00  0.00     0.027 C 
BRANCH  13  14
ATOM     14  C   UNL     1     -18.891   4.674 -19.136  1.00  0.00     0.004 C 
BRANCH  14  15
ATOM     15  C   UNL     1     -19.647   6.010 -19.034  1.00  0.00     0.000 C 
BRANCH  15  16
ATOM     16  C   UNL     1     -19.768   6.727 -20.388  1.00  0.00     0.000 C 
BRANCH  16  17
ATOM     17  C   UNL     1     -20.310   8.159 -20.256  1.00  0.00    -0.000 C 
BRANCH  17  18
ATOM     18  C   UNL     1     -19.277   9.183 -20.751  1.00  0.00    -0.000 C 
BRANCH  18  19
ATOM     19  C   UNL     1     -19.904  10.552 -21.057  1.00  0.00    -0.003 C 
ATOM     20  C   UNL     1     -21.310  10.703 -20.478  1.00  0.00     0.004 C 
ENDBRANCH  18  19
ENDBRANCH  17  18
ENDBRANCH  16  17
ENDBRANCH  15  16
ENDBRANCH  14  15
ENDBRANCH  13  14
ENDBRANCH   2  13
TORSDOF 15
ENDMDL
MODEL 3
REMARK VINA RESULT:     4.384      0.805      1.432
REMARK INTER + INTRA:           7.142
REMARK INTER:                   7.002
REMARK INTRA:                   0.140
REMARK UNBOUND:                -1.087
REMARK SMILES CCCCCCCCC=CCCCCCCCC(=O)[O-]
REMARK SMILES IDX 10 1 9 2 11 3 12 4 13 5 14 6 15 7 16 8 17 9 18 10 19 11
REMARK SMILES IDX 20 12 8 13 7 14 6 15 5 16 4 17 3 18 2 19 1 20
REMARK H PARENT
REMARK Flexibility Score: inf
ROOT
ATOM      1  C   UNL     1     -19.383   5.890 -15.482  1.00  0.00    -0.031 C 
ATOM      2  C   UNL     1     -20.050   6.366 -14.420  1.00  0.00    -0.031 C 
ENDROOT
BRANCH   1   3
ATOM      3  C   UNL     1     -17.891   6.028 -15.601  1.00  0.00     0.027 C 
BRANCH   3   4
ATOM      4  C   UNL     1     -17.284   4.826 -16.342  1.00  0.00     0.004 C 
BRANCH   4   5
ATOM      5  C   UNL     1     -17.924   4.600 -17.721  1.00  0.00     0.000 C 
BRANCH   5   6
ATOM      6  C   UNL     1     -19.175   5.470 -17.943  1.00  0.00     0.000 C 
BRANCH   6   7
ATOM      7  C   UNL     1     -19.580   5.556 -19.423  1.00  0.00     0.000 C 
BRANCH   7   8
ATOM      8  C   UNL     1     -20.328   6.856 -19.754  1.00  0.00     0.006 C 
BRANCH   8   9
ATOM      9  C   UNL     1     -19.606   7.637 -20.857  1.00  0.00     0.053 C 
BRANCH   9  10
ATOM     10  C   UNL     1     -19.859   9.105 -20.711  1.00  0.00     0.041 C 
ATOM     11  O   UNL     1     -21.000   9.521 -20.380  1.00  0.00    -0.550 OA
ATOM     12  O   UNL     1     -18.821  10.011 -20.892  1.00  0.00    -0.550 OA
ENDBRANCH   9  10
ENDBRANCH   8   9
ENDBRANCH   7   8
ENDBRANCH   6   7
ENDBRANCH   5   6
ENDBRANCH   4   5
ENDBRANCH   3   4
ENDBRANCH   1   3
BRANCH   2  13
ATOM     13  C   UNL     1     -21.543   6.223 -14.296  1.00  0.00     0.027 C 
BRANCH  13  14
ATOM     14  C   UNL     1     -22.079   5.008 -15.067  1.00  0.00     0.004 C 
BRANCH  14  15
ATOM     15  C   UNL     1     -23.067   4.179 -14.227  1.00  0.00     0.000 C 
BRANCH  15  16
ATOM     16  C   UNL     1     -22.379   3.422 -13.080  1.00  0.00     0.000 C 
BRANCH  16  17
ATOM     17  C   UNL     1     -22.590   1.903 -13.161  1.00  0.00    -0.000 C 
BRANCH  17  18
ATOM     18  C   UNL     1     -23.763   1.561 -14.091  1.00  0.00    -0.000 C 
BRANCH  18  19
ATOM     19  C   UNL     1     -23.433   0.417 -15.062  1.00  0.00    -0.003 C 
ATOM     20  C   UNL     1     -23.540  -0.962 -14.412  1.00  0.00     0.004 C 
ENDBRANCH  18  19
ENDBRANCH  17  18
ENDBRANCH  16  17
ENDBRANCH  15  16
ENDBRANCH  14  15
ENDBRANCH  13  14
ENDBRANCH   2  13
TORSDOF 15
ENDMDL
