MODEL 1
REMARK VINA RESULT:    -6.162      0.000      0.000
REMARK INTER + INTRA:          -7.740
REMARK INTER:                  -7.423
REMARK INTRA:                  -0.317
REMARK UNBOUND:                -0.317
REMARK SMILES O=c1c(O)c(-c2ccc(O)c(O)c2)oc2cc(O)cc(O)c12
REMARK SMILES IDX 5 1 3 2 2 3 1 4 22 5 20 6 19 7 17 8 16 9 15 10 14 11 6 12
REMARK SMILES IDX 7 13 8 14 9 15 13 16 11 17 10 18 12 20 4 22 21 24 18 26
REMARK H PARENT 10 19 12 21 4 23 21 25 18 27
REMARK Flexibility Score: inf
ROOT
ATOM      1  C   UNL     1      83.552  49.736  40.490  1.00  0.00     0.180 A 
ATOM      2  C   UNL     1      82.585  49.118  41.302  1.00  0.00     0.208 A 
ATOM      3  C   UNL     1      81.369  48.719  40.726  1.00  0.00     0.238 A 
ATOM      4  O   UNL     1      80.485  48.216  41.469  1.00  0.00    -0.285 OA
ATOM      5  C   UNL     1      81.139  48.928  39.345  1.00  0.00     0.111 A 
ATOM      6  C   UNL     1      79.959  48.527  38.649  1.00  0.00     0.134 A 
ATOM      7  C   UNL     1      79.787  48.901  37.311  1.00  0.00     0.093 A 
ATOM      8  C   UNL     1      80.777  49.603  36.626  1.00  0.00     0.123 A 
ATOM      9  C   UNL     1      81.961  49.948  37.279  1.00  0.00     0.094 A 
ATOM     10  C   UNL     1      82.147  49.621  38.625  1.00  0.00     0.146 A 
ATOM     11  O   UNL     1      83.282  49.977  39.212  1.00  0.00    -0.452 OA
ENDROOT
BRANCH   1  12
ATOM     12  C   UNL     1      84.869  50.162  41.018  1.00  0.00     0.025 A 
ATOM     13  C   UNL     1      86.006  49.343  40.896  1.00  0.00     0.016 A 
ATOM     14  C   UNL     1      87.243  49.777  41.381  1.00  0.00     0.051 A 
ATOM     15  C   UNL     1      87.365  51.037  41.980  1.00  0.00     0.157 A 
ATOM     16  C   UNL     1      85.002  51.433  41.601  1.00  0.00     0.062 A 
ATOM     17  C   UNL     1      86.244  51.867  42.087  1.00  0.00     0.158 A 
BRANCH  15  18
ATOM     18  O   UNL     1      88.597  51.472  42.466  1.00  0.00    -0.504 OA
ATOM     19  H   UNL     1      89.469  51.100  42.107  1.00  0.00     0.293 HD
ENDBRANCH  15  18
BRANCH  17  20
ATOM     20  O   UNL     1      86.369  53.124  42.677  1.00  0.00    -0.504 OA
ATOM     21  H   UNL     1      87.024  53.812  42.327  1.00  0.00     0.293 HD
ENDBRANCH  17  20
ENDBRANCH   1  12
BRANCH   2  22
ATOM     22  O   UNL     1      82.823  48.942  42.668  1.00  0.00    -0.502 OA
ATOM     23  H   UNL     1      83.268  49.651  43.238  1.00  0.00     0.293 HD
ENDBRANCH   2  22
BRANCH   6  24
ATOM     24  O   UNL     1      78.949  47.744  39.214  1.00  0.00    -0.507 OA
ATOM     25  H   UNL     1      79.048  47.196  40.055  1.00  0.00     0.293 HD
ENDBRANCH   6  24
BRANCH   8  26
ATOM     26  O   UNL     1      80.577  49.945  35.290  1.00  0.00    -0.508 OA
ATOM     27  H   UNL     1      81.236  49.674  34.570  1.00  0.00     0.293 HD
ENDBRANCH   8  26
TORSDOF 6
ENDMDL
MODEL 2
REMARK VINA RESULT:    -6.027      9.242     10.390
REMARK INTER + INTRA:          -7.577
REMARK INTER:                  -7.291
REMARK INTRA:                  -0.286
REMARK UNBOUND:                -0.317
REMARK SMILES O=c1c(O)c(-c2ccc(O)c(O)c2)oc2cc(O)cc(O)c12
REMARK SMILES IDX 5 1 3 2 2 3 1 4 22 5 20 6 19 7 17 8 16 9 15 10 14 11 6 12
REMARK SMILES IDX 7 13 8 14 9 15 13 16 11 17 10 18 12 20 4 22 21 24 18 26
REMARK H PARENT 10 19 12 21 4 23 21 25 18 27
REMARK Flexibility Score: inf
ROOT
ATOM      1  C   UNL     1      88.888  47.115  33.028  1.00  0.00     0.180 A 
ATOM      2  C   UNL     1      89.080  45.733  33.204  1.00  0.00     0.208 A 
ATOM      3  C   UNL     1      89.087  44.899  32.075  1.00  0.00     0.238 A 
ATOM      4  O   UNL     1      89.205  43.656  32.244  1.00  0.00    -0.285 OA
ATOM      5  C   UNL     1      88.917  45.455  30.785  1.00  0.00     0.111 A 
ATOM      6  C   UNL     1      88.948  44.708  29.569  1.00  0.00     0.134 A 
ATOM      7  C   UNL     1      88.639  45.344  28.361  1.00  0.00     0.093 A 
ATOM      8  C   UNL     1      88.365  46.710  28.314  1.00  0.00     0.123 A 
ATOM      9  C   UNL     1      88.392  47.462  29.489  1.00  0.00     0.094 A 
ATOM     10  C   UNL     1      88.661  46.850  30.716  1.00  0.00     0.146 A 
ATOM     11  O   UNL     1      88.666  47.599  31.811  1.00  0.00    -0.452 OA
ENDROOT
BRANCH   1  12
ATOM     12  C   UNL     1      88.893  48.062  34.167  1.00  0.00     0.025 A 
ATOM     13  C   UNL     1      87.694  48.537  34.728  1.00  0.00     0.016 A 
ATOM     14  C   UNL     1      87.723  49.411  35.818  1.00  0.00     0.051 A 
ATOM     15  C   UNL     1      88.946  49.812  36.371  1.00  0.00     0.157 A 
ATOM     16  C   UNL     1      90.116  48.451  34.738  1.00  0.00     0.062 A 
ATOM     17  C   UNL     1      90.144  49.329  35.831  1.00  0.00     0.158 A 
BRANCH  15  18
ATOM     18  O   UNL     1      88.979  50.685  37.456  1.00  0.00    -0.504 OA
ATOM     19  H   UNL     1      89.849  51.085  37.788  1.00  0.00     0.293 HD
ENDBRANCH  15  18
BRANCH  17  20
ATOM     20  O   UNL     1      91.360  49.723  36.386  1.00  0.00    -0.504 OA
ATOM     21  H   UNL     1      92.120  50.068  35.811  1.00  0.00     0.293 HD
ENDBRANCH  17  20
ENDBRANCH   1  12
BRANCH   2  22
ATOM     22  O   UNL     1      89.223  45.202  34.489  1.00  0.00    -0.502 OA
ATOM     23  H   UNL     1      88.428  44.933  35.057  1.00  0.00     0.293 HD
ENDBRANCH   2  22
BRANCH   6  24
ATOM     24  O   UNL     1      89.298  43.357  29.492  1.00  0.00    -0.507 OA
ATOM     25  H   UNL     1      90.236  43.000  29.597  1.00  0.00     0.293 HD
ENDBRANCH   6  24
BRANCH   8  26
ATOM     26  O   UNL     1      88.078  47.313  27.091  1.00  0.00    -0.508 OA
ATOM     27  H   UNL     1      88.569  47.053  26.244  1.00  0.00     0.293 HD
ENDBRANCH   8  26
TORSDOF 6
ENDMDL
MODEL 3
REMARK VINA RESULT:    -5.938      1.160      2.944
REMARK INTER + INTRA:          -7.470
REMARK INTER:                  -7.155
REMARK INTRA:                  -0.315
REMARK UNBOUND:                -0.317
REMARK SMILES O=c1c(O)c(-c2ccc(O)c(O)c2)oc2cc(O)cc(O)c12
REMARK SMILES IDX 5 1 3 2 2 3 1 4 22 5 20 6 19 7 17 8 16 9 15 10 14 11 6 12
REMARK SMILES IDX 7 13 8 14 9 15 13 16 11 17 10 18 12 20 4 22 21 24 18 26
REMARK H PARENT 10 19 12 21 4 23 21 25 18 27
REMARK Flexibility Score: inf
ROOT
ATOM      1  C   UNL     1      84.051  50.304  39.389  1.00  0.00     0.180 A 
ATOM      2  C   UNL     1      84.153  50.666  38.034  1.00  0.00     0.208 A 
ATOM      3  C   UNL     1      83.078  50.392  37.174  1.00  0.00     0.238 A 
ATOM      4  O   UNL     1      83.197  50.669  35.952  1.00  0.00    -0.285 OA
ATOM      5  C   UNL     1      81.909  49.776  37.681  1.00  0.00     0.111 A 
ATOM      6  C   UNL     1      80.743  49.489  36.908  1.00  0.00     0.134 A 
ATOM      7  C   UNL     1      79.696  48.759  37.484  1.00  0.00     0.093 A 
ATOM      8  C   UNL     1      79.743  48.363  38.820  1.00  0.00     0.123 A 
ATOM      9  C   UNL     1      80.852  48.690  39.601  1.00  0.00     0.094 A 
ATOM     10  C   UNL     1      81.928  49.386  39.046  1.00  0.00     0.146 A 
ATOM     11  O   UNL     1      82.968  49.668  39.820  1.00  0.00    -0.452 OA
ENDROOT
BRANCH   1  12
ATOM     12  C   UNL     1      85.133  50.581  40.362  1.00  0.00     0.025 A 
ATOM     13  C   UNL     1      86.118  49.621  40.654  1.00  0.00     0.016 A 
ATOM     14  C   UNL     1      87.143  49.914  41.558  1.00  0.00     0.051 A 
ATOM     15  C   UNL     1      87.208  51.172  42.169  1.00  0.00     0.157 A 
ATOM     16  C   UNL     1      85.215  51.848  40.962  1.00  0.00     0.062 A 
ATOM     17  C   UNL     1      86.244  52.142  41.869  1.00  0.00     0.158 A 
BRANCH  15  18
ATOM     18  O   UNL     1      88.228  51.467  43.072  1.00  0.00    -0.504 OA
ATOM     19  H   UNL     1      88.580  52.411  43.184  1.00  0.00     0.293 HD
ENDBRANCH  15  18
BRANCH  17  20
ATOM     20  O   UNL     1      86.314  53.396  42.473  1.00  0.00    -0.504 OA
ATOM     21  H   UNL     1      87.185  53.911  42.529  1.00  0.00     0.293 HD
ENDBRANCH  17  20
ENDBRANCH   1  12
BRANCH   2  22
ATOM     22  O   UNL     1      85.326  51.253  37.550  1.00  0.00    -0.502 OA
ATOM     23  H   UNL     1      86.243  51.006  37.902  1.00  0.00     0.293 HD
ENDBRANCH   2  22
BRANCH   6  24
ATOM     24  O   UNL     1      80.555  49.918  35.592  1.00  0.00    -0.507 OA
ATOM     25  H   UNL     1      80.543  50.884  35.298  1.00  0.00     0.293 HD
ENDBRANCH   6  24
BRANCH   8  26
ATOM     26  O   UNL     1      78.675  47.652  39.364  1.00  0.00    -0.508 OA
ATOM     27  H   UNL     1      78.781  47.099  40.206  1.00  0.00     0.293 HD
ENDBRANCH   8  26
TORSDOF 6
ENDMDL
MODEL 4
REMARK VINA RESULT:    -5.902      7.418      9.623
REMARK INTER + INTRA:          -7.427
REMARK INTER:                  -7.237
REMARK INTRA:                  -0.189
REMARK UNBOUND:                -0.317
REMARK SMILES O=c1c(O)c(-c2ccc(O)c(O)c2)oc2cc(O)cc(O)c12
REMARK SMILES IDX 5 1 3 2 2 3 1 4 22 5 20 6 19 7 17 8 16 9 15 10 14 11 6 12
REMARK SMILES IDX 7 13 8 14 9 15 13 16 11 17 10 18 12 20 4 22 21 24 18 26
REMARK H PARENT 10 19 12 21 4 23 21 25 18 27
REMARK Flexibility Score: inf
ROOT
ATOM      1  C   UNL     1      88.393  48.137  34.189  1.00  0.00     0.180 A 
ATOM      2  C   UNL     1      89.509  48.547  34.939  1.00  0.00     0.208 A 
ATOM      3  C   UNL     1      89.324  49.452  35.996  1.00  0.00     0.238 A 
ATOM      4  O   UNL     1      90.335  49.856  36.629  1.00  0.00    -0.285 OA
ATOM      5  C   UNL     1      88.025  49.924  36.301  1.00  0.00     0.111 A 
ATOM      6  C   UNL     1      87.716  50.811  37.376  1.00  0.00     0.134 A 
ATOM      7  C   UNL     1      86.416  51.314  37.503  1.00  0.00     0.093 A 
ATOM      8  C   UNL     1      85.400  50.913  36.637  1.00  0.00     0.123 A 
ATOM      9  C   UNL     1      85.677  49.999  35.619  1.00  0.00     0.094 A 
ATOM     10  C   UNL     1      86.973  49.507  35.444  1.00  0.00     0.146 A 
ATOM     11  O   UNL     1      87.197  48.648  34.458  1.00  0.00    -0.452 OA
ENDROOT
BRANCH   1  12
ATOM     12  C   UNL     1      88.504  47.167  33.075  1.00  0.00     0.025 A 
ATOM     13  C   UNL     1      88.306  47.560  31.740  1.00  0.00     0.016 A 
ATOM     14  C   UNL     1      88.441  46.632  30.704  1.00  0.00     0.051 A 
ATOM     15  C   UNL     1      88.789  45.305  30.984  1.00  0.00     0.157 A 
ATOM     16  C   UNL     1      88.874  45.840  33.349  1.00  0.00     0.062 A 
ATOM     17  C   UNL     1      89.008  44.909  32.309  1.00  0.00     0.158 A 
BRANCH  15  18
ATOM     18  O   UNL     1      88.922  44.376  29.953  1.00  0.00    -0.504 OA
ATOM     19  H   UNL     1      89.685  43.709  29.937  1.00  0.00     0.293 HD
ENDBRANCH  15  18
BRANCH  17  20
ATOM     20  O   UNL     1      89.362  43.589  32.585  1.00  0.00    -0.504 OA
ATOM     21  H   UNL     1      88.670  42.898  32.850  1.00  0.00     0.293 HD
ENDBRANCH  17  20
ENDBRANCH   1  12
BRANCH   2  22
ATOM     22  O   UNL     1      90.786  48.086  34.607  1.00  0.00    -0.502 OA
ATOM     23  H   UNL     1      90.935  47.268  34.027  1.00  0.00     0.293 HD
ENDBRANCH   2  22
BRANCH   6  24
ATOM     24  O   UNL     1      88.636  51.204  38.351  1.00  0.00    -0.507 OA
ATOM     25  H   UNL     1      88.462  51.188  39.345  1.00  0.00     0.293 HD
ENDBRANCH   6  24
BRANCH   8  26
ATOM     26  O   UNL     1      84.113  51.422  36.804  1.00  0.00    -0.508 OA
ATOM     27  H   UNL     1      83.307  50.968  36.391  1.00  0.00     0.293 HD
ENDBRANCH   8  26
TORSDOF 6
ENDMDL
MODEL 5
REMARK VINA RESULT:    -5.891      9.856     11.368
REMARK INTER + INTRA:          -7.413
REMARK INTER:                  -7.163
REMARK INTRA:                  -0.250
REMARK UNBOUND:                -0.317
REMARK SMILES O=c1c(O)c(-c2ccc(O)c(O)c2)oc2cc(O)cc(O)c12
REMARK SMILES IDX 5 1 3 2 2 3 1 4 22 5 20 6 19 7 17 8 16 9 15 10 14 11 6 12
REMARK SMILES IDX 7 13 8 14 9 15 13 16 11 17 10 18 12 20 4 22 21 24 18 26
REMARK H PARENT 10 19 12 21 4 23 21 25 18 27
REMARK Flexibility Score: inf
ROOT
ATOM      1  C   UNL     1      88.785  47.111  32.343  1.00  0.00     0.180 A 
ATOM      2  C   UNL     1      90.146  46.859  32.589  1.00  0.00     0.208 A 
ATOM      3  C   UNL     1      90.784  45.825  31.887  1.00  0.00     0.238 A 
ATOM      4  O   UNL     1      91.988  45.569  32.152  1.00  0.00    -0.285 OA
ATOM      5  C   UNL     1      90.061  45.066  30.937  1.00  0.00     0.111 A 
ATOM      6  C   UNL     1      90.618  44.022  30.138  1.00  0.00     0.134 A 
ATOM      7  C   UNL     1      89.777  43.252  29.325  1.00  0.00     0.093 A 
ATOM      8  C   UNL     1      88.415  43.530  29.229  1.00  0.00     0.123 A 
ATOM      9  C   UNL     1      87.870  44.587  29.959  1.00  0.00     0.094 A 
ATOM     10  C   UNL     1      88.676  45.350  30.808  1.00  0.00     0.146 A 
ATOM     11  O   UNL     1      88.117  46.340  31.493  1.00  0.00    -0.452 OA
ENDROOT
BRANCH   1  12
ATOM     12  C   UNL     1      88.049  48.200  33.026  1.00  0.00     0.025 A 
ATOM     13  C   UNL     1      87.671  48.092  34.376  1.00  0.00     0.016 A 
ATOM     14  C   UNL     1      86.999  49.143  35.007  1.00  0.00     0.051 A 
ATOM     15  C   UNL     1      86.707  50.319  34.304  1.00  0.00     0.157 A 
ATOM     16  C   UNL     1      87.773  49.389  32.332  1.00  0.00     0.062 A 
ATOM     17  C   UNL     1      87.097  50.443  32.965  1.00  0.00     0.158 A 
BRANCH  15  18
ATOM     18  O   UNL     1      86.035  51.368  34.928  1.00  0.00    -0.504 OA
ATOM     19  H   UNL     1      86.525  52.196  35.245  1.00  0.00     0.293 HD
ENDBRANCH  15  18
BRANCH  17  20
ATOM     20  O   UNL     1      86.813  51.616  32.269  1.00  0.00    -0.504 OA
ATOM     21  H   UNL     1      87.541  52.272  32.013  1.00  0.00     0.293 HD
ENDBRANCH  17  20
ENDBRANCH   1  12
BRANCH   2  22
ATOM     22  O   UNL     1      90.836  47.605  33.549  1.00  0.00    -0.502 OA
ATOM     23  H   UNL     1      90.389  47.960  34.386  1.00  0.00     0.293 HD
ENDBRANCH   2  22
BRANCH   6  24
ATOM     24  O   UNL     1      91.981  43.720  30.089  1.00  0.00    -0.507 OA
ATOM     25  H   UNL     1      92.722  44.406  30.076  1.00  0.00     0.293 HD
ENDBRANCH   6  24
BRANCH   8  26
ATOM     26  O   UNL     1      87.611  42.753  28.397  1.00  0.00    -0.508 OA
ATOM     27  H   UNL     1      86.653  42.534  28.640  1.00  0.00     0.293 HD
ENDBRANCH   8  26
TORSDOF 6
ENDMDL
MODEL 6
REMARK VINA RESULT:    -5.840      8.427     10.877
REMARK INTER + INTRA:          -7.352
REMARK INTER:                  -7.068
REMARK INTRA:                  -0.284
REMARK UNBOUND:                -0.317
REMARK SMILES O=c1c(O)c(-c2ccc(O)c(O)c2)oc2cc(O)cc(O)c12
REMARK SMILES IDX 5 1 3 2 2 3 1 4 22 5 20 6 19 7 17 8 16 9 15 10 14 11 6 12
REMARK SMILES IDX 7 13 8 14 9 15 13 16 11 17 10 18 12 20 4 22 21 24 18 26
REMARK H PARENT 10 19 12 21 4 23 21 25 18 27
REMARK Flexibility Score: inf
ROOT
ATOM      1  C   UNL     1      89.121  47.595  33.330  1.00  0.00     0.180 A 
ATOM      2  C   UNL     1      90.390  48.153  33.564  1.00  0.00     0.208 A 
ATOM      3  C   UNL     1      90.527  49.142  34.550  1.00  0.00     0.238 A 
ATOM      4  O   UNL     1      91.655  49.676  34.717  1.00  0.00    -0.285 OA
ATOM      5  C   UNL     1      89.399  49.551  35.300  1.00  0.00     0.111 A 
ATOM      6  C   UNL     1      89.430  50.516  36.352  1.00  0.00     0.134 A 
ATOM      7  C   UNL     1      88.230  50.938  36.937  1.00  0.00     0.093 A 
ATOM      8  C   UNL     1      87.009  50.384  36.557  1.00  0.00     0.123 A 
ATOM      9  C   UNL     1      86.972  49.396  35.572  1.00  0.00     0.094 A 
ATOM     10  C   UNL     1      88.149  48.980  34.943  1.00  0.00     0.146 A 
ATOM     11  O   UNL     1      88.069  48.046  34.004  1.00  0.00    -0.452 OA
ENDROOT
BRANCH   1  12
ATOM     12  C   UNL     1      88.901  46.530  32.324  1.00  0.00     0.025 A 
ATOM     13  C   UNL     1      88.379  46.823  31.051  1.00  0.00     0.016 A 
ATOM     14  C   UNL     1      88.204  45.805  30.109  1.00  0.00     0.051 A 
ATOM     15  C   UNL     1      88.560  44.486  30.419  1.00  0.00     0.157 A 
ATOM     16  C   UNL     1      89.277  45.210  32.621  1.00  0.00     0.062 A 
ATOM     17  C   UNL     1      89.100  44.189  31.676  1.00  0.00     0.158 A 
BRANCH  15  18
ATOM     18  O   UNL     1      88.385  43.468  29.483  1.00  0.00    -0.504 OA
ATOM     19  H   UNL     1      88.176  42.518  29.768  1.00  0.00     0.293 HD
ENDBRANCH  15  18
BRANCH  17  20
ATOM     20  O   UNL     1      89.460  42.877  31.980  1.00  0.00    -0.504 OA
ATOM     21  H   UNL     1      88.958  42.335  32.673  1.00  0.00     0.293 HD
ENDBRANCH  17  20
ENDBRANCH   1  12
BRANCH   2  22
ATOM     22  O   UNL     1      91.486  47.751  32.796  1.00  0.00    -0.502 OA
ATOM     23  H   UNL     1      92.269  47.242  33.190  1.00  0.00     0.293 HD
ENDBRANCH   2  22
BRANCH   6  24
ATOM     24  O   UNL     1      90.605  51.066  36.870  1.00  0.00    -0.507 OA
ATOM     25  H   UNL     1      91.370  50.531  37.255  1.00  0.00     0.293 HD
ENDBRANCH   6  24
BRANCH   8  26
ATOM     26  O   UNL     1      85.836  50.817  37.173  1.00  0.00    -0.508 OA
ATOM     27  H   UNL     1      85.696  51.789  37.421  1.00  0.00     0.293 HD
ENDBRANCH   8  26
TORSDOF 6
ENDMDL
MODEL 7
REMARK VINA RESULT:    -5.782      9.326     10.823
REMARK INTER + INTRA:          -7.282
REMARK INTER:                  -7.260
REMARK INTRA:                  -0.022
REMARK UNBOUND:                -0.317
REMARK SMILES O=c1c(O)c(-c2ccc(O)c(O)c2)oc2cc(O)cc(O)c12
REMARK SMILES IDX 5 1 3 2 2 3 1 4 22 5 20 6 19 7 17 8 16 9 15 10 14 11 6 12
REMARK SMILES IDX 7 13 8 14 9 15 13 16 11 17 10 18 12 20 4 22 21 24 18 26
REMARK H PARENT 10 19 12 21 4 23 21 25 18 27
REMARK Flexibility Score: inf
ROOT
ATOM      1  C   UNL     1      89.290  47.980  33.152  1.00  0.00     0.180 A 
ATOM      2  C   UNL     1      88.457  48.119  32.028  1.00  0.00     0.208 A 
ATOM      3  C   UNL     1      88.690  47.312  30.904  1.00  0.00     0.238 A 
ATOM      4  O   UNL     1      87.975  47.479  29.881  1.00  0.00    -0.285 OA
ATOM      5  C   UNL     1      89.742  46.365  30.922  1.00  0.00     0.111 A 
ATOM      6  C   UNL     1      90.043  45.466  29.854  1.00  0.00     0.134 A 
ATOM      7  C   UNL     1      91.187  44.662  29.930  1.00  0.00     0.093 A 
ATOM      8  C   UNL     1      92.003  44.676  31.060  1.00  0.00     0.123 A 
ATOM      9  C   UNL     1      91.685  45.506  32.136  1.00  0.00     0.094 A 
ATOM     10  C   UNL     1      90.570  46.346  32.075  1.00  0.00     0.146 A 
ATOM     11  O   UNL     1      90.309  47.128  33.114  1.00  0.00    -0.452 OA
ENDROOT
BRANCH   1  12
ATOM     12  C   UNL     1      89.092  48.778  34.384  1.00  0.00     0.025 A 
ATOM     13  C   UNL     1      87.830  48.876  34.996  1.00  0.00     0.016 A 
ATOM     14  C   UNL     1      87.672  49.615  36.172  1.00  0.00     0.051 A 
ATOM     15  C   UNL     1      88.772  50.254  36.759  1.00  0.00     0.157 A 
ATOM     16  C   UNL     1      90.195  49.403  34.988  1.00  0.00     0.062 A 
ATOM     17  C   UNL     1      90.036  50.145  36.167  1.00  0.00     0.158 A 
BRANCH  15  18
ATOM     18  O   UNL     1      88.617  50.993  37.930  1.00  0.00    -0.504 OA
ATOM     19  H   UNL     1      88.235  50.579  38.772  1.00  0.00     0.293 HD
ENDBRANCH  15  18
BRANCH  17  20
ATOM     20  O   UNL     1      91.130  50.775  36.757  1.00  0.00    -0.504 OA
ATOM     21  H   UNL     1      92.069  50.403  36.668  1.00  0.00     0.293 HD
ENDBRANCH  17  20
ENDBRANCH   1  12
BRANCH   2  22
ATOM     22  O   UNL     1      87.439  49.077  32.023  1.00  0.00    -0.502 OA
ATOM     23  H   UNL     1      87.121  49.527  31.173  1.00  0.00     0.293 HD
ENDBRANCH   2  22
BRANCH   6  24
ATOM     24  O   UNL     1      89.243  45.308  28.720  1.00  0.00    -0.507 OA
ATOM     25  H   UNL     1      89.147  45.991  27.983  1.00  0.00     0.293 HD
ENDBRANCH   6  24
BRANCH   8  26
ATOM     26  O   UNL     1      93.125  43.850  31.108  1.00  0.00    -0.508 OA
ATOM     27  H   UNL     1      93.219  43.123  31.807  1.00  0.00     0.293 HD
ENDBRANCH   8  26
TORSDOF 6
ENDMDL
MODEL 8
REMARK VINA RESULT:    -5.624      6.886      8.509
REMARK INTER + INTRA:          -7.092
REMARK INTER:                  -6.831
REMARK INTRA:                  -0.261
REMARK UNBOUND:                -0.317
REMARK SMILES O=c1c(O)c(-c2ccc(O)c(O)c2)oc2cc(O)cc(O)c12
REMARK SMILES IDX 5 1 3 2 2 3 1 4 22 5 20 6 19 7 17 8 16 9 15 10 14 11 6 12
REMARK SMILES IDX 7 13 8 14 9 15 13 16 11 17 10 18 12 20 4 22 21 24 18 26
REMARK H PARENT 10 19 12 21 4 23 21 25 18 27
REMARK Flexibility Score: inf
ROOT
ATOM      1  C   UNL     1      87.050  49.489  34.577  1.00  0.00     0.180 A 
ATOM      2  C   UNL     1      86.998  50.187  33.358  1.00  0.00     0.208 A 
ATOM      3  C   UNL     1      87.394  49.532  32.182  1.00  0.00     0.238 A 
ATOM      4  O   UNL     1      87.397  50.180  31.102  1.00  0.00    -0.285 OA
ATOM      5  C   UNL     1      87.822  48.184  32.235  1.00  0.00     0.111 A 
ATOM      6  C   UNL     1      88.208  47.410  31.099  1.00  0.00     0.134 A 
ATOM      7  C   UNL     1      88.738  46.128  31.285  1.00  0.00     0.093 A 
ATOM      8  C   UNL     1      88.836  45.566  32.558  1.00  0.00     0.123 A 
ATOM      9  C   UNL     1      88.405  46.291  33.670  1.00  0.00     0.094 A 
ATOM     10  C   UNL     1      87.906  47.587  33.520  1.00  0.00     0.146 A 
ATOM     11  O   UNL     1      87.518  48.246  34.604  1.00  0.00    -0.452 OA
ENDROOT
BRANCH   1  12
ATOM     12  C   UNL     1      86.625  50.104  35.856  1.00  0.00     0.025 A 
ATOM     13  C   UNL     1      85.267  50.334  36.141  1.00  0.00     0.016 A 
ATOM     14  C   UNL     1      84.888  50.893  37.365  1.00  0.00     0.051 A 
ATOM     15  C   UNL     1      85.856  51.216  38.325  1.00  0.00     0.157 A 
ATOM     16  C   UNL     1      87.589  50.409  36.830  1.00  0.00     0.062 A 
ATOM     17  C   UNL     1      87.208  50.971  38.058  1.00  0.00     0.158 A 
BRANCH  15  18
ATOM     18  O   UNL     1      85.482  51.775  39.545  1.00  0.00    -0.504 OA
ATOM     19  H   UNL     1      84.989  51.234  40.247  1.00  0.00     0.293 HD
ENDBRANCH  15  18
BRANCH  17  20
ATOM     20  O   UNL     1      88.169  51.286  39.017  1.00  0.00    -0.504 OA
ATOM     21  H   UNL     1      88.936  51.916  38.813  1.00  0.00     0.293 HD
ENDBRANCH  17  20
ENDBRANCH   1  12
BRANCH   2  22
ATOM     22  O   UNL     1      86.593  51.525  33.331  1.00  0.00    -0.502 OA
ATOM     23  H   UNL     1      86.569  52.102  34.163  1.00  0.00     0.293 HD
ENDBRANCH   2  22
BRANCH   6  24
ATOM     24  O   UNL     1      88.067  47.841  29.777  1.00  0.00    -0.507 OA
ATOM     25  H   UNL     1      87.907  47.233  28.988  1.00  0.00     0.293 HD
ENDBRANCH   6  24
BRANCH   8  26
ATOM     26  O   UNL     1      89.353  44.281  32.704  1.00  0.00    -0.508 OA
ATOM     27  H   UNL     1      90.055  43.917  32.070  1.00  0.00     0.293 HD
ENDBRANCH   8  26
TORSDOF 6
ENDMDL
MODEL 9
REMARK VINA RESULT:    -5.532      5.130      6.745
REMARK INTER + INTRA:          -6.980
REMARK INTER:                  -6.657
REMARK INTRA:                  -0.323
REMARK UNBOUND:                -0.317
REMARK SMILES O=c1c(O)c(-c2ccc(O)c(O)c2)oc2cc(O)cc(O)c12
REMARK SMILES IDX 5 1 3 2 2 3 1 4 22 5 20 6 19 7 17 8 16 9 15 10 14 11 6 12
REMARK SMILES IDX 7 13 8 14 9 15 13 16 11 17 10 18 12 20 4 22 21 24 18 26
REMARK H PARENT 10 19 12 21 4 23 21 25 18 27
REMARK Flexibility Score: inf
ROOT
ATOM      1  C   UNL     1      87.298  50.468  37.560  1.00  0.00     0.180 A 
ATOM      2  C   UNL     1      86.347  50.978  36.659  1.00  0.00     0.208 A 
ATOM      3  C   UNL     1      86.440  50.630  35.303  1.00  0.00     0.238 A 
ATOM      4  O   UNL     1      85.617  51.132  34.493  1.00  0.00    -0.285 OA
ATOM      5  C   UNL     1      87.472  49.765  34.866  1.00  0.00     0.111 A 
ATOM      6  C   UNL     1      87.637  49.314  33.521  1.00  0.00     0.134 A 
ATOM      7  C   UNL     1      88.769  48.566  33.179  1.00  0.00     0.093 A 
ATOM      8  C   UNL     1      89.707  48.196  34.142  1.00  0.00     0.123 A 
ATOM      9  C   UNL     1      89.525  48.581  35.471  1.00  0.00     0.094 A 
ATOM     10  C   UNL     1      88.424  49.359  35.837  1.00  0.00     0.146 A 
ATOM     11  O   UNL     1      88.293  49.713  37.109  1.00  0.00    -0.452 OA
ENDROOT
BRANCH   1  12
ATOM     12  C   UNL     1      87.252  50.770  39.010  1.00  0.00     0.025 A 
ATOM     13  C   UNL     1      87.916  51.888  39.546  1.00  0.00     0.016 A 
ATOM     14  C   UNL     1      87.838  52.167  40.913  1.00  0.00     0.051 A 
ATOM     15  C   UNL     1      87.085  51.344  41.761  1.00  0.00     0.157 A 
ATOM     16  C   UNL     1      86.481  49.961  39.861  1.00  0.00     0.062 A 
ATOM     17  C   UNL     1      86.404  50.241  41.233  1.00  0.00     0.158 A 
BRANCH  15  18
ATOM     18  O   UNL     1      87.006  51.618  43.125  1.00  0.00    -0.504 OA
ATOM     19  H   UNL     1      86.147  51.946  43.550  1.00  0.00     0.293 HD
ENDBRANCH  15  18
BRANCH  17  20
ATOM     20  O   UNL     1      85.649  49.427  42.076  1.00  0.00    -0.504 OA
ATOM     21  H   UNL     1      85.230  48.565  41.747  1.00  0.00     0.293 HD
ENDBRANCH  17  20
ENDBRANCH   1  12
BRANCH   2  22
ATOM     22  O   UNL     1      85.349  51.848  37.109  1.00  0.00    -0.502 OA
ATOM     23  H   UNL     1      85.343  52.230  38.047  1.00  0.00     0.293 HD
ENDBRANCH   2  22
BRANCH   6  24
ATOM     24  O   UNL     1      86.712  49.550  32.501  1.00  0.00    -0.507 OA
ATOM     25  H   UNL     1      86.068  50.327  32.476  1.00  0.00     0.293 HD
ENDBRANCH   6  24
BRANCH   8  26
ATOM     26  O   UNL     1      90.814  47.437  33.768  1.00  0.00    -0.508 OA
ATOM     27  H   UNL     1      91.611  47.324  34.383  1.00  0.00     0.293 HD
ENDBRANCH   8  26
TORSDOF 6
ENDMDL
