MODEL 1
REMARK VINA RESULT:    -4.047      0.000      0.000
REMARK INTER + INTRA:          -8.422
REMARK INTER:                  -7.122
REMARK INTRA:                  -1.300
REMARK UNBOUND:                -1.300
REMARK SMILES CCCCCCCCCCCCCCC(=O)[O-]
REMARK SMILES IDX 9 1 10 2 11 3 12 4 13 5 14 6 15 7 16 8 17 9 8 10 7 11 6 12
REMARK SMILES IDX 5 13 4 14 3 15 2 16 1 17
REMARK H PARENT
REMARK Flexibility Score: inf
ROOT
ATOM      1  C   UNL     1      33.538  47.954  24.877  1.00  0.00     0.000 C 
ENDROOT
BRANCH   1   2
ATOM      2  C   UNL     1      33.089  46.486  24.934  1.00  0.00     0.000 C 
BRANCH   2   3
ATOM      3  C   UNL     1      32.705  46.086  26.366  1.00  0.00     0.000 C 
BRANCH   3   4
ATOM      4  C   UNL     1      33.606  44.979  26.943  1.00  0.00     0.000 C 
BRANCH   4   5
ATOM      5  C   UNL     1      34.481  44.248  25.908  1.00  0.00     0.006 C 
BRANCH   5   6
ATOM      6  C   UNL     1      35.945  44.119  26.347  1.00  0.00     0.053 C 
BRANCH   6   7
ATOM      7  C   UNL     1      36.632  43.048  25.560  1.00  0.00     0.041 C 
ATOM      8  O   UNL     1      37.884  42.925  25.614  1.00  0.00    -0.550 OA
ATOM      9  O   UNL     1      35.894  42.214  24.730  1.00  0.00    -0.550 OA
ENDBRANCH   6   7
ENDBRANCH   5   6
ENDBRANCH   4   5
ENDBRANCH   3   4
ENDBRANCH   2   3
ENDBRANCH   1   2
BRANCH   1  10
ATOM     10  C   UNL     1      34.931  48.172  25.489  1.00  0.00     0.000 C 
BRANCH  10  11
ATOM     11  C   UNL     1      34.940  49.271  26.562  1.00  0.00    -0.000 C 
BRANCH  11  12
ATOM     12  C   UNL     1      33.643  50.088  26.523  1.00  0.00    -0.000 C 
BRANCH  12  13
ATOM     13  C   UNL     1      33.917  51.571  26.797  1.00  0.00    -0.000 C 
BRANCH  13  14
ATOM     14  C   UNL     1      32.921  52.463  26.046  1.00  0.00    -0.000 C 
BRANCH  14  15
ATOM     15  C   UNL     1      31.531  51.810  25.990  1.00  0.00    -0.000 C 
BRANCH  15  16
ATOM     16  C   UNL     1      30.887  51.912  24.599  1.00  0.00    -0.003 C 
ATOM     17  C   UNL     1      30.928  50.592  23.830  1.00  0.00     0.004 C 
ENDBRANCH  15  16
ENDBRANCH  14  15
ENDBRANCH  13  14
ENDBRANCH  12  13
ENDBRANCH  11  12
ENDBRANCH  10  11
ENDBRANCH   1  10
TORSDOF 13
ENDMDL
MODEL 2
REMARK VINA RESULT:    -3.892      1.708      2.975
REMARK INTER + INTRA:          -8.150
REMARK INTER:                  -7.000
REMARK INTRA:                  -1.150
REMARK UNBOUND:                -1.300
REMARK SMILES CCCCCCCCCCCCCCC(=O)[O-]
REMARK SMILES IDX 9 1 10 2 11 3 12 4 13 5 14 6 15 7 16 8 17 9 8 10 7 11 6 12
REMARK SMILES IDX 5 13 4 14 3 15 2 16 1 17
REMARK H PARENT
REMARK Flexibility Score: inf
ROOT
ATOM      1  C   UNL     1      33.275  49.214  26.154  1.00  0.00     0.000 C 
ENDROOT
BRANCH   1   2
ATOM      2  C   UNL     1      33.295  47.965  25.260  1.00  0.00     0.000 C 
BRANCH   2   3
ATOM      3  C   UNL     1      32.874  46.718  26.052  1.00  0.00     0.000 C 
BRANCH   3   4
ATOM      4  C   UNL     1      32.998  45.418  25.236  1.00  0.00     0.000 C 
BRANCH   4   5
ATOM      5  C   UNL     1      33.806  44.298  25.917  1.00  0.00     0.006 C 
BRANCH   5   6
ATOM      6  C   UNL     1      34.772  44.824  26.986  1.00  0.00     0.053 C 
BRANCH   6   7
ATOM      7  C   UNL     1      36.124  45.063  26.393  1.00  0.00     0.041 C 
ATOM      8  O   UNL     1      36.527  46.238  26.182  1.00  0.00    -0.550 OA
ATOM      9  O   UNL     1      36.923  43.987  26.028  1.00  0.00    -0.550 OA
ENDBRANCH   6   7
ENDBRANCH   5   6
ENDBRANCH   4   5
ENDBRANCH   3   4
ENDBRANCH   2   3
ENDBRANCH   1   2
BRANCH   1  10
ATOM     10  C   UNL     1      32.429  50.353  25.562  1.00  0.00     0.000 C 
BRANCH  10  11
ATOM     11  C   UNL     1      31.633  49.918  24.324  1.00  0.00    -0.000 C 
BRANCH  11  12
ATOM     12  C   UNL     1      30.561  50.955  23.967  1.00  0.00    -0.000 C 
BRANCH  12  13
ATOM     13  C   UNL     1      29.355  50.847  24.908  1.00  0.00    -0.000 C 
BRANCH  13  14
ATOM     14  C   UNL     1      28.982  52.217  25.486  1.00  0.00    -0.000 C 
BRANCH  14  15
ATOM     15  C   UNL     1      29.767  52.503  26.775  1.00  0.00    -0.000 C 
BRANCH  15  16
ATOM     16  C   UNL     1      30.560  53.817  26.705  1.00  0.00    -0.003 C 
ATOM     17  C   UNL     1      30.617  54.398  25.292  1.00  0.00     0.004 C 
ENDBRANCH  15  16
ENDBRANCH  14  15
ENDBRANCH  13  14
ENDBRANCH  12  13
ENDBRANCH  11  12
ENDBRANCH  10  11
ENDBRANCH   1  10
TORSDOF 13
ENDMDL
MODEL 3
REMARK VINA RESULT:    -3.849      1.372      2.245
REMARK INTER + INTRA:          -8.073
REMARK INTER:                  -7.249
REMARK INTRA:                  -0.824
REMARK UNBOUND:                -1.300
REMARK SMILES CCCCCCCCCCCCCCC(=O)[O-]
REMARK SMILES IDX 9 1 10 2 11 3 12 4 13 5 14 6 15 7 16 8 17 9 8 10 7 11 6 12
REMARK SMILES IDX 5 13 4 14 3 15 2 16 1 17
REMARK H PARENT
REMARK Flexibility Score: inf
ROOT
ATOM      1  C   UNL     1      33.164  46.045  25.575  1.00  0.00     0.000 C 
ENDROOT
BRANCH   1   2
ATOM      2  C   UNL     1      33.612  44.589  25.766  1.00  0.00     0.000 C 
BRANCH   2   3
ATOM      3  C   UNL     1      34.699  44.488  26.847  1.00  0.00     0.000 C 
BRANCH   3   4
ATOM      4  C   UNL     1      36.116  44.343  26.263  1.00  0.00     0.000 C 
BRANCH   4   5
ATOM      5  C   UNL     1      36.639  42.898  26.177  1.00  0.00     0.006 C 
BRANCH   5   6
ATOM      6  C   UNL     1      36.593  42.329  24.753  1.00  0.00     0.053 C 
BRANCH   6   7
ATOM      7  C   UNL     1      37.560  41.197  24.613  1.00  0.00     0.041 C 
ATOM      8  O   UNL     1      37.703  40.617  23.504  1.00  0.00    -0.550 OA
ATOM      9  O   UNL     1      38.272  40.750  25.719  1.00  0.00    -0.550 OA
ENDBRANCH   6   7
ENDBRANCH   5   6
ENDBRANCH   4   5
ENDBRANCH   3   4
ENDBRANCH   2   3
ENDBRANCH   1   2
BRANCH   1  10
ATOM     10  C   UNL     1      33.957  47.030  26.449  1.00  0.00     0.000 C 
BRANCH  10  11
ATOM     11  C   UNL     1      34.764  48.040  25.621  1.00  0.00    -0.000 C 
BRANCH  11  12
ATOM     12  C   UNL     1      34.603  49.460  26.178  1.00  0.00    -0.000 C 
BRANCH  12  13
ATOM     13  C   UNL     1      33.156  49.722  26.610  1.00  0.00    -0.000 C 
BRANCH  13  14
ATOM     14  C   UNL     1      32.447  50.657  25.623  1.00  0.00    -0.000 C 
BRANCH  14  15
ATOM     15  C   UNL     1      31.755  49.857  24.508  1.00  0.00    -0.000 C 
BRANCH  15  16
ATOM     16  C   UNL     1      30.589  50.626  23.867  1.00  0.00    -0.003 C 
ATOM     17  C   UNL     1      29.456  50.910  24.851  1.00  0.00     0.004 C 
ENDBRANCH  15  16
ENDBRANCH  14  15
ENDBRANCH  13  14
ENDBRANCH  12  13
ENDBRANCH  11  12
ENDBRANCH  10  11
ENDBRANCH   1  10
TORSDOF 13
ENDMDL
MODEL 4
REMARK VINA RESULT:    -3.729      1.815      2.930
REMARK INTER + INTRA:          -7.864
REMARK INTER:                  -6.548
REMARK INTRA:                  -1.316
REMARK UNBOUND:                -1.300
REMARK SMILES CCCCCCCCCCCCCCC(=O)[O-]
REMARK SMILES IDX 9 1 10 2 11 3 12 4 13 5 14 6 15 7 16 8 17 9 8 10 7 11 6 12
REMARK SMILES IDX 5 13 4 14 3 15 2 16 1 17
REMARK H PARENT
REMARK Flexibility Score: inf
ROOT
ATOM      1  C   UNL     1      33.156  49.164  25.826  1.00  0.00     0.000 C 
ENDROOT
BRANCH   1   2
ATOM      2  C   UNL     1      34.647  48.846  25.641  1.00  0.00     0.000 C 
BRANCH   2   3
ATOM      3  C   UNL     1      35.224  48.175  26.897  1.00  0.00     0.000 C 
BRANCH   3   4
ATOM      4  C   UNL     1      36.033  46.904  26.581  1.00  0.00     0.000 C 
BRANCH   4   5
ATOM      5  C   UNL     1      35.428  45.597  27.125  1.00  0.00     0.006 C 
BRANCH   5   6
ATOM      6  C   UNL     1      33.898  45.556  27.018  1.00  0.00     0.053 C 
BRANCH   6   7
ATOM      7  C   UNL     1      33.483  45.020  25.685  1.00  0.00     0.041 C 
ATOM      8  O   UNL     1      33.861  43.878  25.314  1.00  0.00    -0.550 OA
ATOM      9  O   UNL     1      32.715  45.801  24.830  1.00  0.00    -0.550 OA
ENDBRANCH   6   7
ENDBRANCH   5   6
ENDBRANCH   4   5
ENDBRANCH   3   4
ENDBRANCH   2   3
ENDBRANCH   1   2
BRANCH   1  10
ATOM     10  C   UNL     1      32.902  50.191  26.940  1.00  0.00     0.000 C 
BRANCH  10  11
ATOM     11  C   UNL     1      33.446  51.585  26.596  1.00  0.00    -0.000 C 
BRANCH  11  12
ATOM     12  C   UNL     1      32.360  52.656  26.766  1.00  0.00    -0.000 C 
BRANCH  12  13
ATOM     13  C   UNL     1      31.888  53.183  25.406  1.00  0.00    -0.000 C 
BRANCH  13  14
ATOM     14  C   UNL     1      30.357  53.224  25.333  1.00  0.00    -0.000 C 
BRANCH  14  15
ATOM     15  C   UNL     1      29.743  51.949  25.932  1.00  0.00    -0.000 C 
BRANCH  15  16
ATOM     16  C   UNL     1      29.347  50.924  24.858  1.00  0.00    -0.003 C 
ATOM     17  C   UNL     1      30.459  50.674  23.840  1.00  0.00     0.004 C 
ENDBRANCH  15  16
ENDBRANCH  14  15
ENDBRANCH  13  14
ENDBRANCH  12  13
ENDBRANCH  11  12
ENDBRANCH  10  11
ENDBRANCH   1  10
TORSDOF 13
ENDMDL
MODEL 5
REMARK VINA RESULT:    -3.688      3.917      7.634
REMARK INTER + INTRA:          -7.791
REMARK INTER:                  -6.379
REMARK INTRA:                  -1.412
REMARK UNBOUND:                -1.300
REMARK SMILES CCCCCCCCCCCCCCC(=O)[O-]
REMARK SMILES IDX 9 1 10 2 11 3 12 4 13 5 14 6 15 7 16 8 17 9 8 10 7 11 6 12
REMARK SMILES IDX 5 13 4 14 3 15 2 16 1 17
REMARK H PARENT
REMARK Flexibility Score: inf
ROOT
ATOM      1  C   UNL     1      34.056  48.382  24.887  1.00  0.00     0.000 C 
ENDROOT
BRANCH   1   2
ATOM      2  C   UNL     1      34.745  48.663  26.230  1.00  0.00     0.000 C 
BRANCH   2   3
ATOM      3  C   UNL     1      34.302  50.018  26.801  1.00  0.00     0.000 C 
BRANCH   3   4
ATOM      4  C   UNL     1      33.171  50.673  25.987  1.00  0.00     0.000 C 
BRANCH   4   5
ATOM      5  C   UNL     1      31.777  50.602  26.637  1.00  0.00     0.006 C 
BRANCH   5   6
ATOM      6  C   UNL     1      30.746  49.876  25.764  1.00  0.00     0.053 C 
BRANCH   6   7
ATOM      7  C   UNL     1      30.044  50.848  24.871  1.00  0.00     0.041 C 
ATOM      8  O   UNL     1      30.468  51.060  23.704  1.00  0.00    -0.550 OA
ATOM      9  O   UNL     1      28.946  51.557  25.342  1.00  0.00    -0.550 OA
ENDBRANCH   6   7
ENDBRANCH   5   6
ENDBRANCH   4   5
ENDBRANCH   3   4
ENDBRANCH   2   3
ENDBRANCH   1   2
BRANCH   1  10
ATOM     10  C   UNL     1      33.156  47.137  24.931  1.00  0.00     0.000 C 
BRANCH  10  11
ATOM     11  C   UNL     1      32.781  46.728  26.362  1.00  0.00    -0.000 C 
BRANCH  11  12
ATOM     12  C   UNL     1      32.697  45.202  26.494  1.00  0.00    -0.000 C 
BRANCH  12  13
ATOM     13  C   UNL     1      33.989  44.535  26.010  1.00  0.00    -0.000 C 
BRANCH  13  14
ATOM     14  C   UNL     1      35.176  44.921  26.901  1.00  0.00    -0.000 C 
BRANCH  14  15
ATOM     15  C   UNL     1      36.499  44.419  26.303  1.00  0.00    -0.000 C 
BRANCH  15  16
ATOM     16  C   UNL     1      36.346  43.075  25.575  1.00  0.00    -0.003 C 
ATOM     17  C   UNL     1      37.687  42.461  25.178  1.00  0.00     0.004 C 
ENDBRANCH  15  16
ENDBRANCH  14  15
ENDBRANCH  13  14
ENDBRANCH  12  13
ENDBRANCH  11  12
ENDBRANCH  10  11
ENDBRANCH   1  10
TORSDOF 13
ENDMDL
MODEL 6
REMARK VINA RESULT:    -3.654      1.321      2.211
REMARK INTER + INTRA:          -7.732
REMARK INTER:                  -6.969
REMARK INTRA:                  -0.762
REMARK UNBOUND:                -1.300
REMARK SMILES CCCCCCCCCCCCCCC(=O)[O-]
REMARK SMILES IDX 9 1 10 2 11 3 12 4 13 5 14 6 15 7 16 8 17 9 8 10 7 11 6 12
REMARK SMILES IDX 5 13 4 14 3 15 2 16 1 17
REMARK H PARENT
REMARK Flexibility Score: inf
ROOT
ATOM      1  C   UNL     1      34.490  47.010  26.009  1.00  0.00     0.000 C 
ENDROOT
BRANCH   1   2
ATOM      2  C   UNL     1      33.401  45.947  25.802  1.00  0.00     0.000 C 
BRANCH   2   3
ATOM      3  C   UNL     1      33.783  44.629  26.493  1.00  0.00     0.000 C 
BRANCH   3   4
ATOM      4  C   UNL     1      34.835  43.822  25.710  1.00  0.00     0.000 C 
BRANCH   4   5
ATOM      5  C   UNL     1      36.127  43.513  26.488  1.00  0.00     0.006 C 
BRANCH   5   6
ATOM      6  C   UNL     1      37.298  43.131  25.573  1.00  0.00     0.053 C 
BRANCH   6   7
ATOM      7  C   UNL     1      37.049  41.800  24.938  1.00  0.00     0.041 C 
ATOM      8  O   UNL     1      36.947  41.704  23.686  1.00  0.00    -0.550 OA
ATOM      9  O   UNL     1      36.885  40.672  25.730  1.00  0.00    -0.550 OA
ENDBRANCH   6   7
ENDBRANCH   5   6
ENDBRANCH   4   5
ENDBRANCH   3   4
ENDBRANCH   2   3
ENDBRANCH   1   2
BRANCH   1  10
ATOM     10  C   UNL     1      34.244  48.279  25.178  1.00  0.00     0.000 C 
BRANCH  10  11
ATOM     11  C   UNL     1      33.621  49.415  26.002  1.00  0.00    -0.000 C 
BRANCH  11  12
ATOM     12  C   UNL     1      32.107  49.498  25.766  1.00  0.00    -0.000 C 
BRANCH  12  13
ATOM     13  C   UNL     1      31.795  49.842  24.305  1.00  0.00    -0.000 C 
BRANCH  13  14
ATOM     14  C   UNL     1      30.498  50.652  24.194  1.00  0.00    -0.000 C 
BRANCH  14  15
ATOM     15  C   UNL     1      30.482  51.806  25.208  1.00  0.00    -0.000 C 
BRANCH  15  16
ATOM     16  C   UNL     1      31.124  53.087  24.654  1.00  0.00    -0.003 C 
ATOM     17  C   UNL     1      30.483  54.358  25.210  1.00  0.00     0.004 C 
ENDBRANCH  15  16
ENDBRANCH  14  15
ENDBRANCH  13  14
ENDBRANCH  12  13
ENDBRANCH  11  12
ENDBRANCH  10  11
ENDBRANCH   1  10
TORSDOF 13
ENDMDL
MODEL 7
REMARK VINA RESULT:    -3.633     17.790     18.642
REMARK INTER + INTRA:          -7.694
REMARK INTER:                  -5.813
REMARK INTRA:                  -1.880
REMARK UNBOUND:                -1.300
REMARK SMILES CCCCCCCCCCCCCCC(=O)[O-]
REMARK SMILES IDX 9 1 10 2 11 3 12 4 13 5 14 6 15 7 16 8 17 9 8 10 7 11 6 12
REMARK SMILES IDX 5 13 4 14 3 15 2 16 1 17
REMARK H PARENT
REMARK Flexibility Score: inf
ROOT
ATOM      1  C   UNL     1      29.701  46.806   8.361  1.00  0.00     0.000 C 
ENDROOT
BRANCH   1   2
ATOM      2  C   UNL     1      28.899  47.321   7.157  1.00  0.00     0.000 C 
BRANCH   2   3
ATOM      3  C   UNL     1      27.874  48.379   7.594  1.00  0.00     0.000 C 
BRANCH   3   4
ATOM      4  C   UNL     1      27.545  48.314   9.097  1.00  0.00     0.000 C 
BRANCH   4   5
ATOM      5  C   UNL     1      26.127  47.817   9.430  1.00  0.00     0.006 C 
BRANCH   5   6
ATOM      6  C   UNL     1      26.093  46.342   9.850  1.00  0.00     0.053 C 
BRANCH   6   7
ATOM      7  C   UNL     1      26.029  45.459   8.644  1.00  0.00     0.041 C 
ATOM      8  O   UNL     1      25.336  45.794   7.648  1.00  0.00    -0.550 OA
ATOM      9  O   UNL     1      26.699  44.242   8.638  1.00  0.00    -0.550 OA
ENDBRANCH   6   7
ENDBRANCH   5   6
ENDBRANCH   4   5
ENDBRANCH   3   4
ENDBRANCH   2   3
ENDBRANCH   1   2
BRANCH   1  10
ATOM     10  C   UNL     1      31.201  47.126   8.255  1.00  0.00     0.000 C 
BRANCH  10  11
ATOM     11  C   UNL     1      31.501  48.221   7.222  1.00  0.00    -0.000 C 
BRANCH  11  12
ATOM     12  C   UNL     1      31.733  49.574   7.907  1.00  0.00    -0.000 C 
BRANCH  12  13
ATOM     13  C   UNL     1      30.846  50.663   7.291  1.00  0.00    -0.000 C 
BRANCH  13  14
ATOM     14  C   UNL     1      30.623  51.815   8.278  1.00  0.00    -0.000 C 
BRANCH  14  15
ATOM     15  C   UNL     1      29.357  51.582   9.118  1.00  0.00    -0.000 C 
BRANCH  15  16
ATOM     16  C   UNL     1      28.243  52.590   8.798  1.00  0.00    -0.003 C 
ATOM     17  C   UNL     1      26.990  51.926   8.228  1.00  0.00     0.004 C 
ENDBRANCH  15  16
ENDBRANCH  14  15
ENDBRANCH  13  14
ENDBRANCH  12  13
ENDBRANCH  11  12
ENDBRANCH  10  11
ENDBRANCH   1  10
TORSDOF 13
ENDMDL
