MODEL 1
REMARK VINA RESULT:    -4.492      0.000      0.000
REMARK INTER + INTRA:          -5.527
REMARK INTER:                  -5.411
REMARK INTRA:                  -0.116
REMARK UNBOUND:                -0.116
REMARK SMILES NC(=O)C[C@@H]([NH3+])C(=O)[O-]
REMARK SMILES IDX 4 1 5 2 6 3 7 7 8 8 9 9 2 10 3 11 1 12
REMARK H PARENT 6 4 6 5 6 6 1 13 1 14
REMARK Flexibility Score: inf
ROOT
ATOM      1  C   UNL     1     -23.055  -6.576  14.724  1.00  0.00     0.171 C 
ENDROOT
BRANCH   1   2
ATOM      2  C   UNL     1     -24.342  -6.028  14.076  1.00  0.00     0.237 C 
BRANCH   2   3
ATOM      3  N   UNL     1     -24.425  -6.392  12.655  1.00  0.00    -0.350 N 
ATOM      4  H   UNL     1     -24.538  -5.529  12.074  1.00  0.00     0.345 HD
ATOM      5  H   UNL     1     -23.543  -6.867  12.355  1.00  0.00     0.345 HD
ATOM      6  H   UNL     1     -25.236  -7.030  12.481  1.00  0.00     0.345 HD
ENDBRANCH   2   3
BRANCH   2   7
ATOM      7  C   UNL     1     -25.543  -6.554  14.815  1.00  0.00     0.100 C 
ATOM      8  O   UNL     1     -25.862  -7.769  14.720  1.00  0.00    -0.544 OA
ATOM      9  O   UNL     1     -26.317  -5.701  15.594  1.00  0.00    -0.544 OA
ENDBRANCH   2   7
ENDBRANCH   1   2
BRANCH   1  10
ATOM     10  C   UNL     1     -22.443  -5.584  15.670  1.00  0.00     0.223 C 
ATOM     11  O   UNL     1     -22.985  -4.458  15.831  1.00  0.00    -0.275 OA
ATOM     12  N   UNL     1     -21.234  -5.892  16.364  1.00  0.00    -0.369 N 
ATOM     13  H   UNL     1     -20.758  -6.811  16.224  1.00  0.00     0.159 HD
ATOM     14  H   UNL     1     -20.807  -5.194  17.012  1.00  0.00     0.159 HD
ENDBRANCH   1  10
TORSDOF 4
ENDMDL
MODEL 2
REMARK VINA RESULT:    -4.400      2.211      3.779
REMARK INTER + INTRA:          -5.417
REMARK INTER:                  -5.212
REMARK INTRA:                  -0.205
REMARK UNBOUND:                -0.116
REMARK SMILES NC(=O)C[C@@H]([NH3+])C(=O)[O-]
REMARK SMILES IDX 4 1 5 2 6 3 7 7 8 8 9 9 2 10 3 11 1 12
REMARK H PARENT 6 4 6 5 6 6 1 13 1 14
REMARK Flexibility Score: inf
ROOT
ATOM      1  C   UNL     1     -24.783  -5.538  15.232  1.00  0.00     0.171 C 
ENDROOT
BRANCH   1   2
ATOM      2  C   UNL     1     -23.749  -4.411  15.435  1.00  0.00     0.237 C 
BRANCH   2   3
ATOM      3  N   UNL     1     -24.385  -3.182  15.928  1.00  0.00    -0.350 N 
ATOM      4  H   UNL     1     -25.336  -3.402  16.307  1.00  0.00     0.345 HD
ATOM      5  H   UNL     1     -23.819  -2.772  16.706  1.00  0.00     0.345 HD
ATOM      6  H   UNL     1     -24.478  -2.477  15.161  1.00  0.00     0.345 HD
ENDBRANCH   2   3
BRANCH   2   7
ATOM      7  C   UNL     1     -22.689  -4.867  16.401  1.00  0.00     0.100 C 
ATOM      8  O   UNL     1     -22.634  -4.374  17.559  1.00  0.00    -0.544 OA
ATOM      9  O   UNL     1     -21.754  -5.823  16.018  1.00  0.00    -0.544 OA
ENDBRANCH   2   7
ENDBRANCH   1   2
BRANCH   1  10
ATOM     10  C   UNL     1     -24.361  -6.491  14.153  1.00  0.00     0.223 C 
ATOM     11  O   UNL     1     -24.620  -6.226  12.949  1.00  0.00    -0.275 OA
ATOM     12  N   UNL     1     -23.697  -7.712  14.481  1.00  0.00    -0.369 N 
ATOM     13  H   UNL     1     -23.496  -7.959  15.476  1.00  0.00     0.159 HD
ATOM     14  H   UNL     1     -23.416  -8.377  13.727  1.00  0.00     0.159 HD
ENDBRANCH   1  10
TORSDOF 4
ENDMDL
MODEL 3
REMARK VINA RESULT:    -4.312      1.671      3.416
REMARK INTER + INTRA:          -5.311
REMARK INTER:                  -5.185
REMARK INTRA:                  -0.127
REMARK UNBOUND:                -0.116
REMARK SMILES NC(=O)C[C@@H]([NH3+])C(=O)[O-]
REMARK SMILES IDX 4 1 5 2 6 3 7 7 8 8 9 9 2 10 3 11 1 12
REMARK H PARENT 6 4 6 5 6 6 1 13 1 14
REMARK Flexibility Score: inf
ROOT
ATOM      1  C   UNL     1     -23.732  -6.169  14.309  1.00  0.00     0.171 C 
ENDROOT
BRANCH   1   2
ATOM      2  C   UNL     1     -23.207  -5.532  15.611  1.00  0.00     0.237 C 
BRANCH   2   3
ATOM      3  N   UNL     1     -21.760  -5.290  15.544  1.00  0.00    -0.350 N 
ATOM      4  H   UNL     1     -21.575  -4.261  15.488  1.00  0.00     0.345 HD
ATOM      5  H   UNL     1     -21.295  -5.651  16.409  1.00  0.00     0.345 HD
ATOM      6  H   UNL     1     -21.342  -5.758  14.707  1.00  0.00     0.345 HD
ENDBRANCH   2   3
BRANCH   2   7
ATOM      7  C   UNL     1     -23.935  -4.241  15.871  1.00  0.00     0.100 C 
ATOM      8  O   UNL     1     -25.111  -4.257  16.324  1.00  0.00    -0.544 OA
ATOM      9  O   UNL     1     -23.323  -3.023  15.598  1.00  0.00    -0.544 OA
ENDBRANCH   2   7
ENDBRANCH   1   2
BRANCH   1  10
ATOM     10  C   UNL     1     -24.435  -7.469  14.570  1.00  0.00     0.223 C 
ATOM     11  O   UNL     1     -25.692  -7.495  14.650  1.00  0.00    -0.275 OA
ATOM     12  N   UNL     1     -23.690  -8.672  14.762  1.00  0.00    -0.369 N 
ATOM     13  H   UNL     1     -22.646  -8.665  14.722  1.00  0.00     0.159 HD
ATOM     14  H   UNL     1     -24.183  -9.571  14.954  1.00  0.00     0.159 HD
ENDBRANCH   1  10
TORSDOF 4
ENDMDL
MODEL 4
REMARK VINA RESULT:    -4.221      2.124      2.408
REMARK INTER + INTRA:          -5.201
REMARK INTER:                  -4.965
REMARK INTRA:                  -0.236
REMARK UNBOUND:                -0.116
REMARK SMILES NC(=O)C[C@@H]([NH3+])C(=O)[O-]
REMARK SMILES IDX 4 1 5 2 6 3 7 7 8 8 9 9 2 10 3 11 1 12
REMARK H PARENT 6 4 6 5 6 6 1 13 1 14
REMARK Flexibility Score: inf
ROOT
ATOM      1  C   UNL     1     -24.442  -4.997  15.702  1.00  0.00     0.171 C 
ENDROOT
BRANCH   1   2
ATOM      2  C   UNL     1     -23.760  -5.723  14.524  1.00  0.00     0.237 C 
BRANCH   2   3
ATOM      3  N   UNL     1     -22.658  -6.578  14.986  1.00  0.00    -0.350 N 
ATOM      4  H   UNL     1     -23.040  -7.375  15.548  1.00  0.00     0.345 HD
ATOM      5  H   UNL     1     -22.148  -6.980  14.167  1.00  0.00     0.345 HD
ATOM      6  H   UNL     1     -21.987  -6.034  15.577  1.00  0.00     0.345 HD
ENDBRANCH   2   3
BRANCH   2   7
ATOM      7  C   UNL     1     -24.777  -6.547  13.782  1.00  0.00     0.100 C 
ATOM      8  O   UNL     1     -25.511  -7.359  14.406  1.00  0.00    -0.544 OA
ATOM      9  O   UNL     1     -24.903  -6.431  12.403  1.00  0.00    -0.544 OA
ENDBRANCH   2   7
ENDBRANCH   1   2
BRANCH   1  10
ATOM     10  C   UNL     1     -23.539  -3.969  16.318  1.00  0.00     0.223 C 
ATOM     11  O   UNL     1     -22.760  -4.299  17.251  1.00  0.00    -0.275 OA
ATOM     12  N   UNL     1     -23.580  -2.611  15.879  1.00  0.00    -0.369 N 
ATOM     13  H   UNL     1     -24.237  -2.313  15.124  1.00  0.00     0.159 HD
ATOM     14  H   UNL     1     -22.958  -1.896  16.319  1.00  0.00     0.159 HD
ENDBRANCH   1  10
TORSDOF 4
ENDMDL
MODEL 5
REMARK VINA RESULT:    -4.215      1.860      2.105
REMARK INTER + INTRA:          -5.194
REMARK INTER:                  -5.086
REMARK INTRA:                  -0.108
REMARK UNBOUND:                -0.116
REMARK SMILES NC(=O)C[C@@H]([NH3+])C(=O)[O-]
REMARK SMILES IDX 4 1 5 2 6 3 7 7 8 8 9 9 2 10 3 11 1 12
REMARK H PARENT 6 4 6 5 6 6 1 13 1 14
REMARK Flexibility Score: inf
ROOT
ATOM      1  C   UNL     1     -23.475  -5.807  14.778  1.00  0.00     0.171 C 
ENDROOT
BRANCH   1   2
ATOM      2  C   UNL     1     -24.770  -6.434  14.222  1.00  0.00     0.237 C 
BRANCH   2   3
ATOM      3  N   UNL     1     -24.809  -6.372  12.754  1.00  0.00    -0.350 N 
ATOM      4  H   UNL     1     -25.530  -7.038  12.391  1.00  0.00     0.345 HD
ATOM      5  H   UNL     1     -25.076  -5.411  12.442  1.00  0.00     0.345 HD
ATOM      6  H   UNL     1     -23.878  -6.621  12.346  1.00  0.00     0.345 HD
ENDBRANCH   2   3
BRANCH   2   7
ATOM      7  C   UNL     1     -24.877  -7.863  14.682  1.00  0.00     0.100 C 
ATOM      8  O   UNL     1     -26.004  -8.422  14.753  1.00  0.00    -0.544 OA
ATOM      9  O   UNL     1     -23.737  -8.570  15.046  1.00  0.00    -0.544 OA
ENDBRANCH   2   7
ENDBRANCH   1   2
BRANCH   1  10
ATOM     10  C   UNL     1     -23.766  -4.744  15.796  1.00  0.00     0.223 C 
ATOM     11  O   UNL     1     -22.839  -4.317  16.535  1.00  0.00    -0.275 OA
ATOM     12  N   UNL     1     -25.091  -4.236  15.958  1.00  0.00    -0.369 N 
ATOM     13  H   UNL     1     -25.876  -4.596  15.371  1.00  0.00     0.159 HD
ATOM     14  H   UNL     1     -25.290  -3.505  16.676  1.00  0.00     0.159 HD
ENDBRANCH   1  10
TORSDOF 4
ENDMDL
MODEL 6
REMARK VINA RESULT:    -4.195      2.188      3.126
REMARK INTER + INTRA:          -5.169
REMARK INTER:                  -5.052
REMARK INTRA:                  -0.118
REMARK UNBOUND:                -0.116
REMARK SMILES NC(=O)C[C@@H]([NH3+])C(=O)[O-]
REMARK SMILES IDX 4 1 5 2 6 3 7 7 8 8 9 9 2 10 3 11 1 12
REMARK H PARENT 6 4 6 5 6 6 1 13 1 14
REMARK Flexibility Score: inf
ROOT
ATOM      1  C   UNL     1     -23.991  -4.811  15.047  1.00  0.00     0.171 C 
ENDROOT
BRANCH   1   2
ATOM      2  C   UNL     1     -23.947  -6.307  14.677  1.00  0.00     0.237 C 
BRANCH   2   3
ATOM      3  N   UNL     1     -24.061  -6.504  13.225  1.00  0.00    -0.350 N 
ATOM      4  H   UNL     1     -23.187  -6.949  12.858  1.00  0.00     0.345 HD
ATOM      5  H   UNL     1     -24.860  -7.144  13.011  1.00  0.00     0.345 HD
ATOM      6  H   UNL     1     -24.211  -5.591  12.736  1.00  0.00     0.345 HD
ENDBRANCH   2   3
BRANCH   2   7
ATOM      7  C   UNL     1     -22.666  -6.915  15.181  1.00  0.00     0.100 C 
ATOM      8  O   UNL     1     -21.722  -6.174  15.564  1.00  0.00    -0.544 OA
ATOM      9  O   UNL     1     -22.509  -8.296  15.212  1.00  0.00    -0.544 OA
ENDBRANCH   2   7
ENDBRANCH   1   2
BRANCH   1  10
ATOM     10  C   UNL     1     -24.881  -4.558  16.229  1.00  0.00     0.223 C 
ATOM     11  O   UNL     1     -26.076  -4.956  16.208  1.00  0.00    -0.275 OA
ATOM     12  N   UNL     1     -24.395  -3.840  17.364  1.00  0.00    -0.369 N 
ATOM     13  H   UNL     1     -23.414  -3.481  17.388  1.00  0.00     0.159 HD
ATOM     14  H   UNL     1     -25.022  -3.657  18.179  1.00  0.00     0.159 HD
ENDBRANCH   1  10
TORSDOF 4
ENDMDL
MODEL 7
REMARK VINA RESULT:    -4.193      2.596      4.222
REMARK INTER + INTRA:          -5.167
REMARK INTER:                  -5.061
REMARK INTRA:                  -0.107
REMARK UNBOUND:                -0.116
REMARK SMILES NC(=O)C[C@@H]([NH3+])C(=O)[O-]
REMARK SMILES IDX 4 1 5 2 6 3 7 7 8 8 9 9 2 10 3 11 1 12
REMARK H PARENT 6 4 6 5 6 6 1 13 1 14
REMARK Flexibility Score: inf
ROOT
ATOM      1  C   UNL     1     -25.367  -4.586  16.461  1.00  0.00     0.171 C 
ENDROOT
BRANCH   1   2
ATOM      2  C   UNL     1     -24.082  -4.128  15.743  1.00  0.00     0.237 C 
BRANCH   2   3
ATOM      3  N   UNL     1     -23.985  -2.663  15.700  1.00  0.00    -0.350 N 
ATOM      4  H   UNL     1     -23.365  -2.372  14.908  1.00  0.00     0.345 HD
ATOM      5  H   UNL     1     -24.929  -2.245  15.537  1.00  0.00     0.345 HD
ATOM      6  H   UNL     1     -23.594  -2.289  16.595  1.00  0.00     0.345 HD
ENDBRANCH   2   3
BRANCH   2   7
ATOM      7  C   UNL     1     -22.880  -4.705  16.442  1.00  0.00     0.100 C 
ATOM      8  O   UNL     1     -22.144  -5.539  15.851  1.00  0.00    -0.544 OA
ATOM      9  O   UNL     1     -22.583  -4.334  17.749  1.00  0.00    -0.544 OA
ENDBRANCH   2   7
ENDBRANCH   1   2
BRANCH   1  10
ATOM     10  C   UNL     1     -26.125  -5.598  15.652  1.00  0.00     0.223 C 
ATOM     11  O   UNL     1     -25.509  -6.334  14.836  1.00  0.00    -0.275 OA
ATOM     12  N   UNL     1     -27.543  -5.710  15.773  1.00  0.00    -0.369 N 
ATOM     13  H   UNL     1     -28.074  -5.091  16.425  1.00  0.00     0.159 HD
ATOM     14  H   UNL     1     -28.067  -6.407  15.199  1.00  0.00     0.159 HD
ENDBRANCH   1  10
TORSDOF 4
ENDMDL
MODEL 8
REMARK VINA RESULT:    -4.185      1.974      2.655
REMARK INTER + INTRA:          -5.157
REMARK INTER:                  -4.903
REMARK INTRA:                  -0.254
REMARK UNBOUND:                -0.116
REMARK SMILES NC(=O)C[C@@H]([NH3+])C(=O)[O-]
REMARK SMILES IDX 4 1 5 2 6 3 7 7 8 8 9 9 2 10 3 11 1 12
REMARK H PARENT 6 4 6 5 6 6 1 13 1 14
REMARK Flexibility Score: inf
ROOT
ATOM      1  C   UNL     1     -24.150  -5.028  15.429  1.00  0.00     0.171 C 
ENDROOT
BRANCH   1   2
ATOM      2  C   UNL     1     -23.220  -6.098  14.823  1.00  0.00     0.237 C 
BRANCH   2   3
ATOM      3  N   UNL     1     -21.965  -6.209  15.578  1.00  0.00    -0.350 N 
ATOM      4  H   UNL     1     -22.022  -7.015  16.244  1.00  0.00     0.345 HD
ATOM      5  H   UNL     1     -21.168  -6.389  14.926  1.00  0.00     0.345 HD
ATOM      6  H   UNL     1     -21.777  -5.333  16.118  1.00  0.00     0.345 HD
ENDBRANCH   2   3
BRANCH   2   7
ATOM      7  C   UNL     1     -23.927  -7.427  14.798  1.00  0.00     0.100 C 
ATOM      8  O   UNL     1     -25.146  -7.489  14.487  1.00  0.00    -0.544 OA
ATOM      9  O   UNL     1     -23.245  -8.591  15.134  1.00  0.00    -0.544 OA
ENDBRANCH   2   7
ENDBRANCH   1   2
BRANCH   1  10
ATOM     10  C   UNL     1     -23.375  -3.951  16.129  1.00  0.00     0.223 C 
ATOM     11  O   UNL     1     -22.900  -4.166  17.276  1.00  0.00    -0.275 OA
ATOM     12  N   UNL     1     -23.198  -2.671  15.520  1.00  0.00    -0.369 N 
ATOM     13  H   UNL     1     -23.605  -2.467  14.580  1.00  0.00     0.159 HD
ATOM     14  H   UNL     1     -22.668  -1.921  16.016  1.00  0.00     0.159 HD
ENDBRANCH   1  10
TORSDOF 4
ENDMDL
MODEL 9
REMARK VINA RESULT:    -4.169      1.868      2.839
REMARK INTER + INTRA:          -5.139
REMARK INTER:                  -4.959
REMARK INTRA:                  -0.180
REMARK UNBOUND:                -0.116
REMARK SMILES NC(=O)C[C@@H]([NH3+])C(=O)[O-]
REMARK SMILES IDX 4 1 5 2 6 3 7 7 8 8 9 9 2 10 3 11 1 12
REMARK H PARENT 6 4 6 5 6 6 1 13 1 14
REMARK Flexibility Score: inf
ROOT
ATOM      1  C   UNL     1     -24.361  -7.943  14.773  1.00  0.00     0.171 C 
ENDROOT
BRANCH   1   2
ATOM      2  C   UNL     1     -23.987  -6.595  14.124  1.00  0.00     0.237 C 
BRANCH   2   3
ATOM      3  N   UNL     1     -24.886  -6.269  13.008  1.00  0.00    -0.350 N 
ATOM      4  H   UNL     1     -24.879  -7.048  12.309  1.00  0.00     0.345 HD
ATOM      5  H   UNL     1     -25.865  -6.161  13.357  1.00  0.00     0.345 HD
ATOM      6  H   UNL     1     -24.588  -5.384  12.537  1.00  0.00     0.345 HD
ENDBRANCH   2   3
BRANCH   2   7
ATOM      7  C   UNL     1     -24.034  -5.505  15.160  1.00  0.00     0.100 C 
ATOM      8  O   UNL     1     -22.965  -5.045  15.643  1.00  0.00    -0.544 OA
ATOM      9  O   UNL     1     -25.255  -5.010  15.604  1.00  0.00    -0.544 OA
ENDBRANCH   2   7
ENDBRANCH   1   2
BRANCH   1  10
ATOM     10  C   UNL     1     -23.146  -8.699  15.223  1.00  0.00     0.223 C 
ATOM     11  O   UNL     1     -23.276  -9.840  15.742  1.00  0.00    -0.275 OA
ATOM     12  N   UNL     1     -21.845  -8.124  15.099  1.00  0.00    -0.369 N 
ATOM     13  H   UNL     1     -21.720  -7.170  14.693  1.00  0.00     0.159 HD
ATOM     14  H   UNL     1     -21.004  -8.650  15.424  1.00  0.00     0.159 HD
ENDBRANCH   1  10
TORSDOF 4
ENDMDL
