MODEL 1
REMARK VINA RESULT:    -3.135      0.000      0.000
REMARK INTER + INTRA:          -6.728
REMARK INTER:                  -5.701
REMARK INTRA:                  -1.028
REMARK UNBOUND:                -1.028
REMARK SMILES CCCCCCCCCCCCCCCC(=O)[O-]
REMARK SMILES IDX 9 1 10 2 11 3 12 4 13 5 14 6 15 7 16 8 17 9 18 10 8 11 7 12
REMARK SMILES IDX 6 13 5 14 4 15 3 16 2 17 1 18
REMARK H PARENT
REMARK Flexibility Score: inf
ROOT
ATOM      1  C   UNL     1       3.364  13.133  14.694  1.00  0.00     0.000 C 
ENDROOT
BRANCH   1   2
ATOM      2  C   UNL     1       2.837  13.184  16.140  1.00  0.00     0.000 C 
BRANCH   2   3
ATOM      3  C   UNL     1       2.156  14.520  16.484  1.00  0.00     0.000 C 
BRANCH   3   4
ATOM      4  C   UNL     1       1.483  14.583  17.869  1.00  0.00     0.000 C 
BRANCH   4   5
ATOM      5  C   UNL     1       0.562  15.805  18.033  1.00  0.00     0.000 C 
BRANCH   5   6
ATOM      6  C   UNL     1      -0.760  15.454  18.735  1.00  0.00     0.006 C 
BRANCH   6   7
ATOM      7  C   UNL     1      -1.911  16.383  18.328  1.00  0.00     0.053 C 
BRANCH   7   8
ATOM      8  C   UNL     1      -1.713  17.746  18.911  1.00  0.00     0.041 C 
ATOM      9  O   UNL     1      -1.332  18.699  18.180  1.00  0.00    -0.550 OA
ATOM     10  O   UNL     1      -1.995  17.978  20.251  1.00  0.00    -0.550 OA
ENDBRANCH   7   8
ENDBRANCH   6   7
ENDBRANCH   5   6
ENDBRANCH   4   5
ENDBRANCH   3   4
ENDBRANCH   2   3
ENDBRANCH   1   2
BRANCH   1  11
ATOM     11  C   UNL     1       4.782  12.544  14.593  1.00  0.00     0.000 C 
BRANCH  11  12
ATOM     12  C   UNL     1       5.650  12.704  15.854  1.00  0.00    -0.000 C 
BRANCH  12  13
ATOM     13  C   UNL     1       5.918  11.370  16.571  1.00  0.00    -0.000 C 
BRANCH  13  14
ATOM     14  C   UNL     1       6.897  11.519  17.746  1.00  0.00    -0.000 C 
BRANCH  14  15
ATOM     15  C   UNL     1       6.230  11.248  19.106  1.00  0.00    -0.000 C 
BRANCH  15  16
ATOM     16  C   UNL     1       4.750  11.663  19.132  1.00  0.00    -0.000 C 
BRANCH  16  17
ATOM     17  C   UNL     1       3.808  10.474  19.369  1.00  0.00    -0.003 C 
ATOM     18  C   UNL     1       2.677  10.457  18.344  1.00  0.00     0.004 C 
ENDBRANCH  16  17
ENDBRANCH  15  16
ENDBRANCH  14  15
ENDBRANCH  13  14
ENDBRANCH  12  13
ENDBRANCH  11  12
ENDBRANCH   1  11
TORSDOF 14
ENDMDL
MODEL 2
REMARK VINA RESULT:    -2.911      3.401      7.724
REMARK INTER + INTRA:          -6.321
REMARK INTER:                  -5.448
REMARK INTRA:                  -0.873
REMARK UNBOUND:                -1.028
REMARK SMILES CCCCCCCCCCCCCCCC(=O)[O-]
REMARK SMILES IDX 9 1 10 2 11 3 12 4 13 5 14 6 15 7 16 8 17 9 18 10 8 11 7 12
REMARK SMILES IDX 6 13 5 14 4 15 3 16 2 17 1 18
REMARK H PARENT
REMARK Flexibility Score: inf
ROOT
ATOM      1  C   UNL     1       2.082  14.169  16.069  1.00  0.00     0.000 C 
ENDROOT
BRANCH   1   2
ATOM      2  C   UNL     1       2.920  12.900  15.833  1.00  0.00     0.000 C 
BRANCH   2   3
ATOM      3  C   UNL     1       3.874  13.025  14.630  1.00  0.00     0.000 C 
BRANCH   3   4
ATOM      4  C   UNL     1       5.309  12.518  14.867  1.00  0.00     0.000 C 
BRANCH   4   5
ATOM      5  C   UNL     1       5.746  12.620  16.339  1.00  0.00     0.000 C 
BRANCH   5   6
ATOM      6  C   UNL     1       5.913  11.242  17.000  1.00  0.00     0.006 C 
BRANCH   6   7
ATOM      7  C   UNL     1       6.000  11.326  18.529  1.00  0.00     0.053 C 
BRANCH   7   8
ATOM      8  C   UNL     1       4.727  10.845  19.151  1.00  0.00     0.041 C 
ATOM      9  O   UNL     1       4.690  10.559  20.377  1.00  0.00    -0.550 OA
ATOM     10  O   UNL     1       3.569  10.761  18.390  1.00  0.00    -0.550 OA
ENDBRANCH   7   8
ENDBRANCH   6   7
ENDBRANCH   5   6
ENDBRANCH   4   5
ENDBRANCH   3   4
ENDBRANCH   2   3
ENDBRANCH   1   2
BRANCH   1  11
ATOM     11  C   UNL     1       1.782  14.421  17.557  1.00  0.00     0.000 C 
BRANCH  11  12
ATOM     12  C   UNL     1       0.810  15.581  17.843  1.00  0.00    -0.000 C 
BRANCH  12  13
ATOM     13  C   UNL     1      -0.348  15.178  18.771  1.00  0.00    -0.000 C 
BRANCH  13  14
ATOM     14  C   UNL     1      -1.606  16.032  18.549  1.00  0.00    -0.000 C 
BRANCH  14  15
ATOM     15  C   UNL     1      -1.583  17.337  19.364  1.00  0.00    -0.000 C 
BRANCH  15  16
ATOM     16  C   UNL     1      -1.184  18.555  18.516  1.00  0.00    -0.000 C 
BRANCH  16  17
ATOM     17  C   UNL     1       0.190  19.121  18.905  1.00  0.00    -0.003 C 
ATOM     18  C   UNL     1       1.140  19.124  17.711  1.00  0.00     0.004 C 
ENDBRANCH  16  17
ENDBRANCH  15  16
ENDBRANCH  14  15
ENDBRANCH  13  14
ENDBRANCH  12  13
ENDBRANCH  11  12
ENDBRANCH   1  11
TORSDOF 14
ENDMDL
MODEL 3
REMARK VINA RESULT:    -2.909      3.278      7.437
REMARK INTER + INTRA:          -6.318
REMARK INTER:                  -5.506
REMARK INTRA:                  -0.812
REMARK UNBOUND:                -1.028
REMARK SMILES CCCCCCCCCCCCCCCC(=O)[O-]
REMARK SMILES IDX 9 1 10 2 11 3 12 4 13 5 14 6 15 7 16 8 17 9 18 10 8 11 7 12
REMARK SMILES IDX 6 13 5 14 4 15 3 16 2 17 1 18
REMARK H PARENT
REMARK Flexibility Score: inf
ROOT
ATOM      1  C   UNL     1       2.835  12.955  16.002  1.00  0.00     0.000 C 
ENDROOT
BRANCH   1   2
ATOM      2  C   UNL     1       3.520  12.887  14.625  1.00  0.00     0.000 C 
BRANCH   2   3
ATOM      3  C   UNL     1       5.032  12.614  14.720  1.00  0.00     0.000 C 
BRANCH   3   4
ATOM      4  C   UNL     1       5.646  12.765  16.124  1.00  0.00     0.000 C 
BRANCH   4   5
ATOM      5  C   UNL     1       6.377  11.497  16.599  1.00  0.00     0.000 C 
BRANCH   5   6
ATOM      6  C   UNL     1       6.247  11.276  18.115  1.00  0.00     0.006 C 
BRANCH   6   7
ATOM      7  C   UNL     1       4.946  11.853  18.688  1.00  0.00     0.053 C 
BRANCH   7   8
ATOM      8  C   UNL     1       4.084  10.757  19.230  1.00  0.00     0.041 C 
ATOM      9  O   UNL     1       4.368  10.211  20.328  1.00  0.00    -0.550 OA
ATOM     10  O   UNL     1       2.937  10.372  18.547  1.00  0.00    -0.550 OA
ENDBRANCH   7   8
ENDBRANCH   6   7
ENDBRANCH   5   6
ENDBRANCH   4   5
ENDBRANCH   3   4
ENDBRANCH   2   3
ENDBRANCH   1   2
BRANCH   1  11
ATOM     11  C   UNL     1       2.193  14.325  16.286  1.00  0.00     0.000 C 
BRANCH  11  12
ATOM     12  C   UNL     1       1.655  14.512  17.717  1.00  0.00    -0.000 C 
BRANCH  12  13
ATOM     13  C   UNL     1       0.721  15.727  17.851  1.00  0.00    -0.000 C 
BRANCH  13  14
ATOM     14  C   UNL     1      -0.485  15.444  18.760  1.00  0.00    -0.000 C 
BRANCH  14  15
ATOM     15  C   UNL     1      -1.788  16.055  18.217  1.00  0.00    -0.000 C 
BRANCH  15  16
ATOM     16  C   UNL     1      -2.119  17.411  18.863  1.00  0.00    -0.000 C 
BRANCH  16  17
ATOM     17  C   UNL     1      -0.900  18.053  19.542  1.00  0.00    -0.003 C 
ATOM     18  C   UNL     1      -0.278  19.125  18.651  1.00  0.00     0.004 C 
ENDBRANCH  16  17
ENDBRANCH  15  16
ENDBRANCH  14  15
ENDBRANCH  13  14
ENDBRANCH  12  13
ENDBRANCH  11  12
ENDBRANCH   1  11
TORSDOF 14
ENDMDL
MODEL 4
REMARK VINA RESULT:    -2.821      3.412      7.301
REMARK INTER + INTRA:          -6.157
REMARK INTER:                  -5.173
REMARK INTRA:                  -0.984
REMARK UNBOUND:                -1.028
REMARK SMILES CCCCCCCCCCCCCCCC(=O)[O-]
REMARK SMILES IDX 9 1 10 2 11 3 12 4 13 5 14 6 15 7 16 8 17 9 18 10 8 11 7 12
REMARK SMILES IDX 6 13 5 14 4 15 3 16 2 17 1 18
REMARK H PARENT
REMARK Flexibility Score: inf
ROOT
ATOM      1  C   UNL     1       2.277  13.928  17.029  1.00  0.00     0.000 C 
ENDROOT
BRANCH   1   2
ATOM      2  C   UNL     1       2.394  13.910  15.494  1.00  0.00     0.000 C 
BRANCH   2   3
ATOM      3  C   UNL     1       3.078  12.639  14.959  1.00  0.00     0.000 C 
BRANCH   3   4
ATOM      4  C   UNL     1       4.554  12.805  14.549  1.00  0.00     0.000 C 
BRANCH   4   5
ATOM      5  C   UNL     1       5.531  12.549  15.709  1.00  0.00     0.000 C 
BRANCH   5   6
ATOM      6  C   UNL     1       5.052  11.427  16.644  1.00  0.00     0.006 C 
BRANCH   6   7
ATOM      7  C   UNL     1       5.626  11.552  18.062  1.00  0.00     0.053 C 
BRANCH   7   8
ATOM      8  C   UNL     1       4.636  11.065  19.071  1.00  0.00     0.041 C 
ATOM      9  O   UNL     1       5.030  10.605  20.175  1.00  0.00    -0.550 OA
ATOM     10  O   UNL     1       3.274  11.165  18.814  1.00  0.00    -0.550 OA
ENDBRANCH   7   8
ENDBRANCH   6   7
ENDBRANCH   5   6
ENDBRANCH   4   5
ENDBRANCH   3   4
ENDBRANCH   2   3
ENDBRANCH   1   2
BRANCH   1  11
ATOM     11  C   UNL     1       2.099  15.346  17.600  1.00  0.00     0.000 C 
BRANCH  11  12
ATOM     12  C   UNL     1       0.646  15.747  17.919  1.00  0.00    -0.000 C 
BRANCH  12  13
ATOM     13  C   UNL     1       0.539  17.123  18.597  1.00  0.00    -0.000 C 
BRANCH  13  14
ATOM     14  C   UNL     1      -0.917  17.578  18.779  1.00  0.00    -0.000 C 
BRANCH  14  15
ATOM     15  C   UNL     1      -1.910  16.402  18.749  1.00  0.00    -0.000 C 
BRANCH  15  16
ATOM     16  C   UNL     1      -2.117  15.769  20.134  1.00  0.00    -0.000 C 
BRANCH  16  17
ATOM     17  C   UNL     1      -1.986  14.239  20.108  1.00  0.00    -0.003 C 
ATOM     18  C   UNL     1      -1.802  13.681  21.516  1.00  0.00     0.004 C 
ENDBRANCH  16  17
ENDBRANCH  15  16
ENDBRANCH  14  15
ENDBRANCH  13  14
ENDBRANCH  12  13
ENDBRANCH  11  12
ENDBRANCH   1  11
TORSDOF 14
ENDMDL
MODEL 5
REMARK VINA RESULT:    -2.789      1.005      1.716
REMARK INTER + INTRA:          -6.099
REMARK INTER:                  -5.215
REMARK INTRA:                  -0.883
REMARK UNBOUND:                -1.028
REMARK SMILES CCCCCCCCCCCCCCCC(=O)[O-]
REMARK SMILES IDX 9 1 10 2 11 3 12 4 13 5 14 6 15 7 16 8 17 9 18 10 8 11 7 12
REMARK SMILES IDX 6 13 5 14 4 15 3 16 2 17 1 18
REMARK H PARENT
REMARK Flexibility Score: inf
ROOT
ATOM      1  C   UNL     1       2.895  13.264  16.268  1.00  0.00     0.000 C 
ENDROOT
BRANCH   1   2
ATOM      2  C   UNL     1       2.251  14.627  16.579  1.00  0.00     0.000 C 
BRANCH   2   3
ATOM      3  C   UNL     1       1.254  14.568  17.751  1.00  0.00     0.000 C 
BRANCH   3   4
ATOM      4  C   UNL     1       0.456  15.860  18.008  1.00  0.00     0.000 C 
BRANCH   4   5
ATOM      5  C   UNL     1       1.352  17.057  18.370  1.00  0.00     0.000 C 
BRANCH   5   6
ATOM      6  C   UNL     1       0.735  18.402  17.952  1.00  0.00     0.006 C 
BRANCH   6   7
ATOM      7  C   UNL     1       0.047  19.125  19.117  1.00  0.00     0.053 C 
BRANCH   7   8
ATOM      8  C   UNL     1      -1.419  18.830  19.121  1.00  0.00     0.041 C 
ATOM      9  O   UNL     1      -2.034  18.659  18.036  1.00  0.00    -0.550 OA
ATOM     10  O   UNL     1      -2.098  18.694  20.326  1.00  0.00    -0.550 OA
ENDBRANCH   7   8
ENDBRANCH   6   7
ENDBRANCH   5   6
ENDBRANCH   4   5
ENDBRANCH   3   4
ENDBRANCH   2   3
ENDBRANCH   1   2
BRANCH   1  11
ATOM     11  C   UNL     1       3.325  13.125  14.797  1.00  0.00     0.000 C 
BRANCH  11  12
ATOM     12  C   UNL     1       4.765  12.626  14.580  1.00  0.00    -0.000 C 
BRANCH  12  13
ATOM     13  C   UNL     1       5.645  12.770  15.833  1.00  0.00    -0.000 C 
BRANCH  13  14
ATOM     14  C   UNL     1       5.883  11.428  16.543  1.00  0.00    -0.000 C 
BRANCH  14  15
ATOM     15  C   UNL     1       6.476  11.603  17.951  1.00  0.00    -0.000 C 
BRANCH  15  16
ATOM     16  C   UNL     1       5.526  11.116  19.057  1.00  0.00    -0.000 C 
BRANCH  16  17
ATOM     17  C   UNL     1       4.093  11.638  18.876  1.00  0.00    -0.003 C 
ATOM     18  C   UNL     1       3.112  10.488  18.674  1.00  0.00     0.004 C 
ENDBRANCH  16  17
ENDBRANCH  15  16
ENDBRANCH  14  15
ENDBRANCH  13  14
ENDBRANCH  12  13
ENDBRANCH  11  12
ENDBRANCH   1  11
TORSDOF 14
ENDMDL
MODEL 6
REMARK VINA RESULT:    -2.586      3.328      7.318
REMARK INTER + INTRA:          -5.731
REMARK INTER:                  -4.913
REMARK INTRA:                  -0.818
REMARK UNBOUND:                -1.028
REMARK SMILES CCCCCCCCCCCCCCCC(=O)[O-]
REMARK SMILES IDX 9 1 10 2 11 3 12 4 13 5 14 6 15 7 16 8 17 9 18 10 8 11 7 12
REMARK SMILES IDX 6 13 5 14 4 15 3 16 2 17 1 18
REMARK H PARENT
REMARK Flexibility Score: inf
ROOT
ATOM      1  C   UNL     1       2.644  13.109  18.768  1.00  0.00     0.000 C 
ENDROOT
BRANCH   1   2
ATOM      2  C   UNL     1       2.797  11.694  18.181  1.00  0.00     0.000 C 
BRANCH   2   3
ATOM      3  C   UNL     1       3.922  10.884  18.850  1.00  0.00     0.000 C 
BRANCH   3   4
ATOM      4  C   UNL     1       5.225  11.660  19.123  1.00  0.00     0.000 C 
BRANCH   4   5
ATOM      5  C   UNL     1       6.367  11.267  18.171  1.00  0.00     0.000 C 
BRANCH   5   6
ATOM      6  C   UNL     1       5.942  11.305  16.694  1.00  0.00     0.006 C 
BRANCH   6   7
ATOM      7  C   UNL     1       5.677  12.729  16.190  1.00  0.00     0.053 C 
BRANCH   7   8
ATOM      8  C   UNL     1       4.879  12.696  14.925  1.00  0.00     0.041 C 
ATOM      9  O   UNL     1       5.455  12.552  13.815  1.00  0.00    -0.550 OA
ATOM     10  O   UNL     1       3.493  12.772  14.976  1.00  0.00    -0.550 OA
ENDBRANCH   7   8
ENDBRANCH   6   7
ENDBRANCH   5   6
ENDBRANCH   4   5
ENDBRANCH   3   4
ENDBRANCH   2   3
ENDBRANCH   1   2
BRANCH   1  11
ATOM     11  C   UNL     1       2.340  14.173  17.699  1.00  0.00     0.000 C 
BRANCH  11  12
ATOM     12  C   UNL     1       0.960  14.846  17.818  1.00  0.00    -0.000 C 
BRANCH  12  13
ATOM     13  C   UNL     1       1.052  16.360  18.073  1.00  0.00    -0.000 C 
BRANCH  13  14
ATOM     14  C   UNL     1      -0.100  16.882  18.945  1.00  0.00    -0.000 C 
BRANCH  14  15
ATOM     15  C   UNL     1      -1.482  16.543  18.360  1.00  0.00    -0.000 C 
BRANCH  15  16
ATOM     16  C   UNL     1      -2.062  15.240  18.933  1.00  0.00    -0.000 C 
BRANCH  16  17
ATOM     17  C   UNL     1      -2.125  15.246  20.467  1.00  0.00    -0.003 C 
ATOM     18  C   UNL     1      -1.982  13.833  21.027  1.00  0.00     0.004 C 
ENDBRANCH  16  17
ENDBRANCH  15  16
ENDBRANCH  14  15
ENDBRANCH  13  14
ENDBRANCH  12  13
ENDBRANCH  11  12
ENDBRANCH   1  11
TORSDOF 14
ENDMDL
MODEL 7
REMARK VINA RESULT:    -2.426      3.297      7.513
REMARK INTER + INTRA:          -5.439
REMARK INTER:                  -4.285
REMARK INTRA:                  -1.154
REMARK UNBOUND:                -1.028
REMARK SMILES CCCCCCCCCCCCCCCC(=O)[O-]
REMARK SMILES IDX 9 1 10 2 11 3 12 4 13 5 14 6 15 7 16 8 17 9 18 10 8 11 7 12
REMARK SMILES IDX 6 13 5 14 4 15 3 16 2 17 1 18
REMARK H PARENT
REMARK Flexibility Score: inf
ROOT
ATOM      1  C   UNL     1       2.803  11.490  18.164  1.00  0.00     0.000 C 
ENDROOT
BRANCH   1   2
ATOM      2  C   UNL     1       3.760  10.716  19.088  1.00  0.00     0.000 C 
BRANCH   2   3
ATOM      3  C   UNL     1       5.036  11.508  19.430  1.00  0.00     0.000 C 
BRANCH   3   4
ATOM      4  C   UNL     1       6.331  10.992  18.775  1.00  0.00     0.000 C 
BRANCH   4   5
ATOM      5  C   UNL     1       6.788  11.857  17.587  1.00  0.00     0.000 C 
BRANCH   5   6
ATOM      6  C   UNL     1       5.928  11.634  16.332  1.00  0.00     0.006 C 
BRANCH   6   7
ATOM      7  C   UNL     1       5.240  12.918  15.850  1.00  0.00     0.053 C 
BRANCH   7   8
ATOM      8  C   UNL     1       4.674  12.724  14.480  1.00  0.00     0.041 C 
ATOM      9  O   UNL     1       3.427  12.686  14.309  1.00  0.00    -0.550 OA
ATOM     10  O   UNL     1       5.521  12.634  13.383  1.00  0.00    -0.550 OA
ENDBRANCH   7   8
ENDBRANCH   6   7
ENDBRANCH   5   6
ENDBRANCH   4   5
ENDBRANCH   3   4
ENDBRANCH   2   3
ENDBRANCH   1   2
BRANCH   1  11
ATOM     11  C   UNL     1       2.739  12.993  18.489  1.00  0.00     0.000 C 
BRANCH  11  12
ATOM     12  C   UNL     1       2.161  13.881  17.371  1.00  0.00    -0.000 C 
BRANCH  12  13
ATOM     13  C   UNL     1       1.574  15.202  17.898  1.00  0.00    -0.000 C 
BRANCH  13  14
ATOM     14  C   UNL     1       0.123  15.051  18.379  1.00  0.00    -0.000 C 
BRANCH  14  15
ATOM     15  C   UNL     1      -0.674  16.362  18.268  1.00  0.00    -0.000 C 
BRANCH  15  16
ATOM     16  C   UNL     1      -1.624  16.578  19.457  1.00  0.00    -0.000 C 
BRANCH  16  17
ATOM     17  C   UNL     1      -1.830  18.063  19.785  1.00  0.00    -0.003 C 
ATOM     18  C   UNL     1      -0.624  18.893  19.352  1.00  0.00     0.004 C 
ENDBRANCH  16  17
ENDBRANCH  15  16
ENDBRANCH  14  15
ENDBRANCH  13  14
ENDBRANCH  12  13
ENDBRANCH  11  12
ENDBRANCH   1  11
TORSDOF 14
ENDMDL
MODEL 8
REMARK VINA RESULT:    -2.014      1.174      2.967
REMARK INTER + INTRA:          -4.689
REMARK INTER:                  -4.073
REMARK INTRA:                  -0.616
REMARK UNBOUND:                -1.028
REMARK SMILES CCCCCCCCCCCCCCCC(=O)[O-]
REMARK SMILES IDX 9 1 10 2 11 3 12 4 13 5 14 6 15 7 16 8 17 9 18 10 8 11 7 12
REMARK SMILES IDX 6 13 5 14 4 15 3 16 2 17 1 18
REMARK H PARENT
REMARK Flexibility Score: inf
ROOT
ATOM      1  C   UNL     1       2.378  13.609  17.528  1.00  0.00     0.000 C 
ENDROOT
BRANCH   1   2
ATOM      2  C   UNL     1       1.883  15.018  17.903  1.00  0.00     0.000 C 
BRANCH   2   3
ATOM      3  C   UNL     1       0.383  15.222  17.627  1.00  0.00     0.000 C 
BRANCH   3   4
ATOM      4  C   UNL     1      -0.507  15.367  18.876  1.00  0.00     0.000 C 
BRANCH   4   5
ATOM      5  C   UNL     1      -1.713  16.295  18.649  1.00  0.00     0.000 C 
BRANCH   5   6
ATOM      6  C   UNL     1      -2.095  17.083  19.913  1.00  0.00     0.006 C 
BRANCH   6   7
ATOM      7  C   UNL     1      -2.036  18.602  19.705  1.00  0.00     0.053 C 
BRANCH   7   8
ATOM      8  C   UNL     1      -1.151  18.936  18.547  1.00  0.00     0.041 C 
ATOM      9  O   UNL     1      -1.645  19.125  17.404  1.00  0.00    -0.550 OA
ATOM     10  O   UNL     1       0.217  19.087  18.738  1.00  0.00    -0.550 OA
ENDBRANCH   7   8
ENDBRANCH   6   7
ENDBRANCH   5   6
ENDBRANCH   4   5
ENDBRANCH   3   4
ENDBRANCH   2   3
ENDBRANCH   1   2
BRANCH   1  11
ATOM     11  C   UNL     1       2.742  12.755  18.755  1.00  0.00     0.000 C 
BRANCH  11  12
ATOM     12  C   UNL     1       2.893  11.246  18.482  1.00  0.00    -0.000 C 
BRANCH  12  13
ATOM     13  C   UNL     1       4.159  10.646  19.117  1.00  0.00    -0.000 C 
BRANCH  13  14
ATOM     14  C   UNL     1       5.343  11.624  19.108  1.00  0.00    -0.000 C 
BRANCH  14  15
ATOM     15  C   UNL     1       6.472  11.174  18.165  1.00  0.00    -0.000 C 
BRANCH  15  16
ATOM     16  C   UNL     1       6.529  12.005  16.873  1.00  0.00    -0.000 C 
BRANCH  16  17
ATOM     17  C   UNL     1       5.201  11.987  16.102  1.00  0.00    -0.003 C 
ATOM     18  C   UNL     1       5.317  12.762  14.793  1.00  0.00     0.004 C 
ENDBRANCH  16  17
ENDBRANCH  15  16
ENDBRANCH  14  15
ENDBRANCH  13  14
ENDBRANCH  12  13
ENDBRANCH  11  12
ENDBRANCH   1  11
TORSDOF 14
ENDMDL
MODEL 9
REMARK VINA RESULT:    -1.380      1.047      2.853
REMARK INTER + INTRA:          -3.537
REMARK INTER:                  -2.811
REMARK INTRA:                  -0.726
REMARK UNBOUND:                -1.028
REMARK SMILES CCCCCCCCCCCCCCCC(=O)[O-]
REMARK SMILES IDX 9 1 10 2 11 3 12 4 13 5 14 6 15 7 16 8 17 9 18 10 8 11 7 12
REMARK SMILES IDX 6 13 5 14 4 15 3 16 2 17 1 18
REMARK H PARENT
REMARK Flexibility Score: inf
ROOT
ATOM      1  C   UNL     1       3.052  12.178  17.779  1.00  0.00     0.000 C 
ENDROOT
BRANCH   1   2
ATOM      2  C   UNL     1       2.377  13.422  18.383  1.00  0.00     0.000 C 
BRANCH   2   3
ATOM      3  C   UNL     1       1.911  14.431  17.317  1.00  0.00     0.000 C 
BRANCH   3   4
ATOM      4  C   UNL     1       1.098  15.627  17.847  1.00  0.00     0.000 C 
BRANCH   4   5
ATOM      5  C   UNL     1      -0.154  15.200  18.633  1.00  0.00     0.000 C 
BRANCH   5   6
ATOM      6  C   UNL     1      -1.347  16.141  18.395  1.00  0.00     0.006 C 
BRANCH   6   7
ATOM      7  C   UNL     1      -1.358  17.338  19.354  1.00  0.00     0.053 C 
BRANCH   7   8
ATOM      8  C   UNL     1      -0.950  18.585  18.637  1.00  0.00     0.041 C 
ATOM      9  O   UNL     1       0.160  19.125  18.886  1.00  0.00    -0.550 OA
ATOM     10  O   UNL     1      -1.773  19.125  17.657  1.00  0.00    -0.550 OA
ENDBRANCH   7   8
ENDBRANCH   6   7
ENDBRANCH   5   6
ENDBRANCH   4   5
ENDBRANCH   3   4
ENDBRANCH   2   3
ENDBRANCH   1   2
BRANCH   1  11
ATOM     11  C   UNL     1       2.976  10.947  18.699  1.00  0.00     0.000 C 
BRANCH  11  12
ATOM     12  C   UNL     1       4.318  10.498  19.306  1.00  0.00    -0.000 C 
BRANCH  12  13
ATOM     13  C   UNL     1       5.380  11.611  19.301  1.00  0.00    -0.000 C 
BRANCH  13  14
ATOM     14  C   UNL     1       6.622  11.236  18.479  1.00  0.00    -0.000 C 
BRANCH  14  15
ATOM     15  C   UNL     1       6.722  12.032  17.166  1.00  0.00    -0.000 C 
BRANCH  15  16
ATOM     16  C   UNL     1       5.648  11.624  16.145  1.00  0.00    -0.000 C 
BRANCH  16  17
ATOM     17  C   UNL     1       5.492  12.648  15.011  1.00  0.00    -0.003 C 
ATOM     18  C   UNL     1       4.030  12.792  14.600  1.00  0.00     0.004 C 
ENDBRANCH  16  17
ENDBRANCH  15  16
ENDBRANCH  14  15
ENDBRANCH  13  14
ENDBRANCH  12  13
ENDBRANCH  11  12
ENDBRANCH   1  11
TORSDOF 14
ENDMDL
