MODEL 1
REMARK VINA RESULT:    -3.081      0.000      0.000
REMARK INTER + INTRA:          -4.011
REMARK INTER:                  -3.802
REMARK INTRA:                  -0.209
REMARK UNBOUND:                -0.209
REMARK SMILES C=CC[C@@H](C)C(=O)CC
REMARK SMILES IDX 4 1 5 2 6 3 7 4 8 5 9 6 3 7 2 8 1 9
REMARK H PARENT
REMARK Flexibility Score: inf
ROOT
ATOM      1  C   UNL     1       8.489 -32.686  15.277  1.00  0.00     0.057 C 
ATOM      2  C   UNL     1       6.968 -32.555  15.408  1.00  0.00     0.016 C 
ENDROOT
BRANCH   1   3
ATOM      3  C   UNL     1       8.930 -32.234  13.898  1.00  0.00     0.135 C 
ATOM      4  O   UNL     1       8.100 -32.097  13.011  1.00  0.00    -0.299 OA
BRANCH   3   5
ATOM      5  C   UNL     1      10.381 -31.966  13.593  1.00  0.00     0.072 C 
ATOM      6  C   UNL     1      11.095 -33.245  13.169  1.00  0.00     0.012 C 
ENDBRANCH   3   5
ENDBRANCH   1   3
BRANCH   1   7
ATOM      7  C   UNL     1       9.199 -31.876  16.383  1.00  0.00     0.038 C 
BRANCH   7   8
ATOM      8  C   UNL     1       8.743 -32.277  17.762  1.00  0.00    -0.034 C 
ATOM      9  C   UNL     1       8.900 -31.473  18.817  1.00  0.00     0.004 C 
ENDBRANCH   7   8
ENDBRANCH   1   7
TORSDOF 4
ENDMDL
MODEL 2
REMARK VINA RESULT:    -3.045      1.818      3.850
REMARK INTER + INTRA:          -3.966
REMARK INTER:                  -3.607
REMARK INTRA:                  -0.359
REMARK UNBOUND:                -0.209
REMARK SMILES C=CC[C@@H](C)C(=O)CC
REMARK SMILES IDX 4 1 5 2 6 3 7 4 8 5 9 6 3 7 2 8 1 9
REMARK H PARENT
REMARK Flexibility Score: inf
ROOT
ATOM      1  C   UNL     1       8.501 -32.325  15.588  1.00  0.00     0.057 C 
ATOM      2  C   UNL     1       7.104 -32.627  15.036  1.00  0.00     0.016 C 
ENDROOT
BRANCH   1   3
ATOM      3  C   UNL     1       8.611 -32.819  17.017  1.00  0.00     0.135 C 
ATOM      4  O   UNL     1       8.454 -34.007  17.262  1.00  0.00    -0.299 OA
BRANCH   3   5
ATOM      5  C   UNL     1       8.892 -31.867  18.151  1.00  0.00     0.072 C 
ATOM      6  C   UNL     1       9.897 -30.800  17.733  1.00  0.00     0.012 C 
ENDBRANCH   3   5
ENDBRANCH   1   3
BRANCH   1   7
ATOM      7  C   UNL     1       9.585 -32.961  14.692  1.00  0.00     0.038 C 
BRANCH   7   8
ATOM      8  C   UNL     1      10.334 -31.931  13.886  1.00  0.00    -0.034 C 
ATOM      9  C   UNL     1      11.546 -31.500  14.247  1.00  0.00     0.004 C 
ENDBRANCH   7   8
ENDBRANCH   1   7
TORSDOF 4
ENDMDL
MODEL 3
REMARK VINA RESULT:    -3.017      1.557      4.114
REMARK INTER + INTRA:          -3.932
REMARK INTER:                  -3.658
REMARK INTRA:                  -0.274
REMARK UNBOUND:                -0.209
REMARK SMILES C=CC[C@@H](C)C(=O)CC
REMARK SMILES IDX 4 1 5 2 6 3 7 4 8 5 9 6 3 7 2 8 1 9
REMARK H PARENT
REMARK Flexibility Score: inf
ROOT
ATOM      1  C   UNL     1       8.500 -32.349  15.283  1.00  0.00     0.057 C 
ATOM      2  C   UNL     1       7.001 -32.606  15.470  1.00  0.00     0.016 C 
ENDROOT
BRANCH   1   3
ATOM      3  C   UNL     1       9.111 -31.875  16.587  1.00  0.00     0.135 C 
ATOM      4  O   UNL     1      10.103 -31.161  16.567  1.00  0.00    -0.299 OA
BRANCH   3   5
ATOM      5  C   UNL     1       8.528 -32.285  17.915  1.00  0.00     0.072 C 
ATOM      6  C   UNL     1       9.037 -31.386  19.036  1.00  0.00     0.012 C 
ENDBRANCH   3   5
ENDBRANCH   1   3
BRANCH   1   7
ATOM      7  C   UNL     1       9.206 -33.621  14.765  1.00  0.00     0.038 C 
BRANCH   7   8
ATOM      8  C   UNL     1      10.120 -33.331  13.603  1.00  0.00    -0.034 C 
ATOM      9  C   UNL     1      10.010 -32.210  12.884  1.00  0.00     0.004 C 
ENDBRANCH   7   8
ENDBRANCH   1   7
TORSDOF 4
ENDMDL
MODEL 4
REMARK VINA RESULT:    -2.910      1.808      4.345
REMARK INTER + INTRA:          -3.800
REMARK INTER:                  -3.632
REMARK INTRA:                  -0.168
REMARK UNBOUND:                -0.209
REMARK SMILES C=CC[C@@H](C)C(=O)CC
REMARK SMILES IDX 4 1 5 2 6 3 7 4 8 5 9 6 3 7 2 8 1 9
REMARK H PARENT
REMARK Flexibility Score: inf
ROOT
ATOM      1  C   UNL     1       8.751 -32.718  15.289  1.00  0.00     0.057 C 
ATOM      2  C   UNL     1       9.604 -32.236  14.111  1.00  0.00     0.016 C 
ENDROOT
BRANCH   1   3
ATOM      3  C   UNL     1       9.144 -31.975  16.551  1.00  0.00     0.135 C 
ATOM      4  O   UNL     1      10.073 -31.181  16.523  1.00  0.00    -0.299 OA
BRANCH   3   5
ATOM      5  C   UNL     1       8.420 -32.211  17.851  1.00  0.00     0.072 C 
ATOM      6  C   UNL     1       9.070 -31.431  18.988  1.00  0.00     0.012 C 
ENDBRANCH   3   5
ENDBRANCH   1   3
BRANCH   1   7
ATOM      7  C   UNL     1       7.249 -32.537  14.979  1.00  0.00     0.038 C 
BRANCH   7   8
ATOM      8  C   UNL     1       6.978 -32.472  13.498  1.00  0.00    -0.034 C 
ATOM      9  C   UNL     1       6.233 -33.391  12.878  1.00  0.00     0.004 C 
ENDBRANCH   7   8
ENDBRANCH   1   7
TORSDOF 4
ENDMDL
MODEL 5
REMARK VINA RESULT:    -2.907      1.403      3.823
REMARK INTER + INTRA:          -3.796
REMARK INTER:                  -3.487
REMARK INTRA:                  -0.309
REMARK UNBOUND:                -0.209
REMARK SMILES C=CC[C@@H](C)C(=O)CC
REMARK SMILES IDX 4 1 5 2 6 3 7 4 8 5 9 6 3 7 2 8 1 9
REMARK H PARENT
REMARK Flexibility Score: inf
ROOT
ATOM      1  C   UNL     1       8.505 -32.568  14.088  1.00  0.00     0.057 C 
ATOM      2  C   UNL     1       7.297 -32.440  13.155  1.00  0.00     0.016 C 
ENDROOT
BRANCH   1   3
ATOM      3  C   UNL     1       8.097 -32.239  15.511  1.00  0.00     0.135 C 
ATOM      4  O   UNL     1       6.916 -32.269  15.825  1.00  0.00    -0.299 OA
BRANCH   3   5
ATOM      5  C   UNL     1       9.122 -31.854  16.546  1.00  0.00     0.072 C 
ATOM      6  C   UNL     1       8.617 -32.155  17.953  1.00  0.00     0.012 C 
ENDBRANCH   3   5
ENDBRANCH   1   3
BRANCH   1   7
ATOM      7  C   UNL     1       9.111 -33.985  13.995  1.00  0.00     0.038 C 
BRANCH   7   8
ATOM      8  C   UNL     1      10.519 -33.967  13.459  1.00  0.00    -0.034 C 
ATOM      9  C   UNL     1      11.221 -32.834  13.361  1.00  0.00     0.004 C 
ENDBRANCH   7   8
ENDBRANCH   1   7
TORSDOF 4
ENDMDL
MODEL 6
REMARK VINA RESULT:    -2.852      1.569      2.107
REMARK INTER + INTRA:          -3.728
REMARK INTER:                  -3.267
REMARK INTRA:                  -0.461
REMARK UNBOUND:                -0.209
REMARK SMILES C=CC[C@@H](C)C(=O)CC
REMARK SMILES IDX 4 1 5 2 6 3 7 4 8 5 9 6 3 7 2 8 1 9
REMARK H PARENT
REMARK Flexibility Score: inf
ROOT
ATOM      1  C   UNL     1       7.708 -33.491  13.735  1.00  0.00     0.057 C 
ATOM      2  C   UNL     1       7.075 -32.296  13.013  1.00  0.00     0.016 C 
ENDROOT
BRANCH   1   3
ATOM      3  C   UNL     1       9.218 -33.425  13.618  1.00  0.00     0.135 C 
ATOM      4  O   UNL     1       9.896 -34.376  13.980  1.00  0.00    -0.299 OA
BRANCH   3   5
ATOM      5  C   UNL     1       9.906 -32.197  13.080  1.00  0.00     0.072 C 
ATOM      6  C   UNL     1      11.051 -31.768  13.990  1.00  0.00     0.012 C 
ENDBRANCH   3   5
ENDBRANCH   1   3
BRANCH   1   7
ATOM      7  C   UNL     1       7.263 -33.527  15.212  1.00  0.00     0.038 C 
BRANCH   7   8
ATOM      8  C   UNL     1       7.708 -32.303  15.970  1.00  0.00    -0.034 C 
ATOM      9  C   UNL     1       8.409 -32.393  17.104  1.00  0.00     0.004 C 
ENDBRANCH   7   8
ENDBRANCH   1   7
TORSDOF 4
ENDMDL
MODEL 7
REMARK VINA RESULT:    -2.770      1.630      3.689
REMARK INTER + INTRA:          -3.627
REMARK INTER:                  -3.178
REMARK INTRA:                  -0.450
REMARK UNBOUND:                -0.209
REMARK SMILES C=CC[C@@H](C)C(=O)CC
REMARK SMILES IDX 4 1 5 2 6 3 7 4 8 5 9 6 3 7 2 8 1 9
REMARK H PARENT
REMARK Flexibility Score: inf
ROOT
ATOM      1  C   UNL     1       9.137 -32.533  15.012  1.00  0.00     0.057 C 
ATOM      2  C   UNL     1       9.505 -31.733  16.266  1.00  0.00     0.016 C 
ENDROOT
BRANCH   1   3
ATOM      3  C   UNL     1       7.645 -32.438  14.757  1.00  0.00     0.135 C 
ATOM      4  O   UNL     1       6.878 -32.285  15.697  1.00  0.00    -0.299 OA
BRANCH   3   5
ATOM      5  C   UNL     1       7.084 -32.547  13.363  1.00  0.00     0.072 C 
ATOM      6  C   UNL     1       6.930 -34.006  12.949  1.00  0.00     0.012 C 
ENDBRANCH   3   5
ENDBRANCH   1   3
BRANCH   1   7
ATOM      7  C   UNL     1       9.944 -32.032  13.795  1.00  0.00     0.038 C 
BRANCH   7   8
ATOM      8  C   UNL     1      10.935 -33.058  13.309  1.00  0.00    -0.034 C 
ATOM      9  C   UNL     1      10.682 -34.368  13.376  1.00  0.00     0.004 C 
ENDBRANCH   7   8
ENDBRANCH   1   7
TORSDOF 4
ENDMDL
MODEL 8
REMARK VINA RESULT:    -2.676      1.724      2.472
REMARK INTER + INTRA:          -3.511
REMARK INTER:                  -3.260
REMARK INTRA:                  -0.251
REMARK UNBOUND:                -0.209
REMARK SMILES C=CC[C@@H](C)C(=O)CC
REMARK SMILES IDX 4 1 5 2 6 3 7 4 8 5 9 6 3 7 2 8 1 9
REMARK H PARENT
REMARK Flexibility Score: inf
ROOT
ATOM      1  C   UNL     1       8.363 -32.202  15.719  1.00  0.00     0.057 C 
ATOM      2  C   UNL     1       9.613 -32.251  14.834  1.00  0.00     0.016 C 
ENDROOT
BRANCH   1   3
ATOM      3  C   UNL     1       7.144 -32.613  14.917  1.00  0.00     0.135 C 
ATOM      4  O   UNL     1       6.123 -32.952  15.497  1.00  0.00    -0.299 OA
BRANCH   3   5
ATOM      5  C   UNL     1       7.173 -32.631  13.410  1.00  0.00     0.072 C 
ATOM      6  C   UNL     1       6.904 -34.033  12.875  1.00  0.00     0.012 C 
ENDBRANCH   3   5
ENDBRANCH   1   3
BRANCH   1   7
ATOM      7  C   UNL     1       8.545 -33.101  16.960  1.00  0.00     0.038 C 
BRANCH   7   8
ATOM      8  C   UNL     1       8.497 -32.314  18.245  1.00  0.00    -0.034 C 
ATOM      9  C   UNL     1       9.258 -31.234  18.437  1.00  0.00     0.004 C 
ENDBRANCH   7   8
ENDBRANCH   1   7
TORSDOF 4
ENDMDL
MODEL 9
REMARK VINA RESULT:    -2.440     15.648     16.927
REMARK INTER + INTRA:          -3.220
REMARK INTER:                  -3.051
REMARK INTRA:                  -0.168
REMARK UNBOUND:                -0.209
REMARK SMILES C=CC[C@@H](C)C(=O)CC
REMARK SMILES IDX 4 1 5 2 6 3 7 4 8 5 9 6 3 7 2 8 1 9
REMARK H PARENT
REMARK Flexibility Score: inf
ROOT
ATOM      1  C   UNL     1      16.921 -35.816  30.500  1.00  0.00     0.057 C 
ATOM      2  C   UNL     1      16.184 -37.125  30.800  1.00  0.00     0.016 C 
ENDROOT
BRANCH   1   3
ATOM      3  C   UNL     1      17.475 -35.845  29.089  1.00  0.00     0.135 C 
ATOM      4  O   UNL     1      18.225 -34.955  28.714  1.00  0.00    -0.299 OA
BRANCH   3   5
ATOM      5  C   UNL     1      17.102 -36.944  28.128  1.00  0.00     0.072 C 
ATOM      6  C   UNL     1      17.893 -36.827  26.830  1.00  0.00     0.012 C 
ENDBRANCH   3   5
ENDBRANCH   1   3
BRANCH   1   7
ATOM      7  C   UNL     1      15.983 -34.608  30.707  1.00  0.00     0.038 C 
BRANCH   7   8
ATOM      8  C   UNL     1      15.183 -34.720  31.980  1.00  0.00    -0.034 C 
ATOM      9  C   UNL     1      14.168 -33.894  32.248  1.00  0.00     0.004 C 
ENDBRANCH   7   8
ENDBRANCH   1   7
TORSDOF 4
ENDMDL
