MODEL 1
REMARK VINA RESULT:    -3.158      0.000      0.000
REMARK INTER + INTRA:          -4.042
REMARK INTER:                  -3.897
REMARK INTRA:                  -0.145
REMARK UNBOUND:                -0.145
REMARK SMILES CCCCC=CC(C)=O
REMARK SMILES IDX 4 1 3 2 2 3 1 4 5 5 6 6 7 7 9 8 8 9
REMARK H PARENT
REMARK Flexibility Score: inf
ROOT
ATOM      1  C   UNL     1      11.050 -32.104  13.648  1.00  0.00     0.027 C 
ENDROOT
BRANCH   1   2
ATOM      2  C   UNL     1      12.021 -31.166  14.380  1.00  0.00     0.004 C 
BRANCH   2   3
ATOM      3  C   UNL     1      13.491 -31.457  14.038  1.00  0.00    -0.003 C 
ATOM      4  C   UNL     1      14.274 -30.195  13.674  1.00  0.00     0.004 C 
ENDBRANCH   2   3
ENDBRANCH   1   2
BRANCH   1   5
ATOM      5  C   UNL     1       9.814 -32.348  14.467  1.00  0.00    -0.023 C 
ATOM      6  C   UNL     1       9.702 -31.882  15.717  1.00  0.00     0.042 C 
BRANCH   6   7
ATOM      7  C   UNL     1       8.504 -32.086  16.555  1.00  0.00     0.152 C 
ATOM      8  O   UNL     1       7.386 -32.218  15.988  1.00  0.00    -0.295 OA
ATOM      9  C   UNL     1       8.568 -32.140  18.052  1.00  0.00     0.093 C 
ENDBRANCH   6   7
ENDBRANCH   1   5
TORSDOF 4
ENDMDL
MODEL 2
REMARK VINA RESULT:    -3.122     21.349     22.299
REMARK INTER + INTRA:          -3.998
REMARK INTER:                  -3.826
REMARK INTRA:                  -0.172
REMARK UNBOUND:                -0.145
REMARK SMILES CCCCC=CC(C)=O
REMARK SMILES IDX 4 1 3 2 2 3 1 4 5 5 6 6 7 7 9 8 8 9
REMARK H PARENT
REMARK Flexibility Score: inf
ROOT
ATOM      1  C   UNL     1      23.355 -20.923  32.036  1.00  0.00     0.027 C 
ENDROOT
BRANCH   1   2
ATOM      2  C   UNL     1      24.196 -20.667  30.776  1.00  0.00     0.004 C 
BRANCH   2   3
ATOM      3  C   UNL     1      24.700 -21.967  30.131  1.00  0.00    -0.003 C 
ATOM      4  C   UNL     1      25.023 -21.803  28.646  1.00  0.00     0.004 C 
ENDBRANCH   2   3
ENDBRANCH   1   2
BRANCH   1   5
ATOM      5  C   UNL     1      22.334 -21.998  31.795  1.00  0.00    -0.023 C 
ATOM      6  C   UNL     1      21.324 -22.206  32.649  1.00  0.00     0.042 C 
BRANCH   6   7
ATOM      7  C   UNL     1      20.292 -23.242  32.449  1.00  0.00     0.152 C 
ATOM      8  O   UNL     1      20.582 -24.441  32.703  1.00  0.00    -0.295 OA
ATOM      9  C   UNL     1      18.913 -22.919  31.953  1.00  0.00     0.093 C 
ENDBRANCH   6   7
ENDBRANCH   1   5
TORSDOF 4
ENDMDL
MODEL 3
REMARK VINA RESULT:    -3.031      2.727      3.750
REMARK INTER + INTRA:          -3.885
REMARK INTER:                  -3.606
REMARK INTRA:                  -0.279
REMARK UNBOUND:                -0.145
REMARK SMILES CCCCC=CC(C)=O
REMARK SMILES IDX 4 1 3 2 2 3 1 4 5 5 6 6 7 7 9 8 8 9
REMARK H PARENT
REMARK Flexibility Score: inf
ROOT
ATOM      1  C   UNL     1       6.763 -33.089  14.709  1.00  0.00     0.027 C 
ENDROOT
BRANCH   1   2
ATOM      2  C   UNL     1       7.194 -32.516  13.351  1.00  0.00     0.004 C 
BRANCH   2   3
ATOM      3  C   UNL     1       8.543 -33.079  12.876  1.00  0.00    -0.003 C 
ATOM      4  C   UNL     1       9.687 -32.075  13.023  1.00  0.00     0.004 C 
ENDBRANCH   2   3
ENDBRANCH   1   2
BRANCH   1   5
ATOM      5  C   UNL     1       7.291 -32.254  15.841  1.00  0.00    -0.023 C 
ATOM      6  C   UNL     1       8.305 -32.678  16.606  1.00  0.00     0.042 C 
BRANCH   6   7
ATOM      7  C   UNL     1       8.866 -31.888  17.720  1.00  0.00     0.152 C 
ATOM      8  O   UNL     1       8.418 -32.080  18.882  1.00  0.00    -0.295 OA
ATOM      9  C   UNL     1       9.946 -30.867  17.519  1.00  0.00     0.093 C 
ENDBRANCH   6   7
ENDBRANCH   1   5
TORSDOF 4
ENDMDL
MODEL 4
REMARK VINA RESULT:    -3.020      2.943      4.515
REMARK INTER + INTRA:          -3.872
REMARK INTER:                  -3.645
REMARK INTRA:                  -0.227
REMARK UNBOUND:                -0.145
REMARK SMILES CCCCC=CC(C)=O
REMARK SMILES IDX 4 1 3 2 2 3 1 4 5 5 6 6 7 7 9 8 8 9
REMARK H PARENT
REMARK Flexibility Score: inf
ROOT
ATOM      1  C   UNL     1       8.752 -33.049  14.044  1.00  0.00     0.027 C 
ENDROOT
BRANCH   1   2
ATOM      2  C   UNL     1       7.637 -32.242  13.361  1.00  0.00     0.004 C 
BRANCH   2   3
ATOM      3  C   UNL     1       6.289 -32.979  13.368  1.00  0.00    -0.003 C 
ATOM      4  C   UNL     1       5.875 -33.441  14.765  1.00  0.00     0.004 C 
ENDBRANCH   2   3
ENDBRANCH   1   2
BRANCH   1   5
ATOM      5  C   UNL     1       9.414 -32.246  15.128  1.00  0.00    -0.023 C 
ATOM      6  C   UNL     1       8.875 -32.147  16.350  1.00  0.00     0.042 C 
BRANCH   6   7
ATOM      7  C   UNL     1       9.494 -31.381  17.450  1.00  0.00     0.152 C 
ATOM      8  O   UNL     1      10.479 -30.640  17.190  1.00  0.00    -0.295 OA
ATOM      9  C   UNL     1       8.994 -31.453  18.862  1.00  0.00     0.093 C 
ENDBRANCH   6   7
ENDBRANCH   1   5
TORSDOF 4
ENDMDL
MODEL 5
REMARK VINA RESULT:    -2.900      1.982      2.669
REMARK INTER + INTRA:          -3.724
REMARK INTER:                  -3.546
REMARK INTRA:                  -0.177
REMARK UNBOUND:                -0.145
REMARK SMILES CCCCC=CC(C)=O
REMARK SMILES IDX 4 1 3 2 2 3 1 4 5 5 6 6 7 7 9 8 8 9
REMARK H PARENT
REMARK Flexibility Score: inf
ROOT
ATOM      1  C   UNL     1      10.280 -32.216  13.008  1.00  0.00     0.027 C 
ENDROOT
BRANCH   1   2
ATOM      2  C   UNL     1      11.326 -33.292  13.336  1.00  0.00     0.004 C 
BRANCH   2   3
ATOM      3  C   UNL     1      10.864 -34.703  12.939  1.00  0.00    -0.003 C 
ATOM      4  C   UNL     1      11.901 -35.778  13.266  1.00  0.00     0.004 C 
ENDBRANCH   2   3
ENDBRANCH   1   2
BRANCH   1   5
ATOM      5  C   UNL     1       9.143 -32.252  13.989  1.00  0.00    -0.023 C 
ATOM      6  C   UNL     1       9.358 -32.205  15.309  1.00  0.00     0.042 C 
BRANCH   6   7
ATOM      7  C   UNL     1       8.273 -32.224  16.310  1.00  0.00     0.152 C 
ATOM      8  O   UNL     1       7.080 -32.262  15.906  1.00  0.00    -0.295 OA
ATOM      9  C   UNL     1       8.538 -32.200  17.786  1.00  0.00     0.093 C 
ENDBRANCH   6   7
ENDBRANCH   1   5
TORSDOF 4
ENDMDL
MODEL 6
REMARK VINA RESULT:    -2.870     14.065     15.935
REMARK INTER + INTRA:          -3.687
REMARK INTER:                  -3.516
REMARK INTRA:                  -0.171
REMARK UNBOUND:                -0.145
REMARK SMILES CCCCC=CC(C)=O
REMARK SMILES IDX 4 1 3 2 2 3 1 4 5 5 6 6 7 7 9 8 8 9
REMARK H PARENT
REMARK Flexibility Score: inf
ROOT
ATOM      1  C   UNL     1      19.412 -17.133  15.854  1.00  0.00     0.027 C 
ENDROOT
BRANCH   1   2
ATOM      2  C   UNL     1      19.237 -17.245  17.377  1.00  0.00     0.004 C 
BRANCH   2   3
ATOM      3  C   UNL     1      17.802 -16.935  17.829  1.00  0.00    -0.003 C 
ATOM      4  C   UNL     1      17.639 -16.980  19.349  1.00  0.00     0.004 C 
ENDBRANCH   2   3
ENDBRANCH   1   2
BRANCH   1   5
ATOM      5  C   UNL     1      19.382 -18.488  15.206  1.00  0.00    -0.023 C 
ATOM      6  C   UNL     1      19.444 -19.611  15.932  1.00  0.00     0.042 C 
BRANCH   6   7
ATOM      7  C   UNL     1      19.406 -20.963  15.341  1.00  0.00     0.152 C 
ATOM      8  O   UNL     1      18.373 -21.318  14.712  1.00  0.00    -0.295 OA
ATOM      9  C   UNL     1      20.548 -21.928  15.462  1.00  0.00     0.093 C 
ENDBRANCH   6   7
ENDBRANCH   1   5
TORSDOF 4
ENDMDL
MODEL 7
REMARK VINA RESULT:    -2.852      2.537      5.333
REMARK INTER + INTRA:          -3.664
REMARK INTER:                  -3.384
REMARK INTRA:                  -0.280
REMARK UNBOUND:                -0.145
REMARK SMILES CCCCC=CC(C)=O
REMARK SMILES IDX 4 1 3 2 2 3 1 4 5 5 6 6 7 7 9 8 8 9
REMARK H PARENT
REMARK Flexibility Score: inf
ROOT
ATOM      1  C   UNL     1       7.789 -32.380  16.067  1.00  0.00     0.027 C 
ENDROOT
BRANCH   1   2
ATOM      2  C   UNL     1       6.879 -32.666  14.863  1.00  0.00     0.004 C 
BRANCH   2   3
ATOM      3  C   UNL     1       6.104 -33.985  15.010  1.00  0.00    -0.003 C 
ATOM      4  C   UNL     1       7.013 -35.170  15.334  1.00  0.00     0.004 C 
ENDBRANCH   2   3
ENDBRANCH   1   2
BRANCH   1   5
ATOM      5  C   UNL     1       9.221 -32.229  15.639  1.00  0.00    -0.023 C 
ATOM      6  C   UNL     1       9.598 -32.448  14.374  1.00  0.00     0.042 C 
BRANCH   6   7
ATOM      7  C   UNL     1      10.990 -32.300  13.904  1.00  0.00     0.152 C 
ATOM      8  O   UNL     1      11.441 -33.139  13.079  1.00  0.00    -0.295 OA
ATOM      9  C   UNL     1      11.884 -31.191  14.373  1.00  0.00     0.093 C 
ENDBRANCH   6   7
ENDBRANCH   1   5
TORSDOF 4
ENDMDL
MODEL 8
REMARK VINA RESULT:    -2.851     15.692     17.244
REMARK INTER + INTRA:          -3.663
REMARK INTER:                  -3.426
REMARK INTRA:                  -0.236
REMARK UNBOUND:                -0.145
REMARK SMILES CCCCC=CC(C)=O
REMARK SMILES IDX 4 1 3 2 2 3 1 4 5 5 6 6 7 7 9 8 8 9
REMARK H PARENT
REMARK Flexibility Score: inf
ROOT
ATOM      1  C   UNL     1      16.478 -37.123  31.170  1.00  0.00     0.027 C 
ENDROOT
BRANCH   1   2
ATOM      2  C   UNL     1      17.027 -37.118  29.735  1.00  0.00     0.004 C 
BRANCH   2   3
ATOM      3  C   UNL     1      17.508 -35.727  29.294  1.00  0.00    -0.003 C 
ATOM      4  C   UNL     1      17.701 -35.621  27.781  1.00  0.00     0.004 C 
ENDBRANCH   2   3
ENDBRANCH   1   2
BRANCH   1   5
ATOM      5  C   UNL     1      16.117 -35.734  31.616  1.00  0.00    -0.023 C 
ATOM      6  C   UNL     1      14.860 -35.410  31.941  1.00  0.00     0.042 C 
BRANCH   6   7
ATOM      7  C   UNL     1      14.460 -34.064  32.396  1.00  0.00     0.152 C 
ATOM      8  O   UNL     1      13.439 -33.951  33.125  1.00  0.00    -0.295 OA
ATOM      9  C   UNL     1      15.223 -32.828  32.020  1.00  0.00     0.093 C 
ENDBRANCH   6   7
ENDBRANCH   1   5
TORSDOF 4
ENDMDL
MODEL 9
REMARK VINA RESULT:    -2.681      3.041      5.020
REMARK INTER + INTRA:          -3.454
REMARK INTER:                  -3.273
REMARK INTRA:                  -0.180
REMARK UNBOUND:                -0.145
REMARK SMILES CCCCC=CC(C)=O
REMARK SMILES IDX 4 1 3 2 2 3 1 4 5 5 6 6 7 7 9 8 8 9
REMARK H PARENT
REMARK Flexibility Score: inf
ROOT
ATOM      1  C   UNL     1       7.786 -32.638  14.718  1.00  0.00     0.027 C 
ENDROOT
BRANCH   1   2
ATOM      2  C   UNL     1       7.561 -32.285  16.196  1.00  0.00     0.004 C 
BRANCH   2   3
ATOM      3  C   UNL     1       8.873 -32.238  16.996  1.00  0.00    -0.003 C 
ATOM      4  C   UNL     1       8.654 -31.895  18.469  1.00  0.00     0.004 C 
ENDBRANCH   2   3
ENDBRANCH   1   2
BRANCH   1   5
ATOM      5  C   UNL     1       9.248 -32.807  14.418  1.00  0.00    -0.023 C 
ATOM      6  C   UNL     1       9.696 -33.830  13.680  1.00  0.00     0.042 C 
BRANCH   6   7
ATOM      7  C   UNL     1      11.120 -34.030  13.350  1.00  0.00     0.152 C 
ATOM      8  O   UNL     1      11.860 -33.018  13.228  1.00  0.00    -0.295 OA
ATOM      9  C   UNL     1      11.718 -35.392  13.153  1.00  0.00     0.093 C 
ENDBRANCH   6   7
ENDBRANCH   1   5
TORSDOF 4
ENDMDL
