MODEL 1
REMARK VINA RESULT:    -4.775      0.000      0.000
REMARK INTER + INTRA:          -5.147
REMARK INTER:                  -5.194
REMARK INTRA:                   0.047
REMARK UNBOUND:                 0.047
REMARK SMILES CC1(C)CC[C@]2(C(=O)[O-])CC[C@@]3(C)C(=CC[C@@H]4[C@]5(C)CC[C@@H](O)C(C)(C)[C@H]5CC[C@@]43C)[C@@H]2C1
REMARK SMILES IDX 6 1 5 2 10 3 32 4 4 5 11 6 14 7 33 8 2 9 12 10 15 11 1 12
REMARK SMILES IDX 3 13 13 14 30 15 16 16 17 17 29 18 31 19 18 20 28 21 27 22
REMARK SMILES IDX 20 23 19 24 24 25 21 26 22 27 25 28 26 29 7 30 8 31 9 32
REMARK SMILES IDX 23 33
REMARK H PARENT 23 34
REMARK Flexibility Score: inf
ROOT
ATOM      1  C   UNL     1       8.754  16.252 -19.057  1.00  0.00     0.017 C 
ATOM      2  C   UNL     1       9.438  16.976 -20.274  1.00  0.00     0.014 C 
ATOM      3  C   UNL     1       9.818  16.070 -17.908  1.00  0.00     0.014 C 
ATOM      4  C   UNL     1       8.125  14.887 -19.549  1.00  0.00     0.028 C 
ATOM      5  C   UNL     1       8.708  16.703 -21.597  1.00  0.00     0.007 C 
ATOM      6  C   UNL     1      10.197  14.613 -17.601  1.00  0.00     0.013 C 
ATOM      7  C   UNL     1       7.964  13.840 -18.447  1.00  0.00    -0.064 C 
ATOM      8  C   UNL     1       8.882  14.282 -20.759  1.00  0.00     0.015 C 
ATOM      9  C   UNL     1       8.833  15.205 -22.019  1.00  0.00    -0.035 C 
ATOM     10  C   UNL     1       8.970  13.684 -17.310  1.00  0.00    -0.006 C 
ATOM     11  C   UNL     1       6.918  12.996 -18.510  1.00  0.00    -0.027 C 
ATOM     12  C   UNL     1      10.128  15.001 -22.851  1.00  0.00     0.011 C 
ATOM     13  C   UNL     1       7.620  14.825 -22.906  1.00  0.00     0.011 C 
ATOM     14  C   UNL     1       8.266  14.289 -16.049  1.00  0.00     0.017 C 
ATOM     15  C   UNL     1       9.391  12.103 -17.114  1.00  0.00    -0.020 C 
ATOM     16  C   UNL     1       6.875  11.762 -17.659  1.00  0.00     0.032 C 
ATOM     17  C   UNL     1       8.272  11.092 -17.680  1.00  0.00     0.006 C 
ATOM     18  C   UNL     1       9.692  11.813 -15.607  1.00  0.00     0.008 C 
ATOM     19  C   UNL     1      10.710  11.813 -17.897  1.00  0.00     0.012 C 
ATOM     20  C   UNL     1       8.321   9.567 -17.153  1.00  0.00    -0.025 C 
ATOM     21  C   UNL     1       9.884  10.339 -15.254  1.00  0.00     0.005 C 
ATOM     22  C   UNL     1       8.607   9.539 -15.605  1.00  0.00     0.003 C 
ATOM     23  C   UNL     1       6.953   8.846 -17.374  1.00  0.00     0.010 C 
ATOM     24  C   UNL     1       9.406   8.788 -17.987  1.00  0.00     0.012 C 
ATOM     25  C   UNL     1       8.509   8.120 -14.896  1.00  0.00    -0.006 C 
ATOM     26  C   UNL     1       6.876   7.433 -16.771  1.00  0.00     0.033 C 
ATOM     27  C   UNL     1       7.146   7.453 -15.267  1.00  0.00     0.120 C 
ATOM     28  C   UNL     1       9.695   7.176 -15.241  1.00  0.00     0.014 C 
ATOM     29  C   UNL     1       8.519   8.306 -13.350  1.00  0.00     0.014 C 
ENDROOT
BRANCH   1  30
ATOM     30  C   UNL     1       7.654  17.168 -18.520  1.00  0.00     0.048 C 
ATOM     31  O   UNL     1       7.489  18.319 -19.014  1.00  0.00    -0.550 OA
ATOM     32  O   UNL     1       6.879  16.805 -17.425  1.00  0.00    -0.550 OA
ENDBRANCH   1  30
BRANCH  27  33
ATOM     33  O   UNL     1       7.088   6.126 -14.793  1.00  0.00    -0.393 OA
ATOM     34  H   UNL     1       6.960   5.530 -15.578  1.00  0.00     0.210 HD
ENDBRANCH  27  33
TORSDOF 2
ENDMDL
MODEL 2
REMARK VINA RESULT:    -4.010      1.495      8.278
REMARK INTER + INTRA:          -4.315
REMARK INTER:                  -4.407
REMARK INTRA:                   0.092
REMARK UNBOUND:                 0.047
REMARK SMILES CC1(C)CC[C@]2(C(=O)[O-])CC[C@@]3(C)C(=CC[C@@H]4[C@]5(C)CC[C@@H](O)C(C)(C)[C@H]5CC[C@@]43C)[C@@H]2C1
REMARK SMILES IDX 6 1 5 2 10 3 32 4 4 5 11 6 14 7 33 8 2 9 12 10 15 11 1 12
REMARK SMILES IDX 3 13 13 14 30 15 16 16 17 17 29 18 31 19 18 20 28 21 27 22
REMARK SMILES IDX 20 23 19 24 24 25 21 26 22 27 25 28 26 29 7 30 8 31 9 32
REMARK SMILES IDX 23 33
REMARK H PARENT 23 34
REMARK Flexibility Score: inf
ROOT
ATOM      1  C   UNL     1       8.605   7.746 -17.103  1.00  0.00     0.017 C 
ATOM      2  C   UNL     1       9.254   6.733 -16.091  1.00  0.00     0.014 C 
ATOM      3  C   UNL     1       9.685   8.160 -18.174  1.00  0.00     0.014 C 
ATOM      4  C   UNL     1       8.013   8.975 -16.302  1.00  0.00     0.028 C 
ATOM      5  C   UNL     1       8.520   6.708 -14.743  1.00  0.00     0.007 C 
ATOM      6  C   UNL     1      10.111   9.636 -18.125  1.00  0.00     0.013 C 
ATOM      7  C   UNL     1       7.895  10.258 -17.125  1.00  0.00    -0.064 C 
ATOM      8  C   UNL     1       8.777   9.252 -14.982  1.00  0.00     0.015 C 
ATOM      9  C   UNL     1       8.687   8.058 -13.977  1.00  0.00    -0.035 C 
ATOM     10  C   UNL     1       8.916  10.647 -18.190  1.00  0.00    -0.006 C 
ATOM     11  C   UNL     1       6.875  11.097 -16.866  1.00  0.00    -0.027 C 
ATOM     12  C   UNL     1       9.979   8.017 -13.117  1.00  0.00     0.011 C 
ATOM     13  C   UNL     1       7.477   8.256 -13.027  1.00  0.00     0.011 C 
ATOM     14  C   UNL     1       8.206  10.381 -19.561  1.00  0.00     0.017 C 
ATOM     15  C   UNL     1       9.388  12.215 -18.005  1.00  0.00    -0.020 C 
ATOM     16  C   UNL     1       6.879  12.498 -17.400  1.00  0.00     0.032 C 
ATOM     17  C   UNL     1       8.296  13.098 -17.218  1.00  0.00     0.006 C 
ATOM     18  C   UNL     1       9.712  12.844 -19.399  1.00  0.00     0.008 C 
ATOM     19  C   UNL     1      10.708  12.268 -17.173  1.00  0.00     0.012 C 
ATOM     20  C   UNL     1       8.397  14.702 -17.368  1.00  0.00    -0.025 C 
ATOM     21  C   UNL     1       9.954  14.352 -19.393  1.00  0.00     0.005 C 
ATOM     22  C   UNL     1       8.699  15.088 -18.864  1.00  0.00     0.003 C 
ATOM     23  C   UNL     1       7.050  15.395 -16.985  1.00  0.00     0.010 C 
ATOM     24  C   UNL     1       9.497  15.226 -16.370  1.00  0.00     0.012 C 
ATOM     25  C   UNL     1       8.652  16.636 -19.216  1.00  0.00    -0.006 C 
ATOM     26  C   UNL     1       7.022  16.912 -17.236  1.00  0.00     0.033 C 
ATOM     27  C   UNL     1       7.306  17.241 -18.701  1.00  0.00     0.120 C 
ATOM     28  C   UNL     1       9.862  17.433 -18.655  1.00  0.00     0.014 C 
ATOM     29  C   UNL     1       8.671  16.822 -20.763  1.00  0.00     0.014 C 
ENDROOT
BRANCH   1  30
ATOM     30  C   UNL     1       7.482   7.020 -17.844  1.00  0.00     0.048 C 
ATOM     31  O   UNL     1       7.144   5.852 -17.498  1.00  0.00    -0.550 OA
ATOM     32  O   UNL     1       6.875   7.575 -18.965  1.00  0.00    -0.550 OA
ENDBRANCH   1  30
BRANCH  27  33
ATOM     33  O   UNL     1       7.294  18.643 -18.847  1.00  0.00    -0.393 OA
ATOM     34  H   UNL     1       6.888  18.852 -19.730  1.00  0.00     0.210 HD
ENDBRANCH  27  33
TORSDOF 2
ENDMDL
