MODEL 1
REMARK VINA RESULT:    34.351      0.000      0.000
REMARK INTER + INTRA:          47.114
REMARK INTER:                  45.396
REMARK INTRA:                   1.719
REMARK UNBOUND:                 1.719
REMARK SMILES CC(C)=CCC[C@@H](C(=O)[O-])[C@@H]1CC[C@@]2(C)C3=C(CC[C@@]12C)[C@]1(C)CC[C@H](O)C(C)(C)[C@H]1CC3
REMARK SMILES IDX 6 1 7 2 8 3 9 4 10 5 11 6 12 7 20 8 13 9 14 10 19 11 21 12
REMARK SMILES IDX 15 13 16 14 18 15 17 16 33 17 22 18 32 19 31 20 24 21 23 22
REMARK SMILES IDX 28 23 25 24 26 25 29 26 30 27 27 28 5 30 4 31 2 32 1 33 3 34
REMARK H PARENT 27 29
REMARK Flexibility Score: inf
ROOT
ATOM      1  C   UNL     1      29.124  26.968  23.236  1.00  0.00     0.014 C 
ENDROOT
BRANCH   1   2
ATOM      2  C   UNL     1      28.836  28.204  24.129  1.00  0.00     0.039 C 
BRANCH   2   3
ATOM      3  C   UNL     1      28.794  29.447  23.270  1.00  0.00     0.045 C 
ATOM      4  O   UNL     1      28.950  29.371  22.022  1.00  0.00    -0.550 OA
ATOM      5  O   UNL     1      28.520  30.685  23.842  1.00  0.00    -0.550 OA
ENDBRANCH   2   3
BRANCH   2   6
ATOM      6  C   UNL     1      27.494  28.049  24.936  1.00  0.00     0.004 C 
ATOM      7  C   UNL     1      26.851  29.402  25.233  1.00  0.00     0.006 C 
ATOM      8  C   UNL     1      27.480  27.285  26.324  1.00  0.00    -0.020 C 
ATOM      9  C   UNL     1      25.799  29.101  26.253  1.00  0.00     0.012 C 
ATOM     10  C   UNL     1      26.444  28.104  27.245  1.00  0.00    -0.006 C 
ATOM     11  C   UNL     1      26.973  25.826  26.083  1.00  0.00     0.012 C 
ATOM     12  C   UNL     1      28.899  27.198  26.963  1.00  0.00     0.012 C 
ATOM     13  C   UNL     1      27.112  28.922  28.392  1.00  0.00     0.017 C 
ATOM     14  C   UNL     1      25.309  27.261  27.899  1.00  0.00    -0.064 C 
ATOM     15  C   UNL     1      26.537  25.181  27.385  1.00  0.00     0.032 C 
ATOM     16  C   UNL     1      25.306  25.892  27.889  1.00  0.00    -0.064 C 
ATOM     17  C   UNL     1      24.144  28.000  28.565  1.00  0.00     0.032 C 
ATOM     18  C   UNL     1      24.000  25.126  28.252  1.00  0.00    -0.008 C 
ATOM     19  C   UNL     1      22.754  27.384  28.316  1.00  0.00     0.009 C 
ATOM     20  C   UNL     1      22.825  25.990  27.647  1.00  0.00     0.007 C 
ATOM     21  C   UNL     1      23.965  23.699  27.624  1.00  0.00     0.014 C 
ATOM     22  C   UNL     1      23.990  24.965  29.800  1.00  0.00     0.016 C 
ATOM     23  C   UNL     1      21.408  25.320  27.434  1.00  0.00    -0.006 C 
ATOM     24  C   UNL     1      22.573  23.056  27.680  1.00  0.00     0.033 C 
ATOM     25  C   UNL     1      21.576  23.883  26.855  1.00  0.00     0.120 C 
ATOM     26  C   UNL     1      20.584  26.149  26.410  1.00  0.00     0.014 C 
ATOM     27  C   UNL     1      20.555  25.262  28.729  1.00  0.00     0.014 C 
BRANCH  25  28
ATOM     28  O   UNL     1      22.028  23.909  25.524  1.00  0.00    -0.393 OA
ATOM     29  H   UNL     1      22.034  22.967  25.202  1.00  0.00     0.210 HD
ENDBRANCH  25  28
ENDBRANCH   2   6
ENDBRANCH   1   2
BRANCH   1  30
ATOM     30  C   UNL     1      29.101  25.622  23.990  1.00  0.00     0.028 C 
BRANCH  30  31
ATOM     31  C   UNL     1      27.842  24.845  23.679  1.00  0.00    -0.028 C 
ATOM     32  C   UNL     1      27.532  23.631  24.188  1.00  0.00    -0.080 C 
ATOM     33  C   UNL     1      28.435  22.901  25.152  1.00  0.00     0.039 C 
ATOM     34  C   UNL     1      26.281  22.946  23.689  1.00  0.00     0.039 C 
ENDBRANCH  30  31
ENDBRANCH   1  30
TORSDOF 6
ENDMDL
