MODEL 1
REMARK VINA RESULT:    -5.241      0.000      0.000
REMARK INTER + INTRA:          -5.726
REMARK INTER:                  -5.547
REMARK INTRA:                  -0.179
REMARK UNBOUND:                -0.179
REMARK SMILES C=C(C)[C@H]1CC=C(C)C(=O)C1
REMARK SMILES IDX 8 1 7 2 6 3 5 4 4 5 11 6 9 7 10 8 2 9 1 10 3 11
REMARK H PARENT
REMARK Flexibility Score: inf
ROOT
ATOM      1  C   UNL     1      17.618 -21.066 -22.156  1.00  0.00     0.048 C 
ATOM      2  C   UNL     1      18.429 -21.682 -23.263  1.00  0.00    -0.012 C 
ATOM      3  C   UNL     1      18.500 -21.072 -24.457  1.00  0.00    -0.019 C 
ATOM      4  C   UNL     1      19.326 -21.637 -25.578  1.00  0.00     0.036 C 
ATOM      5  C   UNL     1      19.257 -23.176 -25.613  1.00  0.00     0.025 C 
ATOM      6  C   UNL     1      19.662 -23.759 -24.237  1.00  0.00     0.089 C 
ATOM      7  C   UNL     1      19.033 -23.023 -23.080  1.00  0.00     0.158 C 
ATOM      8  O   UNL     1      19.034 -23.564 -21.942  1.00  0.00    -0.295 OA
ENDROOT
BRANCH   5   9
ATOM      9  C   UNL     1      17.907 -23.659 -26.155  1.00  0.00    -0.077 C 
ATOM     10  C   UNL     1      17.312 -22.947 -27.127  1.00  0.00     0.008 C 
ATOM     11  C   UNL     1      17.191 -24.891 -25.651  1.00  0.00     0.039 C 
ENDBRANCH   5   9
TORSDOF 1
ENDMDL
MODEL 2
REMARK VINA RESULT:    -4.926      2.561      4.064
REMARK INTER + INTRA:          -5.393
REMARK INTER:                  -5.164
REMARK INTRA:                  -0.228
REMARK UNBOUND:                -0.179
REMARK SMILES C=C(C)[C@H]1CC=C(C)C(=O)C1
REMARK SMILES IDX 8 1 7 2 6 3 5 4 4 5 11 6 9 7 10 8 2 9 1 10 3 11
REMARK H PARENT
REMARK Flexibility Score: inf
ROOT
ATOM      1  C   UNL     1      14.388 -22.013 -24.932  1.00  0.00     0.048 C 
ATOM      2  C   UNL     1      15.495 -22.820 -25.552  1.00  0.00    -0.012 C 
ATOM      3  C   UNL     1      15.993 -23.882 -24.900  1.00  0.00    -0.019 C 
ATOM      4  C   UNL     1      17.076 -24.734 -25.500  1.00  0.00     0.036 C 
ATOM      5  C   UNL     1      18.098 -23.884 -26.280  1.00  0.00     0.025 C 
ATOM      6  C   UNL     1      17.375 -23.023 -27.344  1.00  0.00     0.089 C 
ATOM      7  C   UNL     1      16.125 -22.364 -26.814  1.00  0.00     0.158 C 
ATOM      8  O   UNL     1      15.614 -21.415 -27.467  1.00  0.00    -0.295 OA
ENDROOT
BRANCH   5   9
ATOM      9  C   UNL     1      19.018 -23.111 -25.329  1.00  0.00    -0.077 C 
ATOM     10  C   UNL     1      19.625 -23.780 -24.335  1.00  0.00     0.008 C 
ATOM     11  C   UNL     1      19.277 -21.625 -25.433  1.00  0.00     0.039 C 
ENDBRANCH   5   9
TORSDOF 1
ENDMDL
MODEL 3
REMARK VINA RESULT:    -4.847      1.363      1.981
REMARK INTER + INTRA:          -5.310
REMARK INTER:                  -5.083
REMARK INTRA:                  -0.226
REMARK UNBOUND:                -0.179
REMARK SMILES C=C(C)[C@H]1CC=C(C)C(=O)C1
REMARK SMILES IDX 8 1 7 2 6 3 5 4 4 5 11 6 9 7 10 8 2 9 1 10 3 11
REMARK H PARENT
REMARK Flexibility Score: inf
ROOT
ATOM      1  C   UNL     1      18.223 -23.614 -21.871  1.00  0.00     0.048 C 
ATOM      2  C   UNL     1      18.696 -22.820 -23.058  1.00  0.00    -0.012 C 
ATOM      3  C   UNL     1      18.411 -21.511 -23.141  1.00  0.00    -0.019 C 
ATOM      4  C   UNL     1      18.894 -20.675 -24.293  1.00  0.00     0.036 C 
ATOM      5  C   UNL     1      18.846 -21.458 -25.620  1.00  0.00     0.025 C 
ATOM      6  C   UNL     1      19.638 -22.781 -25.486  1.00  0.00     0.089 C 
ATOM      7  C   UNL     1      19.352 -23.508 -24.195  1.00  0.00     0.158 C 
ATOM      8  O   UNL     1      19.688 -24.718 -24.091  1.00  0.00    -0.295 OA
ENDROOT
BRANCH   5   9
ATOM      9  C   UNL     1      17.407 -21.605 -26.125  1.00  0.00    -0.077 C 
ATOM     10  C   UNL     1      16.640 -20.506 -26.212  1.00  0.00     0.008 C 
ATOM     11  C   UNL     1      16.788 -22.925 -26.526  1.00  0.00     0.039 C 
ENDBRANCH   5   9
TORSDOF 1
ENDMDL
MODEL 4
REMARK VINA RESULT:    -4.832      2.041      3.670
REMARK INTER + INTRA:          -5.293
REMARK INTER:                  -5.086
REMARK INTRA:                  -0.207
REMARK UNBOUND:                -0.179
REMARK SMILES C=C(C)[C@H]1CC=C(C)C(=O)C1
REMARK SMILES IDX 8 1 7 2 6 3 5 4 4 5 11 6 9 7 10 8 2 9 1 10 3 11
REMARK H PARENT
REMARK Flexibility Score: inf
ROOT
ATOM      1  C   UNL     1      15.089 -22.355 -25.896  1.00  0.00     0.048 C 
ATOM      2  C   UNL     1      16.580 -22.524 -26.011  1.00  0.00    -0.012 C 
ATOM      3  C   UNL     1      17.104 -23.754 -26.132  1.00  0.00    -0.019 C 
ATOM      4  C   UNL     1      18.585 -23.963 -26.283  1.00  0.00     0.036 C 
ATOM      5  C   UNL     1      19.388 -22.973 -25.417  1.00  0.00     0.025 C 
ATOM      6  C   UNL     1      18.967 -21.519 -25.741  1.00  0.00     0.089 C 
ATOM      7  C   UNL     1      17.472 -21.352 -25.851  1.00  0.00     0.158 C 
ATOM      8  O   UNL     1      16.986 -20.190 -25.812  1.00  0.00    -0.295 OA
ENDROOT
BRANCH   5   9
ATOM      9  C   UNL     1      19.326 -23.356 -23.934  1.00  0.00    -0.077 C 
ATOM     10  C   UNL     1      19.785 -24.563 -23.562  1.00  0.00     0.008 C 
ATOM     11  C   UNL     1      18.765 -22.457 -22.857  1.00  0.00     0.039 C 
ENDBRANCH   5   9
TORSDOF 1
ENDMDL
MODEL 5
REMARK VINA RESULT:    -4.712      2.031      3.330
REMARK INTER + INTRA:          -5.166
REMARK INTER:                  -4.997
REMARK INTRA:                  -0.170
REMARK UNBOUND:                -0.179
REMARK SMILES C=C(C)[C@H]1CC=C(C)C(=O)C1
REMARK SMILES IDX 8 1 7 2 6 3 5 4 4 5 11 6 9 7 10 8 2 9 1 10 3 11
REMARK H PARENT
REMARK Flexibility Score: inf
ROOT
ATOM      1  C   UNL     1      16.815 -25.287 -22.867  1.00  0.00     0.048 C 
ATOM      2  C   UNL     1      17.652 -24.699 -23.970  1.00  0.00    -0.012 C 
ATOM      3  C   UNL     1      18.792 -24.057 -23.673  1.00  0.00    -0.019 C 
ATOM      4  C   UNL     1      19.673 -23.485 -24.748  1.00  0.00     0.036 C 
ATOM      5  C   UNL     1      18.844 -22.882 -25.898  1.00  0.00     0.025 C 
ATOM      6  C   UNL     1      17.856 -23.937 -26.453  1.00  0.00     0.089 C 
ATOM      7  C   UNL     1      17.150 -24.707 -25.365  1.00  0.00     0.158 C 
ATOM      8  O   UNL     1      16.120 -25.372 -25.661  1.00  0.00    -0.295 OA
ENDROOT
BRANCH   5   9
ATOM      9  C   UNL     1      18.212 -21.548 -25.487  1.00  0.00    -0.077 C 
ATOM     10  C   UNL     1      18.889 -20.747 -24.647  1.00  0.00     0.008 C 
ATOM     11  C   UNL     1      16.857 -21.077 -25.964  1.00  0.00     0.039 C 
ENDBRANCH   5   9
TORSDOF 1
ENDMDL
MODEL 6
REMARK VINA RESULT:    -4.712      1.926      3.914
REMARK INTER + INTRA:          -5.166
REMARK INTER:                  -4.947
REMARK INTRA:                  -0.219
REMARK UNBOUND:                -0.179
REMARK SMILES C=C(C)[C@H]1CC=C(C)C(=O)C1
REMARK SMILES IDX 8 1 7 2 6 3 5 4 4 5 11 6 9 7 10 8 2 9 1 10 3 11
REMARK H PARENT
REMARK Flexibility Score: inf
ROOT
ATOM      1  C   UNL     1      18.179 -25.297 -25.447  1.00  0.00     0.048 C 
ATOM      2  C   UNL     1      18.269 -23.803 -25.600  1.00  0.00    -0.012 C 
ATOM      3  C   UNL     1      19.410 -23.168 -25.290  1.00  0.00    -0.019 C 
ATOM      4  C   UNL     1      19.551 -21.681 -25.462  1.00  0.00     0.036 C 
ATOM      5  C   UNL     1      18.250 -20.943 -25.093  1.00  0.00     0.025 C 
ATOM      6  C   UNL     1      17.064 -21.515 -25.907  1.00  0.00     0.089 C 
ATOM      7  C   UNL     1      17.062 -23.023 -25.959  1.00  0.00     0.158 C 
ATOM      8  O   UNL     1      16.012 -23.617 -26.323  1.00  0.00    -0.295 OA
ENDROOT
BRANCH   5   9
ATOM      9  C   UNL     1      18.043 -20.906 -23.575  1.00  0.00    -0.077 C 
ATOM     10  C   UNL     1      19.013 -20.384 -22.806  1.00  0.00     0.008 C 
ATOM     11  C   UNL     1      16.810 -21.437 -22.881  1.00  0.00     0.039 C 
ENDBRANCH   5   9
TORSDOF 1
ENDMDL
MODEL 7
REMARK VINA RESULT:    -4.657      1.586      2.343
REMARK INTER + INTRA:          -5.109
REMARK INTER:                  -4.886
REMARK INTRA:                  -0.222
REMARK UNBOUND:                -0.179
REMARK SMILES C=C(C)[C@H]1CC=C(C)C(=O)C1
REMARK SMILES IDX 8 1 7 2 6 3 5 4 4 5 11 6 9 7 10 8 2 9 1 10 3 11
REMARK H PARENT
REMARK Flexibility Score: inf
ROOT
ATOM      1  C   UNL     1      16.301 -21.078 -22.520  1.00  0.00     0.048 C 
ATOM      2  C   UNL     1      17.025 -21.450 -23.785  1.00  0.00    -0.012 C 
ATOM      3  C   UNL     1      16.422 -22.229 -24.696  1.00  0.00    -0.019 C 
ATOM      4  C   UNL     1      17.099 -22.596 -25.986  1.00  0.00     0.036 C 
ATOM      5  C   UNL     1      18.606 -22.844 -25.785  1.00  0.00     0.025 C 
ATOM      6  C   UNL     1      19.262 -21.615 -25.109  1.00  0.00     0.089 C 
ATOM      7  C   UNL     1      18.448 -21.073 -23.960  1.00  0.00     0.158 C 
ATOM      8  O   UNL     1      18.995 -20.281 -23.147  1.00  0.00    -0.295 OA
ENDROOT
BRANCH   5   9
ATOM      9  C   UNL     1      18.860 -24.185 -25.089  1.00  0.00    -0.077 C 
ATOM     10  C   UNL     1      18.175 -25.265 -25.503  1.00  0.00     0.008 C 
ATOM     11  C   UNL     1      19.833 -24.369 -23.947  1.00  0.00     0.039 C 
ENDBRANCH   5   9
TORSDOF 1
ENDMDL
MODEL 8
REMARK VINA RESULT:    -4.618      1.875      4.098
REMARK INTER + INTRA:          -5.067
REMARK INTER:                  -4.897
REMARK INTRA:                  -0.170
REMARK UNBOUND:                -0.179
REMARK SMILES C=C(C)[C@H]1CC=C(C)C(=O)C1
REMARK SMILES IDX 8 1 7 2 6 3 5 4 4 5 11 6 9 7 10 8 2 9 1 10 3 11
REMARK H PARENT
REMARK Flexibility Score: inf
ROOT
ATOM      1  C   UNL     1      15.879 -25.221 -25.607  1.00  0.00     0.048 C 
ATOM      2  C   UNL     1      17.277 -24.725 -25.358  1.00  0.00    -0.012 C 
ATOM      3  C   UNL     1      17.993 -25.229 -24.340  1.00  0.00    -0.019 C 
ATOM      4  C   UNL     1      19.405 -24.785 -24.079  1.00  0.00     0.036 C 
ATOM      5  C   UNL     1      19.582 -23.277 -24.341  1.00  0.00     0.025 C 
ATOM      6  C   UNL     1      19.116 -22.928 -25.776  1.00  0.00     0.089 C 
ATOM      7  C   UNL     1      17.811 -23.588 -26.145  1.00  0.00     0.158 C 
ATOM      8  O   UNL     1      17.176 -23.162 -27.147  1.00  0.00    -0.295 OA
ENDROOT
BRANCH   5   9
ATOM      9  C   UNL     1      18.946 -22.441 -23.226  1.00  0.00    -0.077 C 
ATOM     10  C   UNL     1      18.973 -22.916 -21.969  1.00  0.00     0.008 C 
ATOM     11  C   UNL     1      18.272 -21.108 -23.455  1.00  0.00     0.039 C 
ENDBRANCH   5   9
TORSDOF 1
ENDMDL
MODEL 9
REMARK VINA RESULT:    -4.562      2.095      2.922
REMARK INTER + INTRA:          -5.008
REMARK INTER:                  -4.780
REMARK INTRA:                  -0.228
REMARK UNBOUND:                -0.179
REMARK SMILES C=C(C)[C@H]1CC=C(C)C(=O)C1
REMARK SMILES IDX 8 1 7 2 6 3 5 4 4 5 11 6 9 7 10 8 2 9 1 10 3 11
REMARK H PARENT
REMARK Flexibility Score: inf
ROOT
ATOM      1  C   UNL     1      18.946 -20.589 -24.139  1.00  0.00     0.048 C 
ATOM      2  C   UNL     1      18.180 -21.146 -25.308  1.00  0.00    -0.012 C 
ATOM      3  C   UNL     1      17.108 -20.489 -25.777  1.00  0.00    -0.019 C 
ATOM      4  C   UNL     1      16.336 -20.994 -26.964  1.00  0.00     0.036 C 
ATOM      5  C   UNL     1      16.232 -22.532 -26.959  1.00  0.00     0.025 C 
ATOM      6  C   UNL     1      17.644 -23.161 -26.869  1.00  0.00     0.089 C 
ATOM      7  C   UNL     1      18.524 -22.482 -25.849  1.00  0.00     0.158 C 
ATOM      8  O   UNL     1      19.572 -23.068 -25.464  1.00  0.00    -0.295 OA
ENDROOT
BRANCH   5   9
ATOM      9  C   UNL     1      15.232 -23.017 -25.904  1.00  0.00    -0.077 C 
ATOM     10  C   UNL     1      14.020 -22.439 -25.852  1.00  0.00     0.008 C 
ATOM     11  C   UNL     1      15.531 -24.107 -24.900  1.00  0.00     0.039 C 
ENDBRANCH   5   9
TORSDOF 1
ENDMDL
