MODEL 1
REMARK VINA RESULT:    -1.989      0.000      0.000
REMARK INTER + INTRA:          -3.518
REMARK INTER:                  -3.384
REMARK INTRA:                  -0.134
REMARK UNBOUND:                -0.134
REMARK SMILES CCCCCCCCCCCCCC(=O)[O-]
REMARK SMILES IDX 8 1 9 2 10 3 11 4 12 5 13 6 14 7 15 8 16 9 7 10 6 11 5 12
REMARK SMILES IDX 4 13 3 14 2 15 1 16
REMARK H PARENT
REMARK Flexibility Score: inf
ROOT
ATOM      1  C   UNL     1      -5.170  39.624  22.134  1.00  0.00     0.000 C 
ENDROOT
BRANCH   1   2
ATOM      2  C   UNL     1      -5.456  38.559  23.206  1.00  0.00     0.000 C 
BRANCH   2   3
ATOM      3  C   UNL     1      -4.465  38.615  24.380  1.00  0.00     0.000 C 
BRANCH   3   4
ATOM      4  C   UNL     1      -4.781  37.606  25.505  1.00  0.00     0.000 C 
BRANCH   4   5
ATOM      5  C   UNL     1      -6.125  36.891  25.281  1.00  0.00     0.006 C 
BRANCH   5   6
ATOM      6  C   UNL     1      -6.020  35.374  25.484  1.00  0.00     0.053 C 
BRANCH   6   7
ATOM      7  C   UNL     1      -5.738  34.660  24.198  1.00  0.00     0.041 C 
ATOM      8  O   UNL     1      -6.125  33.473  24.034  1.00  0.00    -0.550 OA
ATOM      9  O   UNL     1      -5.077  35.317  23.169  1.00  0.00    -0.550 OA
ENDBRANCH   6   7
ENDBRANCH   5   6
ENDBRANCH   4   5
ENDBRANCH   3   4
ENDBRANCH   2   3
ENDBRANCH   1   2
BRANCH   1  10
ATOM     10  C   UNL     1      -5.998  39.425  20.852  1.00  0.00     0.000 C 
BRANCH  10  11
ATOM     11  C   UNL     1      -5.754  38.096  20.112  1.00  0.00    -0.000 C 
BRANCH  11  12
ATOM     12  C   UNL     1      -4.360  37.507  20.378  1.00  0.00    -0.000 C 
BRANCH  12  13
ATOM     13  C   UNL     1      -4.401  35.974  20.382  1.00  0.00    -0.000 C 
BRANCH  13  14
ATOM     14  C   UNL     1      -5.833  35.461  20.173  1.00  0.00    -0.000 C 
BRANCH  14  15
ATOM     15  C   UNL     1      -5.890  34.223  19.265  1.00  0.00    -0.003 C 
ATOM     16  C   UNL     1      -4.987  34.349  18.038  1.00  0.00     0.004 C 
ENDBRANCH  14  15
ENDBRANCH  13  14
ENDBRANCH  12  13
ENDBRANCH  11  12
ENDBRANCH  10  11
ENDBRANCH   1  10
TORSDOF 12
ENDMDL
MODEL 2
REMARK VINA RESULT:    -1.446      2.137      5.116
REMARK INTER + INTRA:          -2.594
REMARK INTER:                  -1.307
REMARK INTRA:                  -1.287
REMARK UNBOUND:                -0.134
REMARK SMILES CCCCCCCCCCCCCC(=O)[O-]
REMARK SMILES IDX 8 1 9 2 10 3 11 4 12 5 13 6 14 7 15 8 16 9 7 10 6 11 5 12
REMARK SMILES IDX 4 13 3 14 2 15 1 16
REMARK H PARENT
REMARK Flexibility Score: inf
ROOT
ATOM      1  C   UNL     1      -5.834  35.424  24.724  1.00  0.00     0.000 C 
ENDROOT
BRANCH   1   2
ATOM      2  C   UNL     1      -6.124  35.568  23.221  1.00  0.00     0.000 C 
BRANCH   2   3
ATOM      3  C   UNL     1      -5.271  34.622  22.358  1.00  0.00     0.000 C 
BRANCH   3   4
ATOM      4  C   UNL     1      -3.936  35.242  21.894  1.00  0.00     0.000 C 
BRANCH   4   5
ATOM      5  C   UNL     1      -3.917  35.511  20.380  1.00  0.00     0.006 C 
BRANCH   5   6
ATOM      6  C   UNL     1      -5.325  35.507  19.770  1.00  0.00     0.053 C 
BRANCH   6   7
ATOM      7  C   UNL     1      -5.405  34.623  18.563  1.00  0.00     0.041 C 
ATOM      8  O   UNL     1      -5.977  33.504  18.633  1.00  0.00    -0.550 OA
ATOM      9  O   UNL     1      -4.875  35.051  17.353  1.00  0.00    -0.550 OA
ENDBRANCH   6   7
ENDBRANCH   5   6
ENDBRANCH   4   5
ENDBRANCH   3   4
ENDBRANCH   2   3
ENDBRANCH   1   2
BRANCH   1  10
ATOM     10  C   UNL     1      -5.931  36.758  25.486  1.00  0.00     0.000 C 
BRANCH  10  11
ATOM     11  C   UNL     1      -4.583  37.429  25.810  1.00  0.00    -0.000 C 
BRANCH  11  12
ATOM     12  C   UNL     1      -4.245  38.589  24.861  1.00  0.00    -0.000 C 
BRANCH  12  13
ATOM     13  C   UNL     1      -5.492  39.062  24.103  1.00  0.00    -0.000 C 
BRANCH  13  14
ATOM     14  C   UNL     1      -5.123  39.575  22.704  1.00  0.00    -0.000 C 
BRANCH  14  15
ATOM     15  C   UNL     1      -5.379  38.531  21.606  1.00  0.00    -0.003 C 
ATOM     16  C   UNL     1      -5.790  39.161  20.275  1.00  0.00     0.004 C 
ENDBRANCH  14  15
ENDBRANCH  13  14
ENDBRANCH  12  13
ENDBRANCH  11  12
ENDBRANCH  10  11
ENDBRANCH   1  10
TORSDOF 12
ENDMDL
MODEL 3
REMARK VINA RESULT:    -1.118      2.100      4.628
REMARK INTER + INTRA:          -2.037
REMARK INTER:                  -1.381
REMARK INTRA:                  -0.656
REMARK UNBOUND:                -0.134
REMARK SMILES CCCCCCCCCCCCCC(=O)[O-]
REMARK SMILES IDX 8 1 9 2 10 3 11 4 12 5 13 6 14 7 15 8 16 9 7 10 6 11 5 12
REMARK SMILES IDX 4 13 3 14 2 15 1 16
REMARK H PARENT
REMARK Flexibility Score: inf
ROOT
ATOM      1  C   UNL     1      -4.498  39.669  22.321  1.00  0.00     0.000 C 
ENDROOT
BRANCH   1   2
ATOM      2  C   UNL     1      -5.820  39.325  21.614  1.00  0.00     0.000 C 
BRANCH   2   3
ATOM      3  C   UNL     1      -6.039  37.810  21.466  1.00  0.00     0.000 C 
BRANCH   3   4
ATOM      4  C   UNL     1      -4.739  37.020  21.197  1.00  0.00     0.000 C 
BRANCH   4   5
ATOM      5  C   UNL     1      -4.628  36.573  19.729  1.00  0.00     0.006 C 
BRANCH   5   6
ATOM      6  C   UNL     1      -5.845  35.757  19.274  1.00  0.00     0.053 C 
BRANCH   6   7
ATOM      7  C   UNL     1      -5.438  34.507  18.556  1.00  0.00     0.041 C 
ATOM      8  O   UNL     1      -5.895  33.391  18.917  1.00  0.00    -0.550 OA
ATOM      9  O   UNL     1      -4.579  34.579  17.468  1.00  0.00    -0.550 OA
ENDBRANCH   6   7
ENDBRANCH   5   6
ENDBRANCH   4   5
ENDBRANCH   3   4
ENDBRANCH   2   3
ENDBRANCH   1   2
BRANCH   1  10
ATOM     10  C   UNL     1      -4.564  39.476  23.846  1.00  0.00     0.000 C 
BRANCH  10  11
ATOM     11  C   UNL     1      -5.501  38.351  24.326  1.00  0.00    -0.000 C 
BRANCH  11  12
ATOM     12  C   UNL     1      -4.978  37.625  25.574  1.00  0.00    -0.000 C 
BRANCH  12  13
ATOM     13  C   UNL     1      -5.407  36.153  25.576  1.00  0.00    -0.000 C 
BRANCH  13  14
ATOM     14  C   UNL     1      -6.115  35.784  24.264  1.00  0.00    -0.000 C 
BRANCH  14  15
ATOM     15  C   UNL     1      -6.125  34.270  24.004  1.00  0.00    -0.003 C 
ATOM     16  C   UNL     1      -6.015  33.925  22.518  1.00  0.00     0.004 C 
ENDBRANCH  14  15
ENDBRANCH  13  14
ENDBRANCH  12  13
ENDBRANCH  11  12
ENDBRANCH  10  11
ENDBRANCH   1  10
TORSDOF 12
ENDMDL
MODEL 4
REMARK VINA RESULT:    -0.897      2.096      3.813
REMARK INTER + INTRA:          -1.659
REMARK INTER:                  -1.930
REMARK INTRA:                   0.270
REMARK UNBOUND:                -0.134
REMARK SMILES CCCCCCCCCCCCCC(=O)[O-]
REMARK SMILES IDX 8 1 9 2 10 3 11 4 12 5 13 6 14 7 15 8 16 9 7 10 6 11 5 12
REMARK SMILES IDX 4 13 3 14 2 15 1 16
REMARK H PARENT
REMARK Flexibility Score: inf
ROOT
ATOM      1  C   UNL     1      -5.583  35.018  24.312  1.00  0.00     0.000 C 
ENDROOT
BRANCH   1   2
ATOM      2  C   UNL     1      -5.951  35.960  25.471  1.00  0.00     0.000 C 
BRANCH   2   3
ATOM      3  C   UNL     1      -4.835  36.966  25.797  1.00  0.00     0.000 C 
BRANCH   3   4
ATOM      4  C   UNL     1      -5.136  38.402  25.315  1.00  0.00     0.000 C 
BRANCH   4   5
ATOM      5  C   UNL     1      -4.967  38.548  23.792  1.00  0.00     0.006 C 
BRANCH   5   6
ATOM      6  C   UNL     1      -5.473  39.902  23.277  1.00  0.00     0.053 C 
BRANCH   6   7
ATOM      7  C   UNL     1      -5.821  39.846  21.821  1.00  0.00     0.041 C 
ATOM      8  O   UNL     1      -5.868  38.740  21.222  1.00  0.00    -0.550 OA
ATOM      9  O   UNL     1      -6.125  41.015  21.135  1.00  0.00    -0.550 OA
ENDBRANCH   6   7
ENDBRANCH   5   6
ENDBRANCH   4   5
ENDBRANCH   3   4
ENDBRANCH   2   3
ENDBRANCH   1   2
BRANCH   1  10
ATOM     10  C   UNL     1      -6.106  35.508  22.949  1.00  0.00     0.000 C 
BRANCH  10  11
ATOM     11  C   UNL     1      -5.950  34.509  21.788  1.00  0.00    -0.000 C 
BRANCH  11  12
ATOM     12  C   UNL     1      -4.739  34.810  20.894  1.00  0.00    -0.000 C 
BRANCH  12  13
ATOM     13  C   UNL     1      -4.854  36.201  20.259  1.00  0.00    -0.000 C 
BRANCH  13  14
ATOM     14  C   UNL     1      -4.916  36.103  18.727  1.00  0.00    -0.000 C 
BRANCH  14  15
ATOM     15  C   UNL     1      -4.784  34.659  18.222  1.00  0.00    -0.003 C 
ATOM     16  C   UNL     1      -6.061  33.843  18.423  1.00  0.00     0.004 C 
ENDBRANCH  14  15
ENDBRANCH  13  14
ENDBRANCH  12  13
ENDBRANCH  11  12
ENDBRANCH  10  11
ENDBRANCH   1  10
TORSDOF 12
ENDMDL
MODEL 5
REMARK VINA RESULT:    -0.566      2.264      5.682
REMARK INTER + INTRA:          -1.097
REMARK INTER:                  -0.387
REMARK INTRA:                  -0.710
REMARK UNBOUND:                -0.134
REMARK SMILES CCCCCCCCCCCCCC(=O)[O-]
REMARK SMILES IDX 8 1 9 2 10 3 11 4 12 5 13 6 14 7 15 8 16 9 7 10 6 11 5 12
REMARK SMILES IDX 4 13 3 14 2 15 1 16
REMARK H PARENT
REMARK Flexibility Score: inf
ROOT
ATOM      1  C   UNL     1      -3.993  35.016  21.357  1.00  0.00     0.000 C 
ENDROOT
BRANCH   1   2
ATOM      2  C   UNL     1      -4.071  35.696  19.980  1.00  0.00     0.000 C 
BRANCH   2   3
ATOM      3  C   UNL     1      -5.379  36.479  19.776  1.00  0.00     0.000 C 
BRANCH   3   4
ATOM      4  C   UNL     1      -5.161  37.970  19.440  1.00  0.00     0.000 C 
BRANCH   4   5
ATOM      5  C   UNL     1      -5.959  38.896  20.373  1.00  0.00     0.006 C 
BRANCH   5   6
ATOM      6  C   UNL     1      -5.897  38.442  21.838  1.00  0.00     0.053 C 
BRANCH   6   7
ATOM      7  C   UNL     1      -4.762  39.088  22.571  1.00  0.00     0.041 C 
ATOM      8  O   UNL     1      -3.592  39.025  22.111  1.00  0.00    -0.550 OA
ATOM      9  O   UNL     1      -5.003  39.788  23.746  1.00  0.00    -0.550 OA
ENDBRANCH   6   7
ENDBRANCH   5   6
ENDBRANCH   4   5
ENDBRANCH   3   4
ENDBRANCH   2   3
ENDBRANCH   1   2
BRANCH   1  10
ATOM     10  C   UNL     1      -5.288  35.165  22.175  1.00  0.00     0.000 C 
BRANCH  10  11
ATOM     11  C   UNL     1      -5.583  34.012  23.153  1.00  0.00    -0.000 C 
BRANCH  11  12
ATOM     12  C   UNL     1      -6.100  34.497  24.516  1.00  0.00    -0.000 C 
BRANCH  12  13
ATOM     13  C   UNL     1      -6.125  36.029  24.582  1.00  0.00    -0.000 C 
BRANCH  13  14
ATOM     14  C   UNL     1      -5.630  36.529  25.947  1.00  0.00    -0.000 C 
BRANCH  14  15
ATOM     15  C   UNL     1      -4.644  37.701  25.824  1.00  0.00    -0.003 C 
ATOM     16  C   UNL     1      -3.369  37.490  26.642  1.00  0.00     0.004 C 
ENDBRANCH  14  15
ENDBRANCH  13  14
ENDBRANCH  12  13
ENDBRANCH  11  12
ENDBRANCH  10  11
ENDBRANCH   1  10
TORSDOF 12
ENDMDL
MODEL 6
REMARK VINA RESULT:    -0.284      1.669      2.093
REMARK INTER + INTRA:          -0.617
REMARK INTER:                  -0.548
REMARK INTRA:                  -0.069
REMARK UNBOUND:                -0.134
REMARK SMILES CCCCCCCCCCCCCC(=O)[O-]
REMARK SMILES IDX 8 1 9 2 10 3 11 4 12 5 13 6 14 7 15 8 16 9 7 10 6 11 5 12
REMARK SMILES IDX 4 13 3 14 2 15 1 16
REMARK H PARENT
REMARK Flexibility Score: inf
ROOT
ATOM      1  C   UNL     1      -5.722  39.975  21.761  1.00  0.00     0.000 C 
ENDROOT
BRANCH   1   2
ATOM      2  C   UNL     1      -4.888  38.921  22.507  1.00  0.00     0.000 C 
BRANCH   2   3
ATOM      3  C   UNL     1      -5.718  38.109  23.516  1.00  0.00     0.000 C 
BRANCH   3   4
ATOM      4  C   UNL     1      -5.901  36.629  23.118  1.00  0.00     0.000 C 
BRANCH   4   5
ATOM      5  C   UNL     1      -5.502  35.671  24.254  1.00  0.00     0.006 C 
BRANCH   5   6
ATOM      6  C   UNL     1      -5.877  36.219  25.637  1.00  0.00     0.053 C 
BRANCH   6   7
ATOM      7  C   UNL     1      -4.784  37.066  26.213  1.00  0.00     0.041 C 
ATOM      8  O   UNL     1      -3.653  36.567  26.452  1.00  0.00    -0.550 OA
ATOM      9  O   UNL     1      -5.005  38.416  26.454  1.00  0.00    -0.550 OA
ENDBRANCH   6   7
ENDBRANCH   5   6
ENDBRANCH   4   5
ENDBRANCH   3   4
ENDBRANCH   2   3
ENDBRANCH   1   2
BRANCH   1  10
ATOM     10  C   UNL     1      -5.938  39.632  20.276  1.00  0.00     0.000 C 
BRANCH  10  11
ATOM     11  C   UNL     1      -6.052  38.129  19.959  1.00  0.00    -0.000 C 
BRANCH  11  12
ATOM     12  C   UNL     1      -4.723  37.507  19.508  1.00  0.00    -0.000 C 
BRANCH  12  13
ATOM     13  C   UNL     1      -4.598  36.058  19.996  1.00  0.00    -0.000 C 
BRANCH  13  14
ATOM     14  C   UNL     1      -5.967  35.364  20.016  1.00  0.00    -0.000 C 
BRANCH  14  15
ATOM     15  C   UNL     1      -6.054  34.202  19.014  1.00  0.00    -0.003 C 
ATOM     16  C   UNL     1      -4.912  34.212  17.997  1.00  0.00     0.004 C 
ENDBRANCH  14  15
ENDBRANCH  13  14
ENDBRANCH  12  13
ENDBRANCH  11  12
ENDBRANCH  10  11
ENDBRANCH   1  10
TORSDOF 12
ENDMDL
MODEL 7
REMARK VINA RESULT:    -0.111      2.345      3.983
REMARK INTER + INTRA:          -0.323
REMARK INTER:                   0.356
REMARK INTRA:                  -0.679
REMARK UNBOUND:                -0.134
REMARK SMILES CCCCCCCCCCCCCC(=O)[O-]
REMARK SMILES IDX 8 1 9 2 10 3 11 4 12 5 13 6 14 7 15 8 16 9 7 10 6 11 5 12
REMARK SMILES IDX 4 13 3 14 2 15 1 16
REMARK H PARENT
REMARK Flexibility Score: inf
ROOT
ATOM      1  C   UNL     1      -4.573  35.938  20.561  1.00  0.00     0.000 C 
ENDROOT
BRANCH   1   2
ATOM      2  C   UNL     1      -4.949  37.314  19.987  1.00  0.00     0.000 C 
BRANCH   2   3
ATOM      3  C   UNL     1      -5.720  38.188  20.991  1.00  0.00     0.000 C 
BRANCH   3   4
ATOM      4  C   UNL     1      -4.805  39.016  21.920  1.00  0.00     0.000 C 
BRANCH   4   5
ATOM      5  C   UNL     1      -4.928  38.580  23.391  1.00  0.00     0.006 C 
BRANCH   5   6
ATOM      6  C   UNL     1      -5.774  37.310  23.554  1.00  0.00     0.053 C 
BRANCH   6   7
ATOM      7  C   UNL     1      -5.483  36.612  24.847  1.00  0.00     0.041 C 
ATOM      8  O   UNL     1      -5.747  35.388  24.980  1.00  0.00    -0.550 OA
ATOM      9  O   UNL     1      -4.889  37.306  25.893  1.00  0.00    -0.550 OA
ENDBRANCH   6   7
ENDBRANCH   5   6
ENDBRANCH   4   5
ENDBRANCH   3   4
ENDBRANCH   2   3
ENDBRANCH   1   2
BRANCH   1  10
ATOM     10  C   UNL     1      -5.312  34.776  19.873  1.00  0.00     0.000 C 
BRANCH  10  11
ATOM     11  C   UNL     1      -5.633  34.994  18.382  1.00  0.00    -0.000 C 
BRANCH  11  12
ATOM     12  C   UNL     1      -4.415  34.787  17.469  1.00  0.00    -0.000 C 
BRANCH  12  13
ATOM     13  C   UNL     1      -4.308  35.910  16.430  1.00  0.00    -0.000 C 
BRANCH  13  14
ATOM     14  C   UNL     1      -3.541  35.437  15.186  1.00  0.00    -0.000 C 
BRANCH  14  15
ATOM     15  C   UNL     1      -3.210  36.589  14.225  1.00  0.00    -0.003 C 
ATOM     16  C   UNL     1      -4.201  37.749  14.328  1.00  0.00     0.004 C 
ENDBRANCH  14  15
ENDBRANCH  13  14
ENDBRANCH  12  13
ENDBRANCH  11  12
ENDBRANCH  10  11
ENDBRANCH   1  10
TORSDOF 12
ENDMDL
