MODEL 1
REMARK VINA RESULT:    -3.634      0.000      0.000
REMARK INTER + INTRA:          -4.543
REMARK INTER:                  -4.483
REMARK INTRA:                  -0.060
REMARK UNBOUND:                -0.060
REMARK SMILES CCCCCC=O
REMARK SMILES IDX 4 1 3 2 2 3 1 4 5 5 6 6 7 7
REMARK H PARENT
REMARK Flexibility Score: inf
ROOT
ATOM      1  C   UNL     1      25.765  56.987  -8.296  1.00  0.00     0.008 C 
ENDROOT
BRANCH   1   2
ATOM      2  C   UNL     1      24.521  56.098  -8.151  1.00  0.00     0.000 C 
BRANCH   2   3
ATOM      3  C   UNL     1      24.089  55.993  -6.684  1.00  0.00    -0.003 C 
ATOM      4  C   UNL     1      22.732  55.310  -6.555  1.00  0.00     0.004 C 
ENDBRANCH   2   3
ENDBRANCH   1   2
BRANCH   1   5
ATOM      5  C   UNL     1      25.437  58.485  -8.208  1.00  0.00     0.072 C 
BRANCH   5   6
ATOM      6  C   UNL     1      26.555  59.345  -8.723  1.00  0.00     0.224 C 
ATOM      7  O   UNL     1      27.202  59.007  -9.701  1.00  0.00    -0.303 OA
ENDBRANCH   5   6
ENDBRANCH   1   5
TORSDOF 4
ENDMDL
MODEL 2
REMARK VINA RESULT:    -3.541      2.890      4.692
REMARK INTER + INTRA:          -4.428
REMARK INTER:                  -4.375
REMARK INTRA:                  -0.054
REMARK UNBOUND:                -0.060
REMARK SMILES CCCCCC=O
REMARK SMILES IDX 4 1 3 2 2 3 1 4 5 5 6 6 7 7
REMARK H PARENT
REMARK Flexibility Score: inf
ROOT
ATOM      1  C   UNL     1      24.630  56.008  -7.992  1.00  0.00     0.008 C 
ENDROOT
BRANCH   1   2
ATOM      2  C   UNL     1      25.828  56.931  -8.255  1.00  0.00     0.000 C 
BRANCH   2   3
ATOM      3  C   UNL     1      25.388  58.398  -8.320  1.00  0.00    -0.003 C 
ATOM      4  C   UNL     1      26.534  59.299  -8.769  1.00  0.00     0.004 C 
ENDBRANCH   2   3
ENDBRANCH   1   2
BRANCH   1   5
ATOM      5  C   UNL     1      24.097  56.124  -6.556  1.00  0.00     0.072 C 
BRANCH   5   6
ATOM      6  C   UNL     1      22.834  55.337  -6.351  1.00  0.00     0.224 C 
ATOM      7  O   UNL     1      22.496  54.981  -5.234  1.00  0.00    -0.303 OA
ENDBRANCH   5   6
ENDBRANCH   1   5
TORSDOF 4
ENDMDL
MODEL 3
REMARK VINA RESULT:    -3.343      2.514      4.716
REMARK INTER + INTRA:          -4.184
REMARK INTER:                  -4.153
REMARK INTRA:                  -0.031
REMARK UNBOUND:                -0.060
REMARK SMILES CCCCCC=O
REMARK SMILES IDX 4 1 3 2 2 3 1 4 5 5 6 6 7 7
REMARK H PARENT
REMARK Flexibility Score: inf
ROOT
ATOM      1  C   UNL     1      25.093  57.663  -7.952  1.00  0.00     0.008 C 
ENDROOT
BRANCH   1   2
ATOM      2  C   UNL     1      26.241  58.102  -8.872  1.00  0.00     0.000 C 
BRANCH   2   3
ATOM      3  C   UNL     1      26.551  59.593  -8.690  1.00  0.00    -0.003 C 
ATOM      4  C   UNL     1      27.828  59.985  -9.426  1.00  0.00     0.004 C 
ENDBRANCH   2   3
ENDBRANCH   1   2
BRANCH   1   5
ATOM      5  C   UNL     1      25.095  56.151  -7.681  1.00  0.00     0.072 C 
BRANCH   5   6
ATOM      6  C   UNL     1      23.754  55.651  -7.227  1.00  0.00     0.224 C 
ATOM      7  O   UNL     1      23.440  55.693  -6.048  1.00  0.00    -0.303 OA
ENDBRANCH   5   6
ENDBRANCH   1   5
TORSDOF 4
ENDMDL
MODEL 4
REMARK VINA RESULT:    -3.327      1.316      2.243
REMARK INTER + INTRA:          -4.165
REMARK INTER:                  -4.132
REMARK INTRA:                  -0.033
REMARK UNBOUND:                -0.060
REMARK SMILES CCCCCC=O
REMARK SMILES IDX 4 1 3 2 2 3 1 4 5 5 6 6 7 7
REMARK H PARENT
REMARK Flexibility Score: inf
ROOT
ATOM      1  C   UNL     1      26.702  58.790  -9.045  1.00  0.00     0.008 C 
ENDROOT
BRANCH   1   2
ATOM      2  C   UNL     1      25.556  58.253  -8.177  1.00  0.00     0.000 C 
BRANCH   2   3
ATOM      3  C   UNL     1      25.458  56.726  -8.281  1.00  0.00    -0.003 C 
ATOM      4  C   UNL     1      24.309  56.187  -7.434  1.00  0.00     0.004 C 
ENDBRANCH   2   3
ENDBRANCH   1   2
BRANCH   1   5
ATOM      5  C   UNL     1      27.031  60.261  -8.749  1.00  0.00     0.072 C 
BRANCH   5   6
ATOM      6  C   UNL     1      28.235  60.740  -9.507  1.00  0.00     0.224 C 
ATOM      7  O   UNL     1      29.078  59.950  -9.902  1.00  0.00    -0.303 OA
ENDBRANCH   5   6
ENDBRANCH   1   5
TORSDOF 4
ENDMDL
MODEL 5
REMARK VINA RESULT:    -3.231      2.098      4.863
REMARK INTER + INTRA:          -4.047
REMARK INTER:                  -4.012
REMARK INTRA:                  -0.034
REMARK UNBOUND:                -0.060
REMARK SMILES CCCCCC=O
REMARK SMILES IDX 4 1 3 2 2 3 1 4 5 5 6 6 7 7
REMARK H PARENT
REMARK Flexibility Score: inf
ROOT
ATOM      1  C   UNL     1      26.252  58.195  -8.746  1.00  0.00     0.008 C 
ENDROOT
BRANCH   1   2
ATOM      2  C   UNL     1      26.644  59.679  -8.757  1.00  0.00     0.000 C 
BRANCH   2   3
ATOM      3  C   UNL     1      27.937  59.899  -9.552  1.00  0.00    -0.003 C 
ATOM      4  C   UNL     1      28.492  61.302  -9.326  1.00  0.00     0.004 C 
ENDBRANCH   2   3
ENDBRANCH   1   2
BRANCH   1   5
ATOM      5  C   UNL     1      24.967  57.927  -7.948  1.00  0.00     0.072 C 
BRANCH   5   6
ATOM      6  C   UNL     1      24.790  56.472  -7.624  1.00  0.00     0.224 C 
ATOM      7  O   UNL     1      25.759  55.746  -7.468  1.00  0.00    -0.303 OA
ENDBRANCH   5   6
ENDBRANCH   1   5
TORSDOF 4
ENDMDL
MODEL 6
REMARK VINA RESULT:    -3.140     16.429     17.400
REMARK INTER + INTRA:          -3.933
REMARK INTER:                  -3.782
REMARK INTRA:                  -0.152
REMARK UNBOUND:                -0.060
REMARK SMILES CCCCCC=O
REMARK SMILES IDX 4 1 3 2 2 3 1 4 5 5 6 6 7 7
REMARK H PARENT
REMARK Flexibility Score: inf
ROOT
ATOM      1  C   UNL     1      19.928  45.087   0.839  1.00  0.00     0.008 C 
ENDROOT
BRANCH   1   2
ATOM      2  C   UNL     1      18.442  44.791   0.588  1.00  0.00     0.000 C 
BRANCH   2   3
ATOM      3  C   UNL     1      17.778  44.213   1.843  1.00  0.00    -0.003 C 
ATOM      4  C   UNL     1      16.350  44.728   1.998  1.00  0.00     0.004 C 
ENDBRANCH   2   3
ENDBRANCH   1   2
BRANCH   1   5
ATOM      5  C   UNL     1      20.497  44.297   2.027  1.00  0.00     0.072 C 
BRANCH   5   6
ATOM      6  C   UNL     1      21.394  43.175   1.588  1.00  0.00     0.224 C 
ATOM      7  O   UNL     1      21.101  42.483   0.626  1.00  0.00    -0.303 OA
ENDBRANCH   5   6
ENDBRANCH   1   5
TORSDOF 4
ENDMDL
MODEL 7
REMARK VINA RESULT:    -3.057     16.896     17.726
REMARK INTER + INTRA:          -3.831
REMARK INTER:                  -3.615
REMARK INTRA:                  -0.216
REMARK UNBOUND:                -0.060
REMARK SMILES CCCCCC=O
REMARK SMILES IDX 4 1 3 2 2 3 1 4 5 5 6 6 7 7
REMARK H PARENT
REMARK Flexibility Score: inf
ROOT
ATOM      1  C   UNL     1      19.506  44.806   0.981  1.00  0.00     0.008 C 
ENDROOT
BRANCH   1   2
ATOM      2  C   UNL     1      19.973  43.869   2.105  1.00  0.00     0.000 C 
BRANCH   2   3
ATOM      3  C   UNL     1      21.397  43.365   1.842  1.00  0.00    -0.003 C 
ATOM      4  C   UNL     1      21.473  42.584   0.534  1.00  0.00     0.004 C 
ENDBRANCH   2   3
ENDBRANCH   1   2
BRANCH   1   5
ATOM      5  C   UNL     1      18.049  44.553   0.566  1.00  0.00     0.072 C 
BRANCH   5   6
ATOM      6  C   UNL     1      17.721  43.089   0.497  1.00  0.00     0.224 C 
ATOM      7  O   UNL     1      17.928  42.452  -0.523  1.00  0.00    -0.303 OA
ENDBRANCH   5   6
ENDBRANCH   1   5
TORSDOF 4
ENDMDL
MODEL 8
REMARK VINA RESULT:    -3.012     16.686     17.828
REMARK INTER + INTRA:          -3.776
REMARK INTER:                  -3.679
REMARK INTRA:                  -0.097
REMARK UNBOUND:                -0.060
REMARK SMILES CCCCCC=O
REMARK SMILES IDX 4 1 3 2 2 3 1 4 5 5 6 6 7 7
REMARK H PARENT
REMARK Flexibility Score: inf
ROOT
ATOM      1  C   UNL     1      18.532  44.625   0.724  1.00  0.00     0.008 C 
ENDROOT
BRANCH   1   2
ATOM      2  C   UNL     1      19.988  45.036   0.982  1.00  0.00     0.000 C 
BRANCH   2   3
ATOM      3  C   UNL     1      20.671  44.062   1.949  1.00  0.00    -0.003 C 
ATOM      4  C   UNL     1      21.393  42.950   1.195  1.00  0.00     0.004 C 
ENDBRANCH   2   3
ENDBRANCH   1   2
BRANCH   1   5
ATOM      5  C   UNL     1      17.809  44.172   2.001  1.00  0.00     0.072 C 
BRANCH   5   6
ATOM      6  C   UNL     1      16.317  44.299   1.888  1.00  0.00     0.224 C 
ATOM      7  O   UNL     1      15.759  45.353   2.150  1.00  0.00    -0.303 OA
ENDBRANCH   5   6
ENDBRANCH   1   5
TORSDOF 4
ENDMDL
MODEL 9
REMARK VINA RESULT:    -2.873     15.586     16.546
REMARK INTER + INTRA:          -3.604
REMARK INTER:                  -3.487
REMARK INTRA:                  -0.117
REMARK UNBOUND:                -0.060
REMARK SMILES CCCCCC=O
REMARK SMILES IDX 4 1 3 2 2 3 1 4 5 5 6 6 7 7
REMARK H PARENT
REMARK Flexibility Score: inf
ROOT
ATOM      1  C   UNL     1      31.770  45.455   0.683  1.00  0.00     0.008 C 
ENDROOT
BRANCH   1   2
ATOM      2  C   UNL     1      32.565  44.355   1.401  1.00  0.00     0.000 C 
BRANCH   2   3
ATOM      3  C   UNL     1      33.123  43.337   0.399  1.00  0.00    -0.003 C 
ATOM      4  C   UNL     1      32.342  43.369  -0.911  1.00  0.00     0.004 C 
ENDBRANCH   2   3
ENDBRANCH   1   2
BRANCH   1   5
ATOM      5  C   UNL     1      30.361  45.643   1.266  1.00  0.00     0.072 C 
BRANCH   5   6
ATOM      6  C   UNL     1      29.292  45.541   0.216  1.00  0.00     0.224 C 
ATOM      7  O   UNL     1      28.421  46.393   0.130  1.00  0.00    -0.303 OA
ENDBRANCH   5   6
ENDBRANCH   1   5
TORSDOF 4
ENDMDL
