MODEL 1
REMARK VINA RESULT:     0.000      0.000      0.000
REMARK INTER + INTRA:          -1.026
REMARK INTER:                   0.000
REMARK INTRA:                  -1.026
REMARK UNBOUND:                -1.026
REMARK SMILES O=C([O-])CCCCCCCC(=O)[O-]
REMARK SMILES IDX 7 1 6 2 5 3 4 4 2 5 1 6 3 7 8 8 9 9 10 10 11 11 12 12 13 13
REMARK H PARENT
REMARK Flexibility Score: inf
ROOT
ATOM      1  C   UNL     1      16.531 -18.008 -30.156  1.00  0.00     0.000 C 
ENDROOT
BRANCH   1   2
ATOM      2  C   UNL     1      16.303 -16.525 -29.819  1.00  0.00     0.000 C 
BRANCH   2   3
ATOM      3  C   UNL     1      15.646 -16.325 -28.445  1.00  0.00     0.006 C 
BRANCH   3   4
ATOM      4  C   UNL     1      14.417 -15.417 -28.553  1.00  0.00     0.053 C 
BRANCH   4   5
ATOM      5  C   UNL     1      13.245 -16.037 -27.857  1.00  0.00     0.041 C 
ATOM      6  O   UNL     1      13.371 -17.142 -27.266  1.00  0.00    -0.550 OA
ATOM      7  O   UNL     1      12.003 -15.418 -27.904  1.00  0.00    -0.550 OA
ENDBRANCH   4   5
ENDBRANCH   3   4
ENDBRANCH   2   3
ENDBRANCH   1   2
BRANCH   1   8
ATOM      8  C   UNL     1      15.415 -18.915 -29.619  1.00  0.00     0.000 C 
BRANCH   8   9
ATOM      9  C   UNL     1      14.421 -19.280 -30.732  1.00  0.00     0.006 C 
BRANCH   9  10
ATOM     10  C   UNL     1      13.054 -18.612 -30.531  1.00  0.00     0.053 C 
BRANCH  10  11
ATOM     11  C   UNL     1      12.913 -17.374 -31.362  1.00  0.00     0.041 C 
ATOM     12  O   UNL     1      11.969 -16.570 -31.146  1.00  0.00    -0.550 OA
ATOM     13  O   UNL     1      13.843 -17.093 -32.354  1.00  0.00    -0.550 OA
ENDBRANCH  10  11
ENDBRANCH   9  10
ENDBRANCH   8   9
ENDBRANCH   1   8
TORSDOF 8
ENDMDL
MODEL 2
REMARK VINA RESULT:     0.000      9.729     11.629
REMARK INTER + INTRA:          -1.026
REMARK INTER:                   0.000
REMARK INTRA:                  -1.026
REMARK UNBOUND:                -1.026
REMARK SMILES O=C([O-])CCCCCCCC(=O)[O-]
REMARK SMILES IDX 7 1 6 2 5 3 4 4 2 5 1 6 3 7 8 8 9 9 10 10 11 11 12 12 13 13
REMARK H PARENT
REMARK Flexibility Score: inf
ROOT
ATOM      1  C   UNL     1      18.764 -17.478 -38.528  1.00  0.00     0.000 C 
ENDROOT
BRANCH   1   2
ATOM      2  C   UNL     1      19.254 -18.720 -37.766  1.00  0.00     0.000 C 
BRANCH   2   3
ATOM      3  C   UNL     1      19.952 -18.366 -36.444  1.00  0.00     0.006 C 
BRANCH   3   4
ATOM      4  C   UNL     1      21.319 -19.051 -36.347  1.00  0.00     0.053 C 
BRANCH   4   5
ATOM      5  C   UNL     1      22.379 -18.057 -35.988  1.00  0.00     0.041 C 
ATOM      6  O   UNL     1      22.072 -16.859 -35.756  1.00  0.00    -0.550 OA
ATOM      7  O   UNL     1      23.713 -18.444 -35.959  1.00  0.00    -0.550 OA
ENDBRANCH   4   5
ENDBRANCH   3   4
ENDBRANCH   2   3
ENDBRANCH   1   2
BRANCH   1   8
ATOM      8  C   UNL     1      19.722 -16.285 -38.394  1.00  0.00     0.000 C 
BRANCH   8   9
ATOM      9  C   UNL     1      20.614 -16.156 -39.637  1.00  0.00     0.006 C 
BRANCH   9  10
ATOM     10  C   UNL     1      22.075 -16.525 -39.344  1.00  0.00     0.053 C 
BRANCH  10  11
ATOM     11  C   UNL     1      22.387 -17.930 -39.760  1.00  0.00     0.041 C 
ATOM     12  O   UNL     1      23.444 -18.488 -39.365  1.00  0.00    -0.550 OA
ATOM     13  O   UNL     1      21.494 -18.634 -40.558  1.00  0.00    -0.550 OA
ENDBRANCH  10  11
ENDBRANCH   9  10
ENDBRANCH   8   9
ENDBRANCH   1   8
TORSDOF 8
ENDMDL
MODEL 3
REMARK VINA RESULT:     0.000      5.479      7.151
REMARK INTER + INTRA:          -1.026
REMARK INTER:                   0.000
REMARK INTRA:                  -1.026
REMARK UNBOUND:                -1.026
REMARK SMILES O=C([O-])CCCCCCCC(=O)[O-]
REMARK SMILES IDX 7 1 6 2 5 3 4 4 2 5 1 6 3 7 8 8 9 9 10 10 11 11 12 12 13 13
REMARK H PARENT
REMARK Flexibility Score: inf
ROOT
ATOM      1  C   UNL     1      18.492 -18.678 -30.444  1.00  0.00     0.000 C 
ENDROOT
BRANCH   1   2
ATOM      2  C   UNL     1      19.980 -19.062 -30.466  1.00  0.00     0.000 C 
BRANCH   2   3
ATOM      3  C   UNL     1      20.414 -19.820 -29.203  1.00  0.00     0.006 C 
BRANCH   3   4
ATOM      4  C   UNL     1      21.663 -19.183 -28.584  1.00  0.00     0.053 C 
BRANCH   4   5
ATOM      5  C   UNL     1      21.465 -18.963 -27.116  1.00  0.00     0.041 C 
ATOM      6  O   UNL     1      20.396 -19.324 -26.559  1.00  0.00    -0.550 OA
ATOM      7  O   UNL     1      22.443 -18.312 -26.374  1.00  0.00    -0.550 OA
ENDBRANCH   4   5
ENDBRANCH   3   4
ENDBRANCH   2   3
ENDBRANCH   1   2
BRANCH   1   8
ATOM      8  C   UNL     1      17.988 -18.341 -29.033  1.00  0.00     0.000 C 
BRANCH   8   9
ATOM      9  C   UNL     1      17.902 -16.821 -28.830  1.00  0.00     0.006 C 
BRANCH   9  10
ATOM     10  C   UNL     1      18.977 -16.303 -27.866  1.00  0.00     0.053 C 
BRANCH  10  11
ATOM     11  C   UNL     1      20.165 -15.759 -28.599  1.00  0.00     0.041 C 
ATOM     12  O   UNL     1      20.097 -15.529 -29.834  1.00  0.00    -0.550 OA
ATOM     13  O   UNL     1      21.337 -15.477 -27.910  1.00  0.00    -0.550 OA
ENDBRANCH  10  11
ENDBRANCH   9  10
ENDBRANCH   8   9
ENDBRANCH   1   8
TORSDOF 8
ENDMDL
MODEL 4
REMARK VINA RESULT:     0.000      7.940     10.024
REMARK INTER + INTRA:          -1.026
REMARK INTER:                   0.000
REMARK INTRA:                  -1.026
REMARK UNBOUND:                -1.026
REMARK SMILES O=C([O-])CCCCCCCC(=O)[O-]
REMARK SMILES IDX 7 1 6 2 5 3 4 4 2 5 1 6 3 7 8 8 9 9 10 10 11 11 12 12 13 13
REMARK H PARENT
REMARK Flexibility Score: inf
ROOT
ATOM      1  C   UNL     1      14.401 -21.617 -36.037  1.00  0.00     0.000 C 
ENDROOT
BRANCH   1   2
ATOM      2  C   UNL     1      14.339 -22.460 -37.321  1.00  0.00     0.000 C 
BRANCH   2   3
ATOM      3  C   UNL     1      15.315 -21.967 -38.401  1.00  0.00     0.006 C 
BRANCH   3   4
ATOM      4  C   UNL     1      14.596 -21.773 -39.740  1.00  0.00     0.053 C 
BRANCH   4   5
ATOM      5  C   UNL     1      14.914 -20.428 -40.315  1.00  0.00     0.041 C 
ATOM      6  O   UNL     1      15.707 -19.655 -39.718  1.00  0.00    -0.550 OA
ATOM      7  O   UNL     1      14.294 -20.010 -41.486  1.00  0.00    -0.550 OA
ENDBRANCH   4   5
ENDBRANCH   3   4
ENDBRANCH   2   3
ENDBRANCH   1   2
BRANCH   1   8
ATOM      8  C   UNL     1      14.654 -20.129 -36.318  1.00  0.00     0.000 C 
BRANCH   8   9
ATOM      9  C   UNL     1      13.345 -19.328 -36.253  1.00  0.00     0.006 C 
BRANCH   9  10
ATOM     10  C   UNL     1      12.898 -18.835 -37.636  1.00  0.00     0.053 C 
BRANCH  10  11
ATOM     11  C   UNL     1      11.851 -19.726 -38.232  1.00  0.00     0.041 C 
ATOM     12  O   UNL     1      11.547 -19.622 -39.449  1.00  0.00    -0.550 OA
ATOM     13  O   UNL     1      11.235 -20.694 -37.449  1.00  0.00    -0.550 OA
ENDBRANCH  10  11
ENDBRANCH   9  10
ENDBRANCH   8   9
ENDBRANCH   1   8
TORSDOF 8
ENDMDL
MODEL 5
REMARK VINA RESULT:     0.000      5.894      7.833
REMARK INTER + INTRA:          -1.026
REMARK INTER:                   0.000
REMARK INTRA:                  -1.026
REMARK UNBOUND:                -1.026
REMARK SMILES O=C([O-])CCCCCCCC(=O)[O-]
REMARK SMILES IDX 7 1 6 2 5 3 4 4 2 5 1 6 3 7 8 8 9 9 10 10 11 11 12 12 13 13
REMARK H PARENT
REMARK Flexibility Score: inf
ROOT
ATOM      1  C   UNL     1      22.481 -16.873 -30.507  1.00  0.00     0.000 C 
ENDROOT
BRANCH   1   2
ATOM      2  C   UNL     1      21.471 -18.010 -30.282  1.00  0.00     0.000 C 
BRANCH   2   3
ATOM      3  C   UNL     1      20.016 -17.517 -30.280  1.00  0.00     0.006 C 
BRANCH   3   4
ATOM      4  C   UNL     1      19.271 -18.014 -29.037  1.00  0.00     0.053 C 
BRANCH   4   5
ATOM      5  C   UNL     1      18.562 -16.882 -28.363  1.00  0.00     0.041 C 
ATOM      6  O   UNL     1      18.610 -15.723 -28.852  1.00  0.00    -0.550 OA
ATOM      7  O   UNL     1      17.889 -17.097 -27.167  1.00  0.00    -0.550 OA
ENDBRANCH   4   5
ENDBRANCH   3   4
ENDBRANCH   2   3
ENDBRANCH   1   2
BRANCH   1   8
ATOM      8  C   UNL     1      22.047 -15.556 -29.847  1.00  0.00     0.000 C 
BRANCH   8   9
ATOM      9  C   UNL     1      22.781 -15.342 -28.514  1.00  0.00     0.006 C 
BRANCH   9  10
ATOM     10  C   UNL     1      21.844 -15.485 -27.306  1.00  0.00     0.053 C 
BRANCH  10  11
ATOM     11  C   UNL     1      21.930 -16.850 -26.695  1.00  0.00     0.041 C 
ATOM     12  O   UNL     1      22.870 -17.626 -27.007  1.00  0.00    -0.550 OA
ATOM     13  O   UNL     1      20.988 -17.252 -25.757  1.00  0.00    -0.550 OA
ENDBRANCH  10  11
ENDBRANCH   9  10
ENDBRANCH   8   9
ENDBRANCH   1   8
TORSDOF 8
ENDMDL
MODEL 6
REMARK VINA RESULT:     0.000      3.681      5.897
REMARK INTER + INTRA:          -1.026
REMARK INTER:                   0.000
REMARK INTRA:                  -1.026
REMARK UNBOUND:                -1.026
REMARK SMILES O=C([O-])CCCCCCCC(=O)[O-]
REMARK SMILES IDX 7 1 6 2 5 3 4 4 2 5 1 6 3 7 8 8 9 9 10 10 11 11 12 12 13 13
REMARK H PARENT
REMARK Flexibility Score: inf
ROOT
ATOM      1  C   UNL     1      20.938 -17.620 -31.119  1.00  0.00     0.000 C 
ENDROOT
BRANCH   1   2
ATOM      2  C   UNL     1      19.937 -18.776 -30.965  1.00  0.00     0.000 C 
BRANCH   2   3
ATOM      3  C   UNL     1      18.595 -18.493 -31.658  1.00  0.00     0.006 C 
BRANCH   3   4
ATOM      4  C   UNL     1      17.423 -18.738 -30.702  1.00  0.00     0.053 C 
BRANCH   4   5
ATOM      5  C   UNL     1      16.484 -17.572 -30.716  1.00  0.00     0.041 C 
ATOM      6  O   UNL     1      16.711 -16.584 -31.462  1.00  0.00    -0.550 OA
ATOM      7  O   UNL     1      15.386 -17.556 -29.866  1.00  0.00    -0.550 OA
ENDBRANCH   4   5
ENDBRANCH   3   4
ENDBRANCH   2   3
ENDBRANCH   1   2
BRANCH   1   8
ATOM      8  C   UNL     1      20.261 -16.243 -31.093  1.00  0.00     0.000 C 
BRANCH   8   9
ATOM      9  C   UNL     1      20.396 -15.591 -29.708  1.00  0.00     0.006 C 
BRANCH   9  10
ATOM     10  C   UNL     1      19.056 -15.525 -28.964  1.00  0.00     0.053 C 
BRANCH  10  11
ATOM     11  C   UNL     1      18.905 -16.654 -27.990  1.00  0.00     0.041 C 
ATOM     12  O   UNL     1      19.899 -17.360 -27.679  1.00  0.00    -0.550 OA
ATOM     13  O   UNL     1      17.671 -16.906 -27.404  1.00  0.00    -0.550 OA
ENDBRANCH  10  11
ENDBRANCH   9  10
ENDBRANCH   8   9
ENDBRANCH   1   8
TORSDOF 8
ENDMDL
MODEL 7
REMARK VINA RESULT:     0.000      7.317      8.959
REMARK INTER + INTRA:          -1.025
REMARK INTER:                   0.000
REMARK INTRA:                  -1.025
REMARK UNBOUND:                -1.026
REMARK SMILES O=C([O-])CCCCCCCC(=O)[O-]
REMARK SMILES IDX 7 1 6 2 5 3 4 4 2 5 1 6 3 7 8 8 9 9 10 10 11 11 12 12 13 13
REMARK H PARENT
REMARK Flexibility Score: inf
ROOT
ATOM      1  C   UNL     1      12.203 -22.362 -39.133  1.00  0.00     0.000 C 
ENDROOT
BRANCH   1   2
ATOM      2  C   UNL     1      11.339 -21.095 -39.041  1.00  0.00     0.000 C 
BRANCH   2   3
ATOM      3  C   UNL     1      12.176 -19.820 -38.853  1.00  0.00     0.006 C 
BRANCH   3   4
ATOM      4  C   UNL     1      11.663 -18.998 -37.665  1.00  0.00     0.053 C 
BRANCH   4   5
ATOM      5  C   UNL     1      12.787 -18.664 -36.736  1.00  0.00     0.041 C 
ATOM      6  O   UNL     1      13.967 -18.993 -37.023  1.00  0.00    -0.550 OA
ATOM      7  O   UNL     1      12.523 -18.032 -35.527  1.00  0.00    -0.550 OA
ENDBRANCH   4   5
ENDBRANCH   3   4
ENDBRANCH   2   3
ENDBRANCH   1   2
BRANCH   1   8
ATOM      8  C   UNL     1      13.401 -22.333 -38.173  1.00  0.00     0.000 C 
BRANCH   8   9
ATOM      9  C   UNL     1      13.095 -23.119 -36.889  1.00  0.00     0.006 C 
BRANCH   9  10
ATOM     10  C   UNL     1      12.945 -22.200 -35.669  1.00  0.00     0.053 C 
BRANCH  10  11
ATOM     11  C   UNL     1      11.506 -21.933 -35.348  1.00  0.00     0.041 C 
ATOM     12  O   UNL     1      11.195 -21.008 -34.554  1.00  0.00    -0.550 OA
ATOM     13  O   UNL     1      10.508 -22.688 -35.950  1.00  0.00    -0.550 OA
ENDBRANCH  10  11
ENDBRANCH   9  10
ENDBRANCH   8   9
ENDBRANCH   1   8
TORSDOF 8
ENDMDL
MODEL 8
REMARK VINA RESULT:     0.000      5.371      7.216
REMARK INTER + INTRA:          -1.025
REMARK INTER:                   0.000
REMARK INTRA:                  -1.025
REMARK UNBOUND:                -1.026
REMARK SMILES O=C([O-])CCCCCCCC(=O)[O-]
REMARK SMILES IDX 7 1 6 2 5 3 4 4 2 5 1 6 3 7 8 8 9 9 10 10 11 11 12 12 13 13
REMARK H PARENT
REMARK Flexibility Score: inf
ROOT
ATOM      1  C   UNL     1      14.388 -22.800 -32.440  1.00  0.00     0.000 C 
ENDROOT
BRANCH   1   2
ATOM      2  C   UNL     1      15.914 -22.874 -32.604  1.00  0.00     0.000 C 
BRANCH   2   3
ATOM      3  C   UNL     1      16.519 -24.128 -31.954  1.00  0.00     0.006 C 
BRANCH   3   4
ATOM      4  C   UNL     1      17.686 -23.758 -31.032  1.00  0.00     0.053 C 
BRANCH   4   5
ATOM      5  C   UNL     1      17.525 -24.411 -29.696  1.00  0.00     0.041 C 
ATOM      6  O   UNL     1      16.536 -25.156 -29.469  1.00  0.00    -0.550 OA
ATOM      7  O   UNL     1      18.442 -24.157 -28.684  1.00  0.00    -0.550 OA
ENDBRANCH   4   5
ENDBRANCH   3   4
ENDBRANCH   2   3
ENDBRANCH   1   2
BRANCH   1   8
ATOM      8  C   UNL     1      13.912 -23.329 -31.079  1.00  0.00     0.000 C 
BRANCH   8   9
ATOM      9  C   UNL     1      13.647 -22.172 -30.104  1.00  0.00     0.006 C 
BRANCH   9  10
ATOM     10  C   UNL     1      14.674 -22.126 -28.965  1.00  0.00     0.053 C 
BRANCH  10  11
ATOM     11  C   UNL     1      15.759 -21.127 -29.236  1.00  0.00     0.041 C 
ATOM     12  O   UNL     1      15.624 -20.280 -30.156  1.00  0.00    -0.550 OA
ATOM     13  O   UNL     1      16.903 -21.114 -28.449  1.00  0.00    -0.550 OA
ENDBRANCH  10  11
ENDBRANCH   9  10
ENDBRANCH   8   9
ENDBRANCH   1   8
TORSDOF 8
ENDMDL
MODEL 9
REMARK VINA RESULT:     0.001      9.195     11.633
REMARK INTER + INTRA:          -1.025
REMARK INTER:                   0.000
REMARK INTRA:                  -1.025
REMARK UNBOUND:                -1.026
REMARK SMILES O=C([O-])CCCCCCCC(=O)[O-]
REMARK SMILES IDX 7 1 6 2 5 3 4 4 2 5 1 6 3 7 8 8 9 9 10 10 11 11 12 12 13 13
REMARK H PARENT
REMARK Flexibility Score: inf
ROOT
ATOM      1  C   UNL     1      12.051 -24.804 -37.377  1.00  0.00     0.000 C 
ENDROOT
BRANCH   1   2
ATOM      2  C   UNL     1      11.768 -23.574 -38.254  1.00  0.00     0.000 C 
BRANCH   2   3
ATOM      3  C   UNL     1      12.313 -23.728 -39.683  1.00  0.00     0.006 C 
BRANCH   3   4
ATOM      4  C   UNL     1      13.165 -22.517 -40.077  1.00  0.00     0.053 C 
BRANCH   4   5
ATOM      5  C   UNL     1      14.478 -22.961 -40.641  1.00  0.00     0.041 C 
ATOM      6  O   UNL     1      14.738 -24.188 -40.751  1.00  0.00    -0.550 OA
ATOM      7  O   UNL     1      15.434 -22.020 -41.000  1.00  0.00    -0.550 OA
ENDBRANCH   4   5
ENDBRANCH   3   4
ENDBRANCH   2   3
ENDBRANCH   1   2
BRANCH   1   8
ATOM      8  C   UNL     1      13.418 -25.440 -37.671  1.00  0.00     0.000 C 
BRANCH   8   9
ATOM      9  C   UNL     1      14.464 -24.990 -36.640  1.00  0.00     0.006 C 
BRANCH   9  10
ATOM     10  C   UNL     1      15.532 -24.078 -37.258  1.00  0.00     0.053 C 
BRANCH  10  11
ATOM     11  C   UNL     1      15.255 -22.632 -36.981  1.00  0.00     0.041 C 
ATOM     12  O   UNL     1      15.888 -21.736 -37.598  1.00  0.00    -0.550 OA
ATOM     13  O   UNL     1      14.275 -22.275 -36.064  1.00  0.00    -0.550 OA
ENDBRANCH  10  11
ENDBRANCH   9  10
ENDBRANCH   8   9
ENDBRANCH   1   8
TORSDOF 8
ENDMDL
