MODEL 1
REMARK VINA RESULT:    -6.822      0.000      0.000
REMARK INTER + INTRA:          -7.619
REMARK INTER:                  -7.619
REMARK INTRA:                  -0.000
REMARK UNBOUND:                -0.000
REMARK SMILES CC1(C)CC[C@]2(CO)CC=C3[C@]4(C)CC[C@@H]5C(C)(C)[C@H](O)CC[C@@]5(C)[C@H]4CC[C@@]3(C)[C@H]2C1
REMARK SMILES IDX 1 1 2 2 4 3 5 4 6 5 9 6 10 7 11 8 12 9 14 10 15 11 16 12
REMARK SMILES IDX 17 13 20 14 22 15 23 16 24 17 26 18 27 19 28 20 29 21 31 22
REMARK SMILES IDX 32 23 30 24 25 25 18 26 19 27 13 28 3 29 7 30 8 31 21 33
REMARK H PARENT 8 32 21 34
REMARK Flexibility Score: inf
ROOT
ATOM      1  C   UNL     1     142.870 139.211 142.568  1.00  0.00     0.011 C 
ATOM      2  C   UNL     1     143.298 137.856 143.173  1.00  0.00    -0.035 C 
ATOM      3  C   UNL     1     144.361 138.121 144.273  1.00  0.00     0.007 C 
ATOM      4  C   UNL     1     144.654 136.890 145.150  1.00  0.00     0.010 C 
ATOM      5  C   UNL     1     143.372 136.292 145.807  1.00  0.00     0.001 C 
ATOM      6  C   UNL     1     143.771 134.958 146.480  1.00  0.00     0.037 C 
ATOM      7  C   UNL     1     142.580 134.177 146.955  1.00  0.00    -0.026 C 
ATOM      8  C   UNL     1     141.350 134.230 146.377  1.00  0.00    -0.062 C 
ATOM      9  C   UNL     1     140.160 133.596 147.159  1.00  0.00    -0.008 C 
ATOM     10  C   UNL     1     140.494 132.084 147.460  1.00  0.00     0.012 C 
ATOM     11  C   UNL     1     139.302 131.095 147.397  1.00  0.00     0.006 C 
ATOM     12  C   UNL     1     138.003 131.782 147.857  1.00  0.00     0.003 C 
ATOM     13  C   UNL     1     136.857 130.882 148.460  1.00  0.00    -0.006 C 
ATOM     14  C   UNL     1     135.776 131.845 149.072  1.00  0.00     0.120 C 
ATOM     15  C   UNL     1     135.333 133.000 148.143  1.00  0.00     0.033 C 
ATOM     16  C   UNL     1     136.517 133.792 147.539  1.00  0.00     0.010 C 
ATOM     17  C   UNL     1     137.562 132.886 146.824  1.00  0.00    -0.025 C 
ATOM     18  C   UNL     1     138.853 133.683 146.307  1.00  0.00     0.005 C 
ATOM     19  C   UNL     1     138.579 135.131 145.809  1.00  0.00     0.006 C 
ATOM     20  C   UNL     1     139.829 135.899 145.293  1.00  0.00     0.012 C 
ATOM     21  C   UNL     1     141.110 135.038 145.068  1.00  0.00    -0.008 C 
ATOM     22  C   UNL     1     142.369 135.937 144.668  1.00  0.00     0.008 C 
ATOM     23  C   UNL     1     142.038 137.163 143.772  1.00  0.00     0.011 C 
ATOM     24  C   UNL     1     140.861 134.061 143.865  1.00  0.00     0.016 C 
ATOM     25  C   UNL     1     136.889 132.286 145.541  1.00  0.00     0.012 C 
ATOM     26  C   UNL     1     136.252 129.886 147.436  1.00  0.00     0.014 C 
ATOM     27  C   UNL     1     137.423 130.031 149.635  1.00  0.00     0.014 C 
ATOM     28  C   UNL     1     140.005 134.422 148.477  1.00  0.00     0.016 C 
ATOM     29  C   UNL     1     143.904 137.005 142.030  1.00  0.00     0.011 C 
ENDROOT
BRANCH   5  30
ATOM     30  C   UNL     1     142.844 137.327 146.859  1.00  0.00     0.163 C 
BRANCH  30  31
ATOM     31  O   UNL     1     143.873 138.017 147.502  1.00  0.00    -0.396 OA
ATOM     32  H   UNL     1     143.981 138.876 147.018  1.00  0.00     0.210 HD
ENDBRANCH  30  31
ENDBRANCH   5  30
BRANCH  14  33
ATOM     33  O   UNL     1     134.660 131.137 149.558  1.00  0.00    -0.393 OA
ATOM     34  H   UNL     1     133.963 131.796 149.813  1.00  0.00     0.210 HD
ENDBRANCH  14  33
TORSDOF 3
ENDMDL
MODEL 2
REMARK VINA RESULT:    -6.534      9.043     12.860
REMARK INTER + INTRA:          -7.298
REMARK INTER:                  -7.231
REMARK INTRA:                  -0.067
REMARK UNBOUND:                -0.000
REMARK SMILES CC1(C)CC[C@]2(CO)CC=C3[C@]4(C)CC[C@@H]5C(C)(C)[C@H](O)CC[C@@]5(C)[C@H]4CC[C@@]3(C)[C@H]2C1
REMARK SMILES IDX 1 1 2 2 4 3 5 4 6 5 9 6 10 7 11 8 12 9 14 10 15 11 16 12
REMARK SMILES IDX 17 13 20 14 22 15 23 16 24 17 26 18 27 19 28 20 29 21 31 22
REMARK SMILES IDX 32 23 30 24 25 25 18 26 19 27 13 28 3 29 7 30 8 31 21 33
REMARK H PARENT 8 32 21 34
REMARK Flexibility Score: inf
ROOT
ATOM      1  C   UNL     1     130.743 137.997 136.451  1.00  0.00     0.011 C 
ATOM      2  C   UNL     1     132.219 138.146 136.022  1.00  0.00    -0.035 C 
ATOM      3  C   UNL     1     132.276 139.039 134.753  1.00  0.00     0.007 C 
ATOM      4  C   UNL     1     133.699 139.505 134.395  1.00  0.00     0.010 C 
ATOM      5  C   UNL     1     134.413 140.239 135.572  1.00  0.00     0.001 C 
ATOM      6  C   UNL     1     135.885 140.465 135.157  1.00  0.00     0.037 C 
ATOM      7  C   UNL     1     136.731 140.961 136.293  1.00  0.00    -0.026 C 
ATOM      8  C   UNL     1     136.498 140.676 137.602  1.00  0.00    -0.062 C 
ATOM      9  C   UNL     1     137.281 141.501 138.668  1.00  0.00    -0.008 C 
ATOM     10  C   UNL     1     138.828 141.343 138.401  1.00  0.00     0.012 C 
ATOM     11  C   UNL     1     139.736 141.280 139.656  1.00  0.00     0.006 C 
ATOM     12  C   UNL     1     139.157 142.150 140.788  1.00  0.00     0.003 C 
ATOM     13  C   UNL     1     140.153 142.729 141.865  1.00  0.00    -0.006 C 
ATOM     14  C   UNL     1     139.353 143.767 142.733  1.00  0.00     0.120 C 
ATOM     15  C   UNL     1     137.986 143.264 143.253  1.00  0.00     0.033 C 
ATOM     16  C   UNL     1     137.095 142.648 142.147  1.00  0.00     0.010 C 
ATOM     17  C   UNL     1     137.812 141.534 141.330  1.00  0.00    -0.025 C 
ATOM     18  C   UNL     1     136.943 140.981 140.102  1.00  0.00     0.005 C 
ATOM     19  C   UNL     1     135.409 140.924 140.353  1.00  0.00     0.006 C 
ATOM     20  C   UNL     1     134.566 140.372 139.168  1.00  0.00     0.012 C 
ATOM     21  C   UNL     1     135.373 139.686 138.022  1.00  0.00    -0.008 C 
ATOM     22  C   UNL     1     134.434 139.275 136.797  1.00  0.00     0.008 C 
ATOM     23  C   UNL     1     133.010 138.797 137.195  1.00  0.00     0.011 C 
ATOM     24  C   UNL     1     135.999 138.354 138.569  1.00  0.00     0.016 C 
ATOM     25  C   UNL     1     138.042 140.307 142.277  1.00  0.00     0.012 C 
ATOM     26  C   UNL     1     140.834 141.635 142.727  1.00  0.00     0.014 C 
ATOM     27  C   UNL     1     141.292 143.517 141.154  1.00  0.00     0.014 C 
ATOM     28  C   UNL     1     136.821 142.986 138.507  1.00  0.00     0.016 C 
ATOM     29  C   UNL     1     132.761 136.730 135.711  1.00  0.00     0.011 C 
ENDROOT
BRANCH   5  30
ATOM     30  C   UNL     1     133.671 141.599 135.810  1.00  0.00     0.163 C 
BRANCH  30  31
ATOM     31  O   UNL     1     133.348 142.254 134.620  1.00  0.00    -0.396 OA
ATOM     32  H   UNL     1     133.235 143.213 134.850  1.00  0.00     0.210 HD
ENDBRANCH  30  31
ENDBRANCH   5  30
BRANCH  14  33
ATOM     33  O   UNL     1     140.133 144.277 143.788  1.00  0.00    -0.393 OA
ATOM     34  H   UNL     1     141.060 144.400 143.456  1.00  0.00     0.210 HD
ENDBRANCH  14  33
TORSDOF 3
ENDMDL
MODEL 3
REMARK VINA RESULT:    -6.366      3.205      6.648
REMARK INTER + INTRA:          -7.110
REMARK INTER:                  -6.999
REMARK INTRA:                  -0.111
REMARK UNBOUND:                -0.000
REMARK SMILES CC1(C)CC[C@]2(CO)CC=C3[C@]4(C)CC[C@@H]5C(C)(C)[C@H](O)CC[C@@]5(C)[C@H]4CC[C@@]3(C)[C@H]2C1
REMARK SMILES IDX 1 1 2 2 4 3 5 4 6 5 9 6 10 7 11 8 12 9 14 10 15 11 16 12
REMARK SMILES IDX 17 13 20 14 22 15 23 16 24 17 26 18 27 19 28 20 29 21 31 22
REMARK SMILES IDX 32 23 30 24 25 25 18 26 19 27 13 28 3 29 7 30 8 31 21 33
REMARK H PARENT 8 32 21 34
REMARK Flexibility Score: inf
ROOT
ATOM      1  C   UNL     1     146.371 141.856 139.343  1.00  0.00     0.011 C 
ATOM      2  C   UNL     1     144.941 141.298 139.516  1.00  0.00    -0.035 C 
ATOM      3  C   UNL     1     144.591 140.444 138.267  1.00  0.00     0.007 C 
ATOM      4  C   UNL     1     143.318 139.596 138.443  1.00  0.00     0.010 C 
ATOM      5  C   UNL     1     143.370 138.673 139.699  1.00  0.00     0.001 C 
ATOM      6  C   UNL     1     141.969 138.042 139.873  1.00  0.00     0.037 C 
ATOM      7  C   UNL     1     141.828 137.309 141.175  1.00  0.00    -0.026 C 
ATOM      8  C   UNL     1     142.503 137.630 142.311  1.00  0.00    -0.062 C 
ATOM      9  C   UNL     1     142.472 136.601 143.482  1.00  0.00    -0.008 C 
ATOM     10  C   UNL     1     140.970 136.315 143.870  1.00  0.00     0.012 C 
ATOM     11  C   UNL     1     140.682 136.100 145.378  1.00  0.00     0.006 C 
ATOM     12  C   UNL     1     141.879 135.415 146.065  1.00  0.00     0.003 C 
ATOM     13  C   UNL     1     141.604 134.561 147.362  1.00  0.00    -0.006 C 
ATOM     14  C   UNL     1     142.927 133.783 147.700  1.00  0.00     0.120 C 
ATOM     15  C   UNL     1     144.209 134.648 147.700  1.00  0.00     0.033 C 
ATOM     16  C   UNL     1     144.371 135.507 146.423  1.00  0.00     0.010 C 
ATOM     17  C   UNL     1     143.122 136.382 146.108  1.00  0.00    -0.025 C 
ATOM     18  C   UNL     1     143.231 137.177 144.720  1.00  0.00     0.005 C 
ATOM     19  C   UNL     1     144.661 137.666 144.350  1.00  0.00     0.006 C 
ATOM     20  C   UNL     1     144.764 138.452 143.013  1.00  0.00     0.012 C 
ATOM     21  C   UNL     1     143.409 138.895 142.379  1.00  0.00    -0.008 C 
ATOM     22  C   UNL     1     143.615 139.574 140.947  1.00  0.00     0.008 C 
ATOM     23  C   UNL     1     144.904 140.432 140.810  1.00  0.00     0.011 C 
ATOM     24  C   UNL     1     142.751 139.985 143.297  1.00  0.00     0.016 C 
ATOM     25  C   UNL     1     143.003 137.479 147.221  1.00  0.00     0.012 C 
ATOM     26  C   UNL     1     141.090 135.403 148.558  1.00  0.00     0.014 C 
ATOM     27  C   UNL     1     140.513 133.491 147.063  1.00  0.00     0.014 C 
ATOM     28  C   UNL     1     143.184 135.312 142.959  1.00  0.00     0.016 C 
ATOM     29  C   UNL     1     143.979 142.505 139.632  1.00  0.00     0.011 C 
ENDROOT
BRANCH   5  30
ATOM     30  C   UNL     1     144.462 137.578 139.445  1.00  0.00     0.163 C 
BRANCH  30  31
ATOM     31  O   UNL     1     144.303 136.930 138.219  1.00  0.00    -0.396 OA
ATOM     32  H   UNL     1     144.268 135.958 138.417  1.00  0.00     0.210 HD
ENDBRANCH  30  31
ENDBRANCH   5  30
BRANCH  14  33
ATOM     33  O   UNL     1     142.814 133.056 148.901  1.00  0.00    -0.393 OA
ATOM     34  H   UNL     1     141.871 133.109 149.207  1.00  0.00     0.210 HD
ENDBRANCH  14  33
TORSDOF 3
ENDMDL
MODEL 4
REMARK VINA RESULT:    -6.343      5.219      7.191
REMARK INTER + INTRA:          -7.085
REMARK INTER:                  -6.958
REMARK INTRA:                  -0.126
REMARK UNBOUND:                -0.000
REMARK SMILES CC1(C)CC[C@]2(CO)CC=C3[C@]4(C)CC[C@@H]5C(C)(C)[C@H](O)CC[C@@]5(C)[C@H]4CC[C@@]3(C)[C@H]2C1
REMARK SMILES IDX 1 1 2 2 4 3 5 4 6 5 9 6 10 7 11 8 12 9 14 10 15 11 16 12
REMARK SMILES IDX 17 13 20 14 22 15 23 16 24 17 26 18 27 19 28 20 29 21 31 22
REMARK SMILES IDX 32 23 30 24 25 25 18 26 19 27 13 28 3 29 7 30 8 31 21 33
REMARK H PARENT 8 32 21 34
REMARK Flexibility Score: inf
ROOT
ATOM      1  C   UNL     1     147.540 140.328 146.293  1.00  0.00     0.011 C 
ATOM      2  C   UNL     1     147.094 138.925 145.826  1.00  0.00    -0.035 C 
ATOM      3  C   UNL     1     146.710 138.088 147.076  1.00  0.00     0.007 C 
ATOM      4  C   UNL     1     145.976 136.779 146.734  1.00  0.00     0.010 C 
ATOM      5  C   UNL     1     144.706 137.005 145.857  1.00  0.00     0.001 C 
ATOM      6  C   UNL     1     144.189 135.615 145.417  1.00  0.00     0.037 C 
ATOM      7  C   UNL     1     143.102 135.709 144.386  1.00  0.00    -0.026 C 
ATOM      8  C   UNL     1     142.987 136.721 143.485  1.00  0.00    -0.062 C 
ATOM      9  C   UNL     1     141.651 136.825 142.687  1.00  0.00    -0.008 C 
ATOM     10  C   UNL     1     141.403 135.465 141.928  1.00  0.00     0.012 C 
ATOM     11  C   UNL     1     140.756 135.573 140.524  1.00  0.00     0.006 C 
ATOM     12  C   UNL     1     139.780 136.764 140.468  1.00  0.00     0.003 C 
ATOM     13  C   UNL     1     138.593 136.707 139.431  1.00  0.00    -0.006 C 
ATOM     14  C   UNL     1     137.627 137.902 139.757  1.00  0.00     0.120 C 
ATOM     15  C   UNL     1     138.322 139.271 139.939  1.00  0.00     0.033 C 
ATOM     16  C   UNL     1     139.518 139.229 140.920  1.00  0.00     0.010 C 
ATOM     17  C   UNL     1     140.562 138.128 140.570  1.00  0.00    -0.025 C 
ATOM     18  C   UNL     1     141.736 137.993 141.653  1.00  0.00     0.005 C 
ATOM     19  C   UNL     1     142.178 139.328 142.318  1.00  0.00     0.006 C 
ATOM     20  C   UNL     1     143.329 139.199 143.355  1.00  0.00     0.012 C 
ATOM     21  C   UNL     1     144.074 137.829 143.377  1.00  0.00    -0.008 C 
ATOM     22  C   UNL     1     145.144 137.752 144.561  1.00  0.00     0.008 C 
ATOM     23  C   UNL     1     145.875 139.088 144.870  1.00  0.00     0.011 C 
ATOM     24  C   UNL     1     144.881 137.670 142.039  1.00  0.00     0.016 C 
ATOM     25  C   UNL     1     141.263 138.531 139.228  1.00  0.00     0.012 C 
ATOM     26  C   UNL     1     139.065 136.713 137.953  1.00  0.00     0.014 C 
ATOM     27  C   UNL     1     137.780 135.396 139.638  1.00  0.00     0.014 C 
ATOM     28  C   UNL     1     140.529 137.110 143.736  1.00  0.00     0.016 C 
ATOM     29  C   UNL     1     148.291 138.277 145.088  1.00  0.00     0.011 C 
ENDROOT
BRANCH   5  30
ATOM     30  C   UNL     1     143.646 137.758 146.733  1.00  0.00     0.163 C 
BRANCH  30  31
ATOM     31  O   UNL     1     143.248 137.025 147.851  1.00  0.00    -0.396 OA
ATOM     32  H   UNL     1     143.454 136.075 147.652  1.00  0.00     0.210 HD
ENDBRANCH  30  31
ENDBRANCH   5  30
BRANCH  14  33
ATOM     33  O   UNL     1     136.575 137.994 138.825  1.00  0.00    -0.393 OA
ATOM     34  H   UNL     1     136.851 138.625 138.109  1.00  0.00     0.210 HD
ENDBRANCH  14  33
TORSDOF 3
ENDMDL
MODEL 5
REMARK VINA RESULT:    -6.290      6.079     10.429
REMARK INTER + INTRA:          -7.025
REMARK INTER:                  -6.938
REMARK INTRA:                  -0.088
REMARK UNBOUND:                -0.000
REMARK SMILES CC1(C)CC[C@]2(CO)CC=C3[C@]4(C)CC[C@@H]5C(C)(C)[C@H](O)CC[C@@]5(C)[C@H]4CC[C@@]3(C)[C@H]2C1
REMARK SMILES IDX 1 1 2 2 4 3 5 4 6 5 9 6 10 7 11 8 12 9 14 10 15 11 16 12
REMARK SMILES IDX 17 13 20 14 22 15 23 16 24 17 26 18 27 19 28 20 29 21 31 22
REMARK SMILES IDX 32 23 30 24 25 25 18 26 19 27 13 28 3 29 7 30 8 31 21 33
REMARK H PARENT 8 32 21 34
REMARK Flexibility Score: inf
ROOT
ATOM      1  C   UNL     1     143.339 143.648 133.688  1.00  0.00     0.011 C 
ATOM      2  C   UNL     1     144.496 142.985 134.470  1.00  0.00    -0.035 C 
ATOM      3  C   UNL     1     145.512 144.087 134.875  1.00  0.00     0.007 C 
ATOM      4  C   UNL     1     146.554 143.610 135.902  1.00  0.00     0.010 C 
ATOM      5  C   UNL     1     145.909 143.008 137.189  1.00  0.00     0.001 C 
ATOM      6  C   UNL     1     147.045 142.386 138.034  1.00  0.00     0.037 C 
ATOM      7  C   UNL     1     146.525 141.579 139.187  1.00  0.00    -0.026 C 
ATOM      8  C   UNL     1     145.330 140.929 139.190  1.00  0.00    -0.062 C 
ATOM      9  C   UNL     1     144.808 140.390 140.557  1.00  0.00    -0.008 C 
ATOM     10  C   UNL     1     145.892 139.422 141.171  1.00  0.00     0.012 C 
ATOM     11  C   UNL     1     145.352 138.189 141.939  1.00  0.00     0.006 C 
ATOM     12  C   UNL     1     144.023 138.527 142.642  1.00  0.00     0.003 C 
ATOM     13  C   UNL     1     143.628 137.700 143.925  1.00  0.00    -0.006 C 
ATOM     14  C   UNL     1     142.385 138.409 144.575  1.00  0.00     0.120 C 
ATOM     15  C   UNL     1     141.241 138.748 143.590  1.00  0.00     0.033 C 
ATOM     16  C   UNL     1     141.721 139.500 142.326  1.00  0.00     0.010 C 
ATOM     17  C   UNL     1     142.883 138.776 141.584  1.00  0.00    -0.025 C 
ATOM     18  C   UNL     1     143.471 139.610 140.348  1.00  0.00     0.005 C 
ATOM     19  C   UNL     1     142.424 140.451 139.562  1.00  0.00     0.006 C 
ATOM     20  C   UNL     1     142.991 141.246 138.352  1.00  0.00     0.012 C 
ATOM     21  C   UNL     1     144.441 140.874 137.914  1.00  0.00    -0.008 C 
ATOM     22  C   UNL     1     144.978 141.835 136.755  1.00  0.00     0.008 C 
ATOM     23  C   UNL     1     143.902 142.286 135.729  1.00  0.00     0.011 C 
ATOM     24  C   UNL     1     144.435 139.422 137.318  1.00  0.00     0.016 C 
ATOM     25  C   UNL     1     142.318 137.448 140.973  1.00  0.00     0.012 C 
ATOM     26  C   UNL     1     143.371 136.199 143.636  1.00  0.00     0.014 C 
ATOM     27  C   UNL     1     144.783 137.767 144.967  1.00  0.00     0.014 C 
ATOM     28  C   UNL     1     144.572 141.638 141.466  1.00  0.00     0.016 C 
ATOM     29  C   UNL     1     145.163 141.952 133.529  1.00  0.00     0.011 C 
ENDROOT
BRANCH   5  30
ATOM     30  C   UNL     1     145.196 144.173 137.958  1.00  0.00     0.163 C 
BRANCH  30  31
ATOM     31  O   UNL     1     145.988 145.318 138.060  1.00  0.00    -0.396 OA
ATOM     32  H   UNL     1     145.803 145.860 137.251  1.00  0.00     0.210 HD
ENDBRANCH  30  31
ENDBRANCH   5  30
BRANCH  14  33
ATOM     33  O   UNL     1     141.895 137.691 145.683  1.00  0.00    -0.393 OA
ATOM     34  H   UNL     1     142.177 136.744 145.588  1.00  0.00     0.210 HD
ENDBRANCH  14  33
TORSDOF 3
ENDMDL
MODEL 6
REMARK VINA RESULT:    -6.277      6.366     10.996
REMARK INTER + INTRA:          -7.010
REMARK INTER:                  -6.993
REMARK INTRA:                  -0.017
REMARK UNBOUND:                -0.000
REMARK SMILES CC1(C)CC[C@]2(CO)CC=C3[C@]4(C)CC[C@@H]5C(C)(C)[C@H](O)CC[C@@]5(C)[C@H]4CC[C@@]3(C)[C@H]2C1
REMARK SMILES IDX 1 1 2 2 4 3 5 4 6 5 9 6 10 7 11 8 12 9 14 10 15 11 16 12
REMARK SMILES IDX 17 13 20 14 22 15 23 16 24 17 26 18 27 19 28 20 29 21 31 22
REMARK SMILES IDX 32 23 30 24 25 25 18 26 19 27 13 28 3 29 7 30 8 31 21 33
REMARK H PARENT 8 32 21 34
REMARK Flexibility Score: inf
ROOT
ATOM      1  C   UNL     1     146.510 139.650 147.434  1.00  0.00     0.011 C 
ATOM      2  C   UNL     1     146.294 138.596 146.326  1.00  0.00    -0.035 C 
ATOM      3  C   UNL     1     145.127 137.665 146.751  1.00  0.00     0.007 C 
ATOM      4  C   UNL     1     144.620 136.761 145.614  1.00  0.00     0.010 C 
ATOM      5  C   UNL     1     144.201 137.560 144.342  1.00  0.00     0.001 C 
ATOM      6  C   UNL     1     143.914 136.535 143.220  1.00  0.00     0.037 C 
ATOM      7  C   UNL     1     143.719 137.189 141.883  1.00  0.00    -0.026 C 
ATOM      8  C   UNL     1     144.301 138.361 141.511  1.00  0.00    -0.062 C 
ATOM      9  C   UNL     1     143.769 139.050 140.218  1.00  0.00    -0.008 C 
ATOM     10  C   UNL     1     143.892 138.040 139.013  1.00  0.00     0.012 C 
ATOM     11  C   UNL     1     144.270 138.654 137.641  1.00  0.00     0.006 C 
ATOM     12  C   UNL     1     143.681 140.070 137.501  1.00  0.00     0.003 C 
ATOM     13  C   UNL     1     143.394 140.617 136.050  1.00  0.00    -0.006 C 
ATOM     14  C   UNL     1     142.576 141.950 136.204  1.00  0.00     0.120 C 
ATOM     15  C   UNL     1     143.160 142.958 137.222  1.00  0.00     0.033 C 
ATOM     16  C   UNL     1     143.477 142.328 138.599  1.00  0.00     0.010 C 
ATOM     17  C   UNL     1     144.380 141.064 138.504  1.00  0.00    -0.025 C 
ATOM     18  C   UNL     1     144.608 140.332 139.912  1.00  0.00     0.005 C 
ATOM     19  C   UNL     1     144.690 141.280 141.142  1.00  0.00     0.006 C 
ATOM     20  C   UNL     1     144.928 140.572 142.506  1.00  0.00     0.012 C 
ATOM     21  C   UNL     1     145.339 139.070 142.429  1.00  0.00    -0.008 C 
ATOM     22  C   UNL     1     145.429 138.402 143.878  1.00  0.00     0.008 C 
ATOM     23  C   UNL     1     145.957 139.339 144.999  1.00  0.00     0.011 C 
ATOM     24  C   UNL     1     146.776 138.968 141.804  1.00  0.00     0.016 C 
ATOM     25  C   UNL     1     145.801 141.516 138.023  1.00  0.00     0.012 C 
ATOM     26  C   UNL     1     144.676 140.804 135.197  1.00  0.00     0.014 C 
ATOM     27  C   UNL     1     142.485 139.614 135.282  1.00  0.00     0.014 C 
ATOM     28  C   UNL     1     142.279 139.430 140.499  1.00  0.00     0.016 C 
ATOM     29  C   UNL     1     147.608 137.788 146.187  1.00  0.00     0.011 C 
ENDROOT
BRANCH   5  30
ATOM     30  C   UNL     1     142.921 138.392 144.697  1.00  0.00     0.163 C 
BRANCH  30  31
ATOM     31  O   UNL     1     142.056 137.713 145.557  1.00  0.00    -0.396 OA
ATOM     32  H   UNL     1     142.614 137.071 146.067  1.00  0.00     0.210 HD
ENDBRANCH  30  31
ENDBRANCH   5  30
BRANCH  14  33
ATOM     33  O   UNL     1     142.347 142.570 134.961  1.00  0.00    -0.393 OA
ATOM     34  H   UNL     1     141.689 142.022 134.458  1.00  0.00     0.210 HD
ENDBRANCH  14  33
TORSDOF 3
ENDMDL
MODEL 7
REMARK VINA RESULT:    -6.224      8.476     11.049
REMARK INTER + INTRA:          -6.952
REMARK INTER:                  -6.861
REMARK INTRA:                  -0.091
REMARK UNBOUND:                -0.000
REMARK SMILES CC1(C)CC[C@]2(CO)CC=C3[C@]4(C)CC[C@@H]5C(C)(C)[C@H](O)CC[C@@]5(C)[C@H]4CC[C@@]3(C)[C@H]2C1
REMARK SMILES IDX 1 1 2 2 4 3 5 4 6 5 9 6 10 7 11 8 12 9 14 10 15 11 16 12
REMARK SMILES IDX 17 13 20 14 22 15 23 16 24 17 26 18 27 19 28 20 29 21 31 22
REMARK SMILES IDX 32 23 30 24 25 25 18 26 19 27 13 28 3 29 7 30 8 31 21 33
REMARK H PARENT 8 32 21 34
REMARK Flexibility Score: inf
ROOT
ATOM      1  C   UNL     1     144.330 141.490 141.402  1.00  0.00     0.011 C 
ATOM      2  C   UNL     1     142.946 141.580 142.083  1.00  0.00    -0.035 C 
ATOM      3  C   UNL     1     142.764 143.017 142.643  1.00  0.00     0.007 C 
ATOM      4  C   UNL     1     141.322 143.324 143.084  1.00  0.00     0.010 C 
ATOM      5  C   UNL     1     140.275 143.076 141.955  1.00  0.00     0.001 C 
ATOM      6  C   UNL     1     138.868 143.219 142.583  1.00  0.00     0.037 C 
ATOM      7  C   UNL     1     137.777 142.783 141.649  1.00  0.00    -0.026 C 
ATOM      8  C   UNL     1     137.927 141.834 140.686  1.00  0.00    -0.062 C 
ATOM      9  C   UNL     1     136.799 141.710 139.617  1.00  0.00    -0.008 C 
ATOM     10  C   UNL     1     135.427 141.449 140.350  1.00  0.00     0.012 C 
ATOM     11  C   UNL     1     134.440 140.491 139.635  1.00  0.00     0.006 C 
ATOM     12  C   UNL     1     134.571 140.622 138.106  1.00  0.00     0.003 C 
ATOM     13  C   UNL     1     133.320 140.258 137.218  1.00  0.00    -0.006 C 
ATOM     14  C   UNL     1     133.638 140.716 135.749  1.00  0.00     0.120 C 
ATOM     15  C   UNL     1     135.020 140.274 135.213  1.00  0.00     0.033 C 
ATOM     16  C   UNL     1     136.187 140.607 136.173  1.00  0.00     0.010 C 
ATOM     17  C   UNL     1     135.966 140.074 137.619  1.00  0.00    -0.025 C 
ATOM     18  C   UNL     1     137.108 140.523 138.649  1.00  0.00     0.005 C 
ATOM     19  C   UNL     1     138.539 140.622 138.046  1.00  0.00     0.006 C 
ATOM     20  C   UNL     1     139.650 141.042 139.049  1.00  0.00     0.012 C 
ATOM     21  C   UNL     1     139.248 141.021 140.556  1.00  0.00    -0.008 C 
ATOM     22  C   UNL     1     140.411 141.594 141.490  1.00  0.00     0.008 C 
ATOM     23  C   UNL     1     141.853 141.254 141.022  1.00  0.00     0.011 C 
ATOM     24  C   UNL     1     139.016 139.533 140.999  1.00  0.00     0.016 C 
ATOM     25  C   UNL     1     136.023 138.508 137.574  1.00  0.00     0.012 C 
ATOM     26  C   UNL     1     132.922 138.761 137.298  1.00  0.00     0.014 C 
ATOM     27  C   UNL     1     132.085 141.078 137.692  1.00  0.00     0.014 C 
ATOM     28  C   UNL     1     136.782 143.061 138.831  1.00  0.00     0.016 C 
ATOM     29  C   UNL     1     142.924 140.545 143.234  1.00  0.00     0.011 C 
ENDROOT
BRANCH   5  30
ATOM     30  C   UNL     1     140.512 144.148 140.836  1.00  0.00     0.163 C 
BRANCH  30  31
ATOM     31  O   UNL     1     140.661 145.438 141.346  1.00  0.00    -0.396 OA
ATOM     32  H   UNL     1     139.797 145.675 141.771  1.00  0.00     0.210 HD
ENDBRANCH  30  31
ENDBRANCH   5  30
BRANCH  14  33
ATOM     33  O   UNL     1     132.614 140.351 134.854  1.00  0.00    -0.393 OA
ATOM     34  H   UNL     1     131.820 140.915 135.046  1.00  0.00     0.210 HD
ENDBRANCH  14  33
TORSDOF 3
ENDMDL
MODEL 8
REMARK VINA RESULT:    -6.090      5.336      8.892
REMARK INTER + INTRA:          -6.802
REMARK INTER:                  -6.676
REMARK INTRA:                  -0.126
REMARK UNBOUND:                -0.000
REMARK SMILES CC1(C)CC[C@]2(CO)CC=C3[C@]4(C)CC[C@@H]5C(C)(C)[C@H](O)CC[C@@]5(C)[C@H]4CC[C@@]3(C)[C@H]2C1
REMARK SMILES IDX 1 1 2 2 4 3 5 4 6 5 9 6 10 7 11 8 12 9 14 10 15 11 16 12
REMARK SMILES IDX 17 13 20 14 22 15 23 16 24 17 26 18 27 19 28 20 29 21 31 22
REMARK SMILES IDX 32 23 30 24 25 25 18 26 19 27 13 28 3 29 7 30 8 31 21 33
REMARK H PARENT 8 32 21 34
REMARK Flexibility Score: inf
ROOT
ATOM      1  C   UNL     1     141.869 139.947 134.950  1.00  0.00     0.011 C 
ATOM      2  C   UNL     1     143.197 140.020 135.737  1.00  0.00    -0.035 C 
ATOM      3  C   UNL     1     143.672 141.497 135.766  1.00  0.00     0.007 C 
ATOM      4  C   UNL     1     144.819 141.752 136.760  1.00  0.00     0.010 C 
ATOM      5  C   UNL     1     144.479 141.293 138.212  1.00  0.00     0.001 C 
ATOM      6  C   UNL     1     145.771 141.410 139.053  1.00  0.00     0.037 C 
ATOM      7  C   UNL     1     145.630 140.786 140.411  1.00  0.00    -0.026 C 
ATOM      8  C   UNL     1     144.806 139.740 140.691  1.00  0.00    -0.062 C 
ATOM      9  C   UNL     1     144.553 139.406 142.192  1.00  0.00    -0.008 C 
ATOM     10  C   UNL     1     145.939 139.139 142.896  1.00  0.00     0.012 C 
ATOM     11  C   UNL     1     145.953 138.032 143.982  1.00  0.00     0.006 C 
ATOM     12  C   UNL     1     144.604 137.983 144.723  1.00  0.00     0.003 C 
ATOM     13  C   UNL     1     144.584 137.424 146.198  1.00  0.00    -0.006 C 
ATOM     14  C   UNL     1     143.161 137.722 146.793  1.00  0.00     0.120 C 
ATOM     15  C   UNL     1     141.977 137.317 145.883  1.00  0.00     0.033 C 
ATOM     16  C   UNL     1     142.105 137.848 144.435  1.00  0.00     0.010 C 
ATOM     17  C   UNL     1     143.460 137.481 143.763  1.00  0.00    -0.025 C 
ATOM     18  C   UNL     1     143.653 138.134 142.312  1.00  0.00     0.005 C 
ATOM     19  C   UNL     1     142.353 138.261 141.467  1.00  0.00     0.006 C 
ATOM     20  C   UNL     1     142.542 138.879 140.053  1.00  0.00     0.012 C 
ATOM     21  C   UNL     1     144.017 139.014 139.563  1.00  0.00    -0.008 C 
ATOM     22  C   UNL     1     144.111 139.779 138.163  1.00  0.00     0.008 C 
ATOM     23  C   UNL     1     142.943 139.489 137.179  1.00  0.00     0.011 C 
ATOM     24  C   UNL     1     144.606 137.579 139.325  1.00  0.00     0.016 C 
ATOM     25  C   UNL     1     143.489 135.930 143.540  1.00  0.00     0.012 C 
ATOM     26  C   UNL     1     144.965 135.924 146.293  1.00  0.00     0.014 C 
ATOM     27  C   UNL     1     145.612 138.207 147.068  1.00  0.00     0.014 C 
ATOM     28  C   UNL     1     143.827 140.645 142.807  1.00  0.00     0.016 C 
ATOM     29  C   UNL     1     144.228 139.134 134.997  1.00  0.00     0.011 C 
ENDROOT
BRANCH   5  30
ATOM     30  C   UNL     1     143.352 142.234 138.761  1.00  0.00     0.163 C 
BRANCH  30  31
ATOM     31  O   UNL     1     143.821 143.509 139.082  1.00  0.00    -0.396 OA
ATOM     32  H   UNL     1     143.020 144.086 139.181  1.00  0.00     0.210 HD
ENDBRANCH  30  31
ENDBRANCH   5  30
BRANCH  14  33
ATOM     33  O   UNL     1     143.009 137.177 148.083  1.00  0.00    -0.393 OA
ATOM     34  H   UNL     1     142.051 136.954 148.214  1.00  0.00     0.210 HD
ENDBRANCH  14  33
TORSDOF 3
ENDMDL
MODEL 9
REMARK VINA RESULT:    -6.046      9.422     13.750
REMARK INTER + INTRA:          -6.753
REMARK INTER:                  -6.653
REMARK INTRA:                  -0.100
REMARK UNBOUND:                -0.000
REMARK SMILES CC1(C)CC[C@]2(CO)CC=C3[C@]4(C)CC[C@@H]5C(C)(C)[C@H](O)CC[C@@]5(C)[C@H]4CC[C@@]3(C)[C@H]2C1
REMARK SMILES IDX 1 1 2 2 4 3 5 4 6 5 9 6 10 7 11 8 12 9 14 10 15 11 16 12
REMARK SMILES IDX 17 13 20 14 22 15 23 16 24 17 26 18 27 19 28 20 29 21 31 22
REMARK SMILES IDX 32 23 30 24 25 25 18 26 19 27 13 28 3 29 7 30 8 31 21 33
REMARK H PARENT 8 32 21 34
REMARK Flexibility Score: inf
ROOT
ATOM      1  C   UNL     1     134.446 148.998 135.337  1.00  0.00     0.011 C 
ATOM      2  C   UNL     1     135.747 149.083 136.165  1.00  0.00    -0.035 C 
ATOM      3  C   UNL     1     135.509 150.044 137.360  1.00  0.00     0.007 C 
ATOM      4  C   UNL     1     136.623 149.989 138.421  1.00  0.00     0.010 C 
ATOM      5  C   UNL     1     136.877 148.549 138.963  1.00  0.00     0.001 C 
ATOM      6  C   UNL     1     138.142 148.600 139.852  1.00  0.00     0.037 C 
ATOM      7  C   UNL     1     138.618 147.234 140.251  1.00  0.00    -0.026 C 
ATOM      8  C   UNL     1     138.437 146.112 139.504  1.00  0.00    -0.062 C 
ATOM      9  C   UNL     1     138.723 144.740 140.186  1.00  0.00    -0.008 C 
ATOM     10  C   UNL     1     140.206 144.736 140.723  1.00  0.00     0.012 C 
ATOM     11  C   UNL     1     140.967 143.389 140.621  1.00  0.00     0.006 C 
ATOM     12  C   UNL     1     139.998 142.205 140.802  1.00  0.00     0.003 C 
ATOM     13  C   UNL     1     140.579 140.844 141.349  1.00  0.00    -0.006 C 
ATOM     14  C   UNL     1     139.358 139.910 141.673  1.00  0.00     0.120 C 
ATOM     15  C   UNL     1     138.299 139.809 140.550  1.00  0.00     0.033 C 
ATOM     16  C   UNL     1     137.830 141.186 140.021  1.00  0.00     0.010 C 
ATOM     17  C   UNL     1     139.005 142.109 139.583  1.00  0.00    -0.025 C 
ATOM     18  C   UNL     1     138.538 143.581 139.155  1.00  0.00     0.005 C 
ATOM     19  C   UNL     1     137.158 143.653 138.441  1.00  0.00     0.006 C 
ATOM     20  C   UNL     1     136.711 145.079 138.010  1.00  0.00     0.012 C 
ATOM     21  C   UNL     1     137.809 146.185 138.081  1.00  0.00    -0.008 C 
ATOM     22  C   UNL     1     137.219 147.632 137.749  1.00  0.00     0.008 C 
ATOM     23  C   UNL     1     136.106 147.652 136.665  1.00  0.00     0.011 C 
ATOM     24  C   UNL     1     138.899 145.889 136.991  1.00  0.00     0.016 C 
ATOM     25  C   UNL     1     139.666 141.482 138.307  1.00  0.00     0.012 C 
ATOM     26  C   UNL     1     141.597 140.178 140.387  1.00  0.00     0.014 C 
ATOM     27  C   UNL     1     141.326 141.096 142.691  1.00  0.00     0.014 C 
ATOM     28  C   UNL     1     137.691 144.600 141.351  1.00  0.00     0.016 C 
ATOM     29  C   UNL     1     136.856 149.637 135.238  1.00  0.00     0.011 C 
ENDROOT
BRANCH   5  30
ATOM     30  C   UNL     1     135.617 148.117 139.787  1.00  0.00     0.163 C 
BRANCH  30  31
ATOM     31  O   UNL     1     135.613 148.636 141.083  1.00  0.00    -0.396 OA
ATOM     32  H   UNL     1     136.089 147.978 141.651  1.00  0.00     0.210 HD
ENDBRANCH  30  31
ENDBRANCH   5  30
BRANCH  14  33
ATOM     33  O   UNL     1     139.774 138.629 142.084  1.00  0.00    -0.393 OA
ATOM     34  H   UNL     1     139.951 138.085 141.272  1.00  0.00     0.210 HD
ENDBRANCH  14  33
TORSDOF 3
ENDMDL
