MODEL 1
REMARK VINA RESULT:    13.116      0.000      0.000
REMARK INTER + INTRA:          22.580
REMARK INTER:                  20.017
REMARK INTRA:                   2.563
REMARK UNBOUND:                 2.563
REMARK SMILES CC1=CCC[C@H](C)C(=O)C[C@H](C(C)C)C(=O)C1
REMARK SMILES IDX 8 1 9 2 6 3 7 4 5 5 4 6 3 7 2 8 1 9 10 11 11 12 15 13 16 14
REMARK SMILES IDX 17 15 12 17 13 18 14 19
REMARK H PARENT
REMARK Flexibility Score: 70.00
ROOT
ATOM      1  C   UNL     1     146.258  54.954  17.821  1.00  0.00     0.136 C 
ATOM      2  O   UNL     1     145.789  54.412  18.810  1.00  0.00    -0.299 OA
ENDROOT
BRANCH   1   3
ATOM      3  C   UNL     1     146.631  54.095  16.626  1.00  0.00     0.053 C 
ATOM      4  C   UNL     1     147.005  52.673  17.065  1.00  0.00     0.016 C 
BRANCH   3   5
ATOM      5  C   UNL     1     145.506  54.073  15.574  1.00  0.00     0.015 C 
BRANCH   5   6
ATOM      6  C   UNL     1     145.499  55.352  14.716  1.00  0.00     0.028 C 
BRANCH   6   7
ATOM      7  C   UNL     1     144.100  55.710  14.285  1.00  0.00    -0.028 C 
ATOM      8  C   UNL     1     143.537  56.930  14.443  1.00  0.00    -0.070 CG0
ATOM      9  C   UNL     1     142.108  57.115  13.997  1.00  0.00     0.039 C 
ATOM     10  G   UNL     1     144.280  58.116  15.040  1.00  0.00     0.000 G0
ENDBRANCH   6   7
ENDBRANCH   5   6
ENDBRANCH   3   5
ENDBRANCH   1   3
BRANCH   1  11
ATOM     11  C   UNL     1     146.413  56.460  17.823  1.00  0.00     0.087 C 
BRANCH  11  12
ATOM     12  C   UNL     1     146.234  57.072  16.407  1.00  0.00     0.066 C 
BRANCH  12  13
ATOM     13  C   UNL     1     144.916  57.827  16.350  1.00  0.00     0.140 C 
ATOM     14  O   UNL     1     144.434  58.273  17.383  1.00  0.00    -0.299 OA
BRANCH  13  15
ATOM     15  C   UNL     1     144.253  58.134  15.030  1.00  0.00     0.106 CG0
ATOM     16  G   UNL     1     143.531  56.926  14.453  1.00  0.00     0.000 G0
ENDBRANCH  13  15
ENDBRANCH  12  13
BRANCH  12  17
ATOM     17  C   UNL     1     147.422  58.009  16.004  1.00  0.00    -0.006 C 
ATOM     18  C   UNL     1     147.329  58.430  14.524  1.00  0.00     0.008 C 
ATOM     19  C   UNL     1     148.794  57.347  16.239  1.00  0.00     0.008 C 
ENDBRANCH  12  17
ENDBRANCH  11  12
ENDBRANCH   1  11
TORSDOF 1
ENDMDL
MODEL 2
REMARK VINA RESULT:    13.341      1.849      4.453
REMARK INTER + INTRA:          22.923
REMARK INTER:                  20.735
REMARK INTRA:                   2.188
REMARK UNBOUND:                 2.563
REMARK SMILES CC1=CCC[C@H](C)C(=O)C[C@H](C(C)C)C(=O)C1
REMARK SMILES IDX 8 1 9 2 6 3 7 4 5 5 4 6 3 7 2 8 1 9 10 11 11 12 15 13 16 14
REMARK SMILES IDX 17 15 12 17 13 18 14 19
REMARK H PARENT
REMARK Flexibility Score: 70.00
ROOT
ATOM      1  C   UNL     1     145.093  55.818  14.357  1.00  0.00     0.136 C 
ATOM      2  O   UNL     1     145.896  55.789  13.436  1.00  0.00    -0.299 OA
ENDROOT
BRANCH   1   3
ATOM      3  C   UNL     1     144.115  56.976  14.435  1.00  0.00     0.053 C 
ATOM      4  C   UNL     1     142.738  56.572  13.891  1.00  0.00     0.016 C 
BRANCH   3   5
ATOM      5  C   UNL     1     144.006  57.526  15.869  1.00  0.00     0.015 C 
BRANCH   5   6
ATOM      6  C   UNL     1     144.974  58.700  16.109  1.00  0.00     0.028 C 
BRANCH   6   7
ATOM      7  C   UNL     1     146.337  58.405  15.537  1.00  0.00    -0.028 C 
ATOM      8  C   UNL     1     147.280  57.654  16.151  1.00  0.00    -0.070 CG0
ATOM      9  C   UNL     1     148.612  57.489  15.464  1.00  0.00     0.039 C 
ATOM     10  G   UNL     1     147.052  56.967  17.489  1.00  0.00     0.000 G0
ENDBRANCH   6   7
ENDBRANCH   5   6
ENDBRANCH   3   5
ENDBRANCH   1   3
BRANCH   1  11
ATOM     11  C   UNL     1     145.094  54.681  15.357  1.00  0.00     0.087 C 
BRANCH  11  12
ATOM     12  C   UNL     1     146.334  54.722  16.293  1.00  0.00     0.066 C 
BRANCH  12  13
ATOM     13  C   UNL     1     146.119  55.781  17.362  1.00  0.00     0.140 C 
ATOM     14  O   UNL     1     145.239  55.621  18.198  1.00  0.00    -0.299 OA
BRANCH  13  15
ATOM     15  C   UNL     1     147.046  56.965  17.480  1.00  0.00     0.106 CG0
ATOM     16  G   UNL     1     147.277  57.651  16.142  1.00  0.00     0.000 G0
ENDBRANCH  13  15
ENDBRANCH  12  13
BRANCH  12  17
ATOM     17  C   UNL     1     146.637  53.333  16.948  1.00  0.00    -0.006 C 
ATOM     18  C   UNL     1     146.095  53.261  18.389  1.00  0.00     0.008 C 
ATOM     19  C   UNL     1     148.145  53.017  16.977  1.00  0.00     0.008 C 
ENDBRANCH  12  17
ENDBRANCH  11  12
ENDBRANCH   1  11
TORSDOF 1
ENDMDL
MODEL 3
REMARK VINA RESULT:    13.800      1.531      3.700
REMARK INTER + INTRA:          23.623
REMARK INTER:                  22.662
REMARK INTRA:                   0.961
REMARK UNBOUND:                 2.563
REMARK SMILES CC1=CCC[C@H](C)C(=O)C[C@H](C(C)C)C(=O)C1
REMARK SMILES IDX 8 1 9 2 6 3 7 4 5 5 4 6 3 7 2 8 1 9 10 11 11 12 15 13 16 14
REMARK SMILES IDX 17 15 12 17 13 18 14 19
REMARK H PARENT
REMARK Flexibility Score: 70.00
ROOT
ATOM      1  C   UNL     1     146.889  57.237  16.994  1.00  0.00     0.136 C 
ATOM      2  O   UNL     1     146.756  57.494  18.181  1.00  0.00    -0.299 OA
ENDROOT
BRANCH   1   3
ATOM      3  C   UNL     1     146.768  58.365  15.986  1.00  0.00     0.053 C 
ATOM      4  C   UNL     1     147.377  57.966  14.635  1.00  0.00     0.016 C 
BRANCH   3   5
ATOM      5  C   UNL     1     145.306  58.821  15.823  1.00  0.00     0.015 C 
BRANCH   5   6
ATOM      6  C   UNL     1     144.314  57.760  16.335  1.00  0.00     0.028 C 
BRANCH   6   7
ATOM      7  C   UNL     1     143.442  57.247  15.218  1.00  0.00    -0.028 C 
ATOM      8  C   UNL     1     143.854  56.389  14.256  1.00  0.00    -0.070 CG0
ATOM      9  C   UNL     1     142.869  56.004  13.181  1.00  0.00     0.039 C 
ATOM     10  G   UNL     1     145.254  55.796  14.217  1.00  0.00     0.000 G0
ENDBRANCH   6   7
ENDBRANCH   5   6
ENDBRANCH   3   5
ENDBRANCH   1   3
BRANCH   1  11
ATOM     11  C   UNL     1     147.201  55.811  16.591  1.00  0.00     0.087 C 
BRANCH  11  12
ATOM     12  C   UNL     1     145.936  54.909  16.597  1.00  0.00     0.066 C 
BRANCH  12  13
ATOM     13  C   UNL     1     145.498  54.650  15.164  1.00  0.00     0.140 C 
ATOM     14  O   UNL     1     145.231  53.508  14.814  1.00  0.00    -0.299 OA
BRANCH  13  15
ATOM     15  C   UNL     1     145.278  55.791  14.202  1.00  0.00     0.106 CG0
ATOM     16  G   UNL     1     143.859  56.337  14.270  1.00  0.00     0.000 G0
ENDBRANCH  13  15
ENDBRANCH  12  13
BRANCH  12  17
ATOM     17  C   UNL     1     146.168  53.557  17.352  1.00  0.00    -0.006 C 
ATOM     18  C   UNL     1     145.876  53.698  18.860  1.00  0.00     0.008 C 
ATOM     19  C   UNL     1     147.607  53.031  17.182  1.00  0.00     0.008 C 
ENDBRANCH  12  17
ENDBRANCH  11  12
ENDBRANCH   1  11
TORSDOF 1
ENDMDL
MODEL 4
REMARK VINA RESULT:    14.280      1.955      3.918
REMARK INTER + INTRA:          24.356
REMARK INTER:                  20.797
REMARK INTRA:                   3.559
REMARK UNBOUND:                 2.563
REMARK SMILES CC1=CCC[C@H](C)C(=O)C[C@H](C(C)C)C(=O)C1
REMARK SMILES IDX 8 1 9 2 6 3 7 4 5 5 4 6 3 7 2 8 1 9 10 11 11 12 15 13 16 14
REMARK SMILES IDX 17 15 12 17 13 18 14 19
REMARK H PARENT
REMARK Flexibility Score: 70.00
ROOT
ATOM      1  C   UNL     1     146.154  54.098  16.640  1.00  0.00     0.136 C 
ATOM      2  O   UNL     1     147.191  53.521  16.350  1.00  0.00    -0.299 OA
ENDROOT
BRANCH   1   3
ATOM      3  C   UNL     1     145.781  54.236  18.105  1.00  0.00     0.053 C 
ATOM      4  C   UNL     1     146.272  53.030  18.915  1.00  0.00     0.016 C 
BRANCH   3   5
ATOM      5  C   UNL     1     146.308  55.556  18.698  1.00  0.00     0.015 C 
BRANCH   5   6
ATOM      6  C   UNL     1     146.321  56.690  17.655  1.00  0.00     0.028 C 
BRANCH   6   7
ATOM      7  C   UNL     1     147.731  57.078  17.292  1.00  0.00    -0.028 C 
ATOM      8  C   UNL     1     148.097  57.616  16.106  1.00  0.00    -0.070 CG0
ATOM      9  C   UNL     1     149.559  57.910  15.883  1.00  0.00     0.039 C 
ATOM     10  G   UNL     1     147.104  57.942  15.001  1.00  0.00     0.000 G0
ENDBRANCH   6   7
ENDBRANCH   5   6
ENDBRANCH   3   5
ENDBRANCH   1   3
BRANCH   1  11
ATOM     11  C   UNL     1     145.308  54.675  15.525  1.00  0.00     0.087 C 
BRANCH  11  12
ATOM     12  C   UNL     1     145.236  56.226  15.584  1.00  0.00     0.066 C 
BRANCH  12  13
ATOM     13  C   UNL     1     146.231  56.812  14.595  1.00  0.00     0.140 C 
ATOM     14  O   UNL     1     146.248  56.400  13.443  1.00  0.00    -0.299 OA
BRANCH  13  15
ATOM     15  C   UNL     1     147.118  57.970  14.980  1.00  0.00     0.106 CG0
ATOM     16  G   UNL     1     148.092  57.606  16.091  1.00  0.00     0.000 G0
ENDBRANCH  13  15
ENDBRANCH  12  13
BRANCH  12  17
ATOM     17  C   UNL     1     143.795  56.770  15.300  1.00  0.00    -0.006 C 
ATOM     18  C   UNL     1     143.433  56.653  13.806  1.00  0.00     0.008 C 
ATOM     19  C   UNL     1     143.632  58.242  15.728  1.00  0.00     0.008 C 
ENDBRANCH  12  17
ENDBRANCH  11  12
ENDBRANCH   1  11
TORSDOF 1
ENDMDL
MODEL 5
REMARK VINA RESULT:    14.383      1.738      4.216
REMARK INTER + INTRA:          24.513
REMARK INTER:                  21.563
REMARK INTRA:                   2.951
REMARK UNBOUND:                 2.563
REMARK SMILES CC1=CCC[C@H](C)C(=O)C[C@H](C(C)C)C(=O)C1
REMARK SMILES IDX 8 1 9 2 6 3 7 4 5 5 4 6 3 7 2 8 1 9 10 11 11 12 15 13 16 14
REMARK SMILES IDX 17 15 12 17 13 18 14 19
REMARK H PARENT
REMARK Flexibility Score: 70.00
ROOT
ATOM      1  C   UNL     1     146.478  57.359  16.669  1.00  0.00     0.136 C 
ATOM      2  O   UNL     1     147.319  57.555  15.804  1.00  0.00    -0.299 OA
ENDROOT
BRANCH   1   3
ATOM      3  C   UNL     1     145.183  58.149  16.618  1.00  0.00     0.053 C 
ATOM      4  C   UNL     1     145.169  59.110  15.422  1.00  0.00     0.016 C 
BRANCH   3   5
ATOM      5  C   UNL     1     143.955  57.219  16.598  1.00  0.00     0.015 C 
BRANCH   5   6
ATOM      6  C   UNL     1     143.387  57.050  15.177  1.00  0.00     0.028 C 
BRANCH   6   7
ATOM      7  C   UNL     1     144.471  56.681  14.198  1.00  0.00    -0.028 C 
ATOM      8  C   UNL     1     145.179  55.529  14.235  1.00  0.00    -0.070 CG0
ATOM      9  C   UNL     1     146.263  55.330  13.205  1.00  0.00     0.039 C 
ATOM     10  G   UNL     1     144.926  54.432  15.258  1.00  0.00     0.000 G0
ENDBRANCH   6   7
ENDBRANCH   5   6
ENDBRANCH   3   5
ENDBRANCH   1   3
BRANCH   1  11
ATOM     11  C   UNL     1     146.756  56.314  17.729  1.00  0.00     0.087 C 
BRANCH  11  12
ATOM     12  C   UNL     1     145.758  55.126  17.659  1.00  0.00     0.066 C 
BRANCH  12  13
ATOM     13  C   UNL     1     145.976  54.365  16.361  1.00  0.00     0.140 C 
ATOM     14  O   UNL     1     146.959  53.646  16.243  1.00  0.00    -0.299 OA
BRANCH  13  15
ATOM     15  C   UNL     1     144.942  54.391  15.262  1.00  0.00     0.106 CG0
ATOM     16  G   UNL     1     145.188  55.513  14.266  1.00  0.00     0.000 G0
ENDBRANCH  13  15
ENDBRANCH  12  13
BRANCH  12  17
ATOM     17  C   UNL     1     145.885  54.163  18.887  1.00  0.00    -0.006 C 
ATOM     18  C   UNL     1     146.691  52.899  18.530  1.00  0.00     0.008 C 
ATOM     19  C   UNL     1     144.510  53.728  19.432  1.00  0.00     0.008 C 
ENDBRANCH  12  17
ENDBRANCH  11  12
ENDBRANCH   1  11
TORSDOF 1
ENDMDL
MODEL 6
REMARK VINA RESULT:    14.564      1.672      2.551
REMARK INTER + INTRA:          24.790
REMARK INTER:                  22.051
REMARK INTRA:                   2.739
REMARK UNBOUND:                 2.563
REMARK SMILES CC1=CCC[C@H](C)C(=O)C[C@H](C(C)C)C(=O)C1
REMARK SMILES IDX 8 1 9 2 6 3 7 4 5 5 4 6 3 7 2 8 1 9 10 11 11 12 15 13 16 14
REMARK SMILES IDX 17 15 12 17 13 18 14 19
REMARK H PARENT
REMARK Flexibility Score: 70.00
ROOT
ATOM      1  C   UNL     1     145.875  55.093  18.330  1.00  0.00     0.136 C 
ATOM      2  O   UNL     1     145.858  55.497  19.484  1.00  0.00    -0.299 OA
ENDROOT
BRANCH   1   3
ATOM      3  C   UNL     1     146.592  53.791  18.024  1.00  0.00     0.053 C 
ATOM      4  C   UNL     1     146.399  52.775  19.157  1.00  0.00     0.016 C 
BRANCH   3   5
ATOM      5  C   UNL     1     146.146  53.206  16.671  1.00  0.00     0.015 C 
BRANCH   5   6
ATOM      6  C   UNL     1     146.621  54.069  15.488  1.00  0.00     0.028 C 
BRANCH   6   7
ATOM      7  C   UNL     1     145.453  54.652  14.736  1.00  0.00    -0.028 C 
ATOM      8  C   UNL     1     145.376  55.934  14.311  1.00  0.00    -0.070 CG0
ATOM      9  C   UNL     1     144.117  56.374  13.608  1.00  0.00     0.039 C 
ATOM     10  G   UNL     1     146.500  56.941  14.506  1.00  0.00     0.000 G0
ENDBRANCH   6   7
ENDBRANCH   5   6
ENDBRANCH   3   5
ENDBRANCH   1   3
BRANCH   1  11
ATOM     11  C   UNL     1     145.152  55.896  17.270  1.00  0.00     0.087 C 
BRANCH  11  12
ATOM     12  C   UNL     1     145.803  57.288  17.040  1.00  0.00     0.066 C 
BRANCH  12  13
ATOM     13  C   UNL     1     146.863  57.173  15.957  1.00  0.00     0.140 C 
ATOM     14  O   UNL     1     148.045  57.139  16.273  1.00  0.00    -0.299 OA
BRANCH  13  15
ATOM     15  C   UNL     1     146.478  56.984  14.510  1.00  0.00     0.106 CG0
ATOM     16  G   UNL     1     145.393  55.932  14.335  1.00  0.00     0.000 G0
ENDBRANCH  13  15
ENDBRANCH  12  13
BRANCH  12  17
ATOM     17  C   UNL     1     144.752  58.386  16.665  1.00  0.00    -0.006 C 
ATOM     18  C   UNL     1     144.679  59.486  17.744  1.00  0.00     0.008 C 
ATOM     19  C   UNL     1     143.339  57.801  16.469  1.00  0.00     0.008 C 
ENDBRANCH  12  17
ENDBRANCH  11  12
ENDBRANCH   1  11
TORSDOF 1
ENDMDL
MODEL 7
REMARK VINA RESULT:    14.852      1.739      2.661
REMARK INTER + INTRA:          25.229
REMARK INTER:                  23.936
REMARK INTRA:                   1.293
REMARK UNBOUND:                 2.563
REMARK SMILES CC1=CCC[C@H](C)C(=O)C[C@H](C(C)C)C(=O)C1
REMARK SMILES IDX 8 1 9 2 6 3 7 4 5 5 4 6 3 7 2 8 1 9 10 11 11 12 15 13 16 14
REMARK SMILES IDX 17 15 12 17 13 18 14 19
REMARK H PARENT
REMARK Flexibility Score: 70.00
ROOT
ATOM      1  C   UNL     1     146.685  56.883  16.545  1.00  0.00     0.136 C 
ATOM      2  O   UNL     1     147.512  57.375  15.791  1.00  0.00    -0.299 OA
ENDROOT
BRANCH   1   3
ATOM      3  C   UNL     1     146.448  55.384  16.489  1.00  0.00     0.053 C 
ATOM      4  C   UNL     1     145.911  54.861  17.827  1.00  0.00     0.016 C 
BRANCH   3   5
ATOM      5  C   UNL     1     145.512  55.004  15.327  1.00  0.00     0.015 C 
BRANCH   5   6
ATOM      6  C   UNL     1     145.278  56.186  14.368  1.00  0.00     0.028 C 
BRANCH   6   7
ATOM      7  C   UNL     1     143.864  56.194  13.848  1.00  0.00    -0.028 C 
ATOM      8  C   UNL     1     142.954  57.159  14.114  1.00  0.00    -0.070 CG0
ATOM      9  C   UNL     1     141.564  56.997  13.552  1.00  0.00     0.039 C 
ATOM     10  G   UNL     1     143.273  58.394  14.943  1.00  0.00     0.000 G0
ENDBRANCH   6   7
ENDBRANCH   5   6
ENDBRANCH   3   5
ENDBRANCH   1   3
BRANCH   1  11
ATOM     11  C   UNL     1     145.961  57.788  17.518  1.00  0.00     0.087 C 
BRANCH  11  12
ATOM     12  C   UNL     1     145.043  58.813  16.796  1.00  0.00     0.066 C 
BRANCH  12  13
ATOM     13  C   UNL     1     143.803  58.099  16.281  1.00  0.00     0.140 C 
ATOM     14  O   UNL     1     143.199  57.333  17.021  1.00  0.00    -0.299 OA
BRANCH  13  15
ATOM     15  C   UNL     1     143.241  58.406  14.915  1.00  0.00     0.106 CG0
ATOM     16  G   UNL     1     142.940  57.145  14.119  1.00  0.00     0.000 G0
ENDBRANCH  13  15
ENDBRANCH  12  13
BRANCH  12  17
ATOM     17  C   UNL     1     144.642  60.013  17.718  1.00  0.00    -0.006 C 
ATOM     18  C   UNL     1     143.356  59.707  18.512  1.00  0.00     0.008 C 
ATOM     19  C   UNL     1     144.426  61.315  16.922  1.00  0.00     0.008 C 
ENDBRANCH  12  17
ENDBRANCH  11  12
ENDBRANCH   1  11
TORSDOF 1
ENDMDL
MODEL 8
REMARK VINA RESULT:    15.097      1.619      3.784
REMARK INTER + INTRA:          25.603
REMARK INTER:                  22.365
REMARK INTRA:                   3.238
REMARK UNBOUND:                 2.563
REMARK SMILES CC1=CCC[C@H](C)C(=O)C[C@H](C(C)C)C(=O)C1
REMARK SMILES IDX 8 1 9 2 6 3 7 4 5 5 4 6 3 7 2 8 1 9 10 11 11 12 15 13 16 14
REMARK SMILES IDX 17 15 12 17 13 18 14 19
REMARK H PARENT
REMARK Flexibility Score: 70.00
ROOT
ATOM      1  C   UNL     1     147.717  57.037  17.100  1.00  0.00     0.136 C 
ATOM      2  O   UNL     1     147.059  57.558  17.988  1.00  0.00    -0.299 OA
ENDROOT
BRANCH   1   3
ATOM      3  C   UNL     1     148.735  57.881  16.356  1.00  0.00     0.053 C 
ATOM      4  C   UNL     1     150.097  57.177  16.294  1.00  0.00     0.016 C 
BRANCH   3   5
ATOM      5  C   UNL     1     148.237  58.252  14.947  1.00  0.00     0.015 C 
BRANCH   5   6
ATOM      6  C   UNL     1     146.799  57.761  14.698  1.00  0.00     0.028 C 
BRANCH   6   7
ATOM      7  C   UNL     1     145.832  58.402  15.660  1.00  0.00    -0.028 C 
ATOM      8  C   UNL     1     144.667  57.844  16.064  1.00  0.00    -0.070 CG0
ATOM      9  C   UNL     1     143.789  58.635  16.999  1.00  0.00     0.039 C 
ATOM     10  G   UNL     1     144.214  56.460  15.623  1.00  0.00     0.000 G0
ENDBRANCH   6   7
ENDBRANCH   5   6
ENDBRANCH   3   5
ENDBRANCH   1   3
BRANCH   1  11
ATOM     11  C   UNL     1     147.507  55.566  16.810  1.00  0.00     0.087 C 
BRANCH  11  12
ATOM     12  C   UNL     1     146.024  55.137  16.988  1.00  0.00     0.066 C 
BRANCH  12  13
ATOM     13  C   UNL     1     145.266  55.407  15.699  1.00  0.00     0.140 C 
ATOM     14  O   UNL     1     145.459  54.690  14.726  1.00  0.00    -0.299 OA
BRANCH  13  15
ATOM     15  C   UNL     1     144.197  56.470  15.634  1.00  0.00     0.106 CG0
ATOM     16  G   UNL     1     144.714  57.834  16.066  1.00  0.00     0.000 G0
ENDBRANCH  13  15
ENDBRANCH  12  13
BRANCH  12  17
ATOM     17  C   UNL     1     145.880  53.635  17.406  1.00  0.00    -0.006 C 
ATOM     18  C   UNL     1     145.872  53.476  18.939  1.00  0.00     0.008 C 
ATOM     19  C   UNL     1     147.010  52.758  16.831  1.00  0.00     0.008 C 
ENDBRANCH  12  17
ENDBRANCH  11  12
ENDBRANCH   1  11
TORSDOF 1
ENDMDL
MODEL 9
REMARK VINA RESULT:    15.642      1.819      3.868
REMARK INTER + INTRA:          26.435
REMARK INTER:                  25.297
REMARK INTRA:                   1.138
REMARK UNBOUND:                 2.563
REMARK SMILES CC1=CCC[C@H](C)C(=O)C[C@H](C(C)C)C(=O)C1
REMARK SMILES IDX 8 1 9 2 6 3 7 4 5 5 4 6 3 7 2 8 1 9 10 11 11 12 15 13 16 14
REMARK SMILES IDX 17 15 12 17 13 18 14 19
REMARK H PARENT
REMARK Flexibility Score: 70.00
ROOT
ATOM      1  C   UNL     1     144.859  57.501  15.548  1.00  0.00     0.136 C 
ATOM      2  O   UNL     1     144.375  58.311  16.326  1.00  0.00    -0.299 OA
ENDROOT
BRANCH   1   3
ATOM      3  C   UNL     1     143.942  56.486  14.889  1.00  0.00     0.053 C 
ATOM      4  C   UNL     1     142.661  57.154  14.372  1.00  0.00     0.016 C 
BRANCH   3   5
ATOM      5  C   UNL     1     144.664  55.721  13.764  1.00  0.00     0.015 C 
BRANCH   5   6
ATOM      6  C   UNL     1     145.904  54.970  14.285  1.00  0.00     0.028 C 
BRANCH   6   7
ATOM      7  C   UNL     1     145.536  54.017  15.392  1.00  0.00    -0.028 C 
ATOM      8  C   UNL     1     146.155  53.960  16.594  1.00  0.00    -0.070 CG0
ATOM      9  C   UNL     1     145.695  52.917  17.580  1.00  0.00     0.039 C 
ATOM     10  G   UNL     1     147.282  54.902  16.991  1.00  0.00     0.000 G0
ENDBRANCH   6   7
ENDBRANCH   5   6
ENDBRANCH   3   5
ENDBRANCH   1   3
BRANCH   1  11
ATOM     11  C   UNL     1     146.342  57.573  15.255  1.00  0.00     0.087 C 
BRANCH  11  12
ATOM     12  C   UNL     1     147.201  57.490  16.547  1.00  0.00     0.066 C 
BRANCH  12  13
ATOM     13  C   UNL     1     146.776  56.274  17.354  1.00  0.00     0.140 C 
ATOM     14  O   UNL     1     145.940  56.401  18.238  1.00  0.00    -0.299 OA
BRANCH  13  15
ATOM     15  C   UNL     1     147.283  54.896  17.007  1.00  0.00     0.106 CG0
ATOM     16  G   UNL     1     146.157  53.949  16.620  1.00  0.00     0.000 G0
ENDBRANCH  13  15
ENDBRANCH  12  13
BRANCH  12  17
ATOM     17  C   UNL     1     148.736  57.439  16.244  1.00  0.00    -0.006 C 
ATOM     18  C   UNL     1     149.566  57.864  17.472  1.00  0.00     0.008 C 
ATOM     19  C   UNL     1     149.128  58.339  15.055  1.00  0.00     0.008 C 
ENDBRANCH  12  17
ENDBRANCH  11  12
ENDBRANCH   1  11
TORSDOF 1
ENDMDL
