MODEL 1
REMARK VINA RESULT:    -4.498      0.000      0.000
REMARK INTER + INTRA:          -8.027
REMARK INTER:                  -7.128
REMARK INTRA:                  -0.899
REMARK UNBOUND:                -0.899
REMARK SMILES CCCCCCCCCCCC(=O)[O-]
REMARK SMILES IDX 7 1 8 2 9 3 10 4 11 5 12 6 13 7 14 8 6 9 5 10 4 11 3 12 2 13
REMARK SMILES IDX 1 14
REMARK H PARENT
REMARK Flexibility Score: inf
ROOT
ATOM      1  C   UNL     1     -20.746  11.185  18.341  1.00  0.00     0.000 C 
ENDROOT
BRANCH   1   2
ATOM      2  C   UNL     1     -20.627   9.679  18.077  1.00  0.00     0.000 C 
BRANCH   2   3
ATOM      3  C   UNL     1     -19.173   9.286  17.784  1.00  0.00     0.000 C 
BRANCH   3   4
ATOM      4  C   UNL     1     -18.829   7.934  18.428  1.00  0.00     0.006 C 
BRANCH   4   5
ATOM      5  C   UNL     1     -17.322   7.770  18.662  1.00  0.00     0.053 C 
BRANCH   5   6
ATOM      6  C   UNL     1     -16.966   6.358  19.013  1.00  0.00     0.041 C 
ATOM      7  O   UNL     1     -17.217   5.907  20.161  1.00  0.00    -0.550 OA
ATOM      8  O   UNL     1     -16.386   5.530  18.061  1.00  0.00    -0.550 OA
ENDBRANCH   5   6
ENDBRANCH   4   5
ENDBRANCH   3   4
ENDBRANCH   2   3
ENDBRANCH   1   2
BRANCH   1   9
ATOM      9  C   UNL     1     -19.387  11.787  18.718  1.00  0.00     0.000 C 
BRANCH   9  10
ATOM     10  C   UNL     1     -19.070  13.017  17.855  1.00  0.00    -0.000 C 
BRANCH  10  11
ATOM     11  C   UNL     1     -19.593  12.870  16.409  1.00  0.00    -0.000 C 
BRANCH  11  12
ATOM     12  C   UNL     1     -18.491  12.542  15.383  1.00  0.00    -0.000 C 
BRANCH  12  13
ATOM     13  C   UNL     1     -18.600  11.148  14.745  1.00  0.00    -0.003 C 
ATOM     14  C   UNL     1     -17.568  10.918  13.642  1.00  0.00     0.004 C 
ENDBRANCH  12  13
ENDBRANCH  11  12
ENDBRANCH  10  11
ENDBRANCH   9  10
ENDBRANCH   1   9
TORSDOF 10
ENDMDL
MODEL 2
REMARK VINA RESULT:    -4.178      3.925      5.935
REMARK INTER + INTRA:          -7.520
REMARK INTER:                  -6.242
REMARK INTRA:                  -1.278
REMARK UNBOUND:                -0.899
REMARK SMILES CCCCCCCCCCCC(=O)[O-]
REMARK SMILES IDX 7 1 8 2 9 3 10 4 11 5 12 6 13 7 14 8 6 9 5 10 4 11 3 12 2 13
REMARK SMILES IDX 1 14
REMARK H PARENT
REMARK Flexibility Score: inf
ROOT
ATOM      1  C   UNL     1     -19.739  13.855  17.221  1.00  0.00     0.000 C 
ENDROOT
BRANCH   1   2
ATOM      2  C   UNL     1     -19.451  13.726  15.720  1.00  0.00     0.000 C 
BRANCH   2   3
ATOM      3  C   UNL     1     -18.013  13.253  15.475  1.00  0.00     0.000 C 
BRANCH   3   4
ATOM      4  C   UNL     1     -17.994  11.952  14.658  1.00  0.00     0.006 C 
BRANCH   4   5
ATOM      5  C   UNL     1     -19.405  11.418  14.382  1.00  0.00     0.053 C 
BRANCH   5   6
ATOM      6  C   UNL     1     -19.730  11.439  12.921  1.00  0.00     0.041 C 
ATOM      7  O   UNL     1     -19.089  10.712  12.117  1.00  0.00    -0.550 OA
ATOM      8  O   UNL     1     -20.764  12.238  12.449  1.00  0.00    -0.550 OA
ENDBRANCH   5   6
ENDBRANCH   4   5
ENDBRANCH   3   4
ENDBRANCH   2   3
ENDBRANCH   1   2
BRANCH   1   9
ATOM      9  C   UNL     1     -18.739  13.035  18.045  1.00  0.00     0.000 C 
BRANCH   9  10
ATOM     10  C   UNL     1     -19.451  11.921  18.828  1.00  0.00    -0.000 C 
BRANCH  10  11
ATOM     11  C   UNL     1     -19.486  10.588  18.049  1.00  0.00    -0.000 C 
BRANCH  11  12
ATOM     12  C   UNL     1     -20.912  10.067  17.779  1.00  0.00    -0.000 C 
BRANCH  12  13
ATOM     13  C   UNL     1     -22.033  11.072  18.088  1.00  0.00    -0.003 C 
ATOM     14  C   UNL     1     -22.972  10.592  19.193  1.00  0.00     0.004 C 
ENDBRANCH  12  13
ENDBRANCH  11  12
ENDBRANCH  10  11
ENDBRANCH   9  10
ENDBRANCH   1   9
TORSDOF 10
ENDMDL
MODEL 3
REMARK VINA RESULT:    -4.145      3.433      5.557
REMARK INTER + INTRA:          -7.467
REMARK INTER:                  -6.238
REMARK INTRA:                  -1.229
REMARK UNBOUND:                -0.899
REMARK SMILES CCCCCCCCCCCC(=O)[O-]
REMARK SMILES IDX 7 1 8 2 9 3 10 4 11 5 12 6 13 7 14 8 6 9 5 10 4 11 3 12 2 13
REMARK SMILES IDX 1 14
REMARK H PARENT
REMARK Flexibility Score: inf
ROOT
ATOM      1  C   UNL     1     -19.571  12.895  16.419  1.00  0.00     0.000 C 
ENDROOT
BRANCH   1   2
ATOM      2  C   UNL     1     -18.400  12.835  15.431  1.00  0.00     0.000 C 
BRANCH   2   3
ATOM      3  C   UNL     1     -18.319  11.460  14.756  1.00  0.00     0.000 C 
BRANCH   3   4
ATOM      4  C   UNL     1     -19.723  10.902  14.475  1.00  0.00     0.006 C 
BRANCH   4   5
ATOM      5  C   UNL     1     -20.192  11.205  13.047  1.00  0.00     0.053 C 
BRANCH   5   6
ATOM      6  C   UNL     1     -19.640  10.223  12.061  1.00  0.00     0.041 C 
ATOM      7  O   UNL     1     -20.235   9.133  11.849  1.00  0.00    -0.550 OA
ATOM      8  O   UNL     1     -18.485  10.523  11.351  1.00  0.00    -0.550 OA
ENDBRANCH   5   6
ENDBRANCH   4   5
ENDBRANCH   3   4
ENDBRANCH   2   3
ENDBRANCH   1   2
BRANCH   1   9
ATOM      9  C   UNL     1     -19.070  13.110  17.853  1.00  0.00     0.000 C 
BRANCH   9  10
ATOM     10  C   UNL     1     -19.276  11.848  18.705  1.00  0.00    -0.000 C 
BRANCH  10  11
ATOM     11  C   UNL     1     -20.623  11.153  18.407  1.00  0.00    -0.000 C 
BRANCH  11  12
ATOM     12  C   UNL     1     -20.476   9.681  17.974  1.00  0.00    -0.000 C 
BRANCH  12  13
ATOM     13  C   UNL     1     -19.032   9.231  17.702  1.00  0.00    -0.003 C 
ATOM     14  C   UNL     1     -18.630   8.003  18.519  1.00  0.00     0.004 C 
ENDBRANCH  12  13
ENDBRANCH  11  12
ENDBRANCH  10  11
ENDBRANCH   9  10
ENDBRANCH   1   9
TORSDOF 10
ENDMDL
MODEL 4
REMARK VINA RESULT:    -4.104      1.620      2.733
REMARK INTER + INTRA:          -7.403
REMARK INTER:                  -5.837
REMARK INTRA:                  -1.567
REMARK UNBOUND:                -0.899
REMARK SMILES CCCCCCCCCCCC(=O)[O-]
REMARK SMILES IDX 7 1 8 2 9 3 10 4 11 5 12 6 13 7 14 8 6 9 5 10 4 11 3 12 2 13
REMARK SMILES IDX 1 14
REMARK H PARENT
REMARK Flexibility Score: inf
ROOT
ATOM      1  C   UNL     1     -19.043  13.208  17.951  1.00  0.00     0.000 C 
ENDROOT
BRANCH   1   2
ATOM      2  C   UNL     1     -19.436  11.862  18.570  1.00  0.00     0.000 C 
BRANCH   2   3
ATOM      3  C   UNL     1     -20.812  11.407  18.069  1.00  0.00     0.000 C 
BRANCH   3   4
ATOM      4  C   UNL     1     -20.901   9.875  18.018  1.00  0.00     0.006 C 
BRANCH   4   5
ATOM      5  C   UNL     1     -19.548   9.205  18.291  1.00  0.00     0.053 C 
BRANCH   5   6
ATOM      6  C   UNL     1     -19.452   7.862  17.636  1.00  0.00     0.041 C 
ATOM      7  O   UNL     1     -20.110   7.617  16.590  1.00  0.00    -0.550 OA
ATOM      8  O   UNL     1     -18.611   6.890  18.162  1.00  0.00    -0.550 OA
ENDBRANCH   5   6
ENDBRANCH   4   5
ENDBRANCH   3   4
ENDBRANCH   2   3
ENDBRANCH   1   2
BRANCH   1   9
ATOM      9  C   UNL     1     -19.948  13.553  16.763  1.00  0.00     0.000 C 
BRANCH   9  10
ATOM     10  C   UNL     1     -19.117  13.903  15.519  1.00  0.00    -0.000 C 
BRANCH  10  11
ATOM     11  C   UNL     1     -17.886  12.984  15.359  1.00  0.00    -0.000 C 
BRANCH  11  12
ATOM     12  C   UNL     1     -18.084  11.859  14.325  1.00  0.00    -0.000 C 
BRANCH  12  13
ATOM     13  C   UNL     1     -18.695  10.566  14.890  1.00  0.00    -0.003 C 
ATOM     14  C   UNL     1     -20.131  10.334  14.420  1.00  0.00     0.004 C 
ENDBRANCH  12  13
ENDBRANCH  11  12
ENDBRANCH  10  11
ENDBRANCH   9  10
ENDBRANCH   1   9
TORSDOF 10
ENDMDL
MODEL 5
REMARK VINA RESULT:    -4.078      3.813      5.124
REMARK INTER + INTRA:          -7.361
REMARK INTER:                  -6.110
REMARK INTRA:                  -1.252
REMARK UNBOUND:                -0.899
REMARK SMILES CCCCCCCCCCCC(=O)[O-]
REMARK SMILES IDX 7 1 8 2 9 3 10 4 11 5 12 6 13 7 14 8 6 9 5 10 4 11 3 12 2 13
REMARK SMILES IDX 1 14
REMARK H PARENT
REMARK Flexibility Score: inf
ROOT
ATOM      1  C   UNL     1     -19.743   9.810  18.303  1.00  0.00     0.000 C 
ENDROOT
BRANCH   1   2
ATOM      2  C   UNL     1     -20.432   9.134  17.112  1.00  0.00     0.000 C 
BRANCH   2   3
ATOM      3  C   UNL     1     -20.406  10.041  15.875  1.00  0.00     0.000 C 
BRANCH   3   4
ATOM      4  C   UNL     1     -19.103   9.856  15.084  1.00  0.00     0.006 C 
BRANCH   4   5
ATOM      5  C   UNL     1     -18.446  11.195  14.725  1.00  0.00     0.053 C 
BRANCH   5   6
ATOM      6  C   UNL     1     -19.026  11.780  13.475  1.00  0.00     0.041 C 
ATOM      7  O   UNL     1     -19.327  13.002  13.427  1.00  0.00    -0.550 OA
ATOM      8  O   UNL     1     -19.206  10.984  12.352  1.00  0.00    -0.550 OA
ENDBRANCH   5   6
ENDBRANCH   4   5
ENDBRANCH   3   4
ENDBRANCH   2   3
ENDBRANCH   1   2
BRANCH   1   9
ATOM      9  C   UNL     1     -20.219  11.258  18.465  1.00  0.00     0.000 C 
BRANCH   9  10
ATOM     10  C   UNL     1     -19.044  12.192  18.794  1.00  0.00    -0.000 C 
BRANCH  10  11
ATOM     11  C   UNL     1     -18.833  13.271  17.709  1.00  0.00    -0.000 C 
BRANCH  11  12
ATOM     12  C   UNL     1     -20.121  13.647  16.951  1.00  0.00    -0.000 C 
BRANCH  12  13
ATOM     13  C   UNL     1     -20.128  15.064  16.357  1.00  0.00    -0.003 C 
ATOM     14  C   UNL     1     -20.044  16.155  17.423  1.00  0.00     0.004 C 
ENDBRANCH  12  13
ENDBRANCH  11  12
ENDBRANCH  10  11
ENDBRANCH   9  10
ENDBRANCH   1   9
TORSDOF 10
ENDMDL
MODEL 6
REMARK VINA RESULT:    -4.068      5.388      7.375
REMARK INTER + INTRA:          -7.346
REMARK INTER:                  -6.225
REMARK INTRA:                  -1.120
REMARK UNBOUND:                -0.899
REMARK SMILES CCCCCCCCCCCC(=O)[O-]
REMARK SMILES IDX 7 1 8 2 9 3 10 4 11 5 12 6 13 7 14 8 6 9 5 10 4 11 3 12 2 13
REMARK SMILES IDX 1 14
REMARK H PARENT
REMARK Flexibility Score: inf
ROOT
ATOM      1  C   UNL     1     -18.781  13.301  17.067  1.00  0.00     0.000 C 
ENDROOT
BRANCH   1   2
ATOM      2  C   UNL     1     -20.002  13.526  16.168  1.00  0.00     0.000 C 
BRANCH   2   3
ATOM      3  C   UNL     1     -19.577  13.790  14.718  1.00  0.00     0.000 C 
BRANCH   3   4
ATOM      4  C   UNL     1     -18.577  14.953  14.641  1.00  0.00     0.006 C 
BRANCH   4   5
ATOM      5  C   UNL     1     -19.276  16.315  14.541  1.00  0.00     0.053 C 
BRANCH   5   6
ATOM      6  C   UNL     1     -18.370  17.364  13.976  1.00  0.00     0.041 C 
ATOM      7  O   UNL     1     -18.218  17.468  12.730  1.00  0.00    -0.550 OA
ATOM      8  O   UNL     1     -17.716  18.249  14.823  1.00  0.00    -0.550 OA
ENDBRANCH   5   6
ENDBRANCH   4   5
ENDBRANCH   3   4
ENDBRANCH   2   3
ENDBRANCH   1   2
BRANCH   1   9
ATOM      9  C   UNL     1     -19.127  12.386  18.248  1.00  0.00     0.000 C 
BRANCH   9  10
ATOM     10  C   UNL     1     -20.419  11.601  17.977  1.00  0.00    -0.000 C 
BRANCH  10  11
ATOM     11  C   UNL     1     -20.196  10.073  18.018  1.00  0.00    -0.000 C 
BRANCH  11  12
ATOM     12  C   UNL     1     -19.168   9.570  16.986  1.00  0.00    -0.000 C 
BRANCH  12  13
ATOM     13  C   UNL     1     -19.591   9.744  15.519  1.00  0.00    -0.003 C 
ATOM     14  C   UNL     1     -18.459  10.263  14.633  1.00  0.00     0.004 C 
ENDBRANCH  12  13
ENDBRANCH  11  12
ENDBRANCH  10  11
ENDBRANCH   9  10
ENDBRANCH   1   9
TORSDOF 10
ENDMDL
MODEL 7
REMARK VINA RESULT:    -4.055      1.569      2.534
REMARK INTER + INTRA:          -7.325
REMARK INTER:                  -6.734
REMARK INTRA:                  -0.591
REMARK UNBOUND:                -0.899
REMARK SMILES CCCCCCCCCCCC(=O)[O-]
REMARK SMILES IDX 7 1 8 2 9 3 10 4 11 5 12 6 13 7 14 8 6 9 5 10 4 11 3 12 2 13
REMARK SMILES IDX 1 14
REMARK H PARENT
REMARK Flexibility Score: inf
ROOT
ATOM      1  C   UNL     1     -20.737  11.063  18.177  1.00  0.00     0.000 C 
ENDROOT
BRANCH   1   2
ATOM      2  C   UNL     1     -20.500   9.579  17.871  1.00  0.00     0.000 C 
BRANCH   2   3
ATOM      3  C   UNL     1     -19.003   9.248  17.879  1.00  0.00     0.000 C 
BRANCH   3   4
ATOM      4  C   UNL     1     -18.750   7.857  18.479  1.00  0.00     0.006 C 
BRANCH   4   5
ATOM      5  C   UNL     1     -17.257   7.576  18.686  1.00  0.00     0.053 C 
BRANCH   5   6
ATOM      6  C   UNL     1     -17.001   6.132  18.989  1.00  0.00     0.041 C 
ATOM      7  O   UNL     1     -16.773   5.762  20.171  1.00  0.00    -0.550 OA
ATOM      8  O   UNL     1     -17.046   5.188  17.971  1.00  0.00    -0.550 OA
ENDBRANCH   5   6
ENDBRANCH   4   5
ENDBRANCH   3   4
ENDBRANCH   2   3
ENDBRANCH   1   2
BRANCH   1   9
ATOM      9  C   UNL     1     -19.499  11.695  18.825  1.00  0.00     0.000 C 
BRANCH   9  10
ATOM     10  C   UNL     1     -18.994  12.889  18.002  1.00  0.00    -0.000 C 
BRANCH  10  11
ATOM     11  C   UNL     1     -19.844  13.130  16.736  1.00  0.00    -0.000 C 
BRANCH  11  12
ATOM     12  C   UNL     1     -20.646  14.446  16.771  1.00  0.00    -0.000 C 
BRANCH  12  13
ATOM     13  C   UNL     1     -19.869  15.658  17.311  1.00  0.00    -0.003 C 
ATOM     14  C   UNL     1     -20.038  16.905  16.445  1.00  0.00     0.004 C 
ENDBRANCH  12  13
ENDBRANCH  11  12
ENDBRANCH  10  11
ENDBRANCH   9  10
ENDBRANCH   1   9
TORSDOF 10
ENDMDL
MODEL 8
REMARK VINA RESULT:    -4.027      3.920      5.836
REMARK INTER + INTRA:          -7.280
REMARK INTER:                  -6.002
REMARK INTRA:                  -1.279
REMARK UNBOUND:                -0.899
REMARK SMILES CCCCCCCCCCCC(=O)[O-]
REMARK SMILES IDX 7 1 8 2 9 3 10 4 11 5 12 6 13 7 14 8 6 9 5 10 4 11 3 12 2 13
REMARK SMILES IDX 1 14
REMARK H PARENT
REMARK Flexibility Score: inf
ROOT
ATOM      1  C   UNL     1     -19.775  11.726  19.095  1.00  0.00     0.000 C 
ENDROOT
BRANCH   1   2
ATOM      2  C   UNL     1     -18.694  12.595  18.442  1.00  0.00     0.000 C 
BRANCH   2   3
ATOM      3  C   UNL     1     -19.282  13.446  17.310  1.00  0.00     0.000 C 
BRANCH   3   4
ATOM      4  C   UNL     1     -18.470  13.280  16.017  1.00  0.00     0.006 C 
BRANCH   4   5
ATOM      5  C   UNL     1     -18.899  12.043  15.218  1.00  0.00     0.053 C 
BRANCH   5   6
ATOM      6  C   UNL     1     -19.206  12.384  13.792  1.00  0.00     0.041 C 
ATOM      7  O   UNL     1     -19.351  13.585  13.444  1.00  0.00    -0.550 OA
ATOM      8  O   UNL     1     -19.299  11.377  12.840  1.00  0.00    -0.550 OA
ENDBRANCH   5   6
ENDBRANCH   4   5
ENDBRANCH   3   4
ENDBRANCH   2   3
ENDBRANCH   1   2
BRANCH   1   9
ATOM      9  C   UNL     1     -19.859  10.352  18.419  1.00  0.00     0.000 C 
BRANCH   9  10
ATOM     10  C   UNL     1     -21.284  10.069  17.918  1.00  0.00    -0.000 C 
BRANCH  10  11
ATOM     11  C   UNL     1     -22.362  10.667  18.848  1.00  0.00    -0.000 C 
BRANCH  11  12
ATOM     12  C   UNL     1     -23.436  11.483  18.104  1.00  0.00    -0.000 C 
BRANCH  12  13
ATOM     13  C   UNL     1     -22.901  12.702  17.335  1.00  0.00    -0.003 C 
ATOM     14  C   UNL     1     -22.911  12.498  15.820  1.00  0.00     0.004 C 
ENDBRANCH  12  13
ENDBRANCH  11  12
ENDBRANCH  10  11
ENDBRANCH   9  10
ENDBRANCH   1   9
TORSDOF 10
ENDMDL
MODEL 9
REMARK VINA RESULT:    -4.000      3.066      5.173
REMARK INTER + INTRA:          -7.239
REMARK INTER:                  -6.062
REMARK INTRA:                  -1.177
REMARK UNBOUND:                -0.899
REMARK SMILES CCCCCCCCCCCC(=O)[O-]
REMARK SMILES IDX 7 1 8 2 9 3 10 4 11 5 12 6 13 7 14 8 6 9 5 10 4 11 3 12 2 13
REMARK SMILES IDX 1 14
REMARK H PARENT
REMARK Flexibility Score: inf
ROOT
ATOM      1  C   UNL     1     -20.022  13.301  17.027  1.00  0.00     0.000 C 
ENDROOT
BRANCH   1   2
ATOM      2  C   UNL     1     -19.186  13.997  15.946  1.00  0.00     0.000 C 
BRANCH   2   3
ATOM      3  C   UNL     1     -18.054  13.085  15.455  1.00  0.00     0.000 C 
BRANCH   3   4
ATOM      4  C   UNL     1     -18.473  12.319  14.192  1.00  0.00     0.006 C 
BRANCH   4   5
ATOM      5  C   UNL     1     -18.128  10.827  14.276  1.00  0.00     0.053 C 
BRANCH   5   6
ATOM      6  C   UNL     1     -19.152  10.064  15.057  1.00  0.00     0.041 C 
ATOM      7  O   UNL     1     -20.369  10.125  14.738  1.00  0.00    -0.550 OA
ATOM      8  O   UNL     1     -18.760   9.259  16.119  1.00  0.00    -0.550 OA
ENDBRANCH   5   6
ENDBRANCH   4   5
ENDBRANCH   3   4
ENDBRANCH   2   3
ENDBRANCH   1   2
BRANCH   1   9
ATOM      9  C   UNL     1     -19.122  12.617  18.062  1.00  0.00     0.000 C 
BRANCH   9  10
ATOM     10  C   UNL     1     -19.836  11.420  18.710  1.00  0.00    -0.000 C 
BRANCH  10  11
ATOM     11  C   UNL     1     -21.164  11.077  18.000  1.00  0.00    -0.000 C 
BRANCH  11  12
ATOM     12  C   UNL     1     -22.317  10.753  18.970  1.00  0.00    -0.000 C 
BRANCH  12  13
ATOM     13  C   UNL     1     -23.705  11.215  18.496  1.00  0.00    -0.003 C 
ATOM     14  C   UNL     1     -23.658  12.525  17.711  1.00  0.00     0.004 C 
ENDBRANCH  12  13
ENDBRANCH  11  12
ENDBRANCH  10  11
ENDBRANCH   9  10
ENDBRANCH   1   9
TORSDOF 10
ENDMDL
