MODEL 1
REMARK VINA RESULT:    -3.774      0.000      0.000
REMARK INTER + INTRA:          -5.705
REMARK INTER:                  -5.097
REMARK INTRA:                  -0.608
REMARK UNBOUND:                -0.608
REMARK SMILES COc1ccc(-c2cc(=O)c3c(OC)c(OC)c(OC)c(OC)c3o2)cc1
REMARK SMILES IDX 7 1 8 2 9 3 10 4 11 5 24 6 25 7 21 8 18 9 15 10 12 11 6 12
REMARK SMILES IDX 3 13 4 14 27 15 5 16 26 17 2 18 1 19 22 20 23 21 13 22 14 23
REMARK SMILES IDX 19 24 20 25 16 26 17 27
REMARK H PARENT
REMARK Flexibility Score: inf
ROOT
ATOM      1  C   UNL     1      74.929  73.800  29.492  1.00  0.00     0.138 A 
ATOM      2  C   UNL     1      75.925  72.967  30.012  1.00  0.00     0.100 A 
ATOM      3  C   UNL     1      76.705  72.211  29.142  1.00  0.00     0.197 A 
ATOM      4  O   UNL     1      77.619  71.489  29.622  1.00  0.00    -0.289 OA
ATOM      5  C   UNL     1      76.471  72.280  27.750  1.00  0.00     0.115 A 
ATOM      6  C   UNL     1      75.456  73.158  27.295  1.00  0.00     0.188 A 
ATOM      7  O   UNL     1      74.752  73.865  28.176  1.00  0.00    -0.452 OA
ATOM      8  C   UNL     1      75.187  73.271  25.911  1.00  0.00     0.209 A 
ATOM      9  C   UNL     1      75.954  72.548  24.985  1.00  0.00     0.211 A 
ATOM     10  C   UNL     1      76.996  71.697  25.428  1.00  0.00     0.208 A 
ATOM     11  C   UNL     1      77.203  71.515  26.814  1.00  0.00     0.179 A 
ENDROOT
BRANCH   1  12
ATOM     12  C   UNL     1      74.072  74.624  30.377  1.00  0.00     0.018 A 
ATOM     13  C   UNL     1      72.468  76.174  32.109  1.00  0.00     0.118 A 
ATOM     14  C   UNL     1      72.809  74.860  32.444  1.00  0.00     0.047 A 
ATOM     15  C   UNL     1      72.937  76.715  30.898  1.00  0.00     0.047 A 
ATOM     16  C   UNL     1      73.606  74.091  31.590  1.00  0.00     0.016 A 
ATOM     17  C   UNL     1      73.732  75.948  30.041  1.00  0.00     0.016 A 
BRANCH  13  18
ATOM     18  O   UNL     1      71.669  76.904  33.002  1.00  0.00    -0.497 OA
ATOM     19  C   UNL     1      70.608  76.345  33.770  1.00  0.00     0.278 C 
ENDBRANCH  13  18
ENDBRANCH   1  12
BRANCH   8  20
ATOM     20  O   UNL     1      74.169  74.087  25.381  1.00  0.00    -0.490 OA
ATOM     21  C   UNL     1      72.771  73.815  25.381  1.00  0.00     0.278 C 
ENDBRANCH   8  20
BRANCH  11  22
ATOM     22  O   UNL     1      78.107  70.548  27.260  1.00  0.00    -0.492 OA
ATOM     23  C   UNL     1      77.721  69.182  27.373  1.00  0.00     0.278 C 
ENDBRANCH  11  22
BRANCH   9  24
ATOM     24  O   UNL     1      75.625  72.735  23.626  1.00  0.00    -0.490 OA
ATOM     25  C   UNL     1      74.765  71.922  22.833  1.00  0.00     0.279 C 
ENDBRANCH   9  24
BRANCH  10  26
ATOM     26  O   UNL     1      77.799  71.052  24.469  1.00  0.00    -0.490 OA
ATOM     27  C   UNL     1      77.521  69.794  23.859  1.00  0.00     0.278 C 
ENDBRANCH  10  26
TORSDOF 6
ENDMDL
MODEL 2
REMARK VINA RESULT:    -3.653      1.435      1.963
REMARK INTER + INTRA:          -5.543
REMARK INTER:                  -4.866
REMARK INTRA:                  -0.676
REMARK UNBOUND:                -0.608
REMARK SMILES COc1ccc(-c2cc(=O)c3c(OC)c(OC)c(OC)c(OC)c3o2)cc1
REMARK SMILES IDX 7 1 8 2 9 3 10 4 11 5 24 6 25 7 21 8 18 9 15 10 12 11 6 12
REMARK SMILES IDX 3 13 4 14 27 15 5 16 26 17 2 18 1 19 22 20 23 21 13 22 14 23
REMARK SMILES IDX 19 24 20 25 16 26 17 27
REMARK H PARENT
REMARK Flexibility Score: inf
ROOT
ATOM      1  C   UNL     1      74.806  74.136  28.015  1.00  0.00     0.138 A 
ATOM      2  C   UNL     1      76.117  73.659  28.116  1.00  0.00     0.100 A 
ATOM      3  C   UNL     1      76.660  72.928  27.064  1.00  0.00     0.197 A 
ATOM      4  O   UNL     1      77.853  72.532  27.156  1.00  0.00    -0.289 OA
ATOM      5  C   UNL     1      75.878  72.662  25.917  1.00  0.00     0.115 A 
ATOM      6  C   UNL     1      74.565  73.190  25.878  1.00  0.00     0.188 A 
ATOM      7  O   UNL     1      74.105  73.893  26.911  1.00  0.00    -0.452 OA
ATOM      8  C   UNL     1      73.743  72.961  24.751  1.00  0.00     0.209 A 
ATOM      9  C   UNL     1      74.243  72.247  23.650  1.00  0.00     0.211 A 
ATOM     10  C   UNL     1      75.568  71.747  23.664  1.00  0.00     0.208 A 
ATOM     11  C   UNL     1      76.356  71.899  24.828  1.00  0.00     0.179 A 
ENDROOT
BRANCH   1  12
ATOM     12  C   UNL     1      74.182  74.918  29.109  1.00  0.00     0.018 A 
ATOM     13  C   UNL     1      73.028  76.380  31.230  1.00  0.00     0.118 A 
ATOM     14  C   UNL     1      73.291  75.015  31.371  1.00  0.00     0.047 A 
ATOM     15  C   UNL     1      73.348  77.018  30.017  1.00  0.00     0.047 A 
ATOM     16  C   UNL     1      73.866  74.289  30.324  1.00  0.00     0.016 A 
ATOM     17  C   UNL     1      73.921  76.293  28.968  1.00  0.00     0.016 A 
BRANCH  13  18
ATOM     18  O   UNL     1      72.453  77.064  32.313  1.00  0.00    -0.497 OA
ATOM     19  C   UNL     1      71.189  76.744  32.884  1.00  0.00     0.278 C 
ENDBRANCH  13  18
ENDBRANCH   1  12
BRANCH   8  20
ATOM     20  O   UNL     1      72.413  73.414  24.651  1.00  0.00    -0.490 OA
ATOM     21  C   UNL     1      71.266  72.832  25.261  1.00  0.00     0.278 C 
ENDBRANCH   8  20
BRANCH  11  22
ATOM     22  O   UNL     1      77.595  71.259  24.916  1.00  0.00    -0.492 OA
ATOM     23  C   UNL     1      77.680  69.847  25.078  1.00  0.00     0.278 C 
ENDBRANCH  11  22
BRANCH   9  24
ATOM     24  O   UNL     1      73.358  72.080  22.565  1.00  0.00    -0.490 OA
ATOM     25  C   UNL     1      73.267  72.897  21.401  1.00  0.00     0.279 C 
ENDBRANCH   9  24
BRANCH  10  26
ATOM     26  O   UNL     1      76.065  71.110  22.513  1.00  0.00    -0.490 OA
ATOM     27  C   UNL     1      76.826  71.729  21.480  1.00  0.00     0.278 C 
ENDBRANCH  10  26
TORSDOF 6
ENDMDL
MODEL 3
REMARK VINA RESULT:    -3.502      2.400      3.120
REMARK INTER + INTRA:          -5.338
REMARK INTER:                  -4.818
REMARK INTRA:                  -0.521
REMARK UNBOUND:                -0.608
REMARK SMILES COc1ccc(-c2cc(=O)c3c(OC)c(OC)c(OC)c(OC)c3o2)cc1
REMARK SMILES IDX 7 1 8 2 9 3 10 4 11 5 24 6 25 7 21 8 18 9 15 10 12 11 6 12
REMARK SMILES IDX 3 13 4 14 27 15 5 16 26 17 2 18 1 19 22 20 23 21 13 22 14 23
REMARK SMILES IDX 19 24 20 25 16 26 17 27
REMARK H PARENT
REMARK Flexibility Score: inf
ROOT
ATOM      1  C   UNL     1      74.366  75.132  28.454  1.00  0.00     0.138 A 
ATOM      2  C   UNL     1      75.737  75.258  28.206  1.00  0.00     0.100 A 
ATOM      3  C   UNL     1      76.231  74.965  26.938  1.00  0.00     0.197 A 
ATOM      4  O   UNL     1      77.464  75.113  26.721  1.00  0.00    -0.289 OA
ATOM      5  C   UNL     1      75.348  74.527  25.926  1.00  0.00     0.115 A 
ATOM      6  C   UNL     1      73.971  74.438  26.245  1.00  0.00     0.188 A 
ATOM      7  O   UNL     1      73.557  74.745  27.472  1.00  0.00    -0.452 OA
ATOM      8  C   UNL     1      73.044  74.014  25.265  1.00  0.00     0.209 A 
ATOM      9  C   UNL     1      73.481  73.722  23.964  1.00  0.00     0.211 A 
ATOM     10  C   UNL     1      74.851  73.845  23.624  1.00  0.00     0.208 A 
ATOM     11  C   UNL     1      75.788  74.181  24.628  1.00  0.00     0.179 A 
ENDROOT
BRANCH   1  12
ATOM     12  C   UNL     1      73.791  75.432  29.787  1.00  0.00     0.018 A 
ATOM     13  C   UNL     1      72.656  76.036  32.300  1.00  0.00     0.118 A 
ATOM     14  C   UNL     1      72.833  77.039  31.342  1.00  0.00     0.047 A 
ATOM     15  C   UNL     1      73.048  74.720  31.994  1.00  0.00     0.047 A 
ATOM     16  C   UNL     1      73.392  76.742  30.096  1.00  0.00     0.016 A 
ATOM     17  C   UNL     1      73.609  74.421  30.749  1.00  0.00     0.016 A 
BRANCH  13  18
ATOM     18  O   UNL     1      72.087  76.386  33.535  1.00  0.00    -0.497 OA
ATOM     19  C   UNL     1      70.691  76.562  33.754  1.00  0.00     0.278 C 
ENDBRANCH  13  18
ENDBRANCH   1  12
BRANCH   8  20
ATOM     20  O   UNL     1      71.666  73.858  25.513  1.00  0.00    -0.490 OA
ATOM     21  C   UNL     1      70.968  72.632  25.705  1.00  0.00     0.278 C 
ENDBRANCH   8  20
BRANCH  11  22
ATOM     22  O   UNL     1      77.155  74.132  24.345  1.00  0.00    -0.492 OA
ATOM     23  C   UNL     1      77.832  72.886  24.219  1.00  0.00     0.278 C 
ENDBRANCH  11  22
BRANCH   9  24
ATOM     24  O   UNL     1      72.484  73.322  23.050  1.00  0.00    -0.490 OA
ATOM     25  C   UNL     1      71.785  74.151  22.126  1.00  0.00     0.279 C 
ENDBRANCH   9  24
BRANCH  10  26
ATOM     26  O   UNL     1      75.242  73.626  22.291  1.00  0.00    -0.490 OA
ATOM     27  C   UNL     1      75.498  74.638  21.321  1.00  0.00     0.278 C 
ENDBRANCH  10  26
TORSDOF 6
ENDMDL
MODEL 4
REMARK VINA RESULT:    -3.476      4.195      5.987
REMARK INTER + INTRA:          -5.303
REMARK INTER:                  -4.885
REMARK INTRA:                  -0.418
REMARK UNBOUND:                -0.608
REMARK SMILES COc1ccc(-c2cc(=O)c3c(OC)c(OC)c(OC)c(OC)c3o2)cc1
REMARK SMILES IDX 7 1 8 2 9 3 10 4 11 5 24 6 25 7 21 8 18 9 15 10 12 11 6 12
REMARK SMILES IDX 3 13 4 14 27 15 5 16 26 17 2 18 1 19 22 20 23 21 13 22 14 23
REMARK SMILES IDX 19 24 20 25 16 26 17 27
REMARK H PARENT
REMARK Flexibility Score: inf
ROOT
ATOM      1  C   UNL     1      75.654  72.999  26.211  1.00  0.00     0.138 A 
ATOM      2  C   UNL     1      76.560  74.035  26.460  1.00  0.00     0.100 A 
ATOM      3  C   UNL     1      76.674  75.077  25.544  1.00  0.00     0.197 A 
ATOM      4  O   UNL     1      77.471  76.020  25.798  1.00  0.00    -0.289 OA
ATOM      5  C   UNL     1      75.890  75.066  24.369  1.00  0.00     0.115 A 
ATOM      6  C   UNL     1      74.983  73.993  24.191  1.00  0.00     0.188 A 
ATOM      7  O   UNL     1      74.910  73.031  25.109  1.00  0.00    -0.452 OA
ATOM      8  C   UNL     1      74.169  73.939  23.036  1.00  0.00     0.209 A 
ATOM      9  C   UNL     1      74.227  74.971  22.086  1.00  0.00     0.211 A 
ATOM     10  C   UNL     1      75.103  76.068  22.275  1.00  0.00     0.208 A 
ATOM     11  C   UNL     1      75.980  76.075  23.382  1.00  0.00     0.179 A 
ENDROOT
BRANCH   1  12
ATOM     12  C   UNL     1      75.496  71.867  27.154  1.00  0.00     0.018 A 
ATOM     13  C   UNL     1      75.200  69.672  28.906  1.00  0.00     0.118 A 
ATOM     14  C   UNL     1      74.528  69.697  27.680  1.00  0.00     0.047 A 
ATOM     15  C   UNL     1      76.028  70.755  29.255  1.00  0.00     0.047 A 
ATOM     16  C   UNL     1      74.676  70.780  26.809  1.00  0.00     0.016 A 
ATOM     17  C   UNL     1      76.176  71.841  28.386  1.00  0.00     0.016 A 
BRANCH  13  18
ATOM     18  O   UNL     1      75.020  68.560  29.743  1.00  0.00    -0.497 OA
ATOM     19  C   UNL     1      73.975  67.604  29.594  1.00  0.00     0.278 C 
ENDBRANCH  13  18
ENDBRANCH   1  12
BRANCH   8  20
ATOM     20  O   UNL     1      73.274  72.886  22.763  1.00  0.00    -0.490 OA
ATOM     21  C   UNL     1      71.926  72.776  23.207  1.00  0.00     0.278 C 
ENDBRANCH   8  20
BRANCH  11  22
ATOM     22  O   UNL     1      76.966  77.059  23.481  1.00  0.00    -0.492 OA
ATOM     23  C   UNL     1      78.125  77.021  22.655  1.00  0.00     0.278 C 
ENDBRANCH  11  22
BRANCH   9  24
ATOM     24  O   UNL     1      73.368  74.840  20.976  1.00  0.00    -0.490 OA
ATOM     25  C   UNL     1      73.520  73.948  19.875  1.00  0.00     0.279 C 
ENDBRANCH   9  24
BRANCH  10  26
ATOM     26  O   UNL     1      75.075  77.125  21.347  1.00  0.00    -0.490 OA
ATOM     27  C   UNL     1      75.564  77.074  20.010  1.00  0.00     0.278 C 
ENDBRANCH  10  26
TORSDOF 6
ENDMDL
MODEL 5
REMARK VINA RESULT:    -3.446      3.309      9.260
REMARK INTER + INTRA:          -5.262
REMARK INTER:                  -4.749
REMARK INTRA:                  -0.514
REMARK UNBOUND:                -0.608
REMARK SMILES COc1ccc(-c2cc(=O)c3c(OC)c(OC)c(OC)c(OC)c3o2)cc1
REMARK SMILES IDX 7 1 8 2 9 3 10 4 11 5 24 6 25 7 21 8 18 9 15 10 12 11 6 12
REMARK SMILES IDX 3 13 4 14 27 15 5 16 26 17 2 18 1 19 22 20 23 21 13 22 14 23
REMARK SMILES IDX 19 24 20 25 16 26 17 27
REMARK H PARENT
REMARK Flexibility Score: inf
ROOT
ATOM      1  C   UNL     1      77.571  69.933  23.585  1.00  0.00     0.138 A 
ATOM      2  C   UNL     1      77.525  71.137  22.876  1.00  0.00     0.100 A 
ATOM      3  C   UNL     1      77.372  72.333  23.571  1.00  0.00     0.197 A 
ATOM      4  O   UNL     1      77.365  73.413  22.921  1.00  0.00    -0.289 OA
ATOM      5  C   UNL     1      77.246  72.315  24.978  1.00  0.00     0.115 A 
ATOM      6  C   UNL     1      77.317  71.060  25.631  1.00  0.00     0.188 A 
ATOM      7  O   UNL     1      77.477  69.951  24.912  1.00  0.00    -0.452 OA
ATOM      8  C   UNL     1      77.205  70.986  27.038  1.00  0.00     0.209 A 
ATOM      9  C   UNL     1      77.068  72.161  27.795  1.00  0.00     0.211 A 
ATOM     10  C   UNL     1      77.034  73.424  27.154  1.00  0.00     0.208 A 
ATOM     11  C   UNL     1      77.055  73.489  25.743  1.00  0.00     0.179 A 
ENDROOT
BRANCH   1  12
ATOM     12  C   UNL     1      77.731  68.633  22.891  1.00  0.00     0.018 A 
ATOM     13  C   UNL     1      77.992  66.136  21.599  1.00  0.00     0.118 A 
ATOM     14  C   UNL     1      77.726  66.201  22.970  1.00  0.00     0.047 A 
ATOM     15  C   UNL     1      78.125  67.332  20.870  1.00  0.00     0.047 A 
ATOM     16  C   UNL     1      77.593  67.435  23.612  1.00  0.00     0.016 A 
ATOM     17  C   UNL     1      77.995  68.568  21.511  1.00  0.00     0.016 A 
BRANCH  13  18
ATOM     18  O   UNL     1      78.112  64.872  21.002  1.00  0.00    -0.497 OA
ATOM     19  C   UNL     1      77.261  64.387  19.969  1.00  0.00     0.278 C 
ENDBRANCH  13  18
ENDBRANCH   1  12
BRANCH   8  20
ATOM     20  O   UNL     1      77.223  69.776  27.759  1.00  0.00    -0.490 OA
ATOM     21  C   UNL     1      76.147  68.854  27.902  1.00  0.00     0.278 C 
ENDBRANCH   8  20
BRANCH  11  22
ATOM     22  O   UNL     1      76.845  74.711  25.101  1.00  0.00    -0.492 OA
ATOM     23  C   UNL     1      75.533  75.239  24.940  1.00  0.00     0.278 C 
ENDBRANCH  11  22
BRANCH   9  24
ATOM     24  O   UNL     1      76.979  71.993  29.192  1.00  0.00    -0.490 OA
ATOM     25  C   UNL     1      75.833  72.206  30.010  1.00  0.00     0.279 C 
ENDBRANCH   9  24
BRANCH  10  26
ATOM     26  O   UNL     1      76.981  74.585  27.947  1.00  0.00    -0.490 OA
ATOM     27  C   UNL     1      77.937  75.641  27.944  1.00  0.00     0.278 C 
ENDBRANCH  10  26
TORSDOF 6
ENDMDL
MODEL 6
REMARK VINA RESULT:    -3.244      3.498      5.846
REMARK INTER + INTRA:          -4.990
REMARK INTER:                  -4.333
REMARK INTRA:                  -0.657
REMARK UNBOUND:                -0.608
REMARK SMILES COc1ccc(-c2cc(=O)c3c(OC)c(OC)c(OC)c(OC)c3o2)cc1
REMARK SMILES IDX 7 1 8 2 9 3 10 4 11 5 24 6 25 7 21 8 18 9 15 10 12 11 6 12
REMARK SMILES IDX 3 13 4 14 27 15 5 16 26 17 2 18 1 19 22 20 23 21 13 22 14 23
REMARK SMILES IDX 19 24 20 25 16 26 17 27
REMARK H PARENT
REMARK Flexibility Score: inf
ROOT
ATOM      1  C   UNL     1      73.051  73.307  23.930  1.00  0.00     0.138 A 
ATOM      2  C   UNL     1      73.424  73.002  22.617  1.00  0.00     0.100 A 
ATOM      3  C   UNL     1      74.528  72.184  22.393  1.00  0.00     0.197 A 
ATOM      4  O   UNL     1      74.832  71.892  21.206  1.00  0.00    -0.289 OA
ATOM      5  C   UNL     1      75.267  71.689  23.491  1.00  0.00     0.115 A 
ATOM      6  C   UNL     1      74.822  72.027  24.792  1.00  0.00     0.188 A 
ATOM      7  O   UNL     1      73.750  72.803  24.942  1.00  0.00    -0.452 OA
ATOM      8  C   UNL     1      75.520  71.550  25.926  1.00  0.00     0.209 A 
ATOM      9  C   UNL     1      76.630  70.706  25.763  1.00  0.00     0.211 A 
ATOM     10  C   UNL     1      77.061  70.332  24.466  1.00  0.00     0.208 A 
ATOM     11  C   UNL     1      76.417  70.882  23.335  1.00  0.00     0.179 A 
ENDROOT
BRANCH   1  12
ATOM     12  C   UNL     1      71.884  74.174  24.220  1.00  0.00     0.018 A 
ATOM     13  C   UNL     1      69.643  75.786  24.813  1.00  0.00     0.118 A 
ATOM     14  C   UNL     1      69.508  74.399  24.696  1.00  0.00     0.047 A 
ATOM     15  C   UNL     1      70.912  76.368  24.635  1.00  0.00     0.047 A 
ATOM     16  C   UNL     1      70.616  73.598  24.405  1.00  0.00     0.016 A 
ATOM     17  C   UNL     1      72.021  75.569  24.342  1.00  0.00     0.016 A 
BRANCH  13  18
ATOM     18  O   UNL     1      68.500  76.545  25.109  1.00  0.00    -0.497 OA
ATOM     19  C   UNL     1      67.173  76.166  24.759  1.00  0.00     0.278 C 
ENDBRANCH  13  18
ENDBRANCH   1  12
BRANCH   8  20
ATOM     20  O   UNL     1      75.168  71.874  27.250  1.00  0.00    -0.490 OA
ATOM     21  C   UNL     1      75.571  73.028  27.981  1.00  0.00     0.278 C 
ENDBRANCH   8  20
BRANCH  11  22
ATOM     22  O   UNL     1      76.943  70.659  22.060  1.00  0.00    -0.492 OA
ATOM     23  C   UNL     1      78.105  71.351  21.616  1.00  0.00     0.278 C 
ENDBRANCH  11  22
BRANCH   9  24
ATOM     24  O   UNL     1      77.255  70.268  26.949  1.00  0.00    -0.490 OA
ATOM     25  C   UNL     1      77.039  69.032  27.624  1.00  0.00     0.279 C 
ENDBRANCH   9  24
BRANCH  10  26
ATOM     26  O   UNL     1      78.123  69.419  24.342  1.00  0.00    -0.490 OA
ATOM     27  C   UNL     1      78.002  68.041  24.001  1.00  0.00     0.278 C 
ENDBRANCH  10  26
TORSDOF 6
ENDMDL
MODEL 7
REMARK VINA RESULT:    -3.243      1.598      3.640
REMARK INTER + INTRA:          -4.989
REMARK INTER:                  -4.309
REMARK INTRA:                  -0.679
REMARK UNBOUND:                -0.608
REMARK SMILES COc1ccc(-c2cc(=O)c3c(OC)c(OC)c(OC)c(OC)c3o2)cc1
REMARK SMILES IDX 7 1 8 2 9 3 10 4 11 5 24 6 25 7 21 8 18 9 15 10 12 11 6 12
REMARK SMILES IDX 3 13 4 14 27 15 5 16 26 17 2 18 1 19 22 20 23 21 13 22 14 23
REMARK SMILES IDX 19 24 20 25 16 26 17 27
REMARK H PARENT
REMARK Flexibility Score: inf
ROOT
ATOM      1  C   UNL     1      74.184  75.296  28.980  1.00  0.00     0.138 A 
ATOM      2  C   UNL     1      73.918  76.123  27.884  1.00  0.00     0.100 A 
ATOM      3  C   UNL     1      74.506  75.839  26.656  1.00  0.00     0.197 A 
ATOM      4  O   UNL     1      74.232  76.574  25.670  1.00  0.00    -0.289 OA
ATOM      5  C   UNL     1      75.378  74.733  26.535  1.00  0.00     0.115 A 
ATOM      6  C   UNL     1      75.588  73.931  27.683  1.00  0.00     0.188 A 
ATOM      7  O   UNL     1      74.986  74.246  28.828  1.00  0.00    -0.452 OA
ATOM      8  C   UNL     1      76.444  72.807  27.614  1.00  0.00     0.209 A 
ATOM      9  C   UNL     1      77.051  72.460  26.397  1.00  0.00     0.211 A 
ATOM     10  C   UNL     1      76.817  73.234  25.234  1.00  0.00     0.208 A 
ATOM     11  C   UNL     1      76.035  74.408  25.326  1.00  0.00     0.179 A 
ENDROOT
BRANCH   1  12
ATOM     12  C   UNL     1      73.582  75.557  30.309  1.00  0.00     0.018 A 
ATOM     13  C   UNL     1      72.397  76.089  32.816  1.00  0.00     0.118 A 
ATOM     14  C   UNL     1      72.603  77.121  31.895  1.00  0.00     0.047 A 
ATOM     15  C   UNL     1      72.786  74.780  32.476  1.00  0.00     0.047 A 
ATOM     16  C   UNL     1      73.186  76.860  30.653  1.00  0.00     0.016 A 
ATOM     17  C   UNL     1      73.371  74.517  31.234  1.00  0.00     0.016 A 
BRANCH  13  18
ATOM     18  O   UNL     1      71.804  76.403  34.049  1.00  0.00    -0.497 OA
ATOM     19  C   UNL     1      70.423  76.701  34.222  1.00  0.00     0.278 C 
ENDBRANCH  13  18
ENDBRANCH   1  12
BRANCH   8  20
ATOM     20  O   UNL     1      76.739  71.985  28.719  1.00  0.00    -0.490 OA
ATOM     21  C   UNL     1      75.863  71.057  29.349  1.00  0.00     0.278 C 
ENDBRANCH   8  20
BRANCH  11  22
ATOM     22  O   UNL     1      75.943  75.268  24.230  1.00  0.00    -0.492 OA
ATOM     23  C   UNL     1      77.023  76.129  23.883  1.00  0.00     0.278 C 
ENDBRANCH  11  22
BRANCH   9  24
ATOM     24  O   UNL     1      77.875  71.316  26.419  1.00  0.00    -0.490 OA
ATOM     25  C   UNL     1      77.507  69.988  26.060  1.00  0.00     0.279 C 
ENDBRANCH   9  24
BRANCH  10  26
ATOM     26  O   UNL     1      77.373  72.810  24.014  1.00  0.00    -0.490 OA
ATOM     27  C   UNL     1      76.672  72.153  22.962  1.00  0.00     0.278 C 
ENDBRANCH  10  26
TORSDOF 6
ENDMDL
MODEL 8
REMARK VINA RESULT:    -3.204      2.321      8.253
REMARK INTER + INTRA:          -4.937
REMARK INTER:                  -4.432
REMARK INTRA:                  -0.504
REMARK UNBOUND:                -0.608
REMARK SMILES COc1ccc(-c2cc(=O)c3c(OC)c(OC)c(OC)c(OC)c3o2)cc1
REMARK SMILES IDX 7 1 8 2 9 3 10 4 11 5 24 6 25 7 21 8 18 9 15 10 12 11 6 12
REMARK SMILES IDX 3 13 4 14 27 15 5 16 26 17 2 18 1 19 22 20 23 21 13 22 14 23
REMARK SMILES IDX 19 24 20 25 16 26 17 27
REMARK H PARENT
REMARK Flexibility Score: inf
ROOT
ATOM      1  C   UNL     1      77.154  70.371  24.902  1.00  0.00     0.138 A 
ATOM      2  C   UNL     1      77.567  70.079  26.206  1.00  0.00     0.100 A 
ATOM      3  C   UNL     1      77.303  70.989  27.226  1.00  0.00     0.197 A 
ATOM      4  O   UNL     1      77.653  70.697  28.401  1.00  0.00    -0.289 OA
ATOM      5  C   UNL     1      76.641  72.201  26.929  1.00  0.00     0.115 A 
ATOM      6  C   UNL     1      76.238  72.423  25.590  1.00  0.00     0.188 A 
ATOM      7  O   UNL     1      76.507  71.509  24.660  1.00  0.00    -0.452 OA
ATOM      8  C   UNL     1      75.564  73.616  25.241  1.00  0.00     0.209 A 
ATOM      9  C   UNL     1      75.254  74.562  26.230  1.00  0.00     0.211 A 
ATOM     10  C   UNL     1      75.619  74.333  27.580  1.00  0.00     0.208 A 
ATOM     11  C   UNL     1      76.372  73.183  27.910  1.00  0.00     0.179 A 
ENDROOT
BRANCH   1  12
ATOM     12  C   UNL     1      77.411  69.436  23.782  1.00  0.00     0.018 A 
ATOM     13  C   UNL     1      77.878  67.610  21.679  1.00  0.00     0.118 A 
ATOM     14  C   UNL     1      78.125  67.243  23.005  1.00  0.00     0.047 A 
ATOM     15  C   UNL     1      77.390  68.902  21.406  1.00  0.00     0.047 A 
ATOM     16  C   UNL     1      77.892  68.143  24.048  1.00  0.00     0.016 A 
ATOM     17  C   UNL     1      77.158  69.805  22.448  1.00  0.00     0.016 A 
BRANCH  13  18
ATOM     18  O   UNL     1      78.125  66.668  20.669  1.00  0.00    -0.497 OA
ATOM     19  C   UNL     1      78.007  65.260  20.839  1.00  0.00     0.278 C 
ENDBRANCH  13  18
ENDBRANCH   1  12
BRANCH   8  20
ATOM     20  O   UNL     1      75.168  73.931  23.927  1.00  0.00    -0.490 OA
ATOM     21  C   UNL     1      76.022  74.163  22.812  1.00  0.00     0.278 C 
ENDBRANCH   8  20
BRANCH  11  22
ATOM     22  O   UNL     1      76.885  73.037  29.201  1.00  0.00    -0.492 OA
ATOM     23  C   UNL     1      78.037  73.764  29.617  1.00  0.00     0.278 C 
ENDBRANCH  11  22
BRANCH   9  24
ATOM     24  O   UNL     1      74.567  75.714  25.794  1.00  0.00    -0.490 OA
ATOM     25  C   UNL     1      75.137  76.972  25.445  1.00  0.00     0.279 C 
ENDBRANCH   9  24
BRANCH  10  26
ATOM     26  O   UNL     1      75.219  75.261  28.558  1.00  0.00    -0.490 OA
ATOM     27  C   UNL     1      74.375  74.986  29.672  1.00  0.00     0.278 C 
ENDBRANCH  10  26
TORSDOF 6
ENDMDL
MODEL 9
REMARK VINA RESULT:    -3.195      3.956      8.440
REMARK INTER + INTRA:          -4.924
REMARK INTER:                  -4.237
REMARK INTRA:                  -0.688
REMARK UNBOUND:                -0.608
REMARK SMILES COc1ccc(-c2cc(=O)c3c(OC)c(OC)c(OC)c(OC)c3o2)cc1
REMARK SMILES IDX 7 1 8 2 9 3 10 4 11 5 24 6 25 7 21 8 18 9 15 10 12 11 6 12
REMARK SMILES IDX 3 13 4 14 27 15 5 16 26 17 2 18 1 19 22 20 23 21 13 22 14 23
REMARK SMILES IDX 19 24 20 25 16 26 17 27
REMARK H PARENT
REMARK Flexibility Score: inf
ROOT
ATOM      1  C   UNL     1      77.124  70.966  24.168  1.00  0.00     0.138 A 
ATOM      2  C   UNL     1      77.732  71.372  25.360  1.00  0.00     0.100 A 
ATOM      3  C   UNL     1      77.451  72.634  25.875  1.00  0.00     0.197 A 
ATOM      4  O   UNL     1      77.982  72.973  26.966  1.00  0.00    -0.289 OA
ATOM      5  C   UNL     1      76.571  73.494  25.180  1.00  0.00     0.115 A 
ATOM      6  C   UNL     1      75.980  73.010  23.988  1.00  0.00     0.188 A 
ATOM      7  O   UNL     1      76.279  71.789  23.552  1.00  0.00    -0.452 OA
ATOM      8  C   UNL     1      75.086  73.828  23.259  1.00  0.00     0.209 A 
ATOM      9  C   UNL     1      74.749  75.103  23.739  1.00  0.00     0.211 A 
ATOM     10  C   UNL     1      75.306  75.582  24.951  1.00  0.00     0.208 A 
ATOM     11  C   UNL     1      76.268  74.800  25.630  1.00  0.00     0.179 A 
ENDROOT
BRANCH   1  12
ATOM     12  C   UNL     1      77.391  69.633  23.579  1.00  0.00     0.018 A 
ATOM     13  C   UNL     1      77.873  67.068  22.501  1.00  0.00     0.118 A 
ATOM     14  C   UNL     1      78.038  67.305  23.869  1.00  0.00     0.047 A 
ATOM     15  C   UNL     1      77.460  68.125  21.668  1.00  0.00     0.047 A 
ATOM     16  C   UNL     1      77.797  68.573  24.406  1.00  0.00     0.016 A 
ATOM     17  C   UNL     1      77.220  69.394  22.203  1.00  0.00     0.016 A 
BRANCH  13  18
ATOM     18  O   UNL     1      78.125  65.777  22.013  1.00  0.00    -0.497 OA
ATOM     19  C   UNL     1      77.774  65.330  20.707  1.00  0.00     0.278 C 
ENDBRANCH  13  18
ENDBRANCH   1  12
BRANCH   8  20
ATOM     20  O   UNL     1      74.489  73.438  22.044  1.00  0.00    -0.490 OA
ATOM     21  C   UNL     1      75.072  73.507  20.747  1.00  0.00     0.278 C 
ENDBRANCH   8  20
BRANCH  11  22
ATOM     22  O   UNL     1      76.950  75.336  26.724  1.00  0.00    -0.492 OA
ATOM     23  C   UNL     1      77.945  76.340  26.548  1.00  0.00     0.278 C 
ENDBRANCH  11  22
BRANCH   9  24
ATOM     24  O   UNL     1      73.838  75.841  22.955  1.00  0.00    -0.490 OA
ATOM     25  C   UNL     1      74.152  76.850  22.000  1.00  0.00     0.279 C 
ENDBRANCH   9  24
BRANCH  10  26
ATOM     26  O   UNL     1      74.883  76.828  25.446  1.00  0.00    -0.490 OA
ATOM     27  C   UNL     1      73.932  77.033  26.487  1.00  0.00     0.278 C 
ENDBRANCH  10  26
TORSDOF 6
ENDMDL
