MODEL 1
REMARK VINA RESULT:    -2.243      0.000      0.000
REMARK INTER + INTRA:          -2.243
REMARK INTER:                  -2.243
REMARK INTRA:                   0.000
REMARK UNBOUND:                 0.000
REMARK SMILES CC(=O)[O-]
REMARK SMILES IDX 1 1 2 2 3 3 4 4
REMARK H PARENT
REMARK Flexibility Score: inf
ROOT
ATOM      1  C   UNL     1      15.302  26.807  10.091  1.00  0.00     0.063 C 
ATOM      2  C   UNL     1      15.742  25.715   9.175  1.00  0.00     0.038 C 
ATOM      3  O   UNL     1      15.657  25.865   7.928  1.00  0.00    -0.550 OA
ATOM      4  O   UNL     1      16.295  24.552   9.694  1.00  0.00    -0.550 OA
ENDROOT
TORSDOF 0
ENDMDL
MODEL 2
REMARK VINA RESULT:    -2.143     12.306     12.961
REMARK INTER + INTRA:          -2.143
REMARK INTER:                  -2.143
REMARK INTRA:                   0.000
REMARK UNBOUND:                 0.000
REMARK SMILES CC(=O)[O-]
REMARK SMILES IDX 1 1 2 2 3 3 4 4
REMARK H PARENT
REMARK Flexibility Score: inf
ROOT
ATOM      1  C   UNL     1      17.547  28.364  20.506  1.00  0.00     0.063 C 
ATOM      2  C   UNL     1      18.065  27.676  21.723  1.00  0.00     0.038 C 
ATOM      3  O   UNL     1      18.049  26.419  21.793  1.00  0.00    -0.550 OA
ATOM      4  O   UNL     1      18.615  28.417  22.761  1.00  0.00    -0.550 OA
ENDROOT
TORSDOF 0
ENDMDL
MODEL 3
REMARK VINA RESULT:    -1.985     11.993     12.432
REMARK INTER + INTRA:          -1.985
REMARK INTER:                  -1.985
REMARK INTRA:                   0.000
REMARK UNBOUND:                 0.000
REMARK SMILES CC(=O)[O-]
REMARK SMILES IDX 1 1 2 2 3 3 4 4
REMARK H PARENT
REMARK Flexibility Score: inf
ROOT
ATOM      1  C   UNL     1      18.439  28.028  22.513  1.00  0.00     0.063 C 
ATOM      2  C   UNL     1      17.986  27.733  21.124  1.00  0.00     0.038 C 
ATOM      3  O   UNL     1      18.323  26.657  20.564  1.00  0.00    -0.550 OA
ATOM      4  O   UNL     1      17.147  28.620  20.463  1.00  0.00    -0.550 OA
ENDROOT
TORSDOF 0
ENDMDL
MODEL 4
REMARK VINA RESULT:    -1.942      1.403      1.767
REMARK INTER + INTRA:          -1.942
REMARK INTER:                  -1.942
REMARK INTRA:                   0.000
REMARK UNBOUND:                 0.000
REMARK SMILES CC(=O)[O-]
REMARK SMILES IDX 1 1 2 2 3 3 4 4
REMARK H PARENT
REMARK Flexibility Score: inf
ROOT
ATOM      1  C   UNL     1      16.466  24.516   9.640  1.00  0.00     0.063 C 
ATOM      2  C   UNL     1      15.796  25.740   9.114  1.00  0.00     0.038 C 
ATOM      3  O   UNL     1      15.608  25.876   7.877  1.00  0.00    -0.550 OA
ATOM      4  O   UNL     1      15.330  26.710   9.993  1.00  0.00    -0.550 OA
ENDROOT
TORSDOF 0
ENDMDL
MODEL 5
REMARK VINA RESULT:    -1.937     22.451     22.583
REMARK INTER + INTRA:          -1.937
REMARK INTER:                  -1.937
REMARK INTRA:                   0.000
REMARK UNBOUND:                 0.000
REMARK SMILES CC(=O)[O-]
REMARK SMILES IDX 1 1 2 2 3 3 4 4
REMARK H PARENT
REMARK Flexibility Score: inf
ROOT
ATOM      1  C   UNL     1       6.375  44.125  18.614  1.00  0.00     0.063 C 
ATOM      2  C   UNL     1       7.090  43.613  19.818  1.00  0.00     0.038 C 
ATOM      3  O   UNL     1       6.588  42.684  20.504  1.00  0.00    -0.550 OA
ATOM      4  O   UNL     1       8.336  44.124  20.157  1.00  0.00    -0.550 OA
ENDROOT
TORSDOF 0
ENDMDL
MODEL 6
REMARK VINA RESULT:    -1.911      2.217      2.455
REMARK INTER + INTRA:          -1.911
REMARK INTER:                  -1.911
REMARK INTRA:                   0.000
REMARK UNBOUND:                 0.000
REMARK SMILES CC(=O)[O-]
REMARK SMILES IDX 1 1 2 2 3 3 4 4
REMARK H PARENT
REMARK Flexibility Score: inf
ROOT
ATOM      1  C   UNL     1      15.721  25.770   9.129  1.00  0.00     0.063 C 
ATOM      2  C   UNL     1      15.370  26.886  10.054  1.00  0.00     0.038 C 
ATOM      3  O   UNL     1      14.163  27.171  10.270  1.00  0.00    -0.550 OA
ATOM      4  O   UNL     1      16.373  27.580  10.720  1.00  0.00    -0.550 OA
ENDROOT
TORSDOF 0
ENDMDL
MODEL 7
REMARK VINA RESULT:    -1.800     17.799     18.149
REMARK INTER + INTRA:          -1.800
REMARK INTER:                  -1.800
REMARK INTRA:                   0.000
REMARK UNBOUND:                 0.000
REMARK SMILES CC(=O)[O-]
REMARK SMILES IDX 1 1 2 2 3 3 4 4
REMARK H PARENT
REMARK Flexibility Score: inf
ROOT
ATOM      1  C   UNL     1      13.951  43.241   4.003  1.00  0.00     0.063 C 
ATOM      2  C   UNL     1      15.398  43.158   4.357  1.00  0.00     0.038 C 
ATOM      3  O   UNL     1      15.854  43.838   5.313  1.00  0.00    -0.550 OA
ATOM      4  O   UNL     1      16.235  42.291   3.666  1.00  0.00    -0.550 OA
ENDROOT
TORSDOF 0
ENDMDL
MODEL 8
REMARK VINA RESULT:    -1.681     10.972     11.137
REMARK INTER + INTRA:          -1.681
REMARK INTER:                  -1.681
REMARK INTRA:                   0.000
REMARK UNBOUND:                 0.000
REMARK SMILES CC(=O)[O-]
REMARK SMILES IDX 1 1 2 2 3 3 4 4
REMARK H PARENT
REMARK Flexibility Score: inf
ROOT
ATOM      1  C   UNL     1       4.240  24.996   6.554  1.00  0.00     0.063 C 
ATOM      2  C   UNL     1       4.898  24.898   7.889  1.00  0.00     0.038 C 
ATOM      3  O   UNL     1       5.798  25.716   8.211  1.00  0.00    -0.550 OA
ATOM      4  O   UNL     1       4.482  23.936   8.801  1.00  0.00    -0.550 OA
ENDROOT
TORSDOF 0
ENDMDL
MODEL 9
REMARK VINA RESULT:    -1.647     17.866     18.131
REMARK INTER + INTRA:          -1.647
REMARK INTER:                  -1.647
REMARK INTRA:                   0.000
REMARK UNBOUND:                 0.000
REMARK SMILES CC(=O)[O-]
REMARK SMILES IDX 1 1 2 2 3 3 4 4
REMARK H PARENT
REMARK Flexibility Score: inf
ROOT
ATOM      1  C   UNL     1      16.470  42.306   3.796  1.00  0.00     0.063 C 
ATOM      2  C   UNL     1      15.495  43.130   4.568  1.00  0.00     0.038 C 
ATOM      3  O   UNL     1      15.899  43.895   5.482  1.00  0.00    -0.550 OA
ATOM      4  O   UNL     1      14.145  43.094   4.245  1.00  0.00    -0.550 OA
ENDROOT
TORSDOF 0
ENDMDL
