MODEL 1
REMARK VINA RESULT:    -3.892      0.000      0.000
REMARK INTER + INTRA:          -5.986
REMARK INTER:                  -5.257
REMARK INTRA:                  -0.729
REMARK UNBOUND:                -0.729
REMARK SMILES O=C[C@@H](O)[C@H](O)[C@H](O)CO
REMARK SMILES IDX 7 1 9 2 10 3 5 5 3 6 2 7 1 8 4 9 6 11 8 13
REMARK H PARENT 10 4 4 10 6 12 8 14
REMARK Flexibility Score: inf
ROOT
ATOM      1  C   UNL     1      57.128  23.500  16.841  1.00  0.00     0.171 C 
ENDROOT
BRANCH   1   2
ATOM      2  C   UNL     1      55.725  24.119  16.955  1.00  0.00     0.190 C 
BRANCH   2   3
ATOM      3  O   UNL     1      54.856  23.210  17.573  1.00  0.00    -0.394 OA
ATOM      4  H   UNL     1      54.772  23.507  18.516  1.00  0.00     0.210 HD
ENDBRANCH   2   3
ENDBRANCH   1   2
BRANCH   1   5
ATOM      5  C   UNL     1      57.066  21.994  16.474  1.00  0.00     0.181 C 
BRANCH   5   6
ATOM      6  C   UNL     1      58.374  21.520  15.804  1.00  0.00     0.209 C 
BRANCH   6   7
ATOM      7  C   UNL     1      58.613  22.266  14.518  1.00  0.00     0.258 C 
ATOM      8  O   UNL     1      57.985  21.980  13.511  1.00  0.00    -0.300 OA
ENDBRANCH   6   7
BRANCH   6   9
ATOM      9  O   UNL     1      59.455  21.726  16.677  1.00  0.00    -0.383 OA
ATOM     10  H   UNL     1      60.214  22.047  16.123  1.00  0.00     0.211 HD
ENDBRANCH   6   9
ENDBRANCH   5   6
BRANCH   5  11
ATOM     11  O   UNL     1      55.992  21.761  15.595  1.00  0.00    -0.387 OA
ATOM     12  H   UNL     1      56.348  21.246  14.823  1.00  0.00     0.211 HD
ENDBRANCH   5  11
ENDBRANCH   1   5
BRANCH   1  13
ATOM     13  O   UNL     1      57.839  23.697  18.039  1.00  0.00    -0.388 OA
ATOM     14  H   UNL     1      57.485  24.521  18.465  1.00  0.00     0.211 HD
ENDBRANCH   1  13
TORSDOF 8
ENDMDL
MODEL 2
REMARK VINA RESULT:    -3.866      1.357      2.624
REMARK INTER + INTRA:          -5.951
REMARK INTER:                  -5.216
REMARK INTRA:                  -0.736
REMARK UNBOUND:                -0.729
REMARK SMILES O=C[C@@H](O)[C@H](O)[C@H](O)CO
REMARK SMILES IDX 7 1 9 2 10 3 5 5 3 6 2 7 1 8 4 9 6 11 8 13
REMARK H PARENT 10 4 4 10 6 12 8 14
REMARK Flexibility Score: inf
ROOT
ATOM      1  C   UNL     1      56.100  22.901  16.974  1.00  0.00     0.171 C 
ENDROOT
BRANCH   1   2
ATOM      2  C   UNL     1      56.857  24.045  17.668  1.00  0.00     0.190 C 
BRANCH   2   3
ATOM      3  O   UNL     1      58.078  23.572  18.164  1.00  0.00    -0.394 OA
ATOM      4  H   UNL     1      58.128  22.614  17.906  1.00  0.00     0.210 HD
ENDBRANCH   2   3
ENDBRANCH   1   2
BRANCH   1   5
ATOM      5  C   UNL     1      56.565  22.707  15.507  1.00  0.00     0.181 C 
BRANCH   5   6
ATOM      6  C   UNL     1      56.651  21.212  15.132  1.00  0.00     0.209 C 
BRANCH   6   7
ATOM      7  C   UNL     1      57.962  20.625  15.584  1.00  0.00     0.258 C 
ATOM      8  O   UNL     1      58.456  20.962  16.648  1.00  0.00    -0.300 OA
ENDBRANCH   6   7
BRANCH   6   9
ATOM      9  O   UNL     1      55.590  20.512  15.730  1.00  0.00    -0.383 OA
ATOM     10  H   UNL     1      55.007  20.190  14.993  1.00  0.00     0.211 HD
ENDBRANCH   6   9
ENDBRANCH   5   6
BRANCH   5  11
ATOM     11  O   UNL     1      57.830  23.297  15.327  1.00  0.00    -0.387 OA
ATOM     12  H   UNL     1      58.509  22.639  15.631  1.00  0.00     0.211 HD
ENDBRANCH   5  11
ENDBRANCH   1   5
BRANCH   1  13
ATOM     13  O   UNL     1      54.713  23.134  17.036  1.00  0.00    -0.388 OA
ATOM     14  H   UNL     1      54.266  22.254  17.146  1.00  0.00     0.211 HD
ENDBRANCH   1  13
TORSDOF 8
ENDMDL
MODEL 3
REMARK VINA RESULT:    -3.836      1.405      3.778
REMARK INTER + INTRA:          -5.911
REMARK INTER:                  -5.204
REMARK INTRA:                  -0.707
REMARK UNBOUND:                -0.729
REMARK SMILES O=C[C@@H](O)[C@H](O)[C@H](O)CO
REMARK SMILES IDX 7 1 9 2 10 3 5 5 3 6 2 7 1 8 4 9 6 11 8 13
REMARK H PARENT 10 4 4 10 6 12 8 14
REMARK Flexibility Score: inf
ROOT
ATOM      1  C   UNL     1      57.798  22.145  16.391  1.00  0.00     0.171 C 
ENDROOT
BRANCH   1   2
ATOM      2  C   UNL     1      58.854  21.299  17.121  1.00  0.00     0.190 C 
BRANCH   2   3
ATOM      3  O   UNL     1      60.029  22.045  17.282  1.00  0.00    -0.394 OA
ATOM      4  H   UNL     1      60.779  21.411  17.138  1.00  0.00     0.210 HD
ENDBRANCH   2   3
ENDBRANCH   1   2
BRANCH   1   5
ATOM      5  C   UNL     1      56.967  23.008  17.376  1.00  0.00     0.181 C 
BRANCH   5   6
ATOM      6  C   UNL     1      55.955  23.904  16.631  1.00  0.00     0.209 C 
BRANCH   6   7
ATOM      7  C   UNL     1      56.653  24.744  15.594  1.00  0.00     0.258 C 
ATOM      8  O   UNL     1      57.300  25.725  15.926  1.00  0.00    -0.300 OA
ENDBRANCH   6   7
BRANCH   6   9
ATOM      9  O   UNL     1      54.980  23.105  16.011  1.00  0.00    -0.383 OA
ATOM     10  H   UNL     1      55.268  22.161  16.125  1.00  0.00     0.211 HD
ENDBRANCH   6   9
ENDBRANCH   5   6
BRANCH   5  11
ATOM     11  O   UNL     1      57.826  23.823  18.138  1.00  0.00    -0.387 OA
ATOM     12  H   UNL     1      57.728  24.751  17.799  1.00  0.00     0.211 HD
ENDBRANCH   5  11
ENDBRANCH   1   5
BRANCH   1  13
ATOM     13  O   UNL     1      56.963  21.313  15.622  1.00  0.00    -0.388 OA
ATOM     14  H   UNL     1      56.142  21.140  16.154  1.00  0.00     0.211 HD
ENDBRANCH   1  13
TORSDOF 8
ENDMDL
MODEL 4
REMARK VINA RESULT:    -3.835      1.200      3.852
REMARK INTER + INTRA:          -5.910
REMARK INTER:                  -5.128
REMARK INTRA:                  -0.783
REMARK UNBOUND:                -0.729
REMARK SMILES O=C[C@@H](O)[C@H](O)[C@H](O)CO
REMARK SMILES IDX 7 1 9 2 10 3 5 5 3 6 2 7 1 8 4 9 6 11 8 13
REMARK H PARENT 10 4 4 10 6 12 8 14
REMARK Flexibility Score: inf
ROOT
ATOM      1  C   UNL     1      56.950  21.936  15.832  1.00  0.00     0.171 C 
ENDROOT
BRANCH   1   2
ATOM      2  C   UNL     1      58.253  21.232  15.421  1.00  0.00     0.190 C 
BRANCH   2   3
ATOM      3  O   UNL     1      59.153  22.170  14.900  1.00  0.00    -0.394 OA
ATOM      4  H   UNL     1      59.991  21.673  14.710  1.00  0.00     0.210 HD
ENDBRANCH   2   3
ENDBRANCH   1   2
BRANCH   1   5
ATOM      5  C   UNL     1      57.046  22.539  17.258  1.00  0.00     0.181 C 
BRANCH   5   6
ATOM      6  C   UNL     1      56.036  23.690  17.456  1.00  0.00     0.209 C 
BRANCH   6   7
ATOM      7  C   UNL     1      56.173  24.711  16.357  1.00  0.00     0.258 C 
ATOM      8  O   UNL     1      57.179  25.398  16.274  1.00  0.00    -0.300 OA
ENDBRANCH   6   7
BRANCH   6   9
ATOM      9  O   UNL     1      54.728  23.178  17.463  1.00  0.00    -0.383 OA
ATOM     10  H   UNL     1      54.117  23.949  17.327  1.00  0.00     0.211 HD
ENDBRANCH   6   9
ENDBRANCH   5   6
BRANCH   5  11
ATOM     11  O   UNL     1      58.346  23.028  17.483  1.00  0.00    -0.387 OA
ATOM     12  H   UNL     1      58.372  23.383  18.411  1.00  0.00     0.211 HD
ENDBRANCH   5  11
ENDBRANCH   1   5
BRANCH   1  13
ATOM     13  O   UNL     1      55.868  21.041  15.736  1.00  0.00    -0.388 OA
ATOM     14  H   UNL     1      56.164  20.172  16.116  1.00  0.00     0.211 HD
ENDBRANCH   1  13
TORSDOF 8
ENDMDL
MODEL 5
REMARK VINA RESULT:    -3.801      1.091      3.255
REMARK INTER + INTRA:          -5.864
REMARK INTER:                  -5.018
REMARK INTRA:                  -0.846
REMARK UNBOUND:                -0.729
REMARK SMILES O=C[C@@H](O)[C@H](O)[C@H](O)CO
REMARK SMILES IDX 7 1 9 2 10 3 5 5 3 6 2 7 1 8 4 9 6 11 8 13
REMARK H PARENT 10 4 4 10 6 12 8 14
REMARK Flexibility Score: inf
ROOT
ATOM      1  C   UNL     1      57.828  21.748  16.498  1.00  0.00     0.171 C 
ENDROOT
BRANCH   1   2
ATOM      2  C   UNL     1      57.160  20.705  15.587  1.00  0.00     0.190 C 
BRANCH   2   3
ATOM      3  O   UNL     1      55.768  20.774  15.731  1.00  0.00    -0.394 OA
ATOM      4  H   UNL     1      55.461  21.487  15.112  1.00  0.00     0.210 HD
ENDBRANCH   2   3
ENDBRANCH   1   2
BRANCH   1   5
ATOM      5  C   UNL     1      57.699  23.183  15.923  1.00  0.00     0.181 C 
BRANCH   5   6
ATOM      6  C   UNL     1      57.249  24.189  17.004  1.00  0.00     0.209 C 
BRANCH   6   7
ATOM      7  C   UNL     1      55.747  24.246  17.085  1.00  0.00     0.258 C 
ATOM      8  O   UNL     1      55.101  23.233  17.305  1.00  0.00    -0.300 OA
ENDBRANCH   6   7
BRANCH   6   9
ATOM      9  O   UNL     1      57.775  23.812  18.251  1.00  0.00    -0.383 OA
ATOM     10  H   UNL     1      58.764  23.853  18.170  1.00  0.00     0.211 HD
ENDBRANCH   6   9
ENDBRANCH   5   6
BRANCH   5  11
ATOM     11  O   UNL     1      56.763  23.193  14.871  1.00  0.00    -0.387 OA
ATOM     12  H   UNL     1      57.265  23.370  14.032  1.00  0.00     0.211 HD
ENDBRANCH   5  11
ENDBRANCH   1   5
BRANCH   1  13
ATOM     13  O   UNL     1      59.177  21.410  16.708  1.00  0.00    -0.388 OA
ATOM     14  H   UNL     1      59.202  20.690  17.392  1.00  0.00     0.211 HD
ENDBRANCH   1  13
TORSDOF 8
ENDMDL
MODEL 6
REMARK VINA RESULT:    -3.704      1.311      3.540
REMARK INTER + INTRA:          -5.733
REMARK INTER:                  -4.915
REMARK INTRA:                  -0.818
REMARK UNBOUND:                -0.729
REMARK SMILES O=C[C@@H](O)[C@H](O)[C@H](O)CO
REMARK SMILES IDX 7 1 9 2 10 3 5 5 3 6 2 7 1 8 4 9 6 11 8 13
REMARK H PARENT 10 4 4 10 6 12 8 14
REMARK Flexibility Score: inf
ROOT
ATOM      1  C   UNL     1      58.286  22.321  15.477  1.00  0.00     0.171 C 
ENDROOT
BRANCH   1   2
ATOM      2  C   UNL     1      58.588  21.604  16.803  1.00  0.00     0.190 C 
BRANCH   2   3
ATOM      3  O   UNL     1      58.788  22.550  17.817  1.00  0.00    -0.394 OA
ATOM      4  H   UNL     1      59.554  23.110  17.523  1.00  0.00     0.210 HD
ENDBRANCH   2   3
ENDBRANCH   1   2
BRANCH   1   5
ATOM      5  C   UNL     1      56.761  22.476  15.240  1.00  0.00     0.181 C 
BRANCH   5   6
ATOM      6  C   UNL     1      56.236  23.824  15.779  1.00  0.00     0.209 C 
BRANCH   6   7
ATOM      7  C   UNL     1      55.465  23.621  17.056  1.00  0.00     0.258 C 
ATOM      8  O   UNL     1      56.044  23.600  18.131  1.00  0.00    -0.300 OA
ENDBRANCH   6   7
BRANCH   6   9
ATOM      9  O   UNL     1      57.315  24.693  16.013  1.00  0.00    -0.383 OA
ATOM     10  H   UNL     1      57.870  24.691  15.189  1.00  0.00     0.211 HD
ENDBRANCH   6   9
ENDBRANCH   5   6
BRANCH   5  11
ATOM     11  O   UNL     1      56.070  21.429  15.877  1.00  0.00    -0.387 OA
ATOM     12  H   UNL     1      55.900  21.714  16.814  1.00  0.00     0.211 HD
ENDBRANCH   5  11
ENDBRANCH   1   5
BRANCH   1  13
ATOM     13  O   UNL     1      58.894  21.635  14.410  1.00  0.00    -0.388 OA
ATOM     14  H   UNL     1      58.713  20.667  14.534  1.00  0.00     0.211 HD
ENDBRANCH   1  13
TORSDOF 8
ENDMDL
MODEL 7
REMARK VINA RESULT:    -3.631      2.053      3.099
REMARK INTER + INTRA:          -5.635
REMARK INTER:                  -5.141
REMARK INTRA:                  -0.493
REMARK UNBOUND:                -0.729
REMARK SMILES O=C[C@@H](O)[C@H](O)[C@H](O)CO
REMARK SMILES IDX 7 1 9 2 10 3 5 5 3 6 2 7 1 8 4 9 6 11 8 13
REMARK H PARENT 10 4 4 10 6 12 8 14
REMARK Flexibility Score: inf
ROOT
ATOM      1  C   UNL     1      57.688  22.169  15.730  1.00  0.00     0.171 C 
ENDROOT
BRANCH   1   2
ATOM      2  C   UNL     1      57.501  22.872  17.084  1.00  0.00     0.190 C 
BRANCH   2   3
ATOM      3  O   UNL     1      58.661  22.726  17.857  1.00  0.00    -0.394 OA
ATOM      4  H   UNL     1      58.354  22.588  18.791  1.00  0.00     0.210 HD
ENDBRANCH   2   3
ENDBRANCH   1   2
BRANCH   1   5
ATOM      5  C   UNL     1      57.025  20.767  15.710  1.00  0.00     0.181 C 
BRANCH   5   6
ATOM      6  C   UNL     1      57.435  19.963  14.458  1.00  0.00     0.209 C 
BRANCH   6   7
ATOM      7  C   UNL     1      56.509  18.793  14.252  1.00  0.00     0.258 C 
ATOM      8  O   UNL     1      56.225  18.058  15.184  1.00  0.00    -0.300 OA
ENDBRANCH   6   7
BRANCH   6   9
ATOM      9  O   UNL     1      57.402  20.796  13.327  1.00  0.00    -0.383 OA
ATOM     10  H   UNL     1      57.833  20.292  12.587  1.00  0.00     0.211 HD
ENDBRANCH   6   9
ENDBRANCH   5   6
BRANCH   5  11
ATOM     11  O   UNL     1      55.624  20.903  15.728  1.00  0.00    -0.387 OA
ATOM     12  H   UNL     1      55.414  21.835  15.457  1.00  0.00     0.211 HD
ENDBRANCH   5  11
ENDBRANCH   1   5
BRANCH   1  13
ATOM     13  O   UNL     1      59.058  22.082  15.418  1.00  0.00    -0.388 OA
ATOM     14  H   UNL     1      59.478  21.479  16.086  1.00  0.00     0.211 HD
ENDBRANCH   1  13
TORSDOF 8
ENDMDL
MODEL 8
REMARK VINA RESULT:    -3.544      2.345      4.122
REMARK INTER + INTRA:          -5.516
REMARK INTER:                  -5.021
REMARK INTRA:                  -0.495
REMARK UNBOUND:                -0.729
REMARK SMILES O=C[C@@H](O)[C@H](O)[C@H](O)CO
REMARK SMILES IDX 7 1 9 2 10 3 5 5 3 6 2 7 1 8 4 9 6 11 8 13
REMARK H PARENT 10 4 4 10 6 12 8 14
REMARK Flexibility Score: inf
ROOT
ATOM      1  C   UNL     1      57.364  19.303  14.940  1.00  0.00     0.171 C 
ENDROOT
BRANCH   1   2
ATOM      2  C   UNL     1      56.227  18.280  15.098  1.00  0.00     0.190 C 
BRANCH   2   3
ATOM      3  O   UNL     1      55.450  18.254  13.933  1.00  0.00    -0.394 OA
ATOM      4  H   UNL     1      54.843  17.473  14.024  1.00  0.00     0.210 HD
ENDBRANCH   2   3
ENDBRANCH   1   2
BRANCH   1   5
ATOM      5  C   UNL     1      56.832  20.759  14.925  1.00  0.00     0.181 C 
BRANCH   5   6
ATOM      6  C   UNL     1      57.891  21.756  15.445  1.00  0.00     0.209 C 
BRANCH   6   7
ATOM      7  C   UNL     1      58.419  21.317  16.786  1.00  0.00     0.258 C 
ATOM      8  O   UNL     1      59.329  21.929  17.321  1.00  0.00    -0.300 OA
ENDBRANCH   6   7
BRANCH   6   9
ATOM      9  O   UNL     1      58.950  21.844  14.527  1.00  0.00    -0.383 OA
ATOM     10  H   UNL     1      58.687  21.308  13.733  1.00  0.00     0.211 HD
ENDBRANCH   6   9
ENDBRANCH   5   6
BRANCH   5  11
ATOM     11  O   UNL     1      55.681  20.855  15.730  1.00  0.00    -0.387 OA
ATOM     12  H   UNL     1      55.800  20.229  16.492  1.00  0.00     0.211 HD
ENDBRANCH   5  11
ENDBRANCH   1   5
BRANCH   1  13
ATOM     13  O   UNL     1      58.103  19.025  13.775  1.00  0.00    -0.388 OA
ATOM     14  H   UNL     1      58.250  18.043  13.740  1.00  0.00     0.211 HD
ENDBRANCH   1  13
TORSDOF 8
ENDMDL
