MODEL 1
REMARK VINA RESULT:     8.934      0.000      0.000
REMARK INTER + INTRA:          12.045
REMARK INTER:                  12.068
REMARK INTRA:                  -0.023
REMARK UNBOUND:                -0.023
REMARK SMILES O=c1c(-c2ccc(O)cc2)coc2c([C@@H]3O[C@@H](CO)[C@H](O)[C@H](O)[C@H]3O)c(O)ccc12
REMARK SMILES IDX 3 1 11 2 12 3 13 4 30 5 2 6 1 7 29 8 28 9 26 10 14 11 4 12
REMARK SMILES IDX 5 13 6 14 7 15 10 16 9 17 8 18 15 20 24 21 16 22 22 23 17 24
REMARK SMILES IDX 20 25 25 26 23 28 18 30 19 31 21 33 27 35
REMARK H PARENT 8 19 25 27 23 29 19 32 21 34 27 36
REMARK Flexibility Score: inf
ROOT
ATOM      1  C   UNL     1      41.711 112.307 -15.392  1.00  0.00     0.065 A 
ATOM      2  C   UNL     1      41.985 111.102 -16.053  1.00  0.00     0.208 A 
ATOM      3  O   UNL     1      43.234 110.684 -16.218  1.00  0.00    -0.463 OA
ATOM      4  C   UNL     1      44.295 111.358 -15.779  1.00  0.00     0.147 A 
ATOM      5  C   UNL     1      44.108 112.579 -15.090  1.00  0.00     0.066 A 
ATOM      6  C   UNL     1      42.796 113.051 -14.896  1.00  0.00     0.200 A 
ATOM      7  O   UNL     1      42.594 114.125 -14.262  1.00  0.00    -0.288 OA
ATOM      8  C   UNL     1      45.222 113.280 -14.610  1.00  0.00     0.020 A 
ATOM      9  C   UNL     1      46.503 112.763 -14.782  1.00  0.00     0.047 A 
ATOM     10  C   UNL     1      46.706 111.547 -15.442  1.00  0.00     0.125 A 
ATOM     11  C   UNL     1      45.601 110.850 -16.002  1.00  0.00     0.069 A 
ENDROOT
BRANCH   1  12
ATOM     12  C   UNL     1      40.307 112.760 -15.229  1.00  0.00    -0.011 A 
ATOM     13  C   UNL     1      39.648 112.624 -13.994  1.00  0.00     0.013 A 
ATOM     14  C   UNL     1      38.328 113.060 -13.845  1.00  0.00     0.047 A 
ATOM     15  C   UNL     1      37.653 113.641 -14.922  1.00  0.00     0.115 A 
ATOM     16  C   UNL     1      39.623 113.351 -16.306  1.00  0.00     0.013 A 
ATOM     17  C   UNL     1      38.303 113.785 -16.155  1.00  0.00     0.047 A 
BRANCH  15  18
ATOM     18  O   UNL     1      36.337 114.070 -14.758  1.00  0.00    -0.508 OA
ATOM     19  H   UNL     1      36.098 115.055 -14.758  1.00  0.00     0.293 HD
ENDBRANCH  15  18
ENDBRANCH   1  12
BRANCH  11  20
ATOM     20  C   UNL     1      45.785 109.559 -16.794  1.00  0.00     0.188 C 
ATOM     21  C   UNL     1      45.513 109.817 -18.296  1.00  0.00     0.179 C 
ATOM     22  O   UNL     1      47.102 109.069 -16.579  1.00  0.00    -0.362 OA
ATOM     23  C   UNL     1      45.752 108.533 -19.096  1.00  0.00     0.177 C 
ATOM     24  C   UNL     1      47.368 107.848 -17.257  1.00  0.00     0.176 C 
ATOM     25  C   UNL     1      47.147 107.967 -18.786  1.00  0.00     0.177 C 
BRANCH  21  26
ATOM     26  O   UNL     1      44.183 110.229 -18.487  1.00  0.00    -0.387 OA
ATOM     27  H   UNL     1      43.672 109.946 -17.685  1.00  0.00     0.211 HD
ENDBRANCH  21  26
BRANCH  23  28
ATOM     28  O   UNL     1      45.634 108.811 -20.468  1.00  0.00    -0.387 OA
ATOM     29  H   UNL     1      46.126 108.095 -20.948  1.00  0.00     0.211 HD
ENDBRANCH  23  28
BRANCH  24  30
ATOM     30  C   UNL     1      46.640 106.649 -16.617  1.00  0.00     0.191 C 
BRANCH  30  31
ATOM     31  O   UNL     1      47.566 105.821 -15.966  1.00  0.00    -0.394 OA
ATOM     32  H   UNL     1      47.177 105.616 -15.078  1.00  0.00     0.210 HD
ENDBRANCH  30  31
ENDBRANCH  24  30
BRANCH  25  33
ATOM     33  O   UNL     1      48.125 108.813 -19.339  1.00  0.00    -0.388 OA
ATOM     34  H   UNL     1      47.646 109.584 -19.740  1.00  0.00     0.211 HD
ENDBRANCH  25  33
ENDBRANCH  11  20
BRANCH  10  35
ATOM     35  O   UNL     1      48.019 111.068 -15.495  1.00  0.00    -0.507 OA
ATOM     36  H   UNL     1      48.673 111.276 -16.236  1.00  0.00     0.293 HD
ENDBRANCH  10  35
TORSDOF 9
ENDMDL
