MODEL 1
REMARK VINA RESULT:    -1.837      0.000      0.000
REMARK INTER + INTRA:          -2.408
REMARK INTER:                  -2.481
REMARK INTRA:                   0.073
REMARK UNBOUND:                 0.073
REMARK SMILES C=C(C)[C@H]1CC[C@H](C)C2=C(C1)[C@@H](C)CC2
REMARK SMILES IDX 10 1 9 2 15 3 14 4 12 5 13 6 7 7 8 8 6 9 11 11 4 12 5 13
REMARK SMILES IDX 2 15 1 16 3 17
REMARK H PARENT
REMARK Flexibility Score: 80.00
ROOT
ATOM      1  C   UNL     1       6.140   7.941  12.061  1.00  0.00    -0.067 C 
ATOM      2  C   UNL     1       5.681   6.758  12.468  1.00  0.00    -0.068 C 
ATOM      3  C   UNL     1       6.766   5.939  13.092  1.00  0.00     0.032 C 
ATOM      4  C   UNL     1       8.047   6.739  12.850  1.00  0.00     0.012 C 
ATOM      5  C   UNL     1       7.596   8.121  12.353  1.00  0.00     0.012 C 
ATOM      6  C   UNL     1       7.810   9.203  13.419  1.00  0.00     0.012 C 
ENDROOT
BRANCH   2   7
ATOM      7  C   UNL     1       4.221   6.338  12.366  1.00  0.00     0.012 C 
ATOM      8  C   UNL     1       4.008   4.878  12.798  1.00  0.00     0.012 C 
BRANCH   7   9
ATOM      9  C   UNL     1       3.326   7.276  13.208  1.00  0.00     0.008 CG0
ATOM     10  G   UNL     1       2.992   8.597  12.494  1.00  0.00     0.000 G0
ENDBRANCH   7   9
ENDBRANCH   2   7
BRANCH   1  11
ATOM     11  C   UNL     1       5.295   9.005  11.407  1.00  0.00     0.039 C 
BRANCH  11  12
ATOM     12  C   UNL     1       4.219   9.545  12.374  1.00  0.00     0.018 C 
BRANCH  12  13
ATOM     13  C   UNL     1       3.008   8.592  12.494  1.00  0.00     0.009 CG0
ATOM     14  G   UNL     1       3.325   7.274  13.222  1.00  0.00     0.000 G0
ENDBRANCH  12  13
BRANCH  12  15
ATOM     15  C   UNL     1       3.750  10.922  11.922  1.00  0.00    -0.077 C 
ATOM     16  C   UNL     1       4.381  11.558  10.923  1.00  0.00     0.008 C 
ATOM     17  C   UNL     1       2.577  11.599  12.585  1.00  0.00     0.039 C 
ENDBRANCH  12  15
ENDBRANCH  11  12
ENDBRANCH   1  11
TORSDOF 1
ENDMDL
MODEL 2
REMARK VINA RESULT:    -1.041      2.258      6.139
REMARK INTER + INTRA:          -1.332
REMARK INTER:                  -1.413
REMARK INTRA:                   0.080
REMARK UNBOUND:                 0.073
REMARK SMILES C=C(C)[C@H]1CC[C@H](C)C2=C(C1)[C@@H](C)CC2
REMARK SMILES IDX 10 1 9 2 15 3 14 4 12 5 13 6 7 7 8 8 6 9 11 11 4 12 5 13
REMARK SMILES IDX 2 15 1 16 3 17
REMARK H PARENT
REMARK Flexibility Score: 80.00
ROOT
ATOM      1  C   UNL     1       2.008  11.059  10.977  1.00  0.00    -0.067 C 
ATOM      2  C   UNL     1       2.247  12.358  11.152  1.00  0.00    -0.068 C 
ATOM      3  C   UNL     1       0.973  13.140  11.230  1.00  0.00     0.032 C 
ATOM      4  C   UNL     1      -0.125  12.130  10.893  1.00  0.00     0.012 C 
ATOM      5  C   UNL     1       0.545  10.748  10.922  1.00  0.00     0.012 C 
ATOM      6  C   UNL     1       0.113   9.935  12.149  1.00  0.00     0.012 C 
ENDROOT
BRANCH   2   7
ATOM      7  C   UNL     1       3.642  12.945  11.319  1.00  0.00     0.012 C 
ATOM      8  C   UNL     1       3.620  14.481  11.369  1.00  0.00     0.012 C 
BRANCH   7   9
ATOM      9  C   UNL     1       4.318  12.383  12.590  1.00  0.00     0.008 CG0
ATOM     10  G   UNL     1       4.945  10.994  12.379  1.00  0.00     0.000 G0
ENDBRANCH   7   9
ENDBRANCH   2   7
BRANCH   1  11
ATOM     11  C   UNL     1       3.077  10.000  10.875  1.00  0.00     0.039 C 
BRANCH  11  12
ATOM     12  C   UNL     1       3.861   9.861  12.198  1.00  0.00     0.018 C 
BRANCH  12  13
ATOM     13  C   UNL     1       4.919  10.974  12.372  1.00  0.00     0.009 CG0
ATOM     14  G   UNL     1       4.319  12.373  12.589  1.00  0.00     0.000 G0
ENDBRANCH  12  13
BRANCH  12  15
ATOM     15  C   UNL     1       4.531   8.495  12.270  1.00  0.00    -0.077 C 
ATOM     16  C   UNL     1       5.663   8.259  11.589  1.00  0.00     0.008 C 
ATOM     17  C   UNL     1       3.939   7.383  13.098  1.00  0.00     0.039 C 
ENDBRANCH  12  15
ENDBRANCH  11  12
ENDBRANCH   1  11
TORSDOF 1
ENDMDL
MODEL 3
REMARK VINA RESULT:    -0.613      1.433      3.119
REMARK INTER + INTRA:          -0.755
REMARK INTER:                  -2.074
REMARK INTRA:                   1.320
REMARK UNBOUND:                 0.073
REMARK SMILES C=C(C)[C@H]1CC[C@H](C)C2=C(C1)[C@@H](C)CC2
REMARK SMILES IDX 10 1 9 2 15 3 14 4 12 5 13 6 7 7 8 8 6 9 11 11 4 12 5 13
REMARK SMILES IDX 2 15 1 16 3 17
REMARK H PARENT
REMARK Flexibility Score: 80.00
ROOT
ATOM      1  C   UNL     1       4.949   6.980  13.069  1.00  0.00    -0.067 C 
ATOM      2  C   UNL     1       6.252   7.254  13.118  1.00  0.00    -0.068 C 
ATOM      3  C   UNL     1       7.068   6.003  13.200  1.00  0.00     0.032 C 
ATOM      4  C   UNL     1       6.044   4.881  13.376  1.00  0.00     0.012 C 
ATOM      5  C   UNL     1       4.672   5.510  13.095  1.00  0.00     0.012 C 
ATOM      6  C   UNL     1       4.096   5.038  11.754  1.00  0.00     0.012 C 
ENDROOT
BRANCH   2   7
ATOM      7  C   UNL     1       6.822   8.663  13.031  1.00  0.00     0.012 C 
ATOM      8  C   UNL     1       8.339   8.689  13.282  1.00  0.00     0.012 C 
BRANCH   7   9
ATOM      9  C   UNL     1       6.502   9.294  11.656  1.00  0.00     0.008 CG0
ATOM     10  G   UNL     1       5.323   8.615  10.938  1.00  0.00     0.000 G0
ENDBRANCH   7   9
ENDBRANCH   2   7
BRANCH   1  11
ATOM     11  C   UNL     1       3.861   8.020  12.965  1.00  0.00     0.039 C 
BRANCH  11  12
ATOM     12  C   UNL     1       3.934   8.782  11.624  1.00  0.00     0.018 C 
BRANCH  12  13
ATOM     13  C   UNL     1       5.307   8.622  10.933  1.00  0.00     0.009 CG0
ATOM     14  G   UNL     1       6.458   9.329  11.669  1.00  0.00     0.000 G0
ENDBRANCH  12  13
BRANCH  12  15
ATOM     15  C   UNL     1       3.634  10.259  11.843  1.00  0.00    -0.077 C 
ATOM     16  C   UNL     1       3.947  11.161  10.900  1.00  0.00     0.008 C 
ATOM     17  C   UNL     1       2.988  10.740  13.118  1.00  0.00     0.039 C 
ENDBRANCH  12  15
ENDBRANCH  11  12
ENDBRANCH   1  11
TORSDOF 1
ENDMDL
MODEL 4
REMARK VINA RESULT:    -0.393      3.152      6.015
REMARK INTER + INTRA:          -0.458
REMARK INTER:                  -0.527
REMARK INTRA:                   0.068
REMARK UNBOUND:                 0.073
REMARK SMILES C=C(C)[C@H]1CC[C@H](C)C2=C(C1)[C@@H](C)CC2
REMARK SMILES IDX 10 1 9 2 15 3 14 4 12 5 13 6 7 7 8 8 6 9 11 11 4 12 5 13
REMARK SMILES IDX 2 15 1 16 3 17
REMARK H PARENT
REMARK Flexibility Score: 80.00
ROOT
ATOM      1  C   UNL     1       2.060  12.460  12.622  1.00  0.00    -0.067 C 
ATOM      2  C   UNL     1       2.605  11.260  12.424  1.00  0.00    -0.068 C 
ATOM      3  C   UNL     1       1.565  10.184  12.421  1.00  0.00     0.032 C 
ATOM      4  C   UNL     1       0.273  10.890  12.833  1.00  0.00     0.012 C 
ATOM      5  C   UNL     1       0.573  12.396  12.771  1.00  0.00     0.012 C 
ATOM      6  C   UNL     1      -0.125  13.063  11.579  1.00  0.00     0.012 C 
ENDROOT
BRANCH   2   7
ATOM      7  C   UNL     1       4.089  11.039  12.167  1.00  0.00     0.012 C 
ATOM      8  C   UNL     1       4.443   9.545  12.078  1.00  0.00     0.012 C 
BRANCH   7   9
ATOM      9  C   UNL     1       4.530  11.765  10.875  1.00  0.00     0.008 CG0
ATOM     10  G   UNL     1       4.728  13.278  11.070  1.00  0.00     0.000 G0
ENDBRANCH   7   9
ENDBRANCH   2   7
BRANCH   1  11
ATOM     11  C   UNL     1       2.835  13.753  12.663  1.00  0.00     0.039 C 
BRANCH  11  12
ATOM     12  C   UNL     1       3.451  14.086  11.287  1.00  0.00     0.018 C 
BRANCH  12  13
ATOM     13  C   UNL     1       4.743  13.283  11.013  1.00  0.00     0.009 CG0
ATOM     14  G   UNL     1       4.516  11.767  10.882  1.00  0.00     0.000 G0
ENDBRANCH  12  13
BRANCH  12  15
ATOM     15  C   UNL     1       3.740  15.578  11.188  1.00  0.00    -0.077 C 
ATOM     16  C   UNL     1       4.990  16.039  11.347  1.00  0.00     0.008 C 
ATOM     17  C   UNL     1       2.633  16.566  10.916  1.00  0.00     0.039 C 
ENDBRANCH  12  15
ENDBRANCH  11  12
ENDBRANCH   1  11
TORSDOF 1
ENDMDL
MODEL 5
REMARK VINA RESULT:    -0.099      5.621      6.869
REMARK INTER + INTRA:          -0.060
REMARK INTER:                  -0.151
REMARK INTRA:                   0.091
REMARK UNBOUND:                 0.073
REMARK SMILES C=C(C)[C@H]1CC[C@H](C)C2=C(C1)[C@@H](C)CC2
REMARK SMILES IDX 10 1 9 2 15 3 14 4 12 5 13 6 7 7 8 8 6 9 11 11 4 12 5 13
REMARK SMILES IDX 2 15 1 16 3 17
REMARK H PARENT
REMARK Flexibility Score: 80.00
ROOT
ATOM      1  C   UNL     1       3.098  13.225  13.061  1.00  0.00    -0.067 C 
ATOM      2  C   UNL     1       2.025  12.583  12.599  1.00  0.00    -0.068 C 
ATOM      3  C   UNL     1       1.485  11.628  13.616  1.00  0.00     0.032 C 
ATOM      4  C   UNL     1       2.512  11.640  14.749  1.00  0.00     0.012 C 
ATOM      5  C   UNL     1       3.448  12.823  14.459  1.00  0.00     0.012 C 
ATOM      6  C   UNL     1       3.216  13.983  15.436  1.00  0.00     0.012 C 
ENDROOT
BRANCH   2   7
ATOM      7  C   UNL     1       1.403  12.851  11.236  1.00  0.00     0.012 C 
ATOM      8  C   UNL     1       0.257  11.875  10.922  1.00  0.00     0.012 C 
BRANCH   7   9
ATOM      9  C   UNL     1       0.895  14.309  11.149  1.00  0.00     0.008 CG0
ATOM     10  G   UNL     1       2.018  15.326  10.884  1.00  0.00     0.000 G0
ENDBRANCH   7   9
ENDBRANCH   2   7
BRANCH   1  11
ATOM     11  C   UNL     1       3.868  14.267  12.288  1.00  0.00     0.039 C 
BRANCH  11  12
ATOM     12  C   UNL     1       3.011  15.526  12.032  1.00  0.00     0.018 C 
BRANCH  12  13
ATOM     13  C   UNL     1       2.007  15.328  10.875  1.00  0.00     0.009 CG0
ATOM     14  G   UNL     1       0.911  14.291  11.175  1.00  0.00     0.000 G0
ENDBRANCH  12  13
BRANCH  12  15
ATOM     15  C   UNL     1       3.910  16.721  11.738  1.00  0.00    -0.077 C 
ATOM     16  C   UNL     1       5.210  16.539  11.459  1.00  0.00     0.008 C 
ATOM     17  C   UNL     1       3.364  18.127  11.758  1.00  0.00     0.039 C 
ENDBRANCH  12  15
ENDBRANCH  11  12
ENDBRANCH   1  11
TORSDOF 1
ENDMDL
MODEL 6
REMARK VINA RESULT:     0.067      2.792      4.754
REMARK INTER + INTRA:           0.163
REMARK INTER:                  -1.353
REMARK INTRA:                   1.517
REMARK UNBOUND:                 0.073
REMARK SMILES C=C(C)[C@H]1CC[C@H](C)C2=C(C1)[C@@H](C)CC2
REMARK SMILES IDX 10 1 9 2 15 3 14 4 12 5 13 6 7 7 8 8 6 9 11 11 4 12 5 13
REMARK SMILES IDX 2 15 1 16 3 17
REMARK H PARENT
REMARK Flexibility Score: 80.00
ROOT
ATOM      1  C   UNL     1       3.595  10.833  11.536  1.00  0.00    -0.067 C 
ATOM      2  C   UNL     1       2.501  10.660  12.277  1.00  0.00    -0.068 C 
ATOM      3  C   UNL     1       2.417   9.261  12.802  1.00  0.00     0.032 C 
ATOM      4  C   UNL     1       3.563   8.517  12.116  1.00  0.00     0.012 C 
ATOM      5  C   UNL     1       4.431   9.596  11.450  1.00  0.00     0.012 C 
ATOM      6  C   UNL     1       5.764   9.784  12.186  1.00  0.00     0.012 C 
ENDROOT
BRANCH   2   7
ATOM      7  C   UNL     1       1.511  11.772  12.594  1.00  0.00     0.012 C 
ATOM      8  C   UNL     1       0.255  11.241  13.303  1.00  0.00     0.012 C 
BRANCH   7   9
ATOM      9  C   UNL     1       2.183  12.866  13.455  1.00  0.00     0.008 CG0
ATOM     10  G   UNL     1       3.714  12.897  13.309  1.00  0.00     0.000 G0
ENDBRANCH   7   9
ENDBRANCH   2   7
BRANCH   1  11
ATOM     11  C   UNL     1       3.981  12.133  10.875  1.00  0.00     0.039 C 
BRANCH  11  12
ATOM     12  C   UNL     1       4.278  13.231  11.920  1.00  0.00     0.018 C 
BRANCH  12  13
ATOM     13  C   UNL     1       3.727  12.873  13.319  1.00  0.00     0.009 CG0
ATOM     14  G   UNL     1       2.191  12.882  13.403  1.00  0.00     0.000 G0
ENDBRANCH  12  13
BRANCH  12  15
ATOM     15  C   UNL     1       3.698  14.563  11.462  1.00  0.00    -0.077 C 
ATOM     16  C   UNL     1       2.492  14.611  10.875  1.00  0.00     0.008 C 
ATOM     17  C   UNL     1       4.463  15.849  11.649  1.00  0.00     0.039 C 
ENDBRANCH  12  15
ENDBRANCH  11  12
ENDBRANCH   1  11
TORSDOF 1
ENDMDL
MODEL 7
REMARK VINA RESULT:     1.124      1.809      4.142
REMARK INTER + INTRA:           1.591
REMARK INTER:                   0.575
REMARK INTRA:                   1.016
REMARK UNBOUND:                 0.073
REMARK SMILES C=C(C)[C@H]1CC[C@H](C)C2=C(C1)[C@@H](C)CC2
REMARK SMILES IDX 10 1 9 2 15 3 14 4 12 5 13 6 7 7 8 8 6 9 11 11 4 12 5 13
REMARK SMILES IDX 2 15 1 16 3 17
REMARK H PARENT
REMARK Flexibility Score: 80.00
ROOT
ATOM      1  C   UNL     1       5.220   7.912  12.405  1.00  0.00    -0.067 C 
ATOM      2  C   UNL     1       4.373   7.038  12.947  1.00  0.00    -0.068 C 
ATOM      3  C   UNL     1       3.089   7.698  13.343  1.00  0.00     0.032 C 
ATOM      4  C   UNL     1       3.334   9.190  13.120  1.00  0.00     0.012 C 
ATOM      5  C   UNL     1       4.648   9.293  12.332  1.00  0.00     0.012 C 
ATOM      6  C   UNL     1       4.404   9.707  10.875  1.00  0.00     0.012 C 
ENDROOT
BRANCH   2   7
ATOM      7  C   UNL     1       4.664   5.549  13.076  1.00  0.00     0.012 C 
ATOM      8  C   UNL     1       4.895   4.885  11.709  1.00  0.00     0.012 C 
BRANCH   7   9
ATOM      9  C   UNL     1       5.886   5.313  13.994  1.00  0.00     0.008 CG0
ATOM     10  G   UNL     1       6.708   6.587  14.247  1.00  0.00     0.000 G0
ENDBRANCH   7   9
ENDBRANCH   2   7
BRANCH   1  11
ATOM     11  C   UNL     1       6.592   7.562  11.887  1.00  0.00     0.039 C 
BRANCH  11  12
ATOM     12  C   UNL     1       7.517   7.077  13.024  1.00  0.00     0.018 C 
BRANCH  12  13
ATOM     13  C   UNL     1       6.724   6.565  14.248  1.00  0.00     0.009 CG0
ATOM     14  G   UNL     1       5.889   5.305  13.963  1.00  0.00     0.000 G0
ENDBRANCH  12  13
BRANCH  12  15
ATOM     15  C   UNL     1       8.458   8.197  13.450  1.00  0.00    -0.077 C 
ATOM     16  C   UNL     1       7.982   9.274  14.093  1.00  0.00     0.008 C 
ATOM     17  C   UNL     1       9.935   8.124  13.155  1.00  0.00     0.039 C 
ENDBRANCH  12  15
ENDBRANCH  11  12
ENDBRANCH   1  11
TORSDOF 1
ENDMDL
MODEL 8
REMARK VINA RESULT:     1.156      2.962      4.733
REMARK INTER + INTRA:           1.634
REMARK INTER:                   0.637
REMARK INTRA:                   0.997
REMARK UNBOUND:                 0.073
REMARK SMILES C=C(C)[C@H]1CC[C@H](C)C2=C(C1)[C@@H](C)CC2
REMARK SMILES IDX 10 1 9 2 15 3 14 4 12 5 13 6 7 7 8 8 6 9 11 11 4 12 5 13
REMARK SMILES IDX 2 15 1 16 3 17
REMARK H PARENT
REMARK Flexibility Score: 80.00
ROOT
ATOM      1  C   UNL     1       2.751  10.158  12.868  1.00  0.00    -0.067 C 
ATOM      2  C   UNL     1       2.502  10.099  11.560  1.00  0.00    -0.068 C 
ATOM      3  C   UNL     1       3.402   9.117  10.878  1.00  0.00     0.032 C 
ATOM      4  C   UNL     1       4.397   8.686  11.956  1.00  0.00     0.012 C 
ATOM      5  C   UNL     1       3.842   9.222  13.285  1.00  0.00     0.012 C 
ATOM      6  C   UNL     1       3.288   8.093  14.164  1.00  0.00     0.012 C 
ENDROOT
BRANCH   2   7
ATOM      7  C   UNL     1       1.393  10.887  10.876  1.00  0.00     0.012 C 
ATOM      8  C   UNL     1       0.005  10.530  11.432  1.00  0.00     0.012 C 
BRANCH   7   9
ATOM      9  C   UNL     1       1.644  12.406  11.012  1.00  0.00     0.008 CG0
ATOM     10  G   UNL     1       2.696  12.754  12.079  1.00  0.00     0.000 G0
ENDBRANCH   7   9
ENDBRANCH   2   7
BRANCH   1  11
ATOM     11  C   UNL     1       2.007  11.037  13.841  1.00  0.00     0.039 C 
BRANCH  11  12
ATOM     12  C   UNL     1       2.221  12.534  13.526  1.00  0.00     0.018 C 
BRANCH  12  13
ATOM     13  C   UNL     1       2.690  12.766  12.072  1.00  0.00     0.009 CG0
ATOM     14  G   UNL     1       1.638  12.394  11.013  1.00  0.00     0.000 G0
ENDBRANCH  12  13
BRANCH  12  15
ATOM     15  C   UNL     1       3.229  13.135  14.496  1.00  0.00    -0.077 C 
ATOM     16  C   UNL     1       4.391  13.633  14.045  1.00  0.00     0.008 C 
ATOM     17  C   UNL     1       2.950  13.179  15.978  1.00  0.00     0.039 C 
ENDBRANCH  12  15
ENDBRANCH  11  12
ENDBRANCH   1  11
TORSDOF 1
ENDMDL
