MODEL 1
REMARK VINA RESULT:    -4.145      0.000      0.000
REMARK INTER + INTRA:          -6.088
REMARK INTER:                  -5.599
REMARK INTRA:                  -0.490
REMARK UNBOUND:                -0.490
REMARK SMILES [NH3+]CCCC[C@@H]([NH3+])C(=O)[O-]
REMARK SMILES IDX 4 1 3 2 2 3 1 4 5 8 6 9 7 10 8 14 9 15 10 16
REMARK H PARENT 1 5 1 6 1 7 7 11 7 12 7 13
REMARK Flexibility Score: inf
ROOT
ATOM      1  C   UNL     1      11.952  16.528  50.286  1.00  0.00     0.012 C 
ENDROOT
BRANCH   1   2
ATOM      2  C   UNL     1      11.932  16.791  51.802  1.00  0.00     0.061 C 
BRANCH   2   3
ATOM      3  C   UNL     1      13.279  16.474  52.471  1.00  0.00     0.258 C 
BRANCH   3   4
ATOM      4  N   UNL     1      14.373  16.400  51.500  1.00  0.00    -0.358 N 
ATOM      5  H   UNL     1      15.274  16.690  51.944  1.00  0.00     0.344 HD
ATOM      6  H   UNL     1      14.169  17.008  50.675  1.00  0.00     0.344 HD
ATOM      7  H   UNL     1      14.465  15.413  51.168  1.00  0.00     0.344 HD
ENDBRANCH   3   4
ENDBRANCH   2   3
ENDBRANCH   1   2
BRANCH   1   8
ATOM      8  C   UNL     1      11.554  17.764  49.459  1.00  0.00     0.072 C 
BRANCH   8   9
ATOM      9  C   UNL     1      12.735  18.498  48.780  1.00  0.00     0.227 C 
BRANCH   9  10
ATOM     10  N   UNL     1      13.554  19.232  49.754  1.00  0.00    -0.350 N 
ATOM     11  H   UNL     1      13.302  18.960  50.733  1.00  0.00     0.345 HD
ATOM     12  H   UNL     1      14.568  19.027  49.594  1.00  0.00     0.345 HD
ATOM     13  H   UNL     1      13.421  20.261  49.633  1.00  0.00     0.345 HD
ENDBRANCH   9  10
BRANCH   9  14
ATOM     14  C   UNL     1      13.583  17.496  48.043  1.00  0.00     0.099 C 
ATOM     15  O   UNL     1      13.152  16.954  46.991  1.00  0.00    -0.544 OA
ATOM     16  O   UNL     1      14.834  17.140  48.533  1.00  0.00    -0.544 OA
ENDBRANCH   9  14
ENDBRANCH   8   9
ENDBRANCH   1   8
TORSDOF 7
ENDMDL
MODEL 2
REMARK VINA RESULT:    -3.773      3.434      4.327
REMARK INTER + INTRA:          -5.586
REMARK INTER:                  -5.483
REMARK INTRA:                  -0.103
REMARK UNBOUND:                -0.490
REMARK SMILES [NH3+]CCCC[C@@H]([NH3+])C(=O)[O-]
REMARK SMILES IDX 4 1 3 2 2 3 1 4 5 8 6 9 7 10 8 14 9 15 10 16
REMARK H PARENT 1 5 1 6 1 7 7 11 7 12 7 13
REMARK Flexibility Score: inf
ROOT
ATOM      1  C   UNL     1      11.509  16.692  48.616  1.00  0.00     0.012 C 
ENDROOT
BRANCH   1   2
ATOM      2  C   UNL     1      11.116  15.880  47.370  1.00  0.00     0.061 C 
BRANCH   2   3
ATOM      3  C   UNL     1       9.594  15.703  47.239  1.00  0.00     0.258 C 
BRANCH   3   4
ATOM      4  N   UNL     1       9.137  14.430  47.802  1.00  0.00    -0.358 N 
ATOM      5  H   UNL     1       8.414  13.998  47.183  1.00  0.00     0.344 HD
ATOM      6  H   UNL     1       8.748  14.575  48.760  1.00  0.00     0.344 HD
ATOM      7  H   UNL     1       9.952  13.779  47.872  1.00  0.00     0.344 HD
ENDBRANCH   3   4
ENDBRANCH   2   3
ENDBRANCH   1   2
BRANCH   1   8
ATOM      8  C   UNL     1      12.588  15.999  49.467  1.00  0.00     0.072 C 
BRANCH   8   9
ATOM      9  C   UNL     1      13.314  16.923  50.473  1.00  0.00     0.227 C 
BRANCH   9  10
ATOM     10  N   UNL     1      13.188  18.339  50.102  1.00  0.00    -0.350 N 
ATOM     11  H   UNL     1      12.277  18.732  50.434  1.00  0.00     0.345 HD
ATOM     12  H   UNL     1      13.971  18.890  50.524  1.00  0.00     0.345 HD
ATOM     13  H   UNL     1      13.256  18.446  49.064  1.00  0.00     0.345 HD
ENDBRANCH   9  10
BRANCH   9  14
ATOM     14  C   UNL     1      12.750  16.698  51.850  1.00  0.00     0.099 C 
ATOM     15  O   UNL     1      11.533  16.928  52.081  1.00  0.00    -0.544 OA
ATOM     16  O   UNL     1      13.572  16.265  52.883  1.00  0.00    -0.544 OA
ENDBRANCH   9  14
ENDBRANCH   8   9
ENDBRANCH   1   8
TORSDOF 7
ENDMDL
MODEL 3
REMARK VINA RESULT:    -3.756      2.647      4.335
REMARK INTER + INTRA:          -5.563
REMARK INTER:                  -5.454
REMARK INTRA:                  -0.109
REMARK UNBOUND:                -0.490
REMARK SMILES [NH3+]CCCC[C@@H]([NH3+])C(=O)[O-]
REMARK SMILES IDX 4 1 3 2 2 3 1 4 5 8 6 9 7 10 8 14 9 15 10 16
REMARK H PARENT 1 5 1 6 1 7 7 11 7 12 7 13
REMARK Flexibility Score: inf
ROOT
ATOM      1  C   UNL     1      14.405  17.662  48.079  1.00  0.00     0.012 C 
ENDROOT
BRANCH   1   2
ATOM      2  C   UNL     1      14.626  18.844  47.120  1.00  0.00     0.061 C 
BRANCH   2   3
ATOM      3  C   UNL     1      15.525  19.934  47.726  1.00  0.00     0.258 C 
BRANCH   3   4
ATOM      4  N   UNL     1      16.861  19.430  48.048  1.00  0.00    -0.358 N 
ATOM      5  H   UNL     1      17.549  20.217  48.078  1.00  0.00     0.344 HD
ATOM      6  H   UNL     1      17.162  18.719  47.344  1.00  0.00     0.344 HD
ATOM      7  H   UNL     1      16.834  18.973  48.988  1.00  0.00     0.344 HD
ENDBRANCH   3   4
ENDBRANCH   2   3
ENDBRANCH   1   2
BRANCH   1   8
ATOM      8  C   UNL     1      13.039  17.713  48.788  1.00  0.00     0.072 C 
BRANCH   8   9
ATOM      9  C   UNL     1      12.626  16.401  49.495  1.00  0.00     0.227 C 
BRANCH   9  10
ATOM     10  N   UNL     1      13.386  15.248  48.994  1.00  0.00    -0.350 N 
ATOM     11  H   UNL     1      14.400  15.334  49.239  1.00  0.00     0.345 HD
ATOM     12  H   UNL     1      13.010  14.364  49.409  1.00  0.00     0.345 HD
ATOM     13  H   UNL     1      13.284  15.173  47.956  1.00  0.00     0.345 HD
ENDBRANCH   9  10
BRANCH   9  14
ATOM     14  C   UNL     1      12.834  16.551  50.979  1.00  0.00     0.099 C 
ATOM     15  O   UNL     1      13.978  16.384  51.478  1.00  0.00    -0.544 OA
ATOM     16  O   UNL     1      11.761  16.845  51.811  1.00  0.00    -0.544 OA
ENDBRANCH   9  14
ENDBRANCH   8   9
ENDBRANCH   1   8
TORSDOF 7
ENDMDL
MODEL 4
REMARK VINA RESULT:    -3.749      2.165      3.888
REMARK INTER + INTRA:          -5.554
REMARK INTER:                  -5.064
REMARK INTRA:                  -0.489
REMARK UNBOUND:                -0.490
REMARK SMILES [NH3+]CCCC[C@@H]([NH3+])C(=O)[O-]
REMARK SMILES IDX 4 1 3 2 2 3 1 4 5 8 6 9 7 10 8 14 9 15 10 16
REMARK H PARENT 1 5 1 6 1 7 7 11 7 12 7 13
REMARK Flexibility Score: inf
ROOT
ATOM      1  C   UNL     1      14.587  17.216  48.426  1.00  0.00     0.012 C 
ENDROOT
BRANCH   1   2
ATOM      2  C   UNL     1      14.175  18.409  47.547  1.00  0.00     0.061 C 
BRANCH   2   3
ATOM      3  C   UNL     1      14.410  19.760  48.241  1.00  0.00     0.258 C 
BRANCH   3   4
ATOM      4  N   UNL     1      13.808  19.807  49.575  1.00  0.00    -0.358 N 
ATOM      5  H   UNL     1      14.495  19.489  50.296  1.00  0.00     0.344 HD
ATOM      6  H   UNL     1      12.952  19.209  49.609  1.00  0.00     0.344 HD
ATOM      7  H   UNL     1      13.531  20.792  49.788  1.00  0.00     0.344 HD
ENDBRANCH   3   4
ENDBRANCH   2   3
ENDBRANCH   1   2
BRANCH   1   8
ATOM      8  C   UNL     1      13.404  16.301  48.790  1.00  0.00     0.072 C 
BRANCH   8   9
ATOM      9  C   UNL     1      13.150  16.140  50.307  1.00  0.00     0.227 C 
BRANCH   9  10
ATOM     10  N   UNL     1      14.350  16.449  51.097  1.00  0.00    -0.350 N 
ATOM     11  H   UNL     1      15.196  15.987  50.688  1.00  0.00     0.345 HD
ATOM     12  H   UNL     1      14.506  17.484  51.121  1.00  0.00     0.345 HD
ATOM     13  H   UNL     1      14.223  16.131  52.084  1.00  0.00     0.345 HD
ENDBRANCH   9  10
BRANCH   9  14
ATOM     14  C   UNL     1      12.016  17.040  50.719  1.00  0.00     0.099 C 
ATOM     15  O   UNL     1      11.497  17.827  49.883  1.00  0.00    -0.544 OA
ATOM     16  O   UNL     1      11.553  17.032  52.029  1.00  0.00    -0.544 OA
ENDBRANCH   9  14
ENDBRANCH   8   9
ENDBRANCH   1   8
TORSDOF 7
ENDMDL
MODEL 5
REMARK VINA RESULT:    -3.734      1.064      1.536
REMARK INTER + INTRA:          -5.533
REMARK INTER:                  -4.948
REMARK INTRA:                  -0.585
REMARK UNBOUND:                -0.490
REMARK SMILES [NH3+]CCCC[C@@H]([NH3+])C(=O)[O-]
REMARK SMILES IDX 4 1 3 2 2 3 1 4 5 8 6 9 7 10 8 14 9 15 10 16
REMARK H PARENT 1 5 1 6 1 7 7 11 7 12 7 13
REMARK Flexibility Score: inf
ROOT
ATOM      1  C   UNL     1      11.656  17.849  49.548  1.00  0.00     0.012 C 
ENDROOT
BRANCH   1   2
ATOM      2  C   UNL     1      12.034  16.519  50.221  1.00  0.00     0.061 C 
BRANCH   2   3
ATOM      3  C   UNL     1      12.899  16.718  51.476  1.00  0.00     0.258 C 
BRANCH   3   4
ATOM      4  N   UNL     1      14.310  16.415  51.227  1.00  0.00    -0.358 N 
ATOM      5  H   UNL     1      14.904  17.251  51.432  1.00  0.00     0.344 HD
ATOM      6  H   UNL     1      14.448  16.113  50.236  1.00  0.00     0.344 HD
ATOM      7  H   UNL     1      14.605  15.632  51.854  1.00  0.00     0.344 HD
ENDBRANCH   3   4
ENDBRANCH   2   3
ENDBRANCH   1   2
BRANCH   1   8
ATOM      8  C   UNL     1      12.373  18.066  48.204  1.00  0.00     0.072 C 
BRANCH   8   9
ATOM      9  C   UNL     1      13.592  19.018  48.265  1.00  0.00     0.227 C 
BRANCH   9  10
ATOM     10  N   UNL     1      13.731  19.642  49.588  1.00  0.00    -0.350 N 
ATOM     11  H   UNL     1      13.484  20.658  49.549  1.00  0.00     0.345 HD
ATOM     12  H   UNL     1      13.105  19.164  50.276  1.00  0.00     0.345 HD
ATOM     13  H   UNL     1      14.712  19.535  49.933  1.00  0.00     0.345 HD
ENDBRANCH   9  10
BRANCH   9  14
ATOM     14  C   UNL     1      14.840  18.249  47.922  1.00  0.00     0.099 C 
ATOM     15  O   UNL     1      15.030  17.102  48.407  1.00  0.00    -0.544 OA
ATOM     16  O   UNL     1      15.804  18.809  47.093  1.00  0.00    -0.544 OA
ENDBRANCH   9  14
ENDBRANCH   8   9
ENDBRANCH   1   8
TORSDOF 7
ENDMDL
MODEL 6
REMARK VINA RESULT:    -3.697      2.686      4.283
REMARK INTER + INTRA:          -5.484
REMARK INTER:                  -5.382
REMARK INTRA:                  -0.102
REMARK UNBOUND:                -0.490
REMARK SMILES [NH3+]CCCC[C@@H]([NH3+])C(=O)[O-]
REMARK SMILES IDX 4 1 3 2 2 3 1 4 5 8 6 9 7 10 8 14 9 15 10 16
REMARK H PARENT 1 5 1 6 1 7 7 11 7 12 7 13
REMARK Flexibility Score: inf
ROOT
ATOM      1  C   UNL     1      14.421  17.576  48.214  1.00  0.00     0.012 C 
ENDROOT
BRANCH   1   2
ATOM      2  C   UNL     1      14.673  18.758  47.263  1.00  0.00     0.061 C 
BRANCH   2   3
ATOM      3  C   UNL     1      15.527  19.862  47.909  1.00  0.00     0.258 C 
BRANCH   3   4
ATOM      4  N   UNL     1      16.934  19.473  48.023  1.00  0.00    -0.358 N 
ATOM      5  H   UNL     1      17.419  19.586  47.103  1.00  0.00     0.344 HD
ATOM      6  H   UNL     1      17.013  18.484  48.349  1.00  0.00     0.344 HD
ATOM      7  H   UNL     1      17.400  20.090  48.726  1.00  0.00     0.344 HD
ENDBRANCH   3   4
ENDBRANCH   2   3
ENDBRANCH   1   2
BRANCH   1   8
ATOM      8  C   UNL     1      13.186  17.779  49.109  1.00  0.00     0.072 C 
BRANCH   8   9
ATOM      9  C   UNL     1      12.616  16.483  49.733  1.00  0.00     0.227 C 
BRANCH   9  10
ATOM     10  N   UNL     1      13.361  15.294  49.296  1.00  0.00    -0.350 N 
ATOM     11  H   UNL     1      13.221  15.121  48.274  1.00  0.00     0.345 HD
ATOM     12  H   UNL     1      14.382  15.424  49.483  1.00  0.00     0.345 HD
ATOM     13  H   UNL     1      13.049  14.456  49.838  1.00  0.00     0.345 HD
ENDBRANCH   9  10
BRANCH   9  14
ATOM     14  C   UNL     1      12.656  16.596  51.234  1.00  0.00     0.099 C 
ATOM     15  O   UNL     1      11.600  16.829  51.879  1.00  0.00    -0.544 OA
ATOM     16  O   UNL     1      13.861  16.474  51.914  1.00  0.00    -0.544 OA
ENDBRANCH   9  14
ENDBRANCH   8   9
ENDBRANCH   1   8
TORSDOF 7
ENDMDL
MODEL 7
REMARK VINA RESULT:    -3.683      2.232      3.911
REMARK INTER + INTRA:          -5.465
REMARK INTER:                  -4.973
REMARK INTRA:                  -0.492
REMARK UNBOUND:                -0.490
REMARK SMILES [NH3+]CCCC[C@@H]([NH3+])C(=O)[O-]
REMARK SMILES IDX 4 1 3 2 2 3 1 4 5 8 6 9 7 10 8 14 9 15 10 16
REMARK H PARENT 1 5 1 6 1 7 7 11 7 12 7 13
REMARK Flexibility Score: inf
ROOT
ATOM      1  C   UNL     1      14.657  17.689  47.942  1.00  0.00     0.012 C 
ENDROOT
BRANCH   1   2
ATOM      2  C   UNL     1      14.864  19.176  47.607  1.00  0.00     0.061 C 
BRANCH   2   3
ATOM      3  C   UNL     1      13.764  20.072  48.200  1.00  0.00     0.258 C 
BRANCH   3   4
ATOM      4  N   UNL     1      13.840  20.144  49.660  1.00  0.00    -0.358 N 
ATOM      5  H   UNL     1      13.366  21.009  50.007  1.00  0.00     0.344 HD
ATOM      6  H   UNL     1      14.837  20.133  49.974  1.00  0.00     0.344 HD
ATOM      7  H   UNL     1      13.357  19.311  50.067  1.00  0.00     0.344 HD
ENDBRANCH   3   4
ENDBRANCH   2   3
ENDBRANCH   1   2
BRANCH   1   8
ATOM      8  C   UNL     1      13.230  17.199  47.636  1.00  0.00     0.072 C 
BRANCH   8   9
ATOM      9  C   UNL     1      12.648  16.211  48.674  1.00  0.00     0.227 C 
BRANCH   9  10
ATOM     10  N   UNL     1      13.424  14.964  48.736  1.00  0.00    -0.350 N 
ATOM     11  H   UNL     1      13.640  14.709  49.728  1.00  0.00     0.345 HD
ATOM     12  H   UNL     1      12.883  14.185  48.293  1.00  0.00     0.345 HD
ATOM     13  H   UNL     1      14.315  15.069  48.201  1.00  0.00     0.345 HD
ENDBRANCH   9  10
BRANCH   9  14
ATOM     14  C   UNL     1      12.622  16.871  50.027  1.00  0.00     0.099 C 
ATOM     15  O   UNL     1      11.818  17.813  50.256  1.00  0.00    -0.544 OA
ATOM     16  O   UNL     1      13.503  16.466  51.022  1.00  0.00    -0.544 OA
ENDBRANCH   9  14
ENDBRANCH   8   9
ENDBRANCH   1   8
TORSDOF 7
ENDMDL
MODEL 8
REMARK VINA RESULT:    -3.412      2.423      4.047
REMARK INTER + INTRA:          -5.099
REMARK INTER:                  -4.946
REMARK INTRA:                  -0.152
REMARK UNBOUND:                -0.490
REMARK SMILES [NH3+]CCCC[C@@H]([NH3+])C(=O)[O-]
REMARK SMILES IDX 4 1 3 2 2 3 1 4 5 8 6 9 7 10 8 14 9 15 10 16
REMARK H PARENT 1 5 1 6 1 7 7 11 7 12 7 13
REMARK Flexibility Score: inf
ROOT
ATOM      1  C   UNL     1      12.752  18.190  48.389  1.00  0.00     0.012 C 
ENDROOT
BRANCH   1   2
ATOM      2  C   UNL     1      12.312  19.648  48.175  1.00  0.00     0.061 C 
BRANCH   2   3
ATOM      3  C   UNL     1      13.462  20.647  48.386  1.00  0.00     0.258 C 
BRANCH   3   4
ATOM      4  N   UNL     1      14.034  20.551  49.731  1.00  0.00    -0.358 N 
ATOM      5  H   UNL     1      15.058  20.347  49.677  1.00  0.00     0.344 HD
ATOM      6  H   UNL     1      13.549  19.806  50.281  1.00  0.00     0.344 HD
ATOM      7  H   UNL     1      13.899  21.464  50.223  1.00  0.00     0.344 HD
ENDBRANCH   3   4
ENDBRANCH   2   3
ENDBRANCH   1   2
BRANCH   1   8
ATOM      8  C   UNL     1      11.995  17.498  49.537  1.00  0.00     0.072 C 
BRANCH   8   9
ATOM      9  C   UNL     1      12.846  16.515  50.375  1.00  0.00     0.227 C 
BRANCH   9  10
ATOM     10  N   UNL     1      14.285  16.707  50.147  1.00  0.00    -0.350 N 
ATOM     11  H   UNL     1      14.720  15.838  49.759  1.00  0.00     0.345 HD
ATOM     12  H   UNL     1      14.438  17.494  49.475  1.00  0.00     0.345 HD
ATOM     13  H   UNL     1      14.759  16.964  51.042  1.00  0.00     0.345 HD
ENDBRANCH   9  10
BRANCH   9  14
ATOM     14  C   UNL     1      12.525  16.702  51.834  1.00  0.00     0.099 C 
ATOM     15  O   UNL     1      11.419  17.194  52.181  1.00  0.00    -0.544 OA
ATOM     16  O   UNL     1      13.457  16.361  52.807  1.00  0.00    -0.544 OA
ENDBRANCH   9  14
ENDBRANCH   8   9
ENDBRANCH   1   8
TORSDOF 7
ENDMDL
MODEL 9
REMARK VINA RESULT:    -3.347      2.796      3.251
REMARK INTER + INTRA:          -5.011
REMARK INTER:                  -4.817
REMARK INTRA:                  -0.194
REMARK UNBOUND:                -0.490
REMARK SMILES [NH3+]CCCC[C@@H]([NH3+])C(=O)[O-]
REMARK SMILES IDX 4 1 3 2 2 3 1 4 5 8 6 9 7 10 8 14 9 15 10 16
REMARK H PARENT 1 5 1 6 1 7 7 11 7 12 7 13
REMARK Flexibility Score: inf
ROOT
ATOM      1  C   UNL     1      12.738  15.983  49.420  1.00  0.00     0.012 C 
ENDROOT
BRANCH   1   2
ATOM      2  C   UNL     1      12.010  16.483  50.680  1.00  0.00     0.061 C 
BRANCH   2   3
ATOM      3  C   UNL     1      12.970  16.731  51.854  1.00  0.00     0.258 C 
BRANCH   3   4
ATOM      4  N   UNL     1      14.358  16.416  51.508  1.00  0.00    -0.358 N 
ATOM      5  H   UNL     1      15.015  16.898  52.163  1.00  0.00     0.344 HD
ATOM      6  H   UNL     1      14.561  16.701  50.523  1.00  0.00     0.344 HD
ATOM      7  H   UNL     1      14.501  15.383  51.589  1.00  0.00     0.344 HD
ENDBRANCH   3   4
ENDBRANCH   2   3
ENDBRANCH   1   2
BRANCH   1   8
ATOM      8  C   UNL     1      12.475  16.866  48.186  1.00  0.00     0.072 C 
BRANCH   8   9
ATOM      9  C   UNL     1      11.618  16.201  47.083  1.00  0.00     0.227 C 
BRANCH   9  10
ATOM     10  N   UNL     1      11.948  14.778  46.919  1.00  0.00    -0.350 N 
ATOM     11  H   UNL     1      12.130  14.551  45.914  1.00  0.00     0.345 HD
ATOM     12  H   UNL     1      12.798  14.541  47.482  1.00  0.00     0.345 HD
ATOM     13  H   UNL     1      11.164  14.184  47.274  1.00  0.00     0.345 HD
ENDBRANCH   9  10
BRANCH   9  14
ATOM     14  C   UNL     1      10.160  16.356  47.426  1.00  0.00     0.099 C 
ATOM     15  O   UNL     1       9.448  15.340  47.637  1.00  0.00    -0.544 OA
ATOM     16  O   UNL     1       9.584  17.619  47.483  1.00  0.00    -0.544 OA
ENDBRANCH   9  14
ENDBRANCH   8   9
ENDBRANCH   1   8
TORSDOF 7
ENDMDL
