MODEL 1
REMARK VINA RESULT:    -2.934      0.000      0.000
REMARK INTER + INTRA:          -3.293
REMARK INTER:                  -3.277
REMARK INTRA:                  -0.016
REMARK UNBOUND:                -0.016
REMARK SMILES CCCC(=O)[O-]
REMARK SMILES IDX 3 1 4 2 5 3 6 4 2 5 1 6
REMARK H PARENT
REMARK Flexibility Score: inf
ROOT
ATOM      1  C   UNL     1      -0.398   5.689   6.475  1.00  0.00     0.052 C 
ENDROOT
BRANCH   1   2
ATOM      2  C   UNL     1      -0.518   5.958   5.009  1.00  0.00     0.041 C 
ATOM      3  O   UNL     1       0.001   5.170   4.175  1.00  0.00    -0.550 OA
ATOM      4  O   UNL     1      -1.161   7.106   4.563  1.00  0.00    -0.550 OA
ENDBRANCH   1   2
BRANCH   1   5
ATOM      5  C   UNL     1       0.593   4.551   6.732  1.00  0.00     0.003 C 
ATOM      6  C   UNL     1       0.322   3.879   8.075  1.00  0.00     0.004 C 
ENDBRANCH   1   5
TORSDOF 2
ENDMDL
MODEL 2
REMARK VINA RESULT:    -2.889      0.147      1.329
REMARK INTER + INTRA:          -3.242
REMARK INTER:                  -3.230
REMARK INTRA:                  -0.012
REMARK UNBOUND:                -0.016
REMARK SMILES CCCC(=O)[O-]
REMARK SMILES IDX 3 1 4 2 5 3 6 4 2 5 1 6
REMARK H PARENT
REMARK Flexibility Score: inf
ROOT
ATOM      1  C   UNL     1      -0.472   5.809   6.496  1.00  0.00     0.052 C 
ENDROOT
BRANCH   1   2
ATOM      2  C   UNL     1      -0.580   6.059   5.025  1.00  0.00     0.041 C 
ATOM      3  O   UNL     1      -1.260   7.027   4.594  1.00  0.00    -0.550 OA
ATOM      4  O   UNL     1       0.031   5.193   4.126  1.00  0.00    -0.550 OA
ENDBRANCH   1   2
BRANCH   1   5
ATOM      5  C   UNL     1       0.452   4.619   6.770  1.00  0.00     0.003 C 
ATOM      6  C   UNL     1       0.207   4.043   8.162  1.00  0.00     0.004 C 
ENDBRANCH   1   5
TORSDOF 2
ENDMDL
MODEL 3
REMARK VINA RESULT:    -2.699      1.271      1.910
REMARK INTER + INTRA:          -3.031
REMARK INTER:                  -3.018
REMARK INTRA:                  -0.013
REMARK UNBOUND:                -0.016
REMARK SMILES CCCC(=O)[O-]
REMARK SMILES IDX 3 1 4 2 5 3 6 4 2 5 1 6
REMARK H PARENT
REMARK Flexibility Score: inf
ROOT
ATOM      1  C   UNL     1       1.244   4.099   5.565  1.00  0.00     0.052 C 
ENDROOT
BRANCH   1   2
ATOM      2  C   UNL     1       0.770   5.009   4.477  1.00  0.00     0.041 C 
ATOM      3  O   UNL     1      -0.414   5.437   4.479  1.00  0.00    -0.550 OA
ATOM      4  O   UNL     1       1.621   5.345   3.432  1.00  0.00    -0.550 OA
ENDBRANCH   1   2
BRANCH   1   5
ATOM      5  C   UNL     1       0.571   4.455   6.893  1.00  0.00     0.003 C 
ATOM      6  C   UNL     1       0.714   3.320   7.904  1.00  0.00     0.004 C 
ENDBRANCH   1   5
TORSDOF 2
ENDMDL
MODEL 4
REMARK VINA RESULT:    -2.659      7.740      8.207
REMARK INTER + INTRA:          -2.986
REMARK INTER:                  -2.980
REMARK INTRA:                  -0.005
REMARK UNBOUND:                -0.016
REMARK SMILES CCCC(=O)[O-]
REMARK SMILES IDX 3 1 4 2 5 3 6 4 2 5 1 6
REMARK H PARENT
REMARK Flexibility Score: inf
ROOT
ATOM      1  C   UNL     1      -4.465  -0.786   4.452  1.00  0.00     0.052 C 
ENDROOT
BRANCH   1   2
ATOM      2  C   UNL     1      -3.409  -1.669   3.867  1.00  0.00     0.041 C 
ATOM      3  O   UNL     1      -2.204  -1.305   3.869  1.00  0.00    -0.550 OA
ATOM      4  O   UNL     1      -3.762  -2.875   3.273  1.00  0.00    -0.550 OA
ENDBRANCH   1   2
BRANCH   1   5
ATOM      5  C   UNL     1      -4.830  -1.250   5.864  1.00  0.00     0.003 C 
ATOM      6  C   UNL     1      -5.680  -0.206   6.583  1.00  0.00     0.004 C 
ENDBRANCH   1   5
TORSDOF 2
ENDMDL
MODEL 5
REMARK VINA RESULT:    -2.515      7.071      8.074
REMARK INTER + INTRA:          -2.825
REMARK INTER:                  -2.773
REMARK INTRA:                  -0.052
REMARK UNBOUND:                -0.016
REMARK SMILES CCCC(=O)[O-]
REMARK SMILES IDX 3 1 4 2 5 3 6 4 2 5 1 6
REMARK H PARENT
REMARK Flexibility Score: inf
ROOT
ATOM      1  C   UNL     1       2.166  -2.366   5.854  1.00  0.00     0.052 C 
ENDROOT
BRANCH   1   2
ATOM      2  C   UNL     1       3.544  -2.098   5.340  1.00  0.00     0.041 C 
ATOM      3  O   UNL     1       3.821  -2.305   4.129  1.00  0.00    -0.550 OA
ATOM      4  O   UNL     1       4.539  -1.665   6.209  1.00  0.00    -0.550 OA
ENDBRANCH   1   2
BRANCH   1   5
ATOM      5  C   UNL     1       1.211  -1.244   5.439  1.00  0.00     0.003 C 
ATOM      6  C   UNL     1       1.457   0.019   6.260  1.00  0.00     0.004 C 
ENDBRANCH   1   5
TORSDOF 2
ENDMDL
MODEL 6
REMARK VINA RESULT:    -2.504      8.504      8.868
REMARK INTER + INTRA:          -2.812
REMARK INTER:                  -2.774
REMARK INTRA:                  -0.039
REMARK UNBOUND:                -0.016
REMARK SMILES CCCC(=O)[O-]
REMARK SMILES IDX 3 1 4 2 5 3 6 4 2 5 1 6
REMARK H PARENT
REMARK Flexibility Score: inf
ROOT
ATOM      1  C   UNL     1      -3.051  -1.579   4.116  1.00  0.00     0.052 C 
ENDROOT
BRANCH   1   2
ATOM      2  C   UNL     1      -3.192  -2.829   3.306  1.00  0.00     0.041 C 
ATOM      3  O   UNL     1      -2.178  -3.372   2.795  1.00  0.00    -0.550 OA
ATOM      4  O   UNL     1      -4.452  -3.368   3.072  1.00  0.00    -0.550 OA
ENDBRANCH   1   2
BRANCH   1   5
ATOM      5  C   UNL     1      -4.403  -0.874   4.252  1.00  0.00     0.003 C 
ATOM      6  C   UNL     1      -4.913  -0.936   5.689  1.00  0.00     0.004 C 
ENDBRANCH   1   5
TORSDOF 2
ENDMDL
MODEL 7
REMARK VINA RESULT:    -2.460      7.761      8.241
REMARK INTER + INTRA:          -2.763
REMARK INTER:                  -2.756
REMARK INTRA:                  -0.007
REMARK UNBOUND:                -0.016
REMARK SMILES CCCC(=O)[O-]
REMARK SMILES IDX 3 1 4 2 5 3 6 4 2 5 1 6
REMARK H PARENT
REMARK Flexibility Score: inf
ROOT
ATOM      1  C   UNL     1       1.099  -1.432   5.286  1.00  0.00     0.052 C 
ENDROOT
BRANCH   1   2
ATOM      2  C   UNL     1       2.419  -2.109   5.476  1.00  0.00     0.041 C 
ATOM      3  O   UNL     1       2.795  -2.456   6.627  1.00  0.00    -0.550 OA
ATOM      4  O   UNL     1       3.259  -2.313   4.388  1.00  0.00    -0.550 OA
ENDBRANCH   1   2
BRANCH   1   5
ATOM      5  C   UNL     1      -0.038  -2.325   5.790  1.00  0.00     0.003 C 
ATOM      6  C   UNL     1      -1.247  -2.250   4.862  1.00  0.00     0.004 C 
ENDBRANCH   1   5
TORSDOF 2
ENDMDL
MODEL 8
REMARK VINA RESULT:    -2.442     12.763     13.287
REMARK INTER + INTRA:          -2.743
REMARK INTER:                  -2.690
REMARK INTRA:                  -0.054
REMARK UNBOUND:                -0.016
REMARK SMILES CCCC(=O)[O-]
REMARK SMILES IDX 3 1 4 2 5 3 6 4 2 5 1 6
REMARK H PARENT
REMARK Flexibility Score: inf
ROOT
ATOM      1  C   UNL     1      -0.619  -4.016  -2.596  1.00  0.00     0.052 C 
ENDROOT
BRANCH   1   2
ATOM      2  C   UNL     1       0.467  -5.012  -2.856  1.00  0.00     0.041 C 
ATOM      3  O   UNL     1       0.451  -5.709  -3.905  1.00  0.00    -0.550 OA
ATOM      4  O   UNL     1       1.472  -5.206  -1.917  1.00  0.00    -0.550 OA
ENDBRANCH   1   2
BRANCH   1   5
ATOM      5  C   UNL     1      -1.153  -4.168  -1.169  1.00  0.00     0.003 C 
ATOM      6  C   UNL     1      -2.265  -5.212  -1.107  1.00  0.00     0.004 C 
ENDBRANCH   1   5
TORSDOF 2
ENDMDL
MODEL 9
REMARK VINA RESULT:    -2.434     15.959     16.401
REMARK INTER + INTRA:          -2.735
REMARK INTER:                  -2.698
REMARK INTRA:                  -0.036
REMARK UNBOUND:                -0.016
REMARK SMILES CCCC(=O)[O-]
REMARK SMILES IDX 3 1 4 2 5 3 6 4 2 5 1 6
REMARK H PARENT
REMARK Flexibility Score: inf
ROOT
ATOM      1  C   UNL     1       3.923  -8.830   0.272  1.00  0.00     0.052 C 
ENDROOT
BRANCH   1   2
ATOM      2  C   UNL     1       5.406  -8.980   0.148  1.00  0.00     0.041 C 
ATOM      3  O   UNL     1       6.098  -9.296   1.151  1.00  0.00    -0.550 OA
ATOM      4  O   UNL     1       6.032  -8.721  -1.065  1.00  0.00    -0.550 OA
ENDBRANCH   1   2
BRANCH   1   5
ATOM      5  C   UNL     1       3.387  -7.891  -0.812  1.00  0.00     0.003 C 
ATOM      6  C   UNL     1       2.357  -8.597  -1.690  1.00  0.00     0.004 C 
ENDBRANCH   1   5
TORSDOF 2
ENDMDL
