MODEL 1
REMARK VINA RESULT:    -5.125      0.000      0.000
REMARK INTER + INTRA:          -7.646
REMARK INTER:                  -7.222
REMARK INTRA:                  -0.423
REMARK UNBOUND:                -0.423
REMARK SMILES CCCCCCCCC(=O)[O-]
REMARK SMILES IDX 6 1 7 2 8 3 9 4 10 5 11 6 5 7 4 8 3 9 2 10 1 11
REMARK H PARENT
REMARK Flexibility Score: inf
ROOT
ATOM      1  C   UNL     1      10.348  36.622  23.232  1.00  0.00     0.000 C 
ENDROOT
BRANCH   1   2
ATOM      2  C   UNL     1      10.294  37.838  24.165  1.00  0.00     0.006 C 
BRANCH   2   3
ATOM      3  C   UNL     1       8.854  38.327  24.350  1.00  0.00     0.053 C 
BRANCH   3   4
ATOM      4  C   UNL     1       8.752  39.214  25.549  1.00  0.00     0.041 C 
ATOM      5  O   UNL     1       9.247  40.372  25.525  1.00  0.00    -0.550 OA
ATOM      6  O   UNL     1       8.153  38.747  26.711  1.00  0.00    -0.550 OA
ENDBRANCH   3   4
ENDBRANCH   2   3
ENDBRANCH   1   2
BRANCH   1   7
ATOM      7  C   UNL     1      11.790  36.336  22.787  1.00  0.00     0.000 C 
BRANCH   7   8
ATOM      8  C   UNL     1      12.211  34.879  23.038  1.00  0.00    -0.000 C 
BRANCH   8   9
ATOM      9  C   UNL     1      12.382  34.564  24.535  1.00  0.00    -0.000 C 
BRANCH   9  10
ATOM     10  C   UNL     1      11.329  33.568  25.050  1.00  0.00    -0.003 C 
ATOM     11  C   UNL     1      10.533  32.910  23.924  1.00  0.00     0.004 C 
ENDBRANCH   9  10
ENDBRANCH   8   9
ENDBRANCH   7   8
ENDBRANCH   1   7
TORSDOF 7
ENDMDL
MODEL 2
REMARK VINA RESULT:    -5.047      3.031      3.599
REMARK INTER + INTRA:          -7.536
REMARK INTER:                  -7.033
REMARK INTRA:                  -0.503
REMARK UNBOUND:                -0.423
REMARK SMILES CCCCCCCCC(=O)[O-]
REMARK SMILES IDX 6 1 7 2 8 3 9 4 10 5 11 6 5 7 4 8 3 9 2 10 1 11
REMARK H PARENT
REMARK Flexibility Score: inf
ROOT
ATOM      1  C   UNL     1      12.577  34.854  22.214  1.00  0.00     0.000 C 
ENDROOT
BRANCH   1   2
ATOM      2  C   UNL     1      12.040  36.187  21.680  1.00  0.00     0.006 C 
BRANCH   2   3
ATOM      3  C   UNL     1      13.135  37.258  21.668  1.00  0.00     0.053 C 
BRANCH   3   4
ATOM      4  C   UNL     1      12.903  38.257  22.756  1.00  0.00     0.041 C 
ATOM      5  O   UNL     1      13.835  39.022  23.123  1.00  0.00    -0.550 OA
ATOM      6  O   UNL     1      11.674  38.313  23.399  1.00  0.00    -0.550 OA
ENDBRANCH   3   4
ENDBRANCH   2   3
ENDBRANCH   1   2
BRANCH   1   7
ATOM      7  C   UNL     1      12.626  34.858  23.750  1.00  0.00     0.000 C 
BRANCH   7   8
ATOM      8  C   UNL     1      11.259  34.565  24.389  1.00  0.00    -0.000 C 
BRANCH   8   9
ATOM      9  C   UNL     1      11.140  33.114  24.890  1.00  0.00    -0.000 C 
BRANCH   9  10
ATOM     10  C   UNL     1      10.425  32.201  23.882  1.00  0.00    -0.003 C 
ATOM     11  C   UNL     1       9.382  32.942  23.045  1.00  0.00     0.004 C 
ENDBRANCH   9  10
ENDBRANCH   8   9
ENDBRANCH   7   8
ENDBRANCH   1   7
TORSDOF 7
ENDMDL
MODEL 3
REMARK VINA RESULT:    -5.040      3.376      4.930
REMARK INTER + INTRA:          -7.526
REMARK INTER:                  -6.894
REMARK INTRA:                  -0.632
REMARK UNBOUND:                -0.423
REMARK SMILES CCCCCCCCC(=O)[O-]
REMARK SMILES IDX 6 1 7 2 8 3 9 4 10 5 11 6 5 7 4 8 3 9 2 10 1 11
REMARK H PARENT
REMARK Flexibility Score: inf
ROOT
ATOM      1  C   UNL     1       9.873  36.266  22.968  1.00  0.00     0.000 C 
ENDROOT
BRANCH   1   2
ATOM      2  C   UNL     1       9.898  34.732  22.948  1.00  0.00     0.006 C 
BRANCH   2   3
ATOM      3  C   UNL     1      11.147  34.192  23.652  1.00  0.00     0.053 C 
BRANCH   3   4
ATOM      4  C   UNL     1      10.793  33.038  24.534  1.00  0.00     0.041 C 
ATOM      5  O   UNL     1      10.325  31.980  24.035  1.00  0.00    -0.550 OA
ATOM      6  O   UNL     1      10.935  33.146  25.911  1.00  0.00    -0.550 OA
ENDBRANCH   3   4
ENDBRANCH   2   3
ENDBRANCH   1   2
BRANCH   1   7
ATOM      7  C   UNL     1      10.986  36.821  23.869  1.00  0.00     0.000 C 
BRANCH   7   8
ATOM      8  C   UNL     1      11.762  37.974  23.212  1.00  0.00    -0.000 C 
BRANCH   8   9
ATOM      9  C   UNL     1      13.130  37.529  22.666  1.00  0.00    -0.000 C 
BRANCH   9  10
ATOM     10  C   UNL     1      13.053  37.047  21.208  1.00  0.00    -0.003 C 
ATOM     11  C   UNL     1      13.071  35.523  21.085  1.00  0.00     0.004 C 
ENDBRANCH   9  10
ENDBRANCH   8   9
ENDBRANCH   7   8
ENDBRANCH   1   7
TORSDOF 7
ENDMDL
MODEL 4
REMARK VINA RESULT:    -5.015      1.218      2.762
REMARK INTER + INTRA:          -7.491
REMARK INTER:                  -6.994
REMARK INTRA:                  -0.497
REMARK UNBOUND:                -0.423
REMARK SMILES CCCCCCCCC(=O)[O-]
REMARK SMILES IDX 6 1 7 2 8 3 9 4 10 5 11 6 5 7 4 8 3 9 2 10 1 11
REMARK H PARENT
REMARK Flexibility Score: inf
ROOT
ATOM      1  C   UNL     1       9.770  36.436  23.084  1.00  0.00     0.000 C 
ENDROOT
BRANCH   1   2
ATOM      2  C   UNL     1       9.931  37.565  24.110  1.00  0.00     0.006 C 
BRANCH   2   3
ATOM      3  C   UNL     1       8.628  38.353  24.271  1.00  0.00     0.053 C 
BRANCH   3   4
ATOM      4  C   UNL     1       8.643  39.136  25.545  1.00  0.00     0.041 C 
ATOM      5  O   UNL     1       8.203  38.625  26.608  1.00  0.00    -0.550 OA
ATOM      6  O   UNL     1       9.098  40.448  25.549  1.00  0.00    -0.550 OA
ENDBRANCH   3   4
ENDBRANCH   2   3
ENDBRANCH   1   2
BRANCH   1   7
ATOM      7  C   UNL     1      10.664  35.239  23.439  1.00  0.00     0.000 C 
BRANCH   7   8
ATOM      8  C   UNL     1      12.161  35.590  23.426  1.00  0.00    -0.000 C 
BRANCH   8   9
ATOM      9  C   UNL     1      12.774  35.507  22.016  1.00  0.00    -0.000 C 
BRANCH   9  10
ATOM     10  C   UNL     1      13.160  36.887  21.461  1.00  0.00    -0.003 C 
ATOM     11  C   UNL     1      13.180  37.975  22.535  1.00  0.00     0.004 C 
ENDBRANCH   9  10
ENDBRANCH   8   9
ENDBRANCH   7   8
ENDBRANCH   1   7
TORSDOF 7
ENDMDL
MODEL 5
REMARK VINA RESULT:    -4.999      3.754      4.522
REMARK INTER + INTRA:          -7.468
REMARK INTER:                  -6.850
REMARK INTRA:                  -0.619
REMARK UNBOUND:                -0.423
REMARK SMILES CCCCCCCCC(=O)[O-]
REMARK SMILES IDX 6 1 7 2 8 3 9 4 10 5 11 6 5 7 4 8 3 9 2 10 1 11
REMARK H PARENT
REMARK Flexibility Score: inf
ROOT
ATOM      1  C   UNL     1      11.339  37.314  23.110  1.00  0.00     0.000 C 
ENDROOT
BRANCH   1   2
ATOM      2  C   UNL     1      12.847  37.251  22.839  1.00  0.00     0.006 C 
BRANCH   2   3
ATOM      3  C   UNL     1      13.132  37.128  21.339  1.00  0.00     0.053 C 
BRANCH   3   4
ATOM      4  C   UNL     1      12.448  35.925  20.772  1.00  0.00     0.041 C 
ATOM      5  O   UNL     1      12.793  34.770  21.137  1.00  0.00    -0.550 OA
ATOM      6  O   UNL     1      11.463  36.076  19.805  1.00  0.00    -0.550 OA
ENDBRANCH   3   4
ENDBRANCH   2   3
ENDBRANCH   1   2
BRANCH   1   7
ATOM      7  C   UNL     1      10.916  36.230  24.113  1.00  0.00     0.000 C 
BRANCH   7   8
ATOM      8  C   UNL     1      12.076  35.301  24.508  1.00  0.00    -0.000 C 
BRANCH   8   9
ATOM      9  C   UNL     1      11.644  33.828  24.611  1.00  0.00    -0.000 C 
BRANCH   9  10
ATOM     10  C   UNL     1      10.496  33.483  23.647  1.00  0.00    -0.003 C 
ATOM     11  C   UNL     1      10.155  31.993  23.640  1.00  0.00     0.004 C 
ENDBRANCH   9  10
ENDBRANCH   8   9
ENDBRANCH   7   8
ENDBRANCH   1   7
TORSDOF 7
ENDMDL
MODEL 6
REMARK VINA RESULT:    -4.997      3.142      4.686
REMARK INTER + INTRA:          -7.465
REMARK INTER:                  -6.812
REMARK INTRA:                  -0.653
REMARK UNBOUND:                -0.423
REMARK SMILES CCCCCCCCC(=O)[O-]
REMARK SMILES IDX 6 1 7 2 8 3 9 4 10 5 11 6 5 7 4 8 3 9 2 10 1 11
REMARK H PARENT
REMARK Flexibility Score: inf
ROOT
ATOM      1  C   UNL     1      10.067  34.772  23.252  1.00  0.00     0.000 C 
ENDROOT
BRANCH   1   2
ATOM      2  C   UNL     1      10.986  33.564  23.469  1.00  0.00     0.006 C 
BRANCH   2   3
ATOM      3  C   UNL     1      11.168  33.271  24.962  1.00  0.00     0.053 C 
BRANCH   3   4
ATOM      4  C   UNL     1      11.780  34.446  25.655  1.00  0.00     0.041 C 
ATOM      5  O   UNL     1      11.145  35.048  26.562  1.00  0.00    -0.550 OA
ATOM      6  O   UNL     1      13.031  34.909  25.269  1.00  0.00    -0.550 OA
ENDBRANCH   3   4
ENDBRANCH   2   3
ENDBRANCH   1   2
BRANCH   1   7
ATOM      7  C   UNL     1      10.677  35.751  22.238  1.00  0.00     0.000 C 
BRANCH   7   8
ATOM      8  C   UNL     1      12.118  35.382  21.849  1.00  0.00    -0.000 C 
BRANCH   8   9
ATOM      9  C   UNL     1      13.090  36.567  21.988  1.00  0.00    -0.000 C 
BRANCH   9  10
ATOM     10  C   UNL     1      12.572  37.641  22.959  1.00  0.00    -0.003 C 
ATOM     11  C   UNL     1      13.501  38.851  23.055  1.00  0.00     0.004 C 
ENDBRANCH   9  10
ENDBRANCH   8   9
ENDBRANCH   7   8
ENDBRANCH   1   7
TORSDOF 7
ENDMDL
MODEL 7
REMARK VINA RESULT:    -4.976      3.072      3.980
REMARK INTER + INTRA:          -7.435
REMARK INTER:                  -6.781
REMARK INTRA:                  -0.654
REMARK UNBOUND:                -0.423
REMARK SMILES CCCCCCCCC(=O)[O-]
REMARK SMILES IDX 6 1 7 2 8 3 9 4 10 5 11 6 5 7 4 8 3 9 2 10 1 11
REMARK H PARENT
REMARK Flexibility Score: inf
ROOT
ATOM      1  C   UNL     1       9.922  36.290  23.228  1.00  0.00     0.000 C 
ENDROOT
BRANCH   1   2
ATOM      2  C   UNL     1      11.159  37.185  23.373  1.00  0.00     0.006 C 
BRANCH   2   3
ATOM      3  C   UNL     1      12.359  36.589  22.631  1.00  0.00     0.053 C 
BRANCH   3   4
ATOM      4  C   UNL     1      13.144  37.667  21.954  1.00  0.00     0.041 C 
ATOM      5  O   UNL     1      13.414  37.578  20.727  1.00  0.00    -0.550 OA
ATOM      6  O   UNL     1      13.620  38.746  22.687  1.00  0.00    -0.550 OA
ENDBRANCH   3   4
ENDBRANCH   2   3
ENDBRANCH   1   2
BRANCH   1   7
ATOM      7  C   UNL     1      10.281  34.963  22.544  1.00  0.00     0.000 C 
BRANCH   7   8
ATOM      8  C   UNL     1       9.774  33.737  23.322  1.00  0.00    -0.000 C 
BRANCH   8   9
ATOM      9  C   UNL     1      10.912  32.962  24.009  1.00  0.00    -0.000 C 
BRANCH   9  10
ATOM     10  C   UNL     1      11.265  33.536  25.391  1.00  0.00    -0.003 C 
ATOM     11  C   UNL     1      12.555  34.356  25.381  1.00  0.00     0.004 C 
ENDBRANCH   9  10
ENDBRANCH   8   9
ENDBRANCH   7   8
ENDBRANCH   1   7
TORSDOF 7
ENDMDL
MODEL 8
REMARK VINA RESULT:    -4.834      1.863      2.852
REMARK INTER + INTRA:          -7.235
REMARK INTER:                  -6.838
REMARK INTRA:                  -0.398
REMARK UNBOUND:                -0.423
REMARK SMILES CCCCCCCCC(=O)[O-]
REMARK SMILES IDX 6 1 7 2 8 3 9 4 10 5 11 6 5 7 4 8 3 9 2 10 1 11
REMARK H PARENT
REMARK Flexibility Score: inf
ROOT
ATOM      1  C   UNL     1      12.711  35.037  22.681  1.00  0.00     0.000 C 
ENDROOT
BRANCH   1   2
ATOM      2  C   UNL     1      12.007  36.218  22.002  1.00  0.00     0.006 C 
BRANCH   2   3
ATOM      3  C   UNL     1      11.606  37.284  23.026  1.00  0.00     0.053 C 
BRANCH   3   4
ATOM      4  C   UNL     1      10.176  37.114  23.427  1.00  0.00     0.041 C 
ATOM      5  O   UNL     1       9.750  37.635  24.492  1.00  0.00    -0.550 OA
ATOM      6  O   UNL     1       9.323  36.341  22.650  1.00  0.00    -0.550 OA
ENDBRANCH   3   4
ENDBRANCH   2   3
ENDBRANCH   1   2
BRANCH   1   7
ATOM      7  C   UNL     1      12.673  35.181  24.210  1.00  0.00     0.000 C 
BRANCH   7   8
ATOM      8  C   UNL     1      12.518  33.831  24.929  1.00  0.00    -0.000 C 
BRANCH   8   9
ATOM      9  C   UNL     1      11.045  33.413  25.090  1.00  0.00    -0.000 C 
BRANCH   9  10
ATOM     10  C   UNL     1      10.604  32.392  24.029  1.00  0.00    -0.003 C 
ATOM     11  C   UNL     1       9.454  32.899  23.159  1.00  0.00     0.004 C 
ENDBRANCH   9  10
ENDBRANCH   8   9
ENDBRANCH   7   8
ENDBRANCH   1   7
TORSDOF 7
ENDMDL
MODEL 9
REMARK VINA RESULT:    -4.748      2.704      4.299
REMARK INTER + INTRA:          -7.114
REMARK INTER:                  -6.970
REMARK INTRA:                  -0.143
REMARK UNBOUND:                -0.423
REMARK SMILES CCCCCCCCC(=O)[O-]
REMARK SMILES IDX 6 1 7 2 8 3 9 4 10 5 11 6 5 7 4 8 3 9 2 10 1 11
REMARK H PARENT
REMARK Flexibility Score: inf
ROOT
ATOM      1  C   UNL     1      12.445  34.575  23.615  1.00  0.00     0.000 C 
ENDROOT
BRANCH   1   2
ATOM      2  C   UNL     1      11.020  34.632  24.181  1.00  0.00     0.006 C 
BRANCH   2   3
ATOM      3  C   UNL     1       9.979  34.494  23.066  1.00  0.00     0.053 C 
BRANCH   3   4
ATOM      4  C   UNL     1       9.411  35.831  22.711  1.00  0.00     0.041 C 
ATOM      5  O   UNL     1       9.533  36.802  23.503  1.00  0.00    -0.550 OA
ATOM      6  O   UNL     1       8.705  35.993  21.526  1.00  0.00    -0.550 OA
ENDBRANCH   3   4
ENDBRANCH   2   3
ENDBRANCH   1   2
BRANCH   1   7
ATOM      7  C   UNL     1      12.431  34.668  22.082  1.00  0.00     0.000 C 
BRANCH   7   8
ATOM      8  C   UNL     1      13.510  35.617  21.535  1.00  0.00    -0.000 C 
BRANCH   8   9
ATOM      9  C   UNL     1      13.007  37.065  21.398  1.00  0.00    -0.000 C 
BRANCH   9  10
ATOM     10  C   UNL     1      12.668  37.701  22.757  1.00  0.00    -0.003 C 
ATOM     11  C   UNL     1      13.553  38.902  23.088  1.00  0.00     0.004 C 
ENDBRANCH   9  10
ENDBRANCH   8   9
ENDBRANCH   7   8
ENDBRANCH   1   7
TORSDOF 7
ENDMDL
