MODEL 1
REMARK VINA RESULT:    -5.192      0.000      0.000
REMARK INTER + INTRA:          -9.932
REMARK INTER:                  -7.924
REMARK INTRA:                  -2.007
REMARK UNBOUND:                -2.007
REMARK SMILES CC(=O)CCC=C(C)CCC=C(C)CCC=C(C)C
REMARK SMILES IDX 10 1 11 2 12 3 13 4 14 5 15 6 16 7 18 8 17 9 19 10 9 11 7 12
REMARK SMILES IDX 6 13 8 14 5 15 4 16 2 17 3 18 1 19
REMARK H PARENT
REMARK Flexibility Score: inf
ROOT
ATOM      1  C   UNL     1     -42.528  18.544  13.042  1.00  0.00     0.032 C 
ENDROOT
BRANCH   1   2
ATOM      2  C   UNL     1     -42.084  17.838  14.299  1.00  0.00    -0.028 C 
ATOM      3  C   UNL     1     -42.095  18.393  15.532  1.00  0.00    -0.077 C 
ATOM      4  C   UNL     1     -42.619  19.789  15.775  1.00  0.00     0.039 C 
BRANCH   3   5
ATOM      5  C   UNL     1     -41.585  17.585  16.705  1.00  0.00     0.034 C 
BRANCH   5   6
ATOM      6  C   UNL     1     -41.153  16.185  16.256  1.00  0.00     0.032 C 
BRANCH   6   7
ATOM      7  C   UNL     1     -39.650  16.059  16.267  1.00  0.00    -0.028 C 
ATOM      8  C   UNL     1     -37.444  15.243  15.557  1.00  0.00     0.039 C 
ATOM      9  C   UNL     1     -38.941  15.304  15.398  1.00  0.00    -0.080 C 
ATOM     10  C   UNL     1     -39.603  14.543  14.274  1.00  0.00     0.039 C 
ENDBRANCH   6   7
ENDBRANCH   5   6
ENDBRANCH   3   5
ENDBRANCH   1   2
BRANCH   1  11
ATOM     11  C   UNL     1     -41.327  19.147  12.304  1.00  0.00     0.034 C 
BRANCH  11  12
ATOM     12  C   UNL     1     -40.227  18.121  12.137  1.00  0.00    -0.077 C 
ATOM     13  C   UNL     1     -39.020  18.350  12.697  1.00  0.00    -0.028 C 
ATOM     14  C   UNL     1     -40.504  16.865  11.345  1.00  0.00     0.039 C 
BRANCH  13  15
ATOM     15  C   UNL     1     -37.864  17.386  12.585  1.00  0.00     0.035 C 
BRANCH  15  16
ATOM     16  C   UNL     1     -36.880  17.823  11.496  1.00  0.00     0.079 C 
BRANCH  16  17
ATOM     17  C   UNL     1     -36.530  16.669  10.597  1.00  0.00     0.130 C 
ATOM     18  O   UNL     1     -35.563  15.968  10.856  1.00  0.00    -0.300 OA
ATOM     19  C   UNL     1     -37.345  16.387   9.370  1.00  0.00     0.087 C 
ENDBRANCH  16  17
ENDBRANCH  15  16
ENDBRANCH  13  15
ENDBRANCH  11  12
ENDBRANCH   1  11
TORSDOF 9
ENDMDL
MODEL 2
REMARK VINA RESULT:    -4.969      1.564      3.701
REMARK INTER + INTRA:          -9.591
REMARK INTER:                  -8.352
REMARK INTRA:                  -1.239
REMARK UNBOUND:                -2.007
REMARK SMILES CC(=O)CCC=C(C)CCC=C(C)CCC=C(C)C
REMARK SMILES IDX 10 1 11 2 12 3 13 4 14 5 15 6 16 7 18 8 17 9 19 10 9 11 7 12
REMARK SMILES IDX 6 13 8 14 5 15 4 16 2 17 3 18 1 19
REMARK H PARENT
REMARK Flexibility Score: inf
ROOT
ATOM      1  C   UNL     1     -39.954  16.341  13.082  1.00  0.00     0.032 C 
ENDROOT
BRANCH   1   2
ATOM      2  C   UNL     1     -40.309  16.594  14.526  1.00  0.00    -0.028 C 
ATOM      3  C   UNL     1     -40.123  15.703  15.526  1.00  0.00    -0.077 C 
ATOM      4  C   UNL     1     -39.473  14.360  15.289  1.00  0.00     0.039 C 
BRANCH   3   5
ATOM      5  C   UNL     1     -40.560  16.072  16.927  1.00  0.00     0.034 C 
BRANCH   5   6
ATOM      6  C   UNL     1     -40.901  17.563  17.018  1.00  0.00     0.032 C 
BRANCH   6   7
ATOM      7  C   UNL     1     -42.134  17.780  17.859  1.00  0.00    -0.028 C 
ATOM      8  C   UNL     1     -44.514  18.179  18.322  1.00  0.00     0.039 C 
ATOM      9  C   UNL     1     -43.382  17.927  17.360  1.00  0.00    -0.080 C 
ATOM     10  C   UNL     1     -43.669  17.828  15.880  1.00  0.00     0.039 C 
ENDBRANCH   6   7
ENDBRANCH   5   6
ENDBRANCH   3   5
ENDBRANCH   1   2
BRANCH   1  11
ATOM     11  C   UNL     1     -40.801  17.217  12.152  1.00  0.00     0.034 C 
BRANCH  11  12
ATOM     12  C   UNL     1     -40.048  17.533  10.878  1.00  0.00    -0.077 C 
ATOM     13  C   UNL     1     -39.333  16.560  10.274  1.00  0.00    -0.028 C 
ATOM     14  C   UNL     1     -40.110  18.932  10.311  1.00  0.00     0.039 C 
BRANCH  13  15
ATOM     15  C   UNL     1     -38.552  16.780   9.001  1.00  0.00     0.035 C 
BRANCH  15  16
ATOM     16  C   UNL     1     -37.128  16.229   9.122  1.00  0.00     0.079 C 
BRANCH  16  17
ATOM     17  C   UNL     1     -36.433  16.801  10.327  1.00  0.00     0.130 C 
ATOM     18  O   UNL     1     -36.041  16.056  11.213  1.00  0.00    -0.300 OA
ATOM     19  C   UNL     1     -36.239  18.282  10.460  1.00  0.00     0.087 C 
ENDBRANCH  16  17
ENDBRANCH  15  16
ENDBRANCH  13  15
ENDBRANCH  11  12
ENDBRANCH   1  11
TORSDOF 9
ENDMDL
MODEL 3
REMARK VINA RESULT:    -4.960      2.467      4.146
REMARK INTER + INTRA:          -9.577
REMARK INTER:                  -8.265
REMARK INTRA:                  -1.311
REMARK UNBOUND:                -2.007
REMARK SMILES CC(=O)CCC=C(C)CCC=C(C)CCC=C(C)C
REMARK SMILES IDX 10 1 11 2 12 3 13 4 14 5 15 6 16 7 18 8 17 9 19 10 9 11 7 12
REMARK SMILES IDX 6 13 8 14 5 15 4 16 2 17 3 18 1 19
REMARK H PARENT
REMARK Flexibility Score: inf
ROOT
ATOM      1  C   UNL     1     -38.992  15.731  10.868  1.00  0.00     0.032 C 
ENDROOT
BRANCH   1   2
ATOM      2  C   UNL     1     -39.896  16.098  12.018  1.00  0.00    -0.028 C 
ATOM      3  C   UNL     1     -39.480  16.702  13.154  1.00  0.00    -0.077 C 
ATOM      4  C   UNL     1     -38.043  17.125  13.354  1.00  0.00     0.039 C 
BRANCH   3   5
ATOM      5  C   UNL     1     -40.487  16.981  14.248  1.00  0.00     0.034 C 
BRANCH   5   6
ATOM      6  C   UNL     1     -39.996  16.436  15.594  1.00  0.00     0.032 C 
BRANCH   6   7
ATOM      7  C   UNL     1     -40.590  15.078  15.871  1.00  0.00    -0.028 C 
ATOM      8  C   UNL     1     -40.653  12.627  16.033  1.00  0.00     0.039 C 
ATOM      9  C   UNL     1     -39.914  13.912  15.763  1.00  0.00    -0.080 C 
ATOM     10  C   UNL     1     -38.448  13.868  15.400  1.00  0.00     0.039 C 
ENDBRANCH   6   7
ENDBRANCH   5   6
ENDBRANCH   3   5
ENDBRANCH   1   2
BRANCH   1  11
ATOM     11  C   UNL     1     -39.134  16.739   9.721  1.00  0.00     0.034 C 
BRANCH  11  12
ATOM     12  C   UNL     1     -37.794  17.008   9.073  1.00  0.00    -0.077 C 
ATOM     13  C   UNL     1     -37.439  16.309   7.973  1.00  0.00    -0.028 C 
ATOM     14  C   UNL     1     -36.880  18.051   9.672  1.00  0.00     0.039 C 
BRANCH  13  15
ATOM     15  C   UNL     1     -36.124  16.509   7.258  1.00  0.00     0.035 C 
BRANCH  15  16
ATOM     16  C   UNL     1     -35.217  15.285   7.412  1.00  0.00     0.079 C 
BRANCH  16  17
ATOM     17  C   UNL     1     -33.800  15.618   7.032  1.00  0.00     0.130 C 
ATOM     18  O   UNL     1     -32.875  15.204   7.715  1.00  0.00    -0.300 OA
ATOM     19  C   UNL     1     -33.515  16.473   5.834  1.00  0.00     0.087 C 
ENDBRANCH  16  17
ENDBRANCH  15  16
ENDBRANCH  13  15
ENDBRANCH  11  12
ENDBRANCH   1  11
TORSDOF 9
ENDMDL
MODEL 4
REMARK VINA RESULT:    -4.889      1.849      3.802
REMARK INTER + INTRA:          -9.468
REMARK INTER:                  -8.180
REMARK INTRA:                  -1.288
REMARK UNBOUND:                -2.007
REMARK SMILES CC(=O)CCC=C(C)CCC=C(C)CCC=C(C)C
REMARK SMILES IDX 10 1 11 2 12 3 13 4 14 5 15 6 16 7 18 8 17 9 19 10 9 11 7 12
REMARK SMILES IDX 6 13 8 14 5 15 4 16 2 17 3 18 1 19
REMARK H PARENT
REMARK Flexibility Score: inf
ROOT
ATOM      1  C   UNL     1     -40.324  17.876  12.844  1.00  0.00     0.032 C 
ENDROOT
BRANCH   1   2
ATOM      2  C   UNL     1     -40.805  17.335  14.167  1.00  0.00    -0.028 C 
ATOM      3  C   UNL     1     -40.052  16.586  15.005  1.00  0.00    -0.077 C 
ATOM      4  C   UNL     1     -38.606  16.264  14.709  1.00  0.00     0.039 C 
BRANCH   3   5
ATOM      5  C   UNL     1     -40.672  16.074  16.288  1.00  0.00     0.034 C 
BRANCH   5   6
ATOM      6  C   UNL     1     -40.783  17.195  17.326  1.00  0.00     0.032 C 
BRANCH   6   7
ATOM      7  C   UNL     1     -42.197  17.313  17.837  1.00  0.00    -0.028 C 
ATOM      8  C   UNL     1     -44.439  18.287  18.084  1.00  0.00     0.039 C 
ATOM      9  C   UNL     1     -43.070  18.272  17.455  1.00  0.00    -0.080 C 
ATOM     10  C   UNL     1     -42.716  19.306  16.413  1.00  0.00     0.039 C 
ENDBRANCH   6   7
ENDBRANCH   5   6
ENDBRANCH   3   5
ENDBRANCH   1   2
BRANCH   1  11
ATOM     11  C   UNL     1     -40.942  17.093  11.680  1.00  0.00     0.034 C 
BRANCH  11  12
ATOM     12  C   UNL     1     -39.951  16.098  11.116  1.00  0.00    -0.077 C 
ATOM     13  C   UNL     1     -38.982  16.530  10.280  1.00  0.00    -0.028 C 
ATOM     14  C   UNL     1     -40.070  14.641  11.497  1.00  0.00     0.039 C 
BRANCH  13  15
ATOM     15  C   UNL     1     -37.950  15.613   9.670  1.00  0.00     0.035 C 
BRANCH  15  16
ATOM     16  C   UNL     1     -37.241  16.284   8.489  1.00  0.00     0.079 C 
BRANCH  16  17
ATOM     17  C   UNL     1     -36.404  15.289   7.733  1.00  0.00     0.130 C 
ATOM     18  O   UNL     1     -36.634  14.093   7.843  1.00  0.00    -0.300 OA
ATOM     19  C   UNL     1     -35.274  15.751   6.864  1.00  0.00     0.087 C 
ENDBRANCH  16  17
ENDBRANCH  15  16
ENDBRANCH  13  15
ENDBRANCH  11  12
ENDBRANCH   1  11
TORSDOF 9
ENDMDL
MODEL 5
REMARK VINA RESULT:    -4.854      1.424      2.933
REMARK INTER + INTRA:          -9.415
REMARK INTER:                  -7.531
REMARK INTRA:                  -1.884
REMARK UNBOUND:                -2.007
REMARK SMILES CC(=O)CCC=C(C)CCC=C(C)CCC=C(C)C
REMARK SMILES IDX 10 1 11 2 12 3 13 4 14 5 15 6 16 7 18 8 17 9 19 10 9 11 7 12
REMARK SMILES IDX 6 13 8 14 5 15 4 16 2 17 3 18 1 19
REMARK H PARENT
REMARK Flexibility Score: inf
ROOT
ATOM      1  C   UNL     1     -41.610  18.071  12.418  1.00  0.00     0.032 C 
ENDROOT
BRANCH   1   2
ATOM      2  C   UNL     1     -40.961  17.581  13.688  1.00  0.00    -0.028 C 
ATOM      3  C   UNL     1     -40.087  16.550  13.750  1.00  0.00    -0.077 C 
ATOM      4  C   UNL     1     -39.629  15.814  12.513  1.00  0.00     0.039 C 
BRANCH   3   5
ATOM      5  C   UNL     1     -39.538  16.135  15.098  1.00  0.00     0.034 C 
BRANCH   5   6
ATOM      6  C   UNL     1     -40.671  15.914  16.105  1.00  0.00     0.032 C 
BRANCH   6   7
ATOM      7  C   UNL     1     -40.549  16.868  17.267  1.00  0.00    -0.028 C 
ATOM      8  C   UNL     1     -41.208  18.692  18.775  1.00  0.00     0.039 C 
ATOM      9  C   UNL     1     -41.488  17.777  17.612  1.00  0.00    -0.080 C 
ATOM     10  C   UNL     1     -42.805  17.884  16.878  1.00  0.00     0.039 C 
ENDBRANCH   6   7
ENDBRANCH   5   6
ENDBRANCH   3   5
ENDBRANCH   1   2
BRANCH   1  11
ATOM     11  C   UNL     1     -40.989  19.398  11.967  1.00  0.00     0.034 C 
BRANCH  11  12
ATOM     12  C   UNL     1     -39.685  19.160  11.237  1.00  0.00    -0.077 C 
ATOM     13  C   UNL     1     -38.528  19.570  11.800  1.00  0.00    -0.028 C 
ATOM     14  C   UNL     1     -39.706  18.474   9.892  1.00  0.00     0.039 C 
BRANCH  13  15
ATOM     15  C   UNL     1     -37.180  19.376  11.149  1.00  0.00     0.035 C 
BRANCH  15  16
ATOM     16  C   UNL     1     -36.397  18.243  11.821  1.00  0.00     0.079 C 
BRANCH  16  17
ATOM     17  C   UNL     1     -36.206  17.090  10.873  1.00  0.00     0.130 C 
ATOM     18  O   UNL     1     -36.094  15.955  11.313  1.00  0.00    -0.300 OA
ATOM     19  C   UNL     1     -36.129  17.326   9.395  1.00  0.00     0.087 C 
ENDBRANCH  16  17
ENDBRANCH  15  16
ENDBRANCH  13  15
ENDBRANCH  11  12
ENDBRANCH   1  11
TORSDOF 9
ENDMDL
MODEL 6
REMARK VINA RESULT:    -4.831      1.275      3.505
REMARK INTER + INTRA:          -9.380
REMARK INTER:                  -7.555
REMARK INTRA:                  -1.825
REMARK UNBOUND:                -2.007
REMARK SMILES CC(=O)CCC=C(C)CCC=C(C)CCC=C(C)C
REMARK SMILES IDX 10 1 11 2 12 3 13 4 14 5 15 6 16 7 18 8 17 9 19 10 9 11 7 12
REMARK SMILES IDX 6 13 8 14 5 15 4 16 2 17 3 18 1 19
REMARK H PARENT
REMARK Flexibility Score: inf
ROOT
ATOM      1  C   UNL     1     -39.812  15.275  12.067  1.00  0.00     0.032 C 
ENDROOT
BRANCH   1   2
ATOM      2  C   UNL     1     -39.877  15.354  13.572  1.00  0.00    -0.028 C 
ATOM      3  C   UNL     1     -39.037  16.090  14.335  1.00  0.00    -0.077 C 
ATOM      4  C   UNL     1     -37.966  16.966  13.728  1.00  0.00     0.039 C 
BRANCH   3   5
ATOM      5  C   UNL     1     -39.189  16.049  15.840  1.00  0.00     0.034 C 
BRANCH   5   6
ATOM      6  C   UNL     1     -40.657  15.859  16.236  1.00  0.00     0.032 C 
BRANCH   6   7
ATOM      7  C   UNL     1     -41.218  17.123  16.838  1.00  0.00    -0.028 C 
ATOM      8  C   UNL     1     -42.423  19.264  16.887  1.00  0.00     0.039 C 
ATOM      9  C   UNL     1     -41.966  18.024  16.163  1.00  0.00    -0.080 C 
ATOM     10  C   UNL     1     -42.364  17.813  14.721  1.00  0.00     0.039 C 
ENDBRANCH   6   7
ENDBRANCH   5   6
ENDBRANCH   3   5
ENDBRANCH   1   2
BRANCH   1  11
ATOM     11  C   UNL     1     -40.571  16.444  11.428  1.00  0.00     0.034 C 
BRANCH  11  12
ATOM     12  C   UNL     1     -39.678  17.208  10.475  1.00  0.00    -0.077 C 
ATOM     13  C   UNL     1     -38.825  16.527   9.679  1.00  0.00    -0.028 C 
ATOM     14  C   UNL     1     -39.757  18.716  10.437  1.00  0.00     0.039 C 
BRANCH  13  15
ATOM     15  C   UNL     1     -37.897  17.201   8.698  1.00  0.00     0.035 C 
BRANCH  15  16
ATOM     16  C   UNL     1     -36.441  16.788   8.936  1.00  0.00     0.079 C 
BRANCH  16  17
ATOM     17  C   UNL     1     -36.056  16.995  10.376  1.00  0.00     0.130 C 
ATOM     18  O   UNL     1     -35.760  16.032  11.069  1.00  0.00    -0.300 OA
ATOM     19  C   UNL     1     -36.055  18.370  10.973  1.00  0.00     0.087 C 
ENDBRANCH  16  17
ENDBRANCH  15  16
ENDBRANCH  13  15
ENDBRANCH  11  12
ENDBRANCH   1  11
TORSDOF 9
ENDMDL
MODEL 7
REMARK VINA RESULT:    -4.782      2.526      6.937
REMARK INTER + INTRA:          -9.305
REMARK INTER:                  -7.803
REMARK INTRA:                  -1.502
REMARK UNBOUND:                -2.007
REMARK SMILES CC(=O)CCC=C(C)CCC=C(C)CCC=C(C)C
REMARK SMILES IDX 10 1 11 2 12 3 13 4 14 5 15 6 16 7 18 8 17 9 19 10 9 11 7 12
REMARK SMILES IDX 6 13 8 14 5 15 4 16 2 17 3 18 1 19
REMARK H PARENT
REMARK Flexibility Score: inf
ROOT
ATOM      1  C   UNL     1     -39.043  15.935  10.584  1.00  0.00     0.032 C 
ENDROOT
BRANCH   1   2
ATOM      2  C   UNL     1     -38.369  16.944   9.687  1.00  0.00    -0.028 C 
ATOM      3  C   UNL     1     -37.200  17.560   9.973  1.00  0.00    -0.077 C 
ATOM      4  C   UNL     1     -36.415  17.243  11.225  1.00  0.00     0.039 C 
BRANCH   3   5
ATOM      5  C   UNL     1     -36.652  18.583   9.001  1.00  0.00     0.034 C 
BRANCH   5   6
ATOM      6  C   UNL     1     -36.582  18.005   7.584  1.00  0.00     0.032 C 
BRANCH   6   7
ATOM      7  C   UNL     1     -35.269  17.299   7.358  1.00  0.00    -0.028 C 
ATOM      8  C   UNL     1     -33.743  15.391   7.094  1.00  0.00     0.039 C 
ATOM      9  C   UNL     1     -35.127  15.956   7.283  1.00  0.00    -0.080 C 
ATOM     10  C   UNL     1     -36.310  15.020   7.366  1.00  0.00     0.039 C 
ENDBRANCH   6   7
ENDBRANCH   5   6
ENDBRANCH   3   5
ENDBRANCH   1   2
BRANCH   1  11
ATOM     11  C   UNL     1     -40.334  16.511  11.177  1.00  0.00     0.034 C 
BRANCH  11  12
ATOM     12  C   UNL     1     -40.183  16.749  12.664  1.00  0.00    -0.077 C 
ATOM     13  C   UNL     1     -39.501  15.853  13.411  1.00  0.00    -0.028 C 
ATOM     14  C   UNL     1     -40.801  17.981  13.282  1.00  0.00     0.039 C 
BRANCH  13  15
ATOM     15  C   UNL     1     -39.297  16.005  14.899  1.00  0.00     0.035 C 
BRANCH  15  16
ATOM     16  C   UNL     1     -40.264  15.114  15.685  1.00  0.00     0.079 C 
BRANCH  16  17
ATOM     17  C   UNL     1     -39.739  13.708  15.777  1.00  0.00     0.130 C 
ATOM     18  O   UNL     1     -38.554  13.487  15.576  1.00  0.00    -0.300 OA
ATOM     19  C   UNL     1     -40.665  12.570  16.090  1.00  0.00     0.087 C 
ENDBRANCH  16  17
ENDBRANCH  15  16
ENDBRANCH  13  15
ENDBRANCH  11  12
ENDBRANCH   1  11
TORSDOF 9
ENDMDL
MODEL 8
REMARK VINA RESULT:    -4.755      1.309      1.585
REMARK INTER + INTRA:          -9.265
REMARK INTER:                  -8.120
REMARK INTRA:                  -1.144
REMARK UNBOUND:                -2.007
REMARK SMILES CC(=O)CCC=C(C)CCC=C(C)CCC=C(C)C
REMARK SMILES IDX 10 1 11 2 12 3 13 4 14 5 15 6 16 7 18 8 17 9 19 10 9 11 7 12
REMARK SMILES IDX 6 13 8 14 5 15 4 16 2 17 3 18 1 19
REMARK H PARENT
REMARK Flexibility Score: inf
ROOT
ATOM      1  C   UNL     1     -42.289  18.439  13.005  1.00  0.00     0.032 C 
ENDROOT
BRANCH   1   2
ATOM      2  C   UNL     1     -41.533  17.826  14.156  1.00  0.00    -0.028 C 
ATOM      3  C   UNL     1     -41.980  17.792  15.432  1.00  0.00    -0.077 C 
ATOM      4  C   UNL     1     -43.338  18.329  15.818  1.00  0.00     0.039 C 
BRANCH   3   5
ATOM      5  C   UNL     1     -41.101  17.179  16.502  1.00  0.00     0.034 C 
BRANCH   5   6
ATOM      6  C   UNL     1     -40.125  16.167  15.891  1.00  0.00     0.032 C 
BRANCH   6   7
ATOM      7  C   UNL     1     -40.628  14.758  16.077  1.00  0.00    -0.028 C 
ATOM      8  C   UNL     1     -40.535  12.302  16.060  1.00  0.00     0.039 C 
ATOM      9  C   UNL     1     -39.883  13.648  15.874  1.00  0.00    -0.080 C 
ATOM     10  C   UNL     1     -38.425  13.723  15.487  1.00  0.00     0.039 C 
ENDBRANCH   6   7
ENDBRANCH   5   6
ENDBRANCH   3   5
ENDBRANCH   1   2
BRANCH   1  11
ATOM     11  C   UNL     1     -41.546  19.661  12.454  1.00  0.00     0.034 C 
BRANCH  11  12
ATOM     12  C   UNL     1     -40.388  19.237  11.577  1.00  0.00    -0.077 C 
ATOM     13  C   UNL     1     -39.125  19.405  12.022  1.00  0.00    -0.028 C 
ATOM     14  C   UNL     1     -40.672  18.637  10.220  1.00  0.00     0.039 C 
BRANCH  13  15
ATOM     15  C   UNL     1     -37.908  19.012  11.220  1.00  0.00     0.035 C 
BRANCH  15  16
ATOM     16  C   UNL     1     -37.118  17.901  11.919  1.00  0.00     0.079 C 
BRANCH  16  17
ATOM     17  C   UNL     1     -36.570  16.923  10.916  1.00  0.00     0.130 C 
ATOM     18  O   UNL     1     -35.944  15.946  11.301  1.00  0.00    -0.300 OA
ATOM     19  C   UNL     1     -36.767  17.149   9.447  1.00  0.00     0.087 C 
ENDBRANCH  16  17
ENDBRANCH  15  16
ENDBRANCH  13  15
ENDBRANCH  11  12
ENDBRANCH   1  11
TORSDOF 9
ENDMDL
MODEL 9
REMARK VINA RESULT:    -4.736      1.737      5.783
REMARK INTER + INTRA:          -9.234
REMARK INTER:                  -8.115
REMARK INTRA:                  -1.119
REMARK UNBOUND:                -2.007
REMARK SMILES CC(=O)CCC=C(C)CCC=C(C)CCC=C(C)C
REMARK SMILES IDX 10 1 11 2 12 3 13 4 14 5 15 6 16 7 18 8 17 9 19 10 9 11 7 12
REMARK SMILES IDX 6 13 8 14 5 15 4 16 2 17 3 18 1 19
REMARK H PARENT
REMARK Flexibility Score: inf
ROOT
ATOM      1  C   UNL     1     -41.203  18.891  12.717  1.00  0.00     0.032 C 
ENDROOT
BRANCH   1   2
ATOM      2  C   UNL     1     -40.791  17.973  11.593  1.00  0.00    -0.028 C 
ATOM      3  C   UNL     1     -39.545  17.474  11.432  1.00  0.00    -0.077 C 
ATOM      4  C   UNL     1     -38.438  17.754  12.422  1.00  0.00     0.039 C 
BRANCH   3   5
ATOM      5  C   UNL     1     -39.256  16.592  10.237  1.00  0.00     0.034 C 
BRANCH   5   6
ATOM      6  C   UNL     1     -37.795  16.129  10.241  1.00  0.00     0.032 C 
BRANCH   6   7
ATOM      7  C   UNL     1     -37.025  16.775   9.116  1.00  0.00    -0.028 C 
ATOM      8  C   UNL     1     -35.804  16.892   6.987  1.00  0.00     0.039 C 
ATOM      9  C   UNL     1     -36.599  16.123   8.011  1.00  0.00    -0.080 C 
ATOM     10  C   UNL     1     -36.912  14.665   7.770  1.00  0.00     0.039 C 
ENDBRANCH   6   7
ENDBRANCH   5   6
ENDBRANCH   3   5
ENDBRANCH   1   2
BRANCH   1  11
ATOM     11  C   UNL     1     -42.504  18.406  13.366  1.00  0.00     0.034 C 
BRANCH  11  12
ATOM     12  C   UNL     1     -42.228  17.761  14.707  1.00  0.00    -0.077 C 
ATOM     13  C   UNL     1     -41.062  17.107  14.899  1.00  0.00    -0.028 C 
ATOM     14  C   UNL     1     -43.265  17.861  15.801  1.00  0.00     0.039 C 
BRANCH  13  15
ATOM     15  C   UNL     1     -40.698  16.434  16.200  1.00  0.00     0.035 C 
BRANCH  15  16
ATOM     16  C   UNL     1     -39.360  15.698  16.089  1.00  0.00     0.079 C 
BRANCH  16  17
ATOM     17  C   UNL     1     -39.492  14.478  15.218  1.00  0.00     0.130 C 
ATOM     18  O   UNL     1     -38.974  14.464  14.111  1.00  0.00    -0.300 OA
ATOM     19  C   UNL     1     -40.273  13.289  15.690  1.00  0.00     0.087 C 
ENDBRANCH  16  17
ENDBRANCH  15  16
ENDBRANCH  13  15
ENDBRANCH  11  12
ENDBRANCH   1  11
TORSDOF 9
ENDMDL
