MODEL 1
REMARK VINA RESULT:    -2.762      0.000      0.000
REMARK INTER + INTRA:          -4.503
REMARK INTER:                  -4.215
REMARK INTRA:                  -0.287
REMARK UNBOUND:                -0.287
REMARK SMILES CC1=CCC[C@H](C)C(=O)C[C@@H](C(C)C)C(=O)C1
REMARK SMILES IDX 8 1 9 2 6 3 7 4 5 5 4 6 3 7 2 8 1 9 10 11 11 12 15 13 16 14
REMARK SMILES IDX 17 15 12 17 13 18 14 19
REMARK H PARENT
REMARK Flexibility Score: 70.00
ROOT
ATOM      1  C   UNL     1     187.173 179.328 199.676  1.00  0.00     0.136 C 
ATOM      2  O   UNL     1     187.083 179.781 200.808  1.00  0.00    -0.299 OA
ENDROOT
BRANCH   1   3
ATOM      3  C   UNL     1     188.506 179.348 198.955  1.00  0.00     0.053 C 
ATOM      4  C   UNL     1     189.189 177.987 199.126  1.00  0.00     0.016 C 
BRANCH   3   5
ATOM      5  C   UNL     1     188.370 179.693 197.453  1.00  0.00     0.015 C 
BRANCH   5   6
ATOM      6  C   UNL     1     188.705 178.521 196.513  1.00  0.00     0.028 C 
BRANCH   6   7
ATOM      7  C   UNL     1     187.574 178.243 195.550  1.00  0.00    -0.028 C 
ATOM      8  C   UNL     1     186.630 177.287 195.703  1.00  0.00    -0.070 CG0
ATOM      9  C   UNL     1     185.572 177.161 194.636  1.00  0.00     0.039 C 
ATOM     10  G   UNL     1     186.593 176.342 196.889  1.00  0.00     0.000 G0
ENDBRANCH   6   7
ENDBRANCH   5   6
ENDBRANCH   3   5
ENDBRANCH   1   3
BRANCH   1  11
ATOM     11  C   UNL     1     185.931 178.815 198.986  1.00  0.00     0.087 C 
BRANCH  11  12
ATOM     12  C   UNL     1     185.748 177.294 199.186  1.00  0.00     0.066 C 
BRANCH  12  13
ATOM     13  C   UNL     1     185.486 176.602 197.856  1.00  0.00     0.140 C 
ATOM     14  O   UNL     1     184.350 176.250 197.568  1.00  0.00    -0.299 OA
BRANCH  13  15
ATOM     15  C   UNL     1     186.602 176.321 196.880  1.00  0.00     0.106 CG0
ATOM     16  G   UNL     1     186.614 177.299 195.721  1.00  0.00     0.000 G0
ENDBRANCH  13  15
ENDBRANCH  12  13
BRANCH  12  17
ATOM     17  C   UNL     1     184.667 176.968 200.262  1.00  0.00    -0.006 C 
ATOM     18  C   UNL     1     183.804 178.200 200.577  1.00  0.00     0.008 C 
ATOM     19  C   UNL     1     185.228 176.373 201.565  1.00  0.00     0.008 C 
ENDBRANCH  12  17
ENDBRANCH  11  12
ENDBRANCH   1  11
TORSDOF 1
ENDMDL
MODEL 2
REMARK VINA RESULT:    -2.675      8.743     10.548
REMARK INTER + INTRA:          -4.370
REMARK INTER:                  -4.417
REMARK INTRA:                   0.047
REMARK UNBOUND:                -0.287
REMARK SMILES CC1=CCC[C@H](C)C(=O)C[C@@H](C(C)C)C(=O)C1
REMARK SMILES IDX 8 1 9 2 6 3 7 4 5 5 4 6 3 7 2 8 1 9 10 11 11 12 15 13 16 14
REMARK SMILES IDX 17 15 12 17 13 18 14 19
REMARK H PARENT
REMARK Flexibility Score: 70.00
ROOT
ATOM      1  C   UNL     1     186.478 187.557 195.928  1.00  0.00     0.136 C 
ATOM      2  O   UNL     1     185.636 188.168 196.571  1.00  0.00    -0.299 OA
ENDROOT
BRANCH   1   3
ATOM      3  C   UNL     1     186.895 186.164 196.355  1.00  0.00     0.053 C 
ATOM      4  C   UNL     1     186.636 186.002 197.857  1.00  0.00     0.016 C 
BRANCH   3   5
ATOM      5  C   UNL     1     186.168 185.051 195.564  1.00  0.00     0.015 C 
BRANCH   5   6
ATOM      6  C   UNL     1     187.111 183.967 195.011  1.00  0.00     0.028 C 
BRANCH   6   7
ATOM      7  C   UNL     1     188.435 184.552 194.579  1.00  0.00    -0.028 C 
ATOM      8  C   UNL     1     188.632 185.332 193.492  1.00  0.00    -0.070 CG0
ATOM      9  C   UNL     1     190.030 185.830 193.223  1.00  0.00     0.039 C 
ATOM     10  G   UNL     1     187.518 185.720 192.539  1.00  0.00     0.000 G0
ENDBRANCH   6   7
ENDBRANCH   5   6
ENDBRANCH   3   5
ENDBRANCH   1   3
BRANCH   1  11
ATOM     11  C   UNL     1     187.140 188.232 194.750  1.00  0.00     0.087 C 
BRANCH  11  12
ATOM     12  C   UNL     1     186.400 187.936 193.426  1.00  0.00     0.066 C 
BRANCH  12  13
ATOM     13  C   UNL     1     187.312 187.207 192.450  1.00  0.00     0.140 C 
ATOM     14  O   UNL     1     187.881 187.834 191.567  1.00  0.00    -0.299 OA
BRANCH  13  15
ATOM     15  C   UNL     1     187.523 185.715 192.532  1.00  0.00     0.106 CG0
ATOM     16  G   UNL     1     188.630 185.341 193.498  1.00  0.00     0.000 G0
ENDBRANCH  13  15
ENDBRANCH  12  13
BRANCH  12  17
ATOM     17  C   UNL     1     185.757 189.218 192.813  1.00  0.00    -0.006 C 
ATOM     18  C   UNL     1     186.343 190.492 193.440  1.00  0.00     0.008 C 
ATOM     19  C   UNL     1     184.221 189.254 192.887  1.00  0.00     0.008 C 
ENDBRANCH  12  17
ENDBRANCH  11  12
ENDBRANCH   1  11
TORSDOF 1
ENDMDL
MODEL 3
REMARK VINA RESULT:    -2.630     11.228     12.718
REMARK INTER + INTRA:          -4.301
REMARK INTER:                  -4.080
REMARK INTRA:                  -0.222
REMARK UNBOUND:                -0.287
REMARK SMILES CC1=CCC[C@H](C)C(=O)C[C@@H](C(C)C)C(=O)C1
REMARK SMILES IDX 8 1 9 2 6 3 7 4 5 5 4 6 3 7 2 8 1 9 10 11 11 12 15 13 16 14
REMARK SMILES IDX 17 15 12 17 13 18 14 19
REMARK H PARENT
REMARK Flexibility Score: 70.00
ROOT
ATOM      1  C   UNL     1     184.295 186.373 193.349  1.00  0.00     0.136 C 
ATOM      2  O   UNL     1     184.585 185.433 194.075  1.00  0.00    -0.299 OA
ENDROOT
BRANCH   1   3
ATOM      3  C   UNL     1     183.164 186.237 192.349  1.00  0.00     0.053 C 
ATOM      4  C   UNL     1     181.831 186.188 193.103  1.00  0.00     0.016 C 
BRANCH   3   5
ATOM      5  C   UNL     1     183.147 187.379 191.305  1.00  0.00     0.015 C 
BRANCH   5   6
ATOM      6  C   UNL     1     182.118 188.483 191.610  1.00  0.00     0.028 C 
BRANCH   6   7
ATOM      7  C   UNL     1     182.719 189.860 191.442  1.00  0.00    -0.028 C 
ATOM      8  C   UNL     1     183.178 190.643 192.444  1.00  0.00    -0.070 CG0
ATOM      9  C   UNL     1     183.750 191.991 192.083  1.00  0.00     0.039 C 
ATOM     10  G   UNL     1     183.138 190.230 193.903  1.00  0.00     0.000 G0
ENDBRANCH   6   7
ENDBRANCH   5   6
ENDBRANCH   3   5
ENDBRANCH   1   3
BRANCH   1  11
ATOM     11  C   UNL     1     185.118 187.638 193.415  1.00  0.00     0.087 C 
BRANCH  11  12
ATOM     12  C   UNL     1     184.882 188.409 194.733  1.00  0.00     0.066 C 
BRANCH  12  13
ATOM     13  C   UNL     1     184.516 189.860 194.451  1.00  0.00     0.140 C 
ATOM     14  O   UNL     1     185.333 190.745 194.664  1.00  0.00    -0.299 OA
BRANCH  13  15
ATOM     15  C   UNL     1     183.153 190.242 193.926  1.00  0.00     0.106 CG0
ATOM     16  G   UNL     1     183.188 190.629 192.460  1.00  0.00     0.000 G0
ENDBRANCH  13  15
ENDBRANCH  12  13
BRANCH  12  17
ATOM     17  C   UNL     1     186.081 188.268 195.720  1.00  0.00    -0.006 C 
ATOM     18  C   UNL     1     187.332 187.736 195.005  1.00  0.00     0.008 C 
ATOM     19  C   UNL     1     185.782 187.412 196.962  1.00  0.00     0.008 C 
ENDBRANCH  12  17
ENDBRANCH  11  12
ENDBRANCH   1  11
TORSDOF 1
ENDMDL
MODEL 4
REMARK VINA RESULT:    -2.596      8.360     10.103
REMARK INTER + INTRA:          -4.250
REMARK INTER:                  -4.418
REMARK INTRA:                   0.169
REMARK UNBOUND:                -0.287
REMARK SMILES CC1=CCC[C@H](C)C(=O)C[C@@H](C(C)C)C(=O)C1
REMARK SMILES IDX 8 1 9 2 6 3 7 4 5 5 4 6 3 7 2 8 1 9 10 11 11 12 15 13 16 14
REMARK SMILES IDX 17 15 12 17 13 18 14 19
REMARK H PARENT
REMARK Flexibility Score: 70.00
ROOT
ATOM      1  C   UNL     1     186.597 185.364 196.284  1.00  0.00     0.136 C 
ATOM      2  O   UNL     1     187.326 184.757 197.056  1.00  0.00    -0.299 OA
ENDROOT
BRANCH   1   3
ATOM      3  C   UNL     1     185.754 186.518 196.787  1.00  0.00     0.053 C 
ATOM      4  C   UNL     1     186.061 186.755 198.270  1.00  0.00     0.016 C 
BRANCH   3   5
ATOM      5  C   UNL     1     185.976 187.819 195.980  1.00  0.00     0.015 C 
BRANCH   5   6
ATOM      6  C   UNL     1     184.897 188.079 194.912  1.00  0.00     0.028 C 
BRANCH   6   7
ATOM      7  C   UNL     1     185.473 188.782 193.705  1.00  0.00    -0.028 C 
ATOM      8  C   UNL     1     186.078 188.176 192.658  1.00  0.00    -0.070 CG0
ATOM      9  C   UNL     1     186.587 189.045 191.536  1.00  0.00     0.039 C 
ATOM     10  G   UNL     1     186.267 186.674 192.567  1.00  0.00     0.000 G0
ENDBRANCH   6   7
ENDBRANCH   5   6
ENDBRANCH   3   5
ENDBRANCH   1   3
BRANCH   1  11
ATOM     11  C   UNL     1     186.499 184.906 194.848  1.00  0.00     0.087 C 
BRANCH  11  12
ATOM     12  C   UNL     1     187.818 185.141 194.078  1.00  0.00     0.066 C 
BRANCH  12  13
ATOM     13  C   UNL     1     187.639 186.216 193.015  1.00  0.00     0.140 C 
ATOM     14  O   UNL     1     188.621 186.740 192.510  1.00  0.00    -0.299 OA
BRANCH  13  15
ATOM     15  C   UNL     1     186.268 186.668 192.575  1.00  0.00     0.106 CG0
ATOM     16  G   UNL     1     186.100 188.173 192.666  1.00  0.00     0.000 G0
ENDBRANCH  13  15
ENDBRANCH  12  13
BRANCH  12  17
ATOM     17  C   UNL     1     188.408 183.815 193.505  1.00  0.00    -0.006 C 
ATOM     18  C   UNL     1     187.677 182.588 194.071  1.00  0.00     0.008 C 
ATOM     19  C   UNL     1     189.926 183.660 193.702  1.00  0.00     0.008 C 
ENDBRANCH  12  17
ENDBRANCH  11  12
ENDBRANCH   1  11
TORSDOF 1
ENDMDL
MODEL 5
REMARK VINA RESULT:    -2.560      8.409     10.020
REMARK INTER + INTRA:          -4.194
REMARK INTER:                  -4.132
REMARK INTRA:                  -0.062
REMARK UNBOUND:                -0.287
REMARK SMILES CC1=CCC[C@H](C)C(=O)C[C@@H](C(C)C)C(=O)C1
REMARK SMILES IDX 8 1 9 2 6 3 7 4 5 5 4 6 3 7 2 8 1 9 10 11 11 12 15 13 16 14
REMARK SMILES IDX 17 15 12 17 13 18 14 19
REMARK H PARENT
REMARK Flexibility Score: 70.00
ROOT
ATOM      1  C   UNL     1     186.520 185.073 195.879  1.00  0.00     0.136 C 
ATOM      2  O   UNL     1     187.162 184.438 196.704  1.00  0.00    -0.299 OA
ENDROOT
BRANCH   1   3
ATOM      3  C   UNL     1     186.134 186.510 196.163  1.00  0.00     0.053 C 
ATOM      4  C   UNL     1     186.050 186.718 197.679  1.00  0.00     0.016 C 
BRANCH   3   5
ATOM      5  C   UNL     1     187.115 187.530 195.538  1.00  0.00     0.015 C 
BRANCH   5   6
ATOM      6  C   UNL     1     186.431 188.590 194.655  1.00  0.00     0.028 C 
BRANCH   6   7
ATOM      7  C   UNL     1     184.945 188.340 194.543  1.00  0.00    -0.028 C 
ATOM      8  C   UNL     1     184.334 187.682 193.532  1.00  0.00    -0.070 CG0
ATOM      9  C   UNL     1     182.835 187.525 193.593  1.00  0.00     0.039 C 
ATOM     10  G   UNL     1     185.085 187.103 192.348  1.00  0.00     0.000 G0
ENDBRANCH   6   7
ENDBRANCH   5   6
ENDBRANCH   3   5
ENDBRANCH   1   3
BRANCH   1  11
ATOM     11  C   UNL     1     186.065 184.388 194.612  1.00  0.00     0.087 C 
BRANCH  11  12
ATOM     12  C   UNL     1     186.543 185.137 193.349  1.00  0.00     0.066 C 
BRANCH  12  13
ATOM     13  C   UNL     1     185.356 185.616 192.525  1.00  0.00     0.140 C 
ATOM     14  O   UNL     1     184.622 184.800 191.985  1.00  0.00    -0.299 OA
BRANCH  13  15
ATOM     15  C   UNL     1     185.066 187.086 192.340  1.00  0.00     0.106 CG0
ATOM     16  G   UNL     1     184.332 187.683 193.525  1.00  0.00     0.000 G0
ENDBRANCH  13  15
ENDBRANCH  12  13
BRANCH  12  17
ATOM     17  C   UNL     1     187.559 184.297 192.516  1.00  0.00    -0.006 C 
ATOM     18  C   UNL     1     187.870 182.958 193.201  1.00  0.00     0.008 C 
ATOM     19  C   UNL     1     188.867 185.033 192.183  1.00  0.00     0.008 C 
ENDBRANCH  12  17
ENDBRANCH  11  12
ENDBRANCH   1  11
TORSDOF 1
ENDMDL
MODEL 6
REMARK VINA RESULT:    -2.513      7.619      9.762
REMARK INTER + INTRA:          -4.122
REMARK INTER:                  -3.860
REMARK INTRA:                  -0.262
REMARK UNBOUND:                -0.287
REMARK SMILES CC1=CCC[C@H](C)C(=O)C[C@@H](C(C)C)C(=O)C1
REMARK SMILES IDX 8 1 9 2 6 3 7 4 5 5 4 6 3 7 2 8 1 9 10 11 11 12 15 13 16 14
REMARK SMILES IDX 17 15 12 17 13 18 14 19
REMARK H PARENT
REMARK Flexibility Score: 70.00
ROOT
ATOM      1  C   UNL     1     187.524 187.093 194.466  1.00  0.00     0.136 C 
ATOM      2  O   UNL     1     187.366 188.149 193.870  1.00  0.00    -0.299 OA
ENDROOT
BRANCH   1   3
ATOM      3  C   UNL     1     186.414 186.542 195.338  1.00  0.00     0.053 C 
ATOM      4  C   UNL     1     186.053 187.580 196.407  1.00  0.00     0.016 C 
BRANCH   3   5
ATOM      5  C   UNL     1     185.155 186.148 194.530  1.00  0.00     0.015 C 
BRANCH   5   6
ATOM      6  C   UNL     1     185.431 185.124 193.413  1.00  0.00     0.028 C 
BRANCH   6   7
ATOM      7  C   UNL     1     185.809 183.775 193.980  1.00  0.00    -0.028 C 
ATOM      8  C   UNL     1     186.866 183.028 193.590  1.00  0.00    -0.070 CG0
ATOM      9  C   UNL     1     187.089 181.704 194.277  1.00  0.00     0.039 C 
ATOM     10  G   UNL     1     187.826 183.459 192.498  1.00  0.00     0.000 G0
ENDBRANCH   6   7
ENDBRANCH   5   6
ENDBRANCH   3   5
ENDBRANCH   1   3
BRANCH   1  11
ATOM     11  C   UNL     1     188.856 186.386 194.375  1.00  0.00     0.087 C 
BRANCH  11  12
ATOM     12  C   UNL     1     189.079 185.758 192.981  1.00  0.00     0.066 C 
BRANCH  12  13
ATOM     13  C   UNL     1     189.018 184.239 193.057  1.00  0.00     0.140 C 
ATOM     14  O   UNL     1     189.940 183.619 193.569  1.00  0.00    -0.299 OA
BRANCH  13  15
ATOM     15  C   UNL     1     187.847 183.468 192.499  1.00  0.00     0.106 CG0
ATOM     16  G   UNL     1     186.872 183.037 193.578  1.00  0.00     0.000 G0
ENDBRANCH  13  15
ENDBRANCH  12  13
BRANCH  12  17
ATOM     17  C   UNL     1     190.385 186.278 192.305  1.00  0.00    -0.006 C 
ATOM     18  C   UNL     1     191.221 187.121 193.280  1.00  0.00     0.008 C 
ATOM     19  C   UNL     1     190.155 187.059 191.000  1.00  0.00     0.008 C 
ENDBRANCH  12  17
ENDBRANCH  11  12
ENDBRANCH   1  11
TORSDOF 1
ENDMDL
MODEL 7
REMARK VINA RESULT:    -2.447      8.995     10.214
REMARK INTER + INTRA:          -4.022
REMARK INTER:                  -4.162
REMARK INTRA:                   0.140
REMARK UNBOUND:                -0.287
REMARK SMILES CC1=CCC[C@H](C)C(=O)C[C@@H](C(C)C)C(=O)C1
REMARK SMILES IDX 8 1 9 2 6 3 7 4 5 5 4 6 3 7 2 8 1 9 10 11 11 12 15 13 16 14
REMARK SMILES IDX 17 15 12 17 13 18 14 19
REMARK H PARENT
REMARK Flexibility Score: 70.00
ROOT
ATOM      1  C   UNL     1     187.414 186.465 195.056  1.00  0.00     0.136 C 
ATOM      2  O   UNL     1     187.692 187.655 195.011  1.00  0.00    -0.299 OA
ENDROOT
BRANCH   1   3
ATOM      3  C   UNL     1     186.275 185.986 195.933  1.00  0.00     0.053 C 
ATOM      4  C   UNL     1     185.996 187.038 197.013  1.00  0.00     0.016 C 
BRANCH   3   5
ATOM      5  C   UNL     1     184.985 185.689 195.131  1.00  0.00     0.015 C 
BRANCH   5   6
ATOM      6  C   UNL     1     184.873 186.483 193.817  1.00  0.00     0.028 C 
BRANCH   6   7
ATOM      7  C   UNL     1     184.337 185.624 192.696  1.00  0.00    -0.028 C 
ATOM      8  C   UNL     1     184.978 185.358 191.535  1.00  0.00    -0.070 CG0
ATOM      9  C   UNL     1     184.285 184.472 190.531  1.00  0.00     0.039 C 
ATOM     10  G   UNL     1     186.349 185.912 191.201  1.00  0.00     0.000 G0
ENDBRANCH   6   7
ENDBRANCH   5   6
ENDBRANCH   3   5
ENDBRANCH   1   3
BRANCH   1  11
ATOM     11  C   UNL     1     188.258 185.480 194.282  1.00  0.00     0.087 C 
BRANCH  11  12
ATOM     12  C   UNL     1     188.446 185.914 192.811  1.00  0.00     0.066 C 
BRANCH  12  13
ATOM     13  C   UNL     1     187.467 185.182 191.904  1.00  0.00     0.140 C 
ATOM     14  O   UNL     1     187.579 183.976 191.738  1.00  0.00    -0.299 OA
BRANCH  13  15
ATOM     15  C   UNL     1     186.361 185.915 191.184  1.00  0.00     0.106 CG0
ATOM     16  G   UNL     1     184.989 185.369 191.527  1.00  0.00     0.000 G0
ENDBRANCH  13  15
ENDBRANCH  12  13
BRANCH  12  17
ATOM     17  C   UNL     1     189.927 185.775 192.342  1.00  0.00    -0.006 C 
ATOM     18  C   UNL     1     190.713 184.817 193.251  1.00  0.00     0.008 C 
ATOM     19  C   UNL     1     190.679 187.110 192.211  1.00  0.00     0.008 C 
ENDBRANCH  12  17
ENDBRANCH  11  12
ENDBRANCH   1  11
TORSDOF 1
ENDMDL
MODEL 8
REMARK VINA RESULT:    -2.435      9.204     10.840
REMARK INTER + INTRA:          -4.004
REMARK INTER:                  -3.757
REMARK INTRA:                  -0.247
REMARK UNBOUND:                -0.287
REMARK SMILES CC1=CCC[C@H](C)C(=O)C[C@@H](C(C)C)C(=O)C1
REMARK SMILES IDX 8 1 9 2 6 3 7 4 5 5 4 6 3 7 2 8 1 9 10 11 11 12 15 13 16 14
REMARK SMILES IDX 17 15 12 17 13 18 14 19
REMARK H PARENT
REMARK Flexibility Score: 70.00
ROOT
ATOM      1  C   UNL     1     187.099 186.374 194.955  1.00  0.00     0.136 C 
ATOM      2  O   UNL     1     188.224 186.851 195.017  1.00  0.00    -0.299 OA
ENDROOT
BRANCH   1   3
ATOM      3  C   UNL     1     186.074 186.712 196.019  1.00  0.00     0.053 C 
ATOM      4  C   UNL     1     186.640 186.345 197.395  1.00  0.00     0.016 C 
BRANCH   3   5
ATOM      5  C   UNL     1     185.651 188.200 195.994  1.00  0.00     0.015 C 
BRANCH   5   6
ATOM      6  C   UNL     1     185.125 188.673 194.626  1.00  0.00     0.028 C 
BRANCH   6   7
ATOM      7  C   UNL     1     183.768 188.081 194.322  1.00  0.00    -0.028 C 
ATOM      8  C   UNL     1     183.413 187.491 193.158  1.00  0.00    -0.070 CG0
ATOM      9  C   UNL     1     182.009 186.951 193.038  1.00  0.00     0.039 C 
ATOM     10  G   UNL     1     184.355 187.353 191.978  1.00  0.00     0.000 G0
ENDBRANCH   6   7
ENDBRANCH   5   6
ENDBRANCH   3   5
ENDBRANCH   1   3
BRANCH   1  11
ATOM     11  C   UNL     1     186.770 185.400 193.849  1.00  0.00     0.087 C 
BRANCH  11  12
ATOM     12  C   UNL     1     186.628 186.106 192.483  1.00  0.00     0.066 C 
BRANCH  12  13
ATOM     13  C   UNL     1     185.179 186.090 192.016  1.00  0.00     0.140 C 
ATOM     14  O   UNL     1     184.670 185.039 191.652  1.00  0.00    -0.299 OA
BRANCH  13  15
ATOM     15  C   UNL     1     184.350 187.351 191.973  1.00  0.00     0.106 CG0
ATOM     16  G   UNL     1     183.411 187.464 193.158  1.00  0.00     0.000 G0
ENDBRANCH  13  15
ENDBRANCH  12  13
BRANCH  12  17
ATOM     17  C   UNL     1     187.614 185.533 191.419  1.00  0.00    -0.006 C 
ATOM     18  C   UNL     1     188.587 184.523 192.046  1.00  0.00     0.008 C 
ATOM     19  C   UNL     1     188.397 186.602 190.639  1.00  0.00     0.008 C 
ENDBRANCH  12  17
ENDBRANCH  11  12
ENDBRANCH   1  11
TORSDOF 1
ENDMDL
MODEL 9
REMARK VINA RESULT:    -2.377      7.318      9.229
REMARK INTER + INTRA:          -3.914
REMARK INTER:                  -3.751
REMARK INTRA:                  -0.164
REMARK UNBOUND:                -0.287
REMARK SMILES CC1=CCC[C@H](C)C(=O)C[C@@H](C(C)C)C(=O)C1
REMARK SMILES IDX 8 1 9 2 6 3 7 4 5 5 4 6 3 7 2 8 1 9 10 11 11 12 15 13 16 14
REMARK SMILES IDX 17 15 12 17 13 18 14 19
REMARK H PARENT
REMARK Flexibility Score: 70.00
ROOT
ATOM      1  C   UNL     1     189.238 184.763 192.858  1.00  0.00     0.136 C 
ATOM      2  O   UNL     1     189.692 184.415 191.778  1.00  0.00    -0.299 OA
ENDROOT
BRANCH   1   3
ATOM      3  C   UNL     1     189.298 186.220 193.271  1.00  0.00     0.053 C 
ATOM      4  C   UNL     1     190.736 186.726 193.116  1.00  0.00     0.016 C 
BRANCH   3   5
ATOM      5  C   UNL     1     188.327 187.113 192.463  1.00  0.00     0.015 C 
BRANCH   5   6
ATOM      6  C   UNL     1     186.893 187.134 193.022  1.00  0.00     0.028 C 
BRANCH   6   7
ATOM      7  C   UNL     1     186.883 187.386 194.512  1.00  0.00    -0.028 C 
ATOM      8  C   UNL     1     186.317 186.582 195.440  1.00  0.00    -0.070 CG0
ATOM      9  C   UNL     1     186.412 186.996 196.887  1.00  0.00     0.039 C 
ATOM     10  G   UNL     1     185.593 185.297 195.091  1.00  0.00     0.000 G0
ENDBRANCH   6   7
ENDBRANCH   5   6
ENDBRANCH   3   5
ENDBRANCH   1   3
BRANCH   1  11
ATOM     11  C   UNL     1     188.681 183.718 193.797  1.00  0.00     0.087 C 
BRANCH  11  12
ATOM     12  C   UNL     1     187.140 183.641 193.723  1.00  0.00     0.066 C 
BRANCH  12  13
ATOM     13  C   UNL     1     186.514 184.099 195.032  1.00  0.00     0.140 C 
ATOM     14  O   UNL     1     186.749 183.488 196.065  1.00  0.00    -0.299 OA
BRANCH  13  15
ATOM     15  C   UNL     1     185.587 185.289 195.089  1.00  0.00     0.106 CG0
ATOM     16  G   UNL     1     186.314 186.570 195.453  1.00  0.00     0.000 G0
ENDBRANCH  13  15
ENDBRANCH  12  13
BRANCH  12  17
ATOM     17  C   UNL     1     186.643 182.232 193.274  1.00  0.00    -0.006 C 
ATOM     18  C   UNL     1     187.506 181.116 193.882  1.00  0.00     0.008 C 
ATOM     19  C   UNL     1     186.546 182.050 191.750  1.00  0.00     0.008 C 
ENDBRANCH  12  17
ENDBRANCH  11  12
ENDBRANCH   1  11
TORSDOF 1
ENDMDL
