MODEL 1
REMARK VINA RESULT:    -3.486      0.000      0.000
REMARK INTER + INTRA:          -4.131
REMARK INTER:                  -4.098
REMARK INTRA:                  -0.033
REMARK UNBOUND:                -0.033
REMARK SMILES CCCCC(=O)[O-]
REMARK SMILES IDX 4 1 5 2 6 3 7 4 3 5 2 6 1 7
REMARK H PARENT
REMARK Flexibility Score: inf
ROOT
ATOM      1  C   UNL     1       5.443  20.157   1.121  1.00  0.00     0.053 C 
ENDROOT
BRANCH   1   2
ATOM      2  C   UNL     1       6.562  19.387   1.748  1.00  0.00     0.041 C 
ATOM      3  O   UNL     1       7.489  18.921   1.034  1.00  0.00    -0.550 OA
ATOM      4  O   UNL     1       6.556  19.139   3.115  1.00  0.00    -0.550 OA
ENDBRANCH   1   2
BRANCH   1   5
ATOM      5  C   UNL     1       5.293  19.780  -0.355  1.00  0.00     0.006 C 
BRANCH   5   6
ATOM      6  C   UNL     1       4.621  20.909  -1.145  1.00  0.00    -0.003 C 
ATOM      7  C   UNL     1       5.657  21.785  -1.843  1.00  0.00     0.004 C 
ENDBRANCH   5   6
ENDBRANCH   1   5
TORSDOF 3
ENDMDL
MODEL 2
REMARK VINA RESULT:    -3.262      2.663      3.934
REMARK INTER + INTRA:          -3.867
REMARK INTER:                  -3.840
REMARK INTRA:                  -0.027
REMARK UNBOUND:                -0.033
REMARK SMILES CCCCC(=O)[O-]
REMARK SMILES IDX 4 1 5 2 6 3 7 4 3 5 2 6 1 7
REMARK H PARENT
REMARK Flexibility Score: inf
ROOT
ATOM      1  C   UNL     1       5.455  20.241   0.384  1.00  0.00     0.053 C 
ENDROOT
BRANCH   1   2
ATOM      2  C   UNL     1       4.841  20.442  -0.965  1.00  0.00     0.041 C 
ATOM      3  O   UNL     1       4.404  19.457  -1.616  1.00  0.00    -0.550 OA
ATOM      4  O   UNL     1       4.797  21.713  -1.527  1.00  0.00    -0.550 OA
ENDBRANCH   1   2
BRANCH   1   5
ATOM      5  C   UNL     1       6.286  18.955   0.408  1.00  0.00     0.006 C 
BRANCH   5   6
ATOM      6  C   UNL     1       7.357  19.013   1.504  1.00  0.00    -0.003 C 
ATOM      7  C   UNL     1       6.778  19.548   2.810  1.00  0.00     0.004 C 
ENDBRANCH   5   6
ENDBRANCH   1   5
TORSDOF 3
ENDMDL
MODEL 3
REMARK VINA RESULT:    -3.162      1.122      1.363
REMARK INTER + INTRA:          -3.749
REMARK INTER:                  -3.732
REMARK INTRA:                  -0.017
REMARK UNBOUND:                -0.033
REMARK SMILES CCCCC(=O)[O-]
REMARK SMILES IDX 4 1 5 2 6 3 7 4 3 5 2 6 1 7
REMARK H PARENT
REMARK Flexibility Score: inf
ROOT
ATOM      1  C   UNL     1       6.367  19.395   1.141  1.00  0.00     0.053 C 
ENDROOT
BRANCH   1   2
ATOM      2  C   UNL     1       6.522  19.449   2.628  1.00  0.00     0.041 C 
ATOM      3  O   UNL     1       6.733  18.394   3.282  1.00  0.00    -0.550 OA
ATOM      4  O   UNL     1       6.384  20.659   3.298  1.00  0.00    -0.550 OA
ENDBRANCH   1   2
BRANCH   1   5
ATOM      5  C   UNL     1       5.219  20.301   0.688  1.00  0.00     0.006 C 
BRANCH   5   6
ATOM      6  C   UNL     1       4.998  20.193  -0.825  1.00  0.00    -0.003 C 
ATOM      7  C   UNL     1       5.186  21.545  -1.506  1.00  0.00     0.004 C 
ENDBRANCH   5   6
ENDBRANCH   1   5
TORSDOF 3
ENDMDL
MODEL 4
REMARK VINA RESULT:    -2.818     12.790     13.258
REMARK INTER + INTRA:          -3.346
REMARK INTER:                  -3.315
REMARK INTRA:                  -0.031
REMARK UNBOUND:                -0.033
REMARK SMILES CCCCC(=O)[O-]
REMARK SMILES IDX 4 1 5 2 6 3 7 4 3 5 2 6 1 7
REMARK H PARENT
REMARK Flexibility Score: inf
ROOT
ATOM      1  C   UNL     1      -6.541  17.846   3.808  1.00  0.00     0.053 C 
ENDROOT
BRANCH   1   2
ATOM      2  C   UNL     1      -6.851  19.157   4.458  1.00  0.00     0.041 C 
ATOM      3  O   UNL     1      -7.591  19.994   3.875  1.00  0.00    -0.550 OA
ATOM      4  O   UNL     1      -6.284  19.477   5.685  1.00  0.00    -0.550 OA
ENDBRANCH   1   2
BRANCH   1   5
ATOM      5  C   UNL     1      -6.401  18.017   2.293  1.00  0.00     0.006 C 
BRANCH   5   6
ATOM      6  C   UNL     1      -6.923  16.783   1.549  1.00  0.00    -0.003 C 
ATOM      7  C   UNL     1      -5.776  15.878   1.111  1.00  0.00     0.004 C 
ENDBRANCH   5   6
ENDBRANCH   1   5
TORSDOF 3
ENDMDL
MODEL 5
REMARK VINA RESULT:    -2.804     14.460     14.971
REMARK INTER + INTRA:          -3.329
REMARK INTER:                  -3.312
REMARK INTRA:                  -0.017
REMARK UNBOUND:                -0.033
REMARK SMILES CCCCC(=O)[O-]
REMARK SMILES IDX 4 1 5 2 6 3 7 4 3 5 2 6 1 7
REMARK H PARENT
REMARK Flexibility Score: inf
ROOT
ATOM      1  C   UNL     1      -8.297  17.395   3.395  1.00  0.00     0.053 C 
ENDROOT
BRANCH   1   2
ATOM      2  C   UNL     1      -6.901  17.872   3.146  1.00  0.00     0.041 C 
ATOM      3  O   UNL     1      -6.388  17.759   2.002  1.00  0.00    -0.550 OA
ATOM      4  O   UNL     1      -6.148  18.395   4.190  1.00  0.00    -0.550 OA
ENDBRANCH   1   2
BRANCH   1   5
ATOM      5  C   UNL     1      -9.283  18.565   3.332  1.00  0.00     0.006 C 
BRANCH   5   6
ATOM      6  C   UNL     1     -10.695  18.077   2.988  1.00  0.00    -0.003 C 
ATOM      7  C   UNL     1     -11.742  19.126   3.344  1.00  0.00     0.004 C 
ENDBRANCH   5   6
ENDBRANCH   1   5
TORSDOF 3
ENDMDL
MODEL 6
REMARK VINA RESULT:    -2.760     15.254     15.871
REMARK INTER + INTRA:          -3.278
REMARK INTER:                  -3.255
REMARK INTRA:                  -0.022
REMARK UNBOUND:                -0.033
REMARK SMILES CCCCC(=O)[O-]
REMARK SMILES IDX 4 1 5 2 6 3 7 4 3 5 2 6 1 7
REMARK H PARENT
REMARK Flexibility Score: inf
ROOT
ATOM      1  C   UNL     1      -8.413  15.601  -5.201  1.00  0.00     0.053 C 
ENDROOT
BRANCH   1   2
ATOM      2  C   UNL     1      -7.327  15.106  -6.103  1.00  0.00     0.041 C 
ATOM      3  O   UNL     1      -6.226  14.731  -5.621  1.00  0.00    -0.550 OA
ATOM      4  O   UNL     1      -7.512  15.105  -7.480  1.00  0.00    -0.550 OA
ENDBRANCH   1   2
BRANCH   1   5
ATOM      5  C   UNL     1      -8.077  15.296  -3.738  1.00  0.00     0.006 C 
BRANCH   5   6
ATOM      6  C   UNL     1      -9.182  15.802  -2.804  1.00  0.00    -0.003 C 
ATOM      7  C   UNL     1      -8.839  17.177  -2.240  1.00  0.00     0.004 C 
ENDBRANCH   5   6
ENDBRANCH   1   5
TORSDOF 3
ENDMDL
MODEL 7
REMARK VINA RESULT:    -2.750     15.489     16.163
REMARK INTER + INTRA:          -3.266
REMARK INTER:                  -3.180
REMARK INTRA:                  -0.085
REMARK UNBOUND:                -0.033
REMARK SMILES CCCCC(=O)[O-]
REMARK SMILES IDX 4 1 5 2 6 3 7 4 3 5 2 6 1 7
REMARK H PARENT
REMARK Flexibility Score: inf
ROOT
ATOM      1  C   UNL     1      -7.674  15.373  -6.045  1.00  0.00     0.053 C 
ENDROOT
BRANCH   1   2
ATOM      2  C   UNL     1      -6.620  14.564  -5.359  1.00  0.00     0.041 C 
ATOM      3  O   UNL     1      -5.869  13.804  -6.027  1.00  0.00    -0.550 OA
ATOM      4  O   UNL     1      -6.496  14.610  -3.976  1.00  0.00    -0.550 OA
ENDBRANCH   1   2
BRANCH   1   5
ATOM      5  C   UNL     1      -8.964  14.560  -6.191  1.00  0.00     0.006 C 
BRANCH   5   6
ATOM      6  C   UNL     1      -9.495  14.626  -7.628  1.00  0.00    -0.003 C 
ATOM      7  C   UNL     1      -8.353  14.602  -8.638  1.00  0.00     0.004 C 
ENDBRANCH   5   6
ENDBRANCH   1   5
TORSDOF 3
ENDMDL
MODEL 8
REMARK VINA RESULT:    -2.749     16.078     16.627
REMARK INTER + INTRA:          -3.264
REMARK INTER:                  -3.231
REMARK INTRA:                  -0.034
REMARK UNBOUND:                -0.033
REMARK SMILES CCCCC(=O)[O-]
REMARK SMILES IDX 4 1 5 2 6 3 7 4 3 5 2 6 1 7
REMARK H PARENT
REMARK Flexibility Score: inf
ROOT
ATOM      1  C   UNL     1      -7.267  15.334  -6.421  1.00  0.00     0.053 C 
ENDROOT
BRANCH   1   2
ATOM      2  C   UNL     1      -7.660  14.368  -7.492  1.00  0.00     0.041 C 
ATOM      3  O   UNL     1      -7.355  13.150  -7.391  1.00  0.00    -0.550 OA
ATOM      4  O   UNL     1      -8.322  14.819  -8.628  1.00  0.00    -0.550 OA
ENDBRANCH   1   2
BRANCH   1   5
ATOM      5  C   UNL     1      -8.463  15.654  -5.520  1.00  0.00     0.006 C 
BRANCH   5   6
ATOM      6  C   UNL     1      -8.205  15.195  -4.080  1.00  0.00    -0.003 C 
ATOM      7  C   UNL     1      -8.726  16.218  -3.076  1.00  0.00     0.004 C 
ENDBRANCH   5   6
ENDBRANCH   1   5
TORSDOF 3
ENDMDL
MODEL 9
REMARK VINA RESULT:    -2.684     13.316     13.849
REMARK INTER + INTRA:          -3.188
REMARK INTER:                  -3.163
REMARK INTRA:                  -0.025
REMARK UNBOUND:                -0.033
REMARK SMILES CCCCC(=O)[O-]
REMARK SMILES IDX 4 1 5 2 6 3 7 4 3 5 2 6 1 7
REMARK H PARENT
REMARK Flexibility Score: inf
ROOT
ATOM      1  C   UNL     1      -7.966  16.810   1.064  1.00  0.00     0.053 C 
ENDROOT
BRANCH   1   2
ATOM      2  C   UNL     1      -6.555  16.934   1.545  1.00  0.00     0.041 C 
ATOM      3  O   UNL     1      -5.630  16.308   0.965  1.00  0.00    -0.550 OA
ATOM      4  O   UNL     1      -6.267  17.703   2.666  1.00  0.00    -0.550 OA
ENDBRANCH   1   2
BRANCH   1   5
ATOM      5  C   UNL     1      -8.001  16.217  -0.348  1.00  0.00     0.006 C 
BRANCH   5   6
ATOM      6  C   UNL     1      -9.097  16.876  -1.193  1.00  0.00    -0.003 C 
ATOM      7  C   UNL     1      -8.776  16.782  -2.681  1.00  0.00     0.004 C 
ENDBRANCH   5   6
ENDBRANCH   1   5
TORSDOF 3
ENDMDL
