MODEL 1
REMARK VINA RESULT:    -4.965      0.000      0.000
REMARK INTER + INTRA:          -5.587
REMARK INTER:                  -5.400
REMARK INTRA:                  -0.186
REMARK UNBOUND:                -0.186
REMARK SMILES C=C(C)[C@H]1CC[C@@H](C)C[C@@H]1O
REMARK SMILES IDX 8 1 7 2 6 3 5 4 4 5 10 6 9 7 11 8 2 10 1 11 3 12
REMARK H PARENT 11 9
REMARK Flexibility Score: inf
ROOT
ATOM      1  C   UNL     1      -4.678  20.779  48.189  1.00  0.00     0.008 C 
ATOM      2  C   UNL     1      -3.174  20.613  48.461  1.00  0.00    -0.012 C 
ATOM      3  C   UNL     1      -2.320  20.937  47.218  1.00  0.00     0.004 C 
ATOM      4  C   UNL     1      -2.400  19.838  46.149  1.00  0.00     0.011 C 
ATOM      5  C   UNL     1      -2.022  18.463  46.735  1.00  0.00     0.043 C 
ATOM      6  C   UNL     1      -2.913  18.109  47.951  1.00  0.00     0.121 C 
ATOM      7  C   UNL     1      -2.833  19.215  49.019  1.00  0.00     0.035 C 
ENDROOT
BRANCH   6   8
ATOM      8  O   UNL     1      -2.478  16.904  48.527  1.00  0.00    -0.392 OA
ATOM      9  H   UNL     1      -1.743  16.555  47.958  1.00  0.00     0.210 HD
ENDBRANCH   6   8
BRANCH   5  10
ATOM     10  C   UNL     1      -2.087  17.388  45.657  1.00  0.00    -0.075 C 
ATOM     11  C   UNL     1      -0.955  16.878  45.144  1.00  0.00     0.008 C 
ATOM     12  C   UNL     1      -3.408  16.875  45.139  1.00  0.00     0.039 C 
ENDBRANCH   5  10
TORSDOF 2
ENDMDL
MODEL 2
REMARK VINA RESULT:    -4.880      1.936      4.581
REMARK INTER + INTRA:          -5.495
REMARK INTER:                  -5.301
REMARK INTRA:                  -0.194
REMARK UNBOUND:                -0.186
REMARK SMILES C=C(C)[C@H]1CC[C@@H](C)C[C@@H]1O
REMARK SMILES IDX 8 1 7 2 6 3 5 4 4 5 10 6 9 7 11 8 2 10 1 11 3 12
REMARK H PARENT 11 9
REMARK Flexibility Score: inf
ROOT
ATOM      1  C   UNL     1      -3.099  17.671  45.996  1.00  0.00     0.008 C 
ATOM      2  C   UNL     1      -2.381  18.004  47.313  1.00  0.00    -0.012 C 
ATOM      3  C   UNL     1      -3.351  18.032  48.512  1.00  0.00     0.004 C 
ATOM      4  C   UNL     1      -4.247  19.278  48.512  1.00  0.00     0.011 C 
ATOM      5  C   UNL     1      -3.406  20.568  48.453  1.00  0.00     0.043 C 
ATOM      6  C   UNL     1      -2.468  20.569  47.221  1.00  0.00     0.121 C 
ATOM      7  C   UNL     1      -1.574  19.316  47.222  1.00  0.00     0.035 C 
ENDROOT
BRANCH   6   8
ATOM      8  O   UNL     1      -1.641  21.705  47.250  1.00  0.00    -0.392 OA
ATOM      9  H   UNL     1      -0.829  21.489  46.721  1.00  0.00     0.210 HD
ENDBRANCH   6   8
BRANCH   5  10
ATOM     10  C   UNL     1      -4.309  21.796  48.474  1.00  0.00    -0.075 C 
ATOM     11  C   UNL     1      -5.332  21.895  47.610  1.00  0.00     0.008 C 
ATOM     12  C   UNL     1      -4.080  22.922  49.453  1.00  0.00     0.039 C 
ENDBRANCH   5  10
TORSDOF 2
ENDMDL
MODEL 3
REMARK VINA RESULT:    -4.647      1.302      3.995
REMARK INTER + INTRA:          -5.241
REMARK INTER:                  -5.132
REMARK INTRA:                  -0.109
REMARK UNBOUND:                -0.186
REMARK SMILES C=C(C)[C@H]1CC[C@@H](C)C[C@@H]1O
REMARK SMILES IDX 8 1 7 2 6 3 5 4 4 5 10 6 9 7 11 8 2 10 1 11 3 12
REMARK H PARENT 11 9
REMARK Flexibility Score: inf
ROOT
ATOM      1  C   UNL     1      -0.198  17.996  46.646  1.00  0.00     0.008 C 
ATOM      2  C   UNL     1      -1.646  17.498  46.508  1.00  0.00    -0.012 C 
ATOM      3  C   UNL     1      -2.469  18.369  45.536  1.00  0.00     0.004 C 
ATOM      4  C   UNL     1      -2.837  19.732  46.138  1.00  0.00     0.011 C 
ATOM      5  C   UNL     1      -3.569  19.566  47.484  1.00  0.00     0.043 C 
ATOM      6  C   UNL     1      -2.724  18.738  48.483  1.00  0.00     0.121 C 
ATOM      7  C   UNL     1      -2.353  17.373  47.874  1.00  0.00     0.035 C 
ENDROOT
BRANCH   6   8
ATOM      8  O   UNL     1      -3.458  18.514  49.660  1.00  0.00    -0.392 OA
ATOM      9  H   UNL     1      -3.340  19.314  50.235  1.00  0.00     0.210 HD
ENDBRANCH   6   8
BRANCH   5  10
ATOM     10  C   UNL     1      -3.946  20.927  48.058  1.00  0.00    -0.075 C 
ATOM     11  C   UNL     1      -5.156  21.453  47.806  1.00  0.00     0.008 C 
ATOM     12  C   UNL     1      -2.981  21.713  48.911  1.00  0.00     0.039 C 
ENDBRANCH   5  10
TORSDOF 2
ENDMDL
MODEL 4
REMARK VINA RESULT:    -4.588      5.086      7.165
REMARK INTER + INTRA:          -5.176
REMARK INTER:                  -5.099
REMARK INTRA:                  -0.078
REMARK UNBOUND:                -0.186
REMARK SMILES C=C(C)[C@H]1CC[C@@H](C)C[C@@H]1O
REMARK SMILES IDX 8 1 7 2 6 3 5 4 4 5 10 6 9 7 11 8 2 10 1 11 3 12
REMARK H PARENT 11 9
REMARK Flexibility Score: inf
ROOT
ATOM      1  C   UNL     1      -4.859  27.627  49.229  1.00  0.00     0.008 C 
ATOM      2  C   UNL     1      -6.175  26.931  48.847  1.00  0.00    -0.012 C 
ATOM      3  C   UNL     1      -6.621  25.908  49.912  1.00  0.00     0.004 C 
ATOM      4  C   UNL     1      -5.767  24.633  49.895  1.00  0.00     0.011 C 
ATOM      5  C   UNL     1      -5.749  23.995  48.491  1.00  0.00     0.043 C 
ATOM      6  C   UNL     1      -5.251  25.001  47.426  1.00  0.00     0.121 C 
ATOM      7  C   UNL     1      -6.107  26.281  47.449  1.00  0.00     0.035 C 
ENDROOT
BRANCH   6   8
ATOM      8  O   UNL     1      -5.345  24.428  46.146  1.00  0.00    -0.392 OA
ATOM      9  H   UNL     1      -6.062  24.913  45.661  1.00  0.00     0.210 HD
ENDBRANCH   6   8
BRANCH   5  10
ATOM     10  C   UNL     1      -4.915  22.720  48.496  1.00  0.00    -0.075 C 
ATOM     11  C   UNL     1      -3.823  22.631  49.273  1.00  0.00     0.008 C 
ATOM     12  C   UNL     1      -5.285  21.537  47.635  1.00  0.00     0.039 C 
ENDBRANCH   5  10
TORSDOF 2
ENDMDL
MODEL 5
REMARK VINA RESULT:    -4.489      4.256      6.154
REMARK INTER + INTRA:          -5.069
REMARK INTER:                  -4.867
REMARK INTRA:                  -0.202
REMARK UNBOUND:                -0.186
REMARK SMILES C=C(C)[C@H]1CC[C@@H](C)C[C@@H]1O
REMARK SMILES IDX 8 1 7 2 6 3 5 4 4 5 10 6 9 7 11 8 2 10 1 11 3 12
REMARK H PARENT 11 9
REMARK Flexibility Score: inf
ROOT
ATOM      1  C   UNL     1      -4.979  26.735  49.691  1.00  0.00     0.008 C 
ATOM      2  C   UNL     1      -5.695  25.564  50.383  1.00  0.00    -0.012 C 
ATOM      3  C   UNL     1      -4.745  24.756  51.289  1.00  0.00     0.004 C 
ATOM      4  C   UNL     1      -3.771  23.882  50.487  1.00  0.00     0.011 C 
ATOM      5  C   UNL     1      -4.528  22.954  49.515  1.00  0.00     0.043 C 
ATOM      6  C   UNL     1      -5.443  23.765  48.566  1.00  0.00     0.121 C 
ATOM      7  C   UNL     1      -6.416  24.644  49.375  1.00  0.00     0.035 C 
ENDROOT
BRANCH   6   8
ATOM      8  O   UNL     1      -6.198  22.890  47.766  1.00  0.00    -0.392 OA
ATOM      9  H   UNL     1      -7.133  22.927  48.095  1.00  0.00     0.210 HD
ENDBRANCH   6   8
BRANCH   5  10
ATOM     10  C   UNL     1      -3.549  22.079  48.742  1.00  0.00    -0.075 C 
ATOM     11  C   UNL     1      -2.541  22.640  48.054  1.00  0.00     0.008 C 
ATOM     12  C   UNL     1      -3.684  20.576  48.725  1.00  0.00     0.039 C 
ENDBRANCH   5  10
TORSDOF 2
ENDMDL
MODEL 6
REMARK VINA RESULT:    -4.438      3.661      6.250
REMARK INTER + INTRA:          -5.014
REMARK INTER:                  -4.809
REMARK INTRA:                  -0.205
REMARK UNBOUND:                -0.186
REMARK SMILES C=C(C)[C@H]1CC[C@@H](C)C[C@@H]1O
REMARK SMILES IDX 8 1 7 2 6 3 5 4 4 5 10 6 9 7 11 8 2 10 1 11 3 12
REMARK H PARENT 11 9
REMARK Flexibility Score: inf
ROOT
ATOM      1  C   UNL     1      -2.404  21.337  46.825  1.00  0.00     0.008 C 
ATOM      2  C   UNL     1      -3.113  21.034  48.155  1.00  0.00    -0.012 C 
ATOM      3  C   UNL     1      -4.636  20.873  47.977  1.00  0.00     0.004 C 
ATOM      4  C   UNL     1      -5.343  22.213  47.732  1.00  0.00     0.011 C 
ATOM      5  C   UNL     1      -5.023  23.223  48.852  1.00  0.00     0.043 C 
ATOM      6  C   UNL     1      -3.496  23.430  48.999  1.00  0.00     0.121 C 
ATOM      7  C   UNL     1      -2.790  22.083  49.240  1.00  0.00     0.035 C 
ENDROOT
BRANCH   6   8
ATOM      8  O   UNL     1      -3.231  24.271  50.093  1.00  0.00    -0.392 OA
ATOM      9  H   UNL     1      -3.127  25.191  49.735  1.00  0.00     0.210 HD
ENDBRANCH   6   8
BRANCH   5  10
ATOM     10  C   UNL     1      -5.749  24.540  48.606  1.00  0.00    -0.075 C 
ATOM     11  C   UNL     1      -5.498  25.251  47.494  1.00  0.00     0.008 C 
ATOM     12  C   UNL     1      -6.756  25.078  49.593  1.00  0.00     0.039 C 
ENDBRANCH   5  10
TORSDOF 2
ENDMDL
MODEL 7
REMARK VINA RESULT:    -4.329      1.741      2.765
REMARK INTER + INTRA:          -4.895
REMARK INTER:                  -4.739
REMARK INTRA:                  -0.156
REMARK UNBOUND:                -0.186
REMARK SMILES C=C(C)[C@H]1CC[C@@H](C)C[C@@H]1O
REMARK SMILES IDX 8 1 7 2 6 3 5 4 4 5 10 6 9 7 11 8 2 10 1 11 3 12
REMARK H PARENT 11 9
REMARK Flexibility Score: inf
ROOT
ATOM      1  C   UNL     1      -2.935  22.620  49.170  1.00  0.00     0.008 C 
ATOM      2  C   UNL     1      -3.447  22.300  47.757  1.00  0.00    -0.012 C 
ATOM      3  C   UNL     1      -4.680  21.374  47.783  1.00  0.00     0.004 C 
ATOM      4  C   UNL     1      -4.318  19.926  48.142  1.00  0.00     0.011 C 
ATOM      5  C   UNL     1      -3.233  19.373  47.197  1.00  0.00     0.043 C 
ATOM      6  C   UNL     1      -1.972  20.270  47.208  1.00  0.00     0.121 C 
ATOM      7  C   UNL     1      -2.339  21.723  46.852  1.00  0.00     0.035 C 
ENDROOT
BRANCH   6   8
ATOM      8  O   UNL     1      -1.044  19.803  46.262  1.00  0.00    -0.392 OA
ATOM      9  H   UNL     1      -1.416  18.968  45.875  1.00  0.00     0.210 HD
ENDBRANCH   6   8
BRANCH   5  10
ATOM     10  C   UNL     1      -2.901  17.929  47.554  1.00  0.00    -0.075 C 
ATOM     11  C   UNL     1      -2.743  17.571  48.838  1.00  0.00     0.008 C 
ATOM     12  C   UNL     1      -2.738  16.875  46.486  1.00  0.00     0.039 C 
ENDBRANCH   5  10
TORSDOF 2
ENDMDL
MODEL 8
REMARK VINA RESULT:    -4.300      5.982      8.261
REMARK INTER + INTRA:          -4.863
REMARK INTER:                  -4.670
REMARK INTRA:                  -0.193
REMARK UNBOUND:                -0.186
REMARK SMILES C=C(C)[C@H]1CC[C@@H](C)C[C@@H]1O
REMARK SMILES IDX 8 1 7 2 6 3 5 4 4 5 10 6 9 7 11 8 2 10 1 11 3 12
REMARK H PARENT 11 9
REMARK Flexibility Score: inf
ROOT
ATOM      1  C   UNL     1      -5.081  24.667  47.447  1.00  0.00     0.008 C 
ATOM      2  C   UNL     1      -5.699  23.974  48.672  1.00  0.00    -0.012 C 
ATOM      3  C   UNL     1      -6.541  24.946  49.524  1.00  0.00     0.004 C 
ATOM      4  C   UNL     1      -5.674  25.924  50.328  1.00  0.00     0.011 C 
ATOM      5  C   UNL     1      -4.650  25.171  51.200  1.00  0.00     0.043 C 
ATOM      6  C   UNL     1      -3.765  24.234  50.342  1.00  0.00     0.121 C 
ATOM      7  C   UNL     1      -4.639  23.257  49.534  1.00  0.00     0.035 C 
ENDROOT
BRANCH   6   8
ATOM      8  O   UNL     1      -2.915  23.485  51.174  1.00  0.00    -0.392 OA
ATOM      9  H   UNL     1      -3.321  23.482  52.079  1.00  0.00     0.210 HD
ENDBRANCH   6   8
BRANCH   5  10
ATOM     10  C   UNL     1      -3.811  26.155  52.007  1.00  0.00    -0.075 C 
ATOM     11  C   UNL     1      -3.979  26.253  53.336  1.00  0.00     0.008 C 
ATOM     12  C   UNL     1      -2.784  27.039  51.343  1.00  0.00     0.039 C 
ENDBRANCH   5  10
TORSDOF 2
ENDMDL
MODEL 9
REMARK VINA RESULT:    -4.282      7.072      9.161
REMARK INTER + INTRA:          -4.844
REMARK INTER:                  -4.640
REMARK INTRA:                  -0.204
REMARK UNBOUND:                -0.186
REMARK SMILES C=C(C)[C@H]1CC[C@@H](C)C[C@@H]1O
REMARK SMILES IDX 8 1 7 2 6 3 5 4 4 5 10 6 9 7 11 8 2 10 1 11 3 12
REMARK H PARENT 11 9
REMARK Flexibility Score: inf
ROOT
ATOM      1  C   UNL     1      -3.706  24.507  49.837  1.00  0.00     0.008 C 
ATOM      2  C   UNL     1      -5.163  24.146  49.507  1.00  0.00    -0.012 C 
ATOM      3  C   UNL     1      -5.466  24.274  48.000  1.00  0.00     0.004 C 
ATOM      4  C   UNL     1      -5.568  25.736  47.545  1.00  0.00     0.011 C 
ATOM      5  C   UNL     1      -6.605  26.509  48.383  1.00  0.00     0.043 C 
ATOM      6  C   UNL     1      -6.275  26.429  49.894  1.00  0.00     0.121 C 
ATOM      7  C   UNL     1      -6.170  24.961  50.346  1.00  0.00     0.035 C 
ENDROOT
BRANCH   6   8
ATOM      8  O   UNL     1      -7.292  27.050  50.639  1.00  0.00    -0.392 OA
ATOM      9  H   UNL     1      -7.995  26.368  50.800  1.00  0.00     0.210 HD
ENDBRANCH   6   8
BRANCH   5  10
ATOM     10  C   UNL     1      -6.709  27.952  47.905  1.00  0.00    -0.075 C 
ATOM     11  C   UNL     1      -5.641  28.763  47.971  1.00  0.00     0.008 C 
ATOM     12  C   UNL     1      -8.001  28.505  47.354  1.00  0.00     0.039 C 
ENDBRANCH   5  10
TORSDOF 2
ENDMDL
