MODEL 1
REMARK VINA RESULT:    -5.458      0.000      0.000
REMARK INTER + INTRA:          -5.937
REMARK INTER:                  -5.937
REMARK INTRA:                   0.000
REMARK UNBOUND:                 0.000
REMARK SMILES Cc1cc(O)c2c(c1)C(=O)c1cc(O)cc(O)c1C2=O
REMARK SMILES IDX 1 1 2 2 8 3 7 4 6 5 4 6 3 7 19 8 20 9 18 10 11 11 9 12 10 13
REMARK SMILES IDX 12 14 13 15 15 16 16 17 5 18 17 20 14 22
REMARK H PARENT 5 19 17 21 14 23
REMARK Flexibility Score: inf
ROOT
ATOM      1  C   UNL     1      32.877  17.755  16.321  1.00  0.00     0.044 C 
ATOM      2  C   UNL     1      33.759  18.718  15.582  1.00  0.00    -0.047 A 
ATOM      3  C   UNL     1      33.451  19.091  14.271  1.00  0.00     0.016 A 
ATOM      4  C   UNL     1      34.283  19.974  13.561  1.00  0.00     0.038 A 
ATOM      5  C   UNL     1      35.446  20.494  14.175  1.00  0.00     0.076 A 
ATOM      6  C   UNL     1      35.803  20.032  15.471  1.00  0.00     0.127 A 
ATOM      7  C   UNL     1      34.944  19.174  16.165  1.00  0.00     0.050 A 
ATOM      8  C   UNL     1      36.218  21.546  13.456  1.00  0.00     0.201 C 
ATOM      9  O   UNL     1      36.981  22.318  14.095  1.00  0.00    -0.288 OA
ATOM     10  C   UNL     1      36.004  21.765  12.002  1.00  0.00     0.076 A 
ATOM     11  C   UNL     1      34.877  21.188  11.378  1.00  0.00     0.041 A 
ATOM     12  C   UNL     1      33.948  20.348  12.166  1.00  0.00     0.194 C 
ATOM     13  O   UNL     1      32.876  19.934  11.642  1.00  0.00    -0.289 OA
ATOM     14  C   UNL     1      34.642  21.417  10.010  1.00  0.00     0.059 A 
ATOM     15  C   UNL     1      35.520  22.207   9.262  1.00  0.00     0.120 A 
ATOM     16  C   UNL     1      36.638  22.773   9.874  1.00  0.00     0.093 A 
ATOM     17  C   UNL     1      36.891  22.558  11.235  1.00  0.00     0.131 A 
ENDROOT
BRANCH   6  18
ATOM     18  O   UNL     1      37.011  20.363  16.090  1.00  0.00    -0.507 OA
ATOM     19  H   UNL     1      37.828  19.769  16.080  1.00  0.00     0.293 HD
ENDBRANCH   6  18
BRANCH  17  20
ATOM     20  O   UNL     1      38.024  23.125  11.818  1.00  0.00    -0.507 OA
ATOM     21  H   UNL     1      38.026  24.079  12.161  1.00  0.00     0.293 HD
ENDBRANCH  17  20
BRANCH  15  22
ATOM     22  O   UNL     1      35.290  22.436   7.908  1.00  0.00    -0.508 OA
ATOM     23  H   UNL     1      36.018  22.792   7.298  1.00  0.00     0.293 HD
ENDBRANCH  15  22
TORSDOF 3
ENDMDL
MODEL 2
REMARK VINA RESULT:    -3.848     14.933     17.304
REMARK INTER + INTRA:          -4.185
REMARK INTER:                  -4.185
REMARK INTRA:                   0.000
REMARK UNBOUND:                 0.000
REMARK SMILES Cc1cc(O)c2c(c1)C(=O)c1cc(O)cc(O)c1C2=O
REMARK SMILES IDX 1 1 2 2 8 3 7 4 6 5 4 6 3 7 19 8 20 9 18 10 11 11 9 12 10 13
REMARK SMILES IDX 12 14 13 15 15 16 16 17 5 18 17 20 14 22
REMARK H PARENT 5 19 17 21 14 23
REMARK Flexibility Score: inf
ROOT
ATOM      1  C   UNL     1      52.420  21.274  14.186  1.00  0.00     0.044 C 
ATOM      2  C   UNL     1      51.526  21.620  15.341  1.00  0.00    -0.047 A 
ATOM      3  C   UNL     1      52.074  21.904  16.595  1.00  0.00     0.016 A 
ATOM      4  C   UNL     1      51.245  22.205  17.690  1.00  0.00     0.038 A 
ATOM      5  C   UNL     1      49.840  22.222  17.527  1.00  0.00     0.076 A 
ATOM      6  C   UNL     1      49.289  21.834  16.275  1.00  0.00     0.127 A 
ATOM      7  C   UNL     1      50.137  21.566  15.195  1.00  0.00     0.050 A 
ATOM      8  C   UNL     1      49.000  22.697  18.661  1.00  0.00     0.201 C 
ATOM      9  O   UNL     1      47.833  23.121  18.450  1.00  0.00    -0.288 OA
ATOM     10  C   UNL     1      49.573  22.783  20.030  1.00  0.00     0.076 A 
ATOM     11  C   UNL     1      50.972  22.699  20.195  1.00  0.00     0.041 A 
ATOM     12  C   UNL     1      51.843  22.491  19.016  1.00  0.00     0.194 C 
ATOM     13  O   UNL     1      53.098  22.539  19.145  1.00  0.00    -0.289 OA
ATOM     14  C   UNL     1      51.532  22.816  21.480  1.00  0.00     0.059 A 
ATOM     15  C   UNL     1      50.713  23.009  22.596  1.00  0.00     0.120 A 
ATOM     16  C   UNL     1      49.329  23.085  22.437  1.00  0.00     0.093 A 
ATOM     17  C   UNL     1      48.751  22.972  21.166  1.00  0.00     0.131 A 
ENDROOT
BRANCH   6  18
ATOM     18  O   UNL     1      47.918  21.665  16.067  1.00  0.00    -0.507 OA
ATOM     19  H   UNL     1      47.219  22.331  16.365  1.00  0.00     0.293 HD
ENDBRANCH   6  18
BRANCH  17  20
ATOM     20  O   UNL     1      47.364  23.040  21.037  1.00  0.00    -0.507 OA
ATOM     21  H   UNL     1      46.923  23.375  20.188  1.00  0.00     0.293 HD
ENDBRANCH  17  20
BRANCH  15  22
ATOM     22  O   UNL     1      51.264  23.125  23.870  1.00  0.00    -0.508 OA
ATOM     23  H   UNL     1      51.123  23.954  24.436  1.00  0.00     0.293 HD
ENDBRANCH  15  22
TORSDOF 3
ENDMDL
