MODEL 1
REMARK VINA RESULT:    -4.768      0.000      0.000
REMARK INTER + INTRA:          -5.637
REMARK INTER:                  -5.465
REMARK INTRA:                  -0.173
REMARK UNBOUND:                -0.173
REMARK SMILES CC=Cc1ccc(O)c(OC)c1
REMARK SMILES IDX 4 1 12 2 9 3 7 4 6 5 5 6 3 7 1 8 2 9 10 10 11 11 8 12
REMARK H PARENT 8 13
REMARK Flexibility Score: inf
ROOT
ATOM      1  C   UNL     1      18.610  25.889  27.956  1.00  0.00    -0.022 A 
ATOM      2  C   UNL     1      19.050  26.444  29.169  1.00  0.00     0.058 A 
ATOM      3  C   UNL     1      18.942  27.827  29.413  1.00  0.00     0.161 A 
ATOM      4  C   UNL     1      18.397  28.658  28.426  1.00  0.00     0.157 A 
ATOM      5  C   UNL     1      17.971  28.114  27.208  1.00  0.00     0.051 A 
ATOM      6  C   UNL     1      18.079  26.742  26.970  1.00  0.00     0.012 A 
ENDROOT
BRANCH   1   7
ATOM      7  C   UNL     1      18.757  24.427  27.750  1.00  0.00     0.003 C 
ATOM      8  C   UNL     1      19.080  22.087  28.453  1.00  0.00     0.035 C 
ATOM      9  C   UNL     1      18.924  23.546  28.744  1.00  0.00    -0.030 C 
ENDBRANCH   1   7
BRANCH   3  10
ATOM     10  O   UNL     1      19.364  28.411  30.619  1.00  0.00    -0.493 OA
ATOM     11  C   UNL     1      18.600  28.420  31.821  1.00  0.00     0.278 C 
ENDBRANCH   3  10
BRANCH   4  12
ATOM     12  O   UNL     1      18.286  30.027  28.660  1.00  0.00    -0.504 OA
ATOM     13  H   UNL     1      18.917  30.512  29.287  1.00  0.00     0.293 HD
ENDBRANCH   4  12
TORSDOF 3
ENDMDL
MODEL 2
REMARK VINA RESULT:    -4.748      2.665      3.857
REMARK INTER + INTRA:          -5.615
REMARK INTER:                  -5.461
REMARK INTRA:                  -0.154
REMARK UNBOUND:                -0.173
REMARK SMILES CC=Cc1ccc(O)c(OC)c1
REMARK SMILES IDX 4 1 12 2 9 3 7 4 6 5 5 6 3 7 1 8 2 9 10 10 11 11 8 12
REMARK H PARENT 8 13
REMARK Flexibility Score: inf
ROOT
ATOM      1  C   UNL     1      18.422  29.754  28.632  1.00  0.00    -0.022 A 
ATOM      2  C   UNL     1      18.292  29.323  29.963  1.00  0.00     0.058 A 
ATOM      3  C   UNL     1      18.267  30.249  31.024  1.00  0.00     0.161 A 
ATOM      4  C   UNL     1      18.384  31.616  30.744  1.00  0.00     0.157 A 
ATOM      5  C   UNL     1      18.529  32.053  29.422  1.00  0.00     0.051 A 
ATOM      6  C   UNL     1      18.553  31.131  28.373  1.00  0.00     0.012 A 
ENDROOT
BRANCH   1   7
ATOM      7  C   UNL     1      18.452  28.733  27.555  1.00  0.00     0.003 C 
ATOM      8  C   UNL     1      17.807  26.631  26.443  1.00  0.00     0.035 C 
ATOM      9  C   UNL     1      17.709  27.619  27.561  1.00  0.00    -0.030 C 
ENDBRANCH   1   7
BRANCH   3  10
ATOM     10  O   UNL     1      18.128  29.850  32.364  1.00  0.00    -0.493 OA
ATOM     11  C   UNL     1      18.608  28.618  32.892  1.00  0.00     0.278 C 
ENDBRANCH   3  10
BRANCH   4  12
ATOM     12  O   UNL     1      18.358  32.539  31.789  1.00  0.00    -0.504 OA
ATOM     13  H   UNL     1      18.671  33.494  31.661  1.00  0.00     0.293 HD
ENDBRANCH   4  12
TORSDOF 3
ENDMDL
MODEL 3
REMARK VINA RESULT:    -4.743      1.324      1.825
REMARK INTER + INTRA:          -5.608
REMARK INTER:                  -5.457
REMARK INTRA:                  -0.152
REMARK UNBOUND:                -0.173
REMARK SMILES CC=Cc1ccc(O)c(OC)c1
REMARK SMILES IDX 4 1 12 2 9 3 7 4 6 5 5 6 3 7 1 8 2 9 10 10 11 11 8 12
REMARK H PARENT 8 13
REMARK Flexibility Score: inf
ROOT
ATOM      1  C   UNL     1      18.303  27.599  28.518  1.00  0.00    -0.022 A 
ATOM      2  C   UNL     1      18.287  27.857  29.899  1.00  0.00     0.058 A 
ATOM      3  C   UNL     1      18.308  29.178  30.388  1.00  0.00     0.161 A 
ATOM      4  C   UNL     1      18.356  30.245  29.482  1.00  0.00     0.157 A 
ATOM      5  C   UNL     1      18.388  29.996  28.105  1.00  0.00     0.051 A 
ATOM      6  C   UNL     1      18.366  28.685  27.624  1.00  0.00     0.012 A 
ENDROOT
BRANCH   1   7
ATOM      7  C   UNL     1      18.289  26.188  28.060  1.00  0.00     0.003 C 
ATOM      8  C   UNL     1      18.942  23.812  28.103  1.00  0.00     0.035 C 
ATOM      9  C   UNL     1      19.000  25.209  28.634  1.00  0.00    -0.030 C 
ENDBRANCH   1   7
BRANCH   3  10
ATOM     10  O   UNL     1      18.283  29.469  31.762  1.00  0.00    -0.493 OA
ATOM     11  C   UNL     1      18.666  28.557  32.786  1.00  0.00     0.278 C 
ENDBRANCH   3  10
BRANCH   4  12
ATOM     12  O   UNL     1      18.376  31.555  29.958  1.00  0.00    -0.504 OA
ATOM     13  H   UNL     1      19.154  32.176  29.772  1.00  0.00     0.293 HD
ENDBRANCH   4  12
TORSDOF 3
ENDMDL
MODEL 4
REMARK VINA RESULT:    -4.723      1.958      4.851
REMARK INTER + INTRA:          -5.586
REMARK INTER:                  -5.417
REMARK INTRA:                  -0.169
REMARK UNBOUND:                -0.173
REMARK SMILES CC=Cc1ccc(O)c(OC)c1
REMARK SMILES IDX 4 1 12 2 9 3 7 4 6 5 5 6 3 7 1 8 2 9 10 10 11 11 8 12
REMARK H PARENT 8 13
REMARK Flexibility Score: inf
ROOT
ATOM      1  C   UNL     1      18.099  29.465  30.925  1.00  0.00    -0.022 A 
ATOM      2  C   UNL     1      18.026  28.158  30.414  1.00  0.00     0.058 A 
ATOM      3  C   UNL     1      18.249  27.903  29.048  1.00  0.00     0.161 A 
ATOM      4  C   UNL     1      18.536  28.970  28.187  1.00  0.00     0.157 A 
ATOM      5  C   UNL     1      18.595  30.277  28.686  1.00  0.00     0.051 A 
ATOM      6  C   UNL     1      18.375  30.526  30.042  1.00  0.00     0.012 A 
ENDROOT
BRANCH   1   7
ATOM      7  C   UNL     1      17.846  29.676  32.372  1.00  0.00     0.003 C 
ATOM      8  C   UNL     1      18.032  29.167  34.776  1.00  0.00     0.035 C 
ATOM      9  C   UNL     1      18.345  28.897  33.339  1.00  0.00    -0.030 C 
ENDBRANCH   1   7
BRANCH   3  10
ATOM     10  O   UNL     1      18.193  26.607  28.508  1.00  0.00    -0.493 OA
ATOM     11  C   UNL     1      19.149  25.584  28.767  1.00  0.00     0.278 C 
ENDBRANCH   3  10
BRANCH   4  12
ATOM     12  O   UNL     1      18.760  28.726  26.833  1.00  0.00    -0.504 OA
ATOM     13  H   UNL     1      18.819  29.480  26.160  1.00  0.00     0.293 HD
ENDBRANCH   4  12
TORSDOF 3
ENDMDL
MODEL 5
REMARK VINA RESULT:    -4.656      3.040      4.895
REMARK INTER + INTRA:          -5.509
REMARK INTER:                  -5.338
REMARK INTRA:                  -0.171
REMARK UNBOUND:                -0.173
REMARK SMILES CC=Cc1ccc(O)c(OC)c1
REMARK SMILES IDX 4 1 12 2 9 3 7 4 6 5 5 6 3 7 1 8 2 9 10 10 11 11 8 12
REMARK H PARENT 8 13
REMARK Flexibility Score: inf
ROOT
ATOM      1  C   UNL     1      18.398  28.535  30.953  1.00  0.00    -0.022 A 
ATOM      2  C   UNL     1      17.631  29.517  31.603  1.00  0.00     0.058 A 
ATOM      3  C   UNL     1      17.677  29.660  33.004  1.00  0.00     0.161 A 
ATOM      4  C   UNL     1      18.491  28.803  33.756  1.00  0.00     0.157 A 
ATOM      5  C   UNL     1      19.245  27.812  33.117  1.00  0.00     0.051 A 
ATOM      6  C   UNL     1      19.198  27.673  31.728  1.00  0.00     0.012 A 
ENDROOT
BRANCH   1   7
ATOM      7  C   UNL     1      18.303  28.423  29.477  1.00  0.00     0.003 C 
ATOM      8  C   UNL     1      17.808  27.294  27.343  1.00  0.00     0.035 C 
ATOM      9  C   UNL     1      17.859  27.334  28.837  1.00  0.00    -0.030 C 
ENDBRANCH   1   7
BRANCH   3  10
ATOM     10  O   UNL     1      16.931  30.638  33.682  1.00  0.00    -0.493 OA
ATOM     11  C   UNL     1      17.130  32.041  33.548  1.00  0.00     0.278 C 
ENDBRANCH   3  10
BRANCH   4  12
ATOM     12  O   UNL     1      18.542  28.940  35.142  1.00  0.00    -0.504 OA
ATOM     13  H   UNL     1      19.416  29.106  35.627  1.00  0.00     0.293 HD
ENDBRANCH   4  12
TORSDOF 3
ENDMDL
MODEL 6
REMARK VINA RESULT:    -4.616      2.807      5.981
REMARK INTER + INTRA:          -5.464
REMARK INTER:                  -5.300
REMARK INTRA:                  -0.164
REMARK UNBOUND:                -0.173
REMARK SMILES CC=Cc1ccc(O)c(OC)c1
REMARK SMILES IDX 4 1 12 2 9 3 7 4 6 5 5 6 3 7 1 8 2 9 10 10 11 11 8 12
REMARK H PARENT 8 13
REMARK Flexibility Score: inf
ROOT
ATOM      1  C   UNL     1      18.354  30.405  29.294  1.00  0.00    -0.022 A 
ATOM      2  C   UNL     1      18.518  29.846  28.015  1.00  0.00     0.058 A 
ATOM      3  C   UNL     1      18.457  28.452  27.822  1.00  0.00     0.161 A 
ATOM      4  C   UNL     1      18.241  27.615  28.924  1.00  0.00     0.157 A 
ATOM      5  C   UNL     1      18.093  28.164  30.204  1.00  0.00     0.051 A 
ATOM      6  C   UNL     1      18.153  29.546  30.391  1.00  0.00     0.012 A 
ENDROOT
BRANCH   1   7
ATOM      7  C   UNL     1      18.437  31.879  29.440  1.00  0.00     0.003 C 
ATOM      8  C   UNL     1      18.745  34.194  28.652  1.00  0.00     0.035 C 
ATOM      9  C   UNL     1      18.662  32.719  28.421  1.00  0.00    -0.030 C 
ENDBRANCH   1   7
BRANCH   3  10
ATOM     10  O   UNL     1      18.606  27.864  26.555  1.00  0.00    -0.493 OA
ATOM     11  C   UNL     1      19.654  28.171  25.642  1.00  0.00     0.278 C 
ENDBRANCH   3  10
BRANCH   4  12
ATOM     12  O   UNL     1      18.178  26.235  28.741  1.00  0.00    -0.504 OA
ATOM     13  H   UNL     1      17.427  25.681  29.134  1.00  0.00     0.293 HD
ENDBRANCH   4  12
TORSDOF 3
ENDMDL
MODEL 7
REMARK VINA RESULT:    -4.570      1.923      3.405
REMARK INTER + INTRA:          -5.410
REMARK INTER:                  -5.229
REMARK INTRA:                  -0.181
REMARK UNBOUND:                -0.173
REMARK SMILES CC=Cc1ccc(O)c(OC)c1
REMARK SMILES IDX 4 1 12 2 9 3 7 4 6 5 5 6 3 7 1 8 2 9 10 10 11 11 8 12
REMARK H PARENT 8 13
REMARK Flexibility Score: inf
ROOT
ATOM      1  C   UNL     1      18.344  28.142  28.902  1.00  0.00    -0.022 A 
ATOM      2  C   UNL     1      18.420  29.326  28.149  1.00  0.00     0.058 A 
ATOM      3  C   UNL     1      18.407  30.585  28.778  1.00  0.00     0.161 A 
ATOM      4  C   UNL     1      18.304  30.655  30.174  1.00  0.00     0.157 A 
ATOM      5  C   UNL     1      18.212  29.480  30.930  1.00  0.00     0.051 A 
ATOM      6  C   UNL     1      18.227  28.233  30.302  1.00  0.00     0.012 A 
ENDROOT
BRANCH   1   7
ATOM      7  C   UNL     1      18.353  26.843  28.185  1.00  0.00     0.003 C 
ATOM      8  C   UNL     1      18.789  24.431  27.924  1.00  0.00     0.035 C 
ATOM      9  C   UNL     1      18.799  25.699  28.718  1.00  0.00    -0.030 C 
ENDBRANCH   1   7
BRANCH   3  10
ATOM     10  O   UNL     1      18.491  31.786  28.054  1.00  0.00    -0.493 OA
ATOM     11  C   UNL     1      19.670  32.258  27.411  1.00  0.00     0.278 C 
ENDBRANCH   3  10
BRANCH   4  12
ATOM     12  O   UNL     1      18.292  31.898  30.804  1.00  0.00    -0.504 OA
ATOM     13  H   UNL     1      19.108  32.497  30.813  1.00  0.00     0.293 HD
ENDBRANCH   4  12
TORSDOF 3
ENDMDL
MODEL 8
REMARK VINA RESULT:    -4.539      4.423      7.375
REMARK INTER + INTRA:          -5.375
REMARK INTER:                  -5.204
REMARK INTRA:                  -0.171
REMARK UNBOUND:                -0.173
REMARK SMILES CC=Cc1ccc(O)c(OC)c1
REMARK SMILES IDX 4 1 12 2 9 3 7 4 6 5 5 6 3 7 1 8 2 9 10 10 11 11 8 12
REMARK H PARENT 8 13
REMARK Flexibility Score: inf
ROOT
ATOM      1  C   UNL     1      17.295  29.737  34.285  1.00  0.00    -0.022 A 
ATOM      2  C   UNL     1      17.239  30.041  32.914  1.00  0.00     0.058 A 
ATOM      3  C   UNL     1      18.045  29.352  31.987  1.00  0.00     0.161 A 
ATOM      4  C   UNL     1      18.922  28.360  32.444  1.00  0.00     0.157 A 
ATOM      5  C   UNL     1      18.996  28.063  33.810  1.00  0.00     0.051 A 
ATOM      6  C   UNL     1      18.193  28.747  34.726  1.00  0.00     0.012 A 
ENDROOT
BRANCH   1   7
ATOM      7  C   UNL     1      16.429  30.501  35.217  1.00  0.00     0.003 C 
ATOM      8  C   UNL     1      15.911  32.273  36.849  1.00  0.00     0.035 C 
ATOM      9  C   UNL     1      16.842  31.564  35.918  1.00  0.00    -0.030 C 
ENDBRANCH   1   7
BRANCH   3  10
ATOM     10  O   UNL     1      18.005  29.625  30.609  1.00  0.00    -0.493 OA
ATOM     11  C   UNL     1      18.476  30.829  30.012  1.00  0.00     0.278 C 
ENDBRANCH   3  10
BRANCH   4  12
ATOM     12  O   UNL     1      19.723  27.673  31.532  1.00  0.00    -0.504 OA
ATOM     13  H   UNL     1      19.537  27.700  30.537  1.00  0.00     0.293 HD
ENDBRANCH   4  12
TORSDOF 3
ENDMDL
MODEL 9
REMARK VINA RESULT:    -4.508      3.146      4.740
REMARK INTER + INTRA:          -5.340
REMARK INTER:                  -5.192
REMARK INTRA:                  -0.148
REMARK UNBOUND:                -0.173
REMARK SMILES CC=Cc1ccc(O)c(OC)c1
REMARK SMILES IDX 4 1 12 2 9 3 7 4 6 5 5 6 3 7 1 8 2 9 10 10 11 11 8 12
REMARK H PARENT 8 13
REMARK Flexibility Score: inf
ROOT
ATOM      1  C   UNL     1      18.360  28.582  30.935  1.00  0.00    -0.022 A 
ATOM      2  C   UNL     1      19.151  27.657  31.636  1.00  0.00     0.058 A 
ATOM      3  C   UNL     1      19.241  27.700  33.041  1.00  0.00     0.161 A 
ATOM      4  C   UNL     1      18.538  28.688  33.744  1.00  0.00     0.157 A 
ATOM      5  C   UNL     1      17.761  29.623  33.051  1.00  0.00     0.051 A 
ATOM      6  C   UNL     1      17.674  29.576  31.658  1.00  0.00     0.012 A 
ENDROOT
BRANCH   1   7
ATOM      7  C   UNL     1      18.311  28.494  29.454  1.00  0.00     0.003 C 
ATOM      8  C   UNL     1      17.850  27.412  27.289  1.00  0.00     0.035 C 
ATOM      9  C   UNL     1      17.855  27.429  28.784  1.00  0.00    -0.030 C 
ENDBRANCH   1   7
BRANCH   3  10
ATOM     10  O   UNL     1      20.015  26.783  33.772  1.00  0.00    -0.493 OA
ATOM     11  C   UNL     1      20.727  25.693  33.199  1.00  0.00     0.278 C 
ENDBRANCH   3  10
BRANCH   4  12
ATOM     12  O   UNL     1      18.621  28.737  35.134  1.00  0.00    -0.504 OA
ATOM     13  H   UNL     1      19.055  29.517  35.613  1.00  0.00     0.293 HD
ENDBRANCH   4  12
TORSDOF 3
ENDMDL
