MODEL 1
REMARK VINA RESULT:    -5.916      0.000      0.000
REMARK INTER + INTRA:          -7.043
REMARK INTER:                  -6.781
REMARK INTRA:                  -0.262
REMARK UNBOUND:                -0.262
REMARK SMILES O=c1c(-c2ccc(O)cc2)coc2c(O)c(O)ccc12
REMARK SMILES IDX 3 1 11 2 12 3 13 4 20 5 2 6 1 7 19 8 18 9 16 10 14 11 4 12
REMARK SMILES IDX 5 13 6 14 7 15 10 16 9 17 8 18 15 20 17 22
REMARK H PARENT 8 19 15 21 17 23
REMARK Flexibility Score: inf
ROOT
ATOM      1  C   UNL     1      29.375  24.559  -1.849  1.00  0.00     0.065 A 
ATOM      2  C   UNL     1      29.687  23.308  -1.293  1.00  0.00     0.208 A 
ATOM      3  O   UNL     1      29.393  22.184  -1.936  1.00  0.00    -0.459 OA
ATOM      4  C   UNL     1      28.798  22.166  -3.125  1.00  0.00     0.183 A 
ATOM      5  C   UNL     1      28.453  23.380  -3.762  1.00  0.00     0.069 A 
ATOM      6  C   UNL     1      28.755  24.589  -3.111  1.00  0.00     0.200 A 
ATOM      7  O   UNL     1      28.489  25.693  -3.664  1.00  0.00    -0.288 OA
ATOM      8  C   UNL     1      27.827  23.347  -5.021  1.00  0.00     0.020 A 
ATOM      9  C   UNL     1      27.547  22.124  -5.634  1.00  0.00     0.051 A 
ATOM     10  C   UNL     1      27.885  20.921  -5.007  1.00  0.00     0.161 A 
ATOM     11  C   UNL     1      28.512  20.938  -3.748  1.00  0.00     0.201 A 
ENDROOT
BRANCH   1  12
ATOM     12  C   UNL     1      29.708  25.801  -1.106  1.00  0.00    -0.011 A 
ATOM     13  C   UNL     1      28.727  26.472  -0.355  1.00  0.00     0.013 A 
ATOM     14  C   UNL     1      29.048  27.636   0.349  1.00  0.00     0.047 A 
ATOM     15  C   UNL     1      30.354  28.143   0.315  1.00  0.00     0.115 A 
ATOM     16  C   UNL     1      31.018  26.312  -1.130  1.00  0.00     0.013 A 
ATOM     17  C   UNL     1      31.337  27.477  -0.425  1.00  0.00     0.047 A 
BRANCH  15  18
ATOM     18  O   UNL     1      30.685  29.302   1.012  1.00  0.00    -0.508 OA
ATOM     19  H   UNL     1      29.979  29.860   1.478  1.00  0.00     0.293 HD
ENDBRANCH  15  18
ENDBRANCH   1  12
BRANCH  11  20
ATOM     20  O   UNL     1      28.847  19.730  -3.131  1.00  0.00    -0.502 OA
ATOM     21  H   UNL     1      29.779  19.338  -3.183  1.00  0.00     0.293 HD
ENDBRANCH  11  20
BRANCH  10  22
ATOM     22  O   UNL     1      27.590  19.719  -5.650  1.00  0.00    -0.504 OA
ATOM     23  H   UNL     1      27.587  19.634  -6.659  1.00  0.00     0.293 HD
ENDBRANCH  10  22
TORSDOF 4
ENDMDL
MODEL 2
REMARK VINA RESULT:    -5.641      1.140      2.471
REMARK INTER + INTRA:          -6.728
REMARK INTER:                  -6.508
REMARK INTRA:                  -0.220
REMARK UNBOUND:                -0.262
REMARK SMILES O=c1c(-c2ccc(O)cc2)coc2c(O)c(O)ccc12
REMARK SMILES IDX 3 1 11 2 12 3 13 4 20 5 2 6 1 7 19 8 18 9 16 10 14 11 4 12
REMARK SMILES IDX 5 13 6 14 7 15 10 16 9 17 8 18 15 20 17 22
REMARK H PARENT 8 19 15 21 17 23
REMARK Flexibility Score: inf
ROOT
ATOM      1  C   UNL     1      29.458  24.681  -1.835  1.00  0.00     0.065 A 
ATOM      2  C   UNL     1      28.715  24.774  -3.022  1.00  0.00     0.208 A 
ATOM      3  O   UNL     1      28.388  23.686  -3.709  1.00  0.00    -0.459 OA
ATOM      4  C   UNL     1      28.735  22.459  -3.329  1.00  0.00     0.183 A 
ATOM      5  C   UNL     1      29.480  22.271  -2.142  1.00  0.00     0.069 A 
ATOM      6  C   UNL     1      29.837  23.402  -1.388  1.00  0.00     0.200 A 
ATOM      7  O   UNL     1      30.477  23.269  -0.306  1.00  0.00    -0.288 OA
ATOM      8  C   UNL     1      29.836  20.969  -1.749  1.00  0.00     0.020 A 
ATOM      9  C   UNL     1      29.459  19.873  -2.527  1.00  0.00     0.051 A 
ATOM     10  C   UNL     1      28.723  20.054  -3.702  1.00  0.00     0.161 A 
ATOM     11  C   UNL     1      28.358  21.350  -4.108  1.00  0.00     0.201 A 
ENDROOT
BRANCH   1  12
ATOM     12  C   UNL     1      29.816  25.913  -1.088  1.00  0.00    -0.011 A 
ATOM     13  C   UNL     1      31.130  26.415  -1.121  1.00  0.00     0.013 A 
ATOM     14  C   UNL     1      31.460  27.581  -0.424  1.00  0.00     0.047 A 
ATOM     15  C   UNL     1      30.481  28.262   0.313  1.00  0.00     0.115 A 
ATOM     16  C   UNL     1      28.839  26.606  -0.353  1.00  0.00     0.013 A 
ATOM     17  C   UNL     1      29.171  27.773   0.344  1.00  0.00     0.047 A 
BRANCH  15  18
ATOM     18  O   UNL     1      30.798  29.424   1.012  1.00  0.00    -0.508 OA
ATOM     19  H   UNL     1      31.662  29.926   0.841  1.00  0.00     0.293 HD
ENDBRANCH  15  18
ENDBRANCH   1  12
BRANCH  11  20
ATOM     20  O   UNL     1      27.622  21.521  -5.282  1.00  0.00    -0.502 OA
ATOM     21  H   UNL     1      27.359  22.437  -5.626  1.00  0.00     0.293 HD
ENDBRANCH  11  20
BRANCH  10  22
ATOM     22  O   UNL     1      28.364  18.936  -4.453  1.00  0.00    -0.504 OA
ATOM     23  H   UNL     1      29.048  18.267  -4.785  1.00  0.00     0.293 HD
ENDBRANCH  10  22
TORSDOF 4
ENDMDL
MODEL 3
REMARK VINA RESULT:    -5.444      9.763     10.478
REMARK INTER + INTRA:          -6.501
REMARK INTER:                  -6.952
REMARK INTRA:                   0.451
REMARK UNBOUND:                -0.262
REMARK SMILES O=c1c(-c2ccc(O)cc2)coc2c(O)c(O)ccc12
REMARK SMILES IDX 3 1 11 2 12 3 13 4 20 5 2 6 1 7 19 8 18 9 16 10 14 11 4 12
REMARK SMILES IDX 5 13 6 14 7 15 10 16 9 17 8 18 15 20 17 22
REMARK H PARENT 8 19 15 21 17 23
REMARK Flexibility Score: inf
ROOT
ATOM      1  C   UNL     1      31.684  33.143  -2.709  1.00  0.00     0.065 A 
ATOM      2  C   UNL     1      31.899  33.239  -4.093  1.00  0.00     0.208 A 
ATOM      3  O   UNL     1      30.943  33.681  -4.902  1.00  0.00    -0.459 OA
ATOM      4  C   UNL     1      29.744  34.057  -4.468  1.00  0.00     0.183 A 
ATOM      5  C   UNL     1      29.442  33.999  -3.087  1.00  0.00     0.069 A 
ATOM      6  C   UNL     1      30.433  33.541  -2.202  1.00  0.00     0.200 A 
ATOM      7  O   UNL     1      30.209  33.504  -0.959  1.00  0.00    -0.288 OA
ATOM      8  C   UNL     1      28.172  34.403  -2.640  1.00  0.00     0.020 A 
ATOM      9  C   UNL     1      27.216  34.854  -3.553  1.00  0.00     0.051 A 
ATOM     10  C   UNL     1      27.510  34.912  -4.919  1.00  0.00     0.161 A 
ATOM     11  C   UNL     1      28.777  34.513  -5.381  1.00  0.00     0.201 A 
ENDROOT
BRANCH   1  12
ATOM     12  C   UNL     1      32.766  32.639  -1.826  1.00  0.00    -0.011 A 
ATOM     13  C   UNL     1      32.767  32.935  -0.451  1.00  0.00     0.013 A 
ATOM     14  C   UNL     1      33.783  32.451   0.377  1.00  0.00     0.047 A 
ATOM     15  C   UNL     1      34.810  31.661  -0.157  1.00  0.00     0.115 A 
ATOM     16  C   UNL     1      33.796  31.840  -2.352  1.00  0.00     0.013 A 
ATOM     17  C   UNL     1      34.812  31.356  -1.521  1.00  0.00     0.047 A 
BRANCH  15  18
ATOM     18  O   UNL     1      35.827  31.173   0.660  1.00  0.00    -0.508 OA
ATOM     19  H   UNL     1      36.738  31.615   0.692  1.00  0.00     0.293 HD
ENDBRANCH  15  18
ENDBRANCH   1  12
BRANCH  11  20
ATOM     20  O   UNL     1      29.061  34.575  -6.747  1.00  0.00    -0.502 OA
ATOM     21  H   UNL     1      29.962  34.876  -7.098  1.00  0.00     0.293 HD
ENDBRANCH  11  20
BRANCH  10  22
ATOM     22  O   UNL     1      26.532  35.368  -5.801  1.00  0.00    -0.504 OA
ATOM     23  H   UNL     1      25.718  34.814  -6.037  1.00  0.00     0.293 HD
ENDBRANCH  10  22
TORSDOF 4
ENDMDL
MODEL 4
REMARK VINA RESULT:    -5.388     10.437     12.110
REMARK INTER + INTRA:          -6.438
REMARK INTER:                  -6.460
REMARK INTRA:                   0.022
REMARK UNBOUND:                -0.262
REMARK SMILES O=c1c(-c2ccc(O)cc2)coc2c(O)c(O)ccc12
REMARK SMILES IDX 3 1 11 2 12 3 13 4 20 5 2 6 1 7 19 8 18 9 16 10 14 11 4 12
REMARK SMILES IDX 5 13 6 14 7 15 10 16 9 17 8 18 15 20 17 22
REMARK H PARENT 8 19 15 21 17 23
REMARK Flexibility Score: inf
ROOT
ATOM      1  C   UNL     1      26.444  34.958  -3.687  1.00  0.00     0.065 A 
ATOM      2  C   UNL     1      27.070  35.012  -4.942  1.00  0.00     0.208 A 
ATOM      3  O   UNL     1      28.368  34.756  -5.068  1.00  0.00    -0.459 OA
ATOM      4  C   UNL     1      29.145  34.438  -4.037  1.00  0.00     0.183 A 
ATOM      5  C   UNL     1      28.597  34.355  -2.736  1.00  0.00     0.069 A 
ATOM      6  C   UNL     1      27.226  34.613  -2.569  1.00  0.00     0.200 A 
ATOM      7  O   UNL     1      26.695  34.519  -1.426  1.00  0.00    -0.288 OA
ATOM      8  C   UNL     1      29.429  34.013  -1.656  1.00  0.00     0.020 A 
ATOM      9  C   UNL     1      30.786  33.761  -1.867  1.00  0.00     0.051 A 
ATOM     10  C   UNL     1      31.333  33.843  -3.151  1.00  0.00     0.161 A 
ATOM     11  C   UNL     1      30.513  34.182  -4.242  1.00  0.00     0.201 A 
ENDROOT
BRANCH   1  12
ATOM     12  C   UNL     1      24.994  35.255  -3.571  1.00  0.00    -0.011 A 
ATOM     13  C   UNL     1      24.466  36.459  -4.070  1.00  0.00     0.013 A 
ATOM     14  C   UNL     1      23.099  36.730  -3.967  1.00  0.00     0.047 A 
ATOM     15  C   UNL     1      22.240  35.798  -3.367  1.00  0.00     0.115 A 
ATOM     16  C   UNL     1      24.124  34.323  -2.978  1.00  0.00     0.013 A 
ATOM     17  C   UNL     1      22.756  34.596  -2.875  1.00  0.00     0.047 A 
BRANCH  15  18
ATOM     18  O   UNL     1      20.876  36.058  -3.259  1.00  0.00    -0.508 OA
ATOM     19  H   UNL     1      20.497  36.589  -2.484  1.00  0.00     0.293 HD
ENDBRANCH  15  18
ENDBRANCH   1  12
BRANCH  11  20
ATOM     20  O   UNL     1      31.069  34.261  -5.521  1.00  0.00    -0.502 OA
ATOM     21  H   UNL     1      31.923  33.775  -5.769  1.00  0.00     0.293 HD
ENDBRANCH  11  20
BRANCH  10  22
ATOM     22  O   UNL     1      32.692  33.584  -3.324  1.00  0.00    -0.504 OA
ATOM     23  H   UNL     1      33.256  33.156  -2.599  1.00  0.00     0.293 HD
ENDBRANCH  10  22
TORSDOF 4
ENDMDL
MODEL 5
REMARK VINA RESULT:    -5.354      9.685     11.566
REMARK INTER + INTRA:          -6.398
REMARK INTER:                  -6.138
REMARK INTRA:                  -0.261
REMARK UNBOUND:                -0.262
REMARK SMILES O=c1c(-c2ccc(O)cc2)coc2c(O)c(O)ccc12
REMARK SMILES IDX 3 1 11 2 12 3 13 4 20 5 2 6 1 7 19 8 18 9 16 10 14 11 4 12
REMARK SMILES IDX 5 13 6 14 7 15 10 16 9 17 8 18 15 20 17 22
REMARK H PARENT 8 19 15 21 17 23
REMARK Flexibility Score: inf
ROOT
ATOM      1  C   UNL     1      28.751  34.979  -3.504  1.00  0.00     0.065 A 
ATOM      2  C   UNL     1      29.308  34.583  -4.730  1.00  0.00     0.208 A 
ATOM      3  O   UNL     1      30.441  33.893  -4.773  1.00  0.00    -0.459 OA
ATOM      4  C   UNL     1      31.111  33.535  -3.681  1.00  0.00     0.183 A 
ATOM      5  C   UNL     1      30.619  33.885  -2.402  1.00  0.00     0.069 A 
ATOM      6  C   UNL     1      29.419  34.612  -2.322  1.00  0.00     0.200 A 
ATOM      7  O   UNL     1      28.933  34.916  -1.196  1.00  0.00    -0.288 OA
ATOM      8  C   UNL     1      31.335  33.497  -1.256  1.00  0.00     0.020 A 
ATOM      9  C   UNL     1      32.522  32.774  -1.381  1.00  0.00     0.051 A 
ATOM     10  C   UNL     1      33.013  32.425  -2.643  1.00  0.00     0.161 A 
ATOM     11  C   UNL     1      32.308  32.805  -3.799  1.00  0.00     0.201 A 
ENDROOT
BRANCH   1  12
ATOM     12  C   UNL     1      27.486  35.756  -3.484  1.00  0.00    -0.011 A 
ATOM     13  C   UNL     1      27.505  37.154  -3.326  1.00  0.00     0.013 A 
ATOM     14  C   UNL     1      26.313  37.882  -3.317  1.00  0.00     0.047 A 
ATOM     15  C   UNL     1      25.084  37.225  -3.469  1.00  0.00     0.115 A 
ATOM     16  C   UNL     1      26.250  35.105  -3.643  1.00  0.00     0.013 A 
ATOM     17  C   UNL     1      25.057  35.836  -3.633  1.00  0.00     0.047 A 
BRANCH  15  18
ATOM     18  O   UNL     1      23.890  37.940  -3.461  1.00  0.00    -0.508 OA
ATOM     19  H   UNL     1      23.531  38.362  -2.613  1.00  0.00     0.293 HD
ENDBRANCH  15  18
ENDBRANCH   1  12
BRANCH  11  20
ATOM     20  O   UNL     1      32.806  32.452  -5.055  1.00  0.00    -0.502 OA
ATOM     21  H   UNL     1      33.794  32.496  -5.276  1.00  0.00     0.293 HD
ENDBRANCH  11  20
BRANCH  10  22
ATOM     22  O   UNL     1      34.202  31.702  -2.729  1.00  0.00    -0.504 OA
ATOM     23  H   UNL     1      34.234  30.699  -2.593  1.00  0.00     0.293 HD
ENDBRANCH  10  22
TORSDOF 4
ENDMDL
MODEL 6
REMARK VINA RESULT:    -5.228      9.610     10.891
REMARK INTER + INTRA:          -6.254
REMARK INTER:                  -6.270
REMARK INTRA:                   0.016
REMARK UNBOUND:                -0.262
REMARK SMILES O=c1c(-c2ccc(O)cc2)coc2c(O)c(O)ccc12
REMARK SMILES IDX 3 1 11 2 12 3 13 4 20 5 2 6 1 7 19 8 18 9 16 10 14 11 4 12
REMARK SMILES IDX 5 13 6 14 7 15 10 16 9 17 8 18 15 20 17 22
REMARK H PARENT 8 19 15 21 17 23
REMARK Flexibility Score: inf
ROOT
ATOM      1  C   UNL     1      31.062  33.789  -2.720  1.00  0.00     0.065 A 
ATOM      2  C   UNL     1      31.972  33.229  -3.631  1.00  0.00     0.208 A 
ATOM      3  O   UNL     1      33.005  32.510  -3.208  1.00  0.00    -0.459 OA
ATOM      4  C   UNL     1      33.243  32.275  -1.921  1.00  0.00     0.183 A 
ATOM      5  C   UNL     1      32.374  32.795  -0.934  1.00  0.00     0.069 A 
ATOM      6  C   UNL     1      31.267  33.556  -1.348  1.00  0.00     0.200 A 
ATOM      7  O   UNL     1      30.453  34.012  -0.497  1.00  0.00    -0.288 OA
ATOM      8  C   UNL     1      32.635  32.535   0.423  1.00  0.00     0.020 A 
ATOM      9  C   UNL     1      33.744  31.773   0.792  1.00  0.00     0.051 A 
ATOM     10  C   UNL     1      34.606  31.256  -0.180  1.00  0.00     0.161 A 
ATOM     11  C   UNL     1      34.359  31.506  -1.542  1.00  0.00     0.201 A 
ENDROOT
BRANCH   1  12
ATOM     12  C   UNL     1      29.919  34.595  -3.219  1.00  0.00    -0.011 A 
ATOM     13  C   UNL     1      29.682  35.889  -2.720  1.00  0.00     0.013 A 
ATOM     14  C   UNL     1      28.610  36.647  -3.200  1.00  0.00     0.047 A 
ATOM     15  C   UNL     1      27.762  36.124  -4.186  1.00  0.00     0.115 A 
ATOM     16  C   UNL     1      29.068  34.081  -4.213  1.00  0.00     0.013 A 
ATOM     17  C   UNL     1      27.996  34.841  -4.691  1.00  0.00     0.047 A 
BRANCH  15  18
ATOM     18  O   UNL     1      26.691  36.870  -4.670  1.00  0.00    -0.508 OA
ATOM     19  H   UNL     1      26.101  37.413  -4.051  1.00  0.00     0.293 HD
ENDBRANCH  15  18
ENDBRANCH   1  12
BRANCH  11  20
ATOM     20  O   UNL     1      35.226  30.986  -2.505  1.00  0.00    -0.502 OA
ATOM     21  H   UNL     1      36.206  30.818  -2.314  1.00  0.00     0.293 HD
ENDBRANCH  11  20
BRANCH  10  22
ATOM     22  O   UNL     1      35.704  30.498   0.225  1.00  0.00    -0.504 OA
ATOM     23  H   UNL     1      35.764  30.088   1.149  1.00  0.00     0.293 HD
ENDBRANCH  10  22
TORSDOF 4
ENDMDL
MODEL 7
REMARK VINA RESULT:    -5.058      2.340      7.669
REMARK INTER + INTRA:          -6.060
REMARK INTER:                  -5.850
REMARK INTRA:                  -0.210
REMARK UNBOUND:                -0.262
REMARK SMILES O=c1c(-c2ccc(O)cc2)coc2c(O)c(O)ccc12
REMARK SMILES IDX 3 1 11 2 12 3 13 4 20 5 2 6 1 7 19 8 18 9 16 10 14 11 4 12
REMARK SMILES IDX 5 13 6 14 7 15 10 16 9 17 8 18 15 20 17 22
REMARK H PARENT 8 19 15 21 17 23
REMARK Flexibility Score: inf
ROOT
ATOM      1  C   UNL     1      30.464  25.158  -0.376  1.00  0.00     0.065 A 
ATOM      2  C   UNL     1      29.890  26.403  -0.673  1.00  0.00     0.208 A 
ATOM      3  O   UNL     1      30.555  27.531  -0.449  1.00  0.00    -0.459 OA
ATOM      4  C   UNL     1      31.783  27.558   0.059  1.00  0.00     0.183 A 
ATOM      5  C   UNL     1      32.441  26.348   0.382  1.00  0.00     0.069 A 
ATOM      6  C   UNL     1      31.768  25.136   0.153  1.00  0.00     0.200 A 
ATOM      7  O   UNL     1      32.336  24.035   0.401  1.00  0.00    -0.288 OA
ATOM      8  C   UNL     1      33.742  26.390   0.915  1.00  0.00     0.020 A 
ATOM      9  C   UNL     1      34.376  27.615   1.125  1.00  0.00     0.051 A 
ATOM     10  C   UNL     1      33.729  28.814   0.807  1.00  0.00     0.161 A 
ATOM     11  C   UNL     1      32.429  28.789   0.273  1.00  0.00     0.201 A 
ENDROOT
BRANCH   1  12
ATOM     12  C   UNL     1      29.697  23.911  -0.629  1.00  0.00    -0.011 A 
ATOM     13  C   UNL     1      29.157  23.172   0.439  1.00  0.00     0.013 A 
ATOM     14  C   UNL     1      28.428  22.005   0.196  1.00  0.00     0.047 A 
ATOM     15  C   UNL     1      28.226  21.562  -1.119  1.00  0.00     0.115 A 
ATOM     16  C   UNL     1      29.484  23.464  -1.944  1.00  0.00     0.013 A 
ATOM     17  C   UNL     1      28.754  22.295  -2.186  1.00  0.00     0.047 A 
BRANCH  15  18
ATOM     18  O   UNL     1      27.502  20.400  -1.373  1.00  0.00    -0.508 OA
ATOM     19  H   UNL     1      27.895  19.638  -1.913  1.00  0.00     0.293 HD
ENDBRANCH  15  18
ENDBRANCH   1  12
BRANCH  11  20
ATOM     20  O   UNL     1      31.792  29.991  -0.041  1.00  0.00    -0.502 OA
ATOM     21  H   UNL     1      32.191  30.661  -0.688  1.00  0.00     0.293 HD
ENDBRANCH  11  20
BRANCH  10  22
ATOM     22  O   UNL     1      34.394  30.019   1.030  1.00  0.00    -0.504 OA
ATOM     23  H   UNL     1      34.631  30.651   0.275  1.00  0.00     0.293 HD
ENDBRANCH  10  22
TORSDOF 4
ENDMDL
MODEL 8
REMARK VINA RESULT:    -4.994      9.716     12.157
REMARK INTER + INTRA:          -5.986
REMARK INTER:                  -5.737
REMARK INTRA:                  -0.250
REMARK UNBOUND:                -0.262
REMARK SMILES O=c1c(-c2ccc(O)cc2)coc2c(O)c(O)ccc12
REMARK SMILES IDX 3 1 11 2 12 3 13 4 20 5 2 6 1 7 19 8 18 9 16 10 14 11 4 12
REMARK SMILES IDX 5 13 6 14 7 15 10 16 9 17 8 18 15 20 17 22
REMARK H PARENT 8 19 15 21 17 23
REMARK Flexibility Score: inf
ROOT
ATOM      1  C   UNL     1      29.172  34.913  -3.028  1.00  0.00     0.065 A 
ATOM      2  C   UNL     1      29.203  36.241  -3.481  1.00  0.00     0.208 A 
ATOM      3  O   UNL     1      28.090  36.961  -3.556  1.00  0.00    -0.459 OA
ATOM      4  C   UNL     1      26.896  36.486  -3.213  1.00  0.00     0.183 A 
ATOM      5  C   UNL     1      26.772  35.159  -2.740  1.00  0.00     0.069 A 
ATOM      6  C   UNL     1      27.932  34.370  -2.644  1.00  0.00     0.200 A 
ATOM      7  O   UNL     1      27.865  33.190  -2.197  1.00  0.00    -0.288 OA
ATOM      8  C   UNL     1      25.506  34.669  -2.378  1.00  0.00     0.020 A 
ATOM      9  C   UNL     1      24.379  35.487  -2.487  1.00  0.00     0.051 A 
ATOM     10  C   UNL     1      24.497  36.799  -2.955  1.00  0.00     0.161 A 
ATOM     11  C   UNL     1      25.757  37.304  -3.320  1.00  0.00     0.201 A 
ENDROOT
BRANCH   1  12
ATOM     12  C   UNL     1      30.430  34.126  -2.961  1.00  0.00    -0.011 A 
ATOM     13  C   UNL     1      31.117  33.976  -1.743  1.00  0.00     0.013 A 
ATOM     14  C   UNL     1      32.296  33.226  -1.683  1.00  0.00     0.047 A 
ATOM     15  C   UNL     1      32.801  32.614  -2.838  1.00  0.00     0.115 A 
ATOM     16  C   UNL     1      30.939  33.502  -4.113  1.00  0.00     0.013 A 
ATOM     17  C   UNL     1      32.119  32.753  -4.051  1.00  0.00     0.047 A 
BRANCH  15  18
ATOM     18  O   UNL     1      33.974  31.866  -2.789  1.00  0.00    -0.508 OA
ATOM     19  H   UNL     1      34.767  32.158  -2.231  1.00  0.00     0.293 HD
ENDBRANCH  15  18
ENDBRANCH   1  12
BRANCH  11  20
ATOM     20  O   UNL     1      25.863  38.616  -3.786  1.00  0.00    -0.502 OA
ATOM     21  H   UNL     1      25.141  39.307  -3.622  1.00  0.00     0.293 HD
ENDBRANCH  11  20
BRANCH  10  22
ATOM     22  O   UNL     1      23.350  37.587  -3.050  1.00  0.00    -0.504 OA
ATOM     23  H   UNL     1      23.194  38.221  -3.824  1.00  0.00     0.293 HD
ENDBRANCH  10  22
TORSDOF 4
ENDMDL
