MODEL 1
REMARK VINA RESULT:    -2.296      0.000      0.000
REMARK INTER + INTRA:          -3.225
REMARK INTER:                  -3.101
REMARK INTRA:                  -0.124
REMARK UNBOUND:                -0.124
REMARK SMILES [NH3+]CCCC[C@H]([NH3+])C(=O)[O-]
REMARK SMILES IDX 4 1 3 2 2 3 1 4 5 8 6 9 7 10 8 14 9 15 10 16
REMARK H PARENT 1 5 1 6 1 7 7 11 7 12 7 13
REMARK Flexibility Score: inf
ROOT
ATOM      1  C   UNL     1      19.934  14.096 -19.894  1.00  0.00     0.012 C 
ENDROOT
BRANCH   1   2
ATOM      2  C   UNL     1      19.174  13.995 -21.227  1.00  0.00     0.061 C 
BRANCH   2   3
ATOM      3  C   UNL     1      20.085  13.575 -22.393  1.00  0.00     0.258 C 
BRANCH   3   4
ATOM      4  N   UNL     1      21.500  13.571 -22.012  1.00  0.00    -0.358 N 
ATOM      5  H   UNL     1      22.103  13.426 -22.854  1.00  0.00     0.344 HD
ATOM      6  H   UNL     1      21.752  14.470 -21.544  1.00  0.00     0.344 HD
ATOM      7  H   UNL     1      21.667  12.789 -21.339  1.00  0.00     0.344 HD
ENDBRANCH   3   4
ENDBRANCH   2   3
ENDBRANCH   1   2
BRANCH   1   8
ATOM      8  C   UNL     1      19.692  12.892 -18.962  1.00  0.00     0.072 C 
BRANCH   8   9
ATOM      9  C   UNL     1      20.967  12.390 -18.238  1.00  0.00     0.227 C 
BRANCH   9  10
ATOM     10  N   UNL     1      21.128  13.078 -16.951  1.00  0.00    -0.350 N 
ATOM     11  H   UNL     1      21.358  12.385 -16.202  1.00  0.00     0.345 HD
ATOM     12  H   UNL     1      21.893  13.790 -17.008  1.00  0.00     0.345 HD
ATOM     13  H   UNL     1      20.234  13.555 -16.688  1.00  0.00     0.345 HD
ENDBRANCH   9  10
BRANCH   9  14
ATOM     14  C   UNL     1      22.201  12.599 -19.076  1.00  0.00     0.099 C 
ATOM     15  O   UNL     1      22.663  11.652 -19.766  1.00  0.00    -0.544 OA
ATOM     16  O   UNL     1      22.862  13.821 -19.062  1.00  0.00    -0.544 OA
ENDBRANCH   9  14
ENDBRANCH   8   9
ENDBRANCH   1   8
TORSDOF 7
ENDMDL
MODEL 2
REMARK VINA RESULT:    -2.284      1.222      3.656
REMARK INTER + INTRA:          -3.209
REMARK INTER:                  -3.141
REMARK INTRA:                  -0.067
REMARK UNBOUND:                -0.124
REMARK SMILES [NH3+]CCCC[C@H]([NH3+])C(=O)[O-]
REMARK SMILES IDX 4 1 3 2 2 3 1 4 5 8 6 9 7 10 8 14 9 15 10 16
REMARK H PARENT 1 5 1 6 1 7 7 11 7 12 7 13
REMARK Flexibility Score: inf
ROOT
ATOM      1  C   UNL     1      19.943  12.391 -18.863  1.00  0.00     0.012 C 
ENDROOT
BRANCH   1   2
ATOM      2  C   UNL     1      19.072  12.461 -17.597  1.00  0.00     0.061 C 
BRANCH   2   3
ATOM      3  C   UNL     1      19.867  12.916 -16.361  1.00  0.00     0.258 C 
BRANCH   3   4
ATOM      4  N   UNL     1      21.287  13.111 -16.661  1.00  0.00    -0.358 N 
ATOM      5  H   UNL     1      21.819  12.227 -16.492  1.00  0.00     0.344 HD
ATOM      6  H   UNL     1      21.410  13.417 -17.652  1.00  0.00     0.344 HD
ATOM      7  H   UNL     1      21.666  13.857 -16.035  1.00  0.00     0.344 HD
ENDBRANCH   3   4
ENDBRANCH   2   3
ENDBRANCH   1   2
BRANCH   1   8
ATOM      8  C   UNL     1      19.663  13.534 -19.858  1.00  0.00     0.072 C 
BRANCH   8   9
ATOM      9  C   UNL     1      20.941  14.186 -20.445  1.00  0.00     0.227 C 
BRANCH   9  10
ATOM     10  N   UNL     1      21.305  13.542 -21.714  1.00  0.00    -0.350 N 
ATOM     11  H   UNL     1      21.267  14.242 -22.492  1.00  0.00     0.345 HD
ATOM     12  H   UNL     1      22.270  13.140 -21.659  1.00  0.00     0.345 HD
ATOM     13  H   UNL     1      20.626  12.777 -21.933  1.00  0.00     0.345 HD
ENDBRANCH   9  10
BRANCH   9  14
ATOM     14  C   UNL     1      22.100  14.095 -19.487  1.00  0.00     0.099 C 
ATOM     15  O   UNL     1      22.413  15.090 -18.780  1.00  0.00    -0.544 OA
ATOM     16  O   UNL     1      22.859  12.934 -19.408  1.00  0.00    -0.544 OA
ENDBRANCH   9  14
ENDBRANCH   8   9
ENDBRANCH   1   8
TORSDOF 7
ENDMDL
MODEL 3
REMARK VINA RESULT:    -2.268      2.855      3.658
REMARK INTER + INTRA:          -3.187
REMARK INTER:                  -3.598
REMARK INTRA:                   0.411
REMARK UNBOUND:                -0.124
REMARK SMILES [NH3+]CCCC[C@H]([NH3+])C(=O)[O-]
REMARK SMILES IDX 4 1 3 2 2 3 1 4 5 8 6 9 7 10 8 14 9 15 10 16
REMARK H PARENT 1 5 1 6 1 7 7 11 7 12 7 13
REMARK Flexibility Score: inf
ROOT
ATOM      1  C   UNL     1      21.587  14.468 -18.349  1.00  0.00     0.012 C 
ENDROOT
BRANCH   1   2
ATOM      2  C   UNL     1      22.974  14.760 -18.947  1.00  0.00     0.061 C 
BRANCH   2   3
ATOM      3  C   UNL     1      23.522  16.132 -18.517  1.00  0.00     0.258 C 
BRANCH   3   4
ATOM      4  N   UNL     1      23.720  17.027 -19.659  1.00  0.00    -0.358 N 
ATOM      5  H   UNL     1      24.438  17.753 -19.432  1.00  0.00     0.344 HD
ATOM      6  H   UNL     1      24.016  16.483 -20.500  1.00  0.00     0.344 HD
ATOM      7  H   UNL     1      22.816  17.504 -19.876  1.00  0.00     0.344 HD
ENDBRANCH   3   4
ENDBRANCH   2   3
ENDBRANCH   1   2
BRANCH   1   8
ATOM      8  C   UNL     1      21.230  12.968 -18.341  1.00  0.00     0.072 C 
BRANCH   8   9
ATOM      9  C   UNL     1      20.998  12.368 -19.750  1.00  0.00     0.227 C 
BRANCH   9  10
ATOM     10  N   UNL     1      22.233  11.750 -20.251  1.00  0.00    -0.350 N 
ATOM     11  H   UNL     1      23.016  11.922 -19.578  1.00  0.00     0.345 HD
ATOM     12  H   UNL     1      22.104  10.718 -20.372  1.00  0.00     0.345 HD
ATOM     13  H   UNL     1      22.496  12.173 -21.170  1.00  0.00     0.345 HD
ENDBRANCH   9  10
BRANCH   9  14
ATOM     14  C   UNL     1      20.529  13.414 -20.728  1.00  0.00     0.099 C 
ATOM     15  O   UNL     1      19.494  14.088 -20.482  1.00  0.00    -0.544 OA
ATOM     16  O   UNL     1      21.206  13.612 -21.925  1.00  0.00    -0.544 OA
ENDBRANCH   9  14
ENDBRANCH   8   9
ENDBRANCH   1   8
TORSDOF 7
ENDMDL
MODEL 4
REMARK VINA RESULT:    -2.250      1.681      2.031
REMARK INTER + INTRA:          -3.163
REMARK INTER:                  -3.266
REMARK INTRA:                   0.103
REMARK UNBOUND:                -0.124
REMARK SMILES [NH3+]CCCC[C@H]([NH3+])C(=O)[O-]
REMARK SMILES IDX 4 1 3 2 2 3 1 4 5 8 6 9 7 10 8 14 9 15 10 16
REMARK H PARENT 1 5 1 6 1 7 7 11 7 12 7 13
REMARK Flexibility Score: inf
ROOT
ATOM      1  C   UNL     1      19.837  12.889 -19.181  1.00  0.00     0.012 C 
ENDROOT
BRANCH   1   2
ATOM      2  C   UNL     1      19.776  14.103 -20.124  1.00  0.00     0.061 C 
BRANCH   2   3
ATOM      3  C   UNL     1      19.731  13.694 -21.606  1.00  0.00     0.258 C 
BRANCH   3   4
ATOM      4  N   UNL     1      21.067  13.653 -22.206  1.00  0.00    -0.358 N 
ATOM      5  H   UNL     1      21.482  14.612 -22.236  1.00  0.00     0.344 HD
ATOM      6  H   UNL     1      21.689  13.012 -21.663  1.00  0.00     0.344 HD
ATOM      7  H   UNL     1      20.989  13.288 -23.182  1.00  0.00     0.344 HD
ENDBRANCH   3   4
ENDBRANCH   2   3
ENDBRANCH   1   2
BRANCH   1   8
ATOM      8  C   UNL     1      21.201  12.729 -18.481  1.00  0.00     0.072 C 
BRANCH   8   9
ATOM      9  C   UNL     1      22.414  13.077 -19.380  1.00  0.00     0.227 C 
BRANCH   9  10
ATOM     10  N   UNL     1      23.357  11.952 -19.422  1.00  0.00    -0.350 N 
ATOM     11  H   UNL     1      22.846  11.067 -19.649  1.00  0.00     0.345 HD
ATOM     12  H   UNL     1      24.095  12.117 -20.146  1.00  0.00     0.345 HD
ATOM     13  H   UNL     1      23.812  11.833 -18.488  1.00  0.00     0.345 HD
ENDBRANCH   9  10
BRANCH   9  14
ATOM     14  C   UNL     1      23.129  14.311 -18.894  1.00  0.00     0.099 C 
ATOM     15  O   UNL     1      24.387  14.324 -18.822  1.00  0.00    -0.544 OA
ATOM     16  O   UNL     1      22.409  15.425 -18.481  1.00  0.00    -0.544 OA
ENDBRANCH   9  14
ENDBRANCH   8   9
ENDBRANCH   1   8
TORSDOF 7
ENDMDL
MODEL 5
REMARK VINA RESULT:    -2.187      1.980      2.294
REMARK INTER + INTRA:          -3.077
REMARK INTER:                  -3.277
REMARK INTRA:                   0.200
REMARK UNBOUND:                -0.124
REMARK SMILES [NH3+]CCCC[C@H]([NH3+])C(=O)[O-]
REMARK SMILES IDX 4 1 3 2 2 3 1 4 5 8 6 9 7 10 8 14 9 15 10 16
REMARK H PARENT 1 5 1 6 1 7 7 11 7 12 7 13
REMARK Flexibility Score: inf
ROOT
ATOM      1  C   UNL     1      21.616  14.734 -20.107  1.00  0.00     0.012 C 
ENDROOT
BRANCH   1   2
ATOM      2  C   UNL     1      20.099  14.589 -20.318  1.00  0.00     0.061 C 
BRANCH   2   3
ATOM      3  C   UNL     1      19.755  13.839 -21.616  1.00  0.00     0.258 C 
BRANCH   3   4
ATOM      4  N   UNL     1      20.946  13.556 -22.420  1.00  0.00    -0.358 N 
ATOM      5  H   UNL     1      21.689  14.267 -22.232  1.00  0.00     0.344 HD
ATOM      6  H   UNL     1      21.307  12.598 -22.209  1.00  0.00     0.344 HD
ATOM      7  H   UNL     1      20.689  13.596 -23.432  1.00  0.00     0.344 HD
ENDBRANCH   3   4
ENDBRANCH   2   3
ENDBRANCH   1   2
BRANCH   1   8
ATOM      8  C   UNL     1      22.093  14.216 -18.736  1.00  0.00     0.072 C 
BRANCH   8   9
ATOM      9  C   UNL     1      21.907  12.690 -18.539  1.00  0.00     0.227 C 
BRANCH   9  10
ATOM     10  N   UNL     1      22.205  11.975 -19.787  1.00  0.00    -0.350 N 
ATOM     11  H   UNL     1      21.546  11.170 -19.903  1.00  0.00     0.345 HD
ATOM     12  H   UNL     1      22.112  12.616 -20.609  1.00  0.00     0.345 HD
ATOM     13  H   UNL     1      23.179  11.595 -19.756  1.00  0.00     0.345 HD
ENDBRANCH   9  10
BRANCH   9  14
ATOM     14  C   UNL     1      20.509  12.354 -18.091  1.00  0.00     0.099 C 
ATOM     15  O   UNL     1      19.755  11.672 -18.836  1.00  0.00    -0.544 OA
ATOM     16  O   UNL     1      20.025  12.828 -16.878  1.00  0.00    -0.544 OA
ENDBRANCH   9  14
ENDBRANCH   8   9
ENDBRANCH   1   8
TORSDOF 7
ENDMDL
MODEL 6
REMARK VINA RESULT:    -2.142      1.806      3.214
REMARK INTER + INTRA:          -3.017
REMARK INTER:                  -3.271
REMARK INTRA:                   0.254
REMARK UNBOUND:                -0.124
REMARK SMILES [NH3+]CCCC[C@H]([NH3+])C(=O)[O-]
REMARK SMILES IDX 4 1 3 2 2 3 1 4 5 8 6 9 7 10 8 14 9 15 10 16
REMARK H PARENT 1 5 1 6 1 7 7 11 7 12 7 13
REMARK Flexibility Score: inf
ROOT
ATOM      1  C   UNL     1      19.872  13.522 -19.684  1.00  0.00     0.012 C 
ENDROOT
BRANCH   1   2
ATOM      2  C   UNL     1      19.928  12.350 -18.690  1.00  0.00     0.061 C 
BRANCH   2   3
ATOM      3  C   UNL     1      19.609  12.785 -17.249  1.00  0.00     0.258 C 
BRANCH   3   4
ATOM      4  N   UNL     1      20.822  12.967 -16.448  1.00  0.00    -0.358 N 
ATOM      5  H   UNL     1      21.235  12.040 -16.198  1.00  0.00     0.344 HD
ATOM      6  H   UNL     1      21.521  13.539 -16.972  1.00  0.00     0.344 HD
ATOM      7  H   UNL     1      20.574  13.473 -15.568  1.00  0.00     0.344 HD
ENDBRANCH   3   4
ENDBRANCH   2   3
ENDBRANCH   1   2
BRANCH   1   8
ATOM      8  C   UNL     1      21.264  14.022 -20.116  1.00  0.00     0.072 C 
BRANCH   8   9
ATOM      9  C   UNL     1      22.364  13.830 -19.042  1.00  0.00     0.227 C 
BRANCH   9  10
ATOM     10  N   UNL     1      23.088  15.089 -18.823  1.00  0.00    -0.350 N 
ATOM     11  H   UNL     1      23.465  15.446 -19.732  1.00  0.00     0.345 HD
ATOM     12  H   UNL     1      22.454  15.810 -18.406  1.00  0.00     0.345 HD
ATOM     13  H   UNL     1      23.896  14.928 -18.178  1.00  0.00     0.345 HD
ENDBRANCH   9  10
BRANCH   9  14
ATOM     14  C   UNL     1      23.340  12.752 -19.433  1.00  0.00     0.099 C 
ATOM     15  O   UNL     1      24.579  12.979 -19.396  1.00  0.00    -0.544 OA
ATOM     16  O   UNL     1      22.884  11.517 -19.877  1.00  0.00    -0.544 OA
ENDBRANCH   9  14
ENDBRANCH   8   9
ENDBRANCH   1   8
TORSDOF 7
ENDMDL
MODEL 7
REMARK VINA RESULT:    -2.048      2.215      3.833
REMARK INTER + INTRA:          -2.890
REMARK INTER:                  -3.171
REMARK INTRA:                   0.280
REMARK UNBOUND:                -0.124
REMARK SMILES [NH3+]CCCC[C@H]([NH3+])C(=O)[O-]
REMARK SMILES IDX 4 1 3 2 2 3 1 4 5 8 6 9 7 10 8 14 9 15 10 16
REMARK H PARENT 1 5 1 6 1 7 7 11 7 12 7 13
REMARK Flexibility Score: inf
ROOT
ATOM      1  C   UNL     1      21.690  11.968 -18.405  1.00  0.00     0.012 C 
ENDROOT
BRANCH   1   2
ATOM      2  C   UNL     1      20.152  11.965 -18.401  1.00  0.00     0.061 C 
BRANCH   2   3
ATOM      3  C   UNL     1      19.567  12.675 -17.168  1.00  0.00     0.258 C 
BRANCH   3   4
ATOM      4  N   UNL     1      20.604  13.049 -16.204  1.00  0.00    -0.358 N 
ATOM      5  H   UNL     1      20.519  12.471 -15.337  1.00  0.00     0.344 HD
ATOM      6  H   UNL     1      21.552  12.925 -16.624  1.00  0.00     0.344 HD
ATOM      7  H   UNL     1      20.484  14.056 -15.951  1.00  0.00     0.344 HD
ENDBRANCH   3   4
ENDBRANCH   2   3
ENDBRANCH   1   2
BRANCH   1   8
ATOM      8  C   UNL     1      22.295  12.545 -19.700  1.00  0.00     0.072 C 
BRANCH   8   9
ATOM      9  C   UNL     1      21.950  14.034 -19.948  1.00  0.00     0.227 C 
BRANCH   9  10
ATOM     10  N   UNL     1      21.956  14.777 -18.682  1.00  0.00    -0.350 N 
ATOM     11  H   UNL     1      21.399  15.658 -18.781  1.00  0.00     0.345 HD
ATOM     12  H   UNL     1      21.547  14.197 -17.913  1.00  0.00     0.345 HD
ATOM     13  H   UNL     1      22.937  15.041 -18.428  1.00  0.00     0.345 HD
ENDBRANCH   9  10
BRANCH   9  14
ATOM     14  C   UNL     1      20.607  14.189 -20.613  1.00  0.00     0.099 C 
ATOM     15  O   UNL     1      19.665  14.764 -20.005  1.00  0.00    -0.544 OA
ATOM     16  O   UNL     1      20.383  13.663 -21.879  1.00  0.00    -0.544 OA
ENDBRANCH   9  14
ENDBRANCH   8   9
ENDBRANCH   1   8
TORSDOF 7
ENDMDL
MODEL 8
REMARK VINA RESULT:    -2.014      2.505      3.380
REMARK INTER + INTRA:          -2.845
REMARK INTER:                  -2.884
REMARK INTRA:                   0.039
REMARK UNBOUND:                -0.124
REMARK SMILES [NH3+]CCCC[C@H]([NH3+])C(=O)[O-]
REMARK SMILES IDX 4 1 3 2 2 3 1 4 5 8 6 9 7 10 8 14 9 15 10 16
REMARK H PARENT 1 5 1 6 1 7 7 11 7 12 7 13
REMARK Flexibility Score: inf
ROOT
ATOM      1  C   UNL     1      22.021  13.066 -20.664  1.00  0.00     0.012 C 
ENDROOT
BRANCH   1   2
ATOM      2  C   UNL     1      22.300  11.655 -20.120  1.00  0.00     0.061 C 
BRANCH   2   3
ATOM      3  C   UNL     1      23.750  11.489 -19.633  1.00  0.00     0.258 C 
BRANCH   3   4
ATOM      4  N   UNL     1      23.999  10.151 -19.091  1.00  0.00    -0.358 N 
ATOM      5  H   UNL     1      24.737   9.665 -19.650  1.00  0.00     0.344 HD
ATOM      6  H   UNL     1      24.292  10.213 -18.091  1.00  0.00     0.344 HD
ATOM      7  H   UNL     1      23.116   9.595 -19.143  1.00  0.00     0.344 HD
ENDBRANCH   3   4
ENDBRANCH   2   3
ENDBRANCH   1   2
BRANCH   1   8
ATOM      8  C   UNL     1      20.718  13.682 -20.118  1.00  0.00     0.072 C 
BRANCH   8   9
ATOM      9  C   UNL     1      20.805  14.134 -18.638  1.00  0.00     0.227 C 
BRANCH   9  10
ATOM     10  N   UNL     1      22.148  14.650 -18.341  1.00  0.00    -0.350 N 
ATOM     11  H   UNL     1      22.740  13.889 -17.933  1.00  0.00     0.345 HD
ATOM     12  H   UNL     1      22.604  15.010 -19.212  1.00  0.00     0.345 HD
ATOM     13  H   UNL     1      22.085  15.423 -17.640  1.00  0.00     0.345 HD
ENDBRANCH   9  10
BRANCH   9  14
ATOM     14  C   UNL     1      20.481  13.006 -17.694  1.00  0.00     0.099 C 
ATOM     15  O   UNL     1      19.679  12.100 -18.045  1.00  0.00    -0.544 OA
ATOM     16  O   UNL     1      21.028  12.978 -16.417  1.00  0.00    -0.544 OA
ENDBRANCH   9  14
ENDBRANCH   8   9
ENDBRANCH   1   8
TORSDOF 7
ENDMDL
MODEL 9
REMARK VINA RESULT:    -1.647      1.980      2.643
REMARK INTER + INTRA:          -2.349
REMARK INTER:                  -3.044
REMARK INTRA:                   0.696
REMARK UNBOUND:                -0.124
REMARK SMILES [NH3+]CCCC[C@H]([NH3+])C(=O)[O-]
REMARK SMILES IDX 4 1 3 2 2 3 1 4 5 8 6 9 7 10 8 14 9 15 10 16
REMARK H PARENT 1 5 1 6 1 7 7 11 7 12 7 13
REMARK Flexibility Score: inf
ROOT
ATOM      1  C   UNL     1      20.999  14.610 -19.785  1.00  0.00     0.012 C 
ENDROOT
BRANCH   1   2
ATOM      2  C   UNL     1      21.800  15.056 -18.550  1.00  0.00     0.061 C 
BRANCH   2   3
ATOM      3  C   UNL     1      23.237  15.478 -18.903  1.00  0.00     0.258 C 
BRANCH   3   4
ATOM      4  N   UNL     1      24.134  14.327 -19.027  1.00  0.00    -0.358 N 
ATOM      5  H   UNL     1      24.983  14.462 -18.432  1.00  0.00     0.344 HD
ATOM      6  H   UNL     1      23.640  13.450 -18.749  1.00  0.00     0.344 HD
ATOM      7  H   UNL     1      24.433  14.237 -20.024  1.00  0.00     0.344 HD
ENDBRANCH   3   4
ENDBRANCH   2   3
ENDBRANCH   1   2
BRANCH   1   8
ATOM      8  C   UNL     1      20.138  13.357 -19.532  1.00  0.00     0.072 C 
BRANCH   8   9
ATOM      9  C   UNL     1      20.925  12.160 -18.942  1.00  0.00     0.227 C 
BRANCH   9  10
ATOM     10  N   UNL     1      21.175  12.370 -17.511  1.00  0.00    -0.350 N 
ATOM     11  H   UNL     1      21.037  13.378 -17.268  1.00  0.00     0.345 HD
ATOM     12  H   UNL     1      20.525  11.785 -16.934  1.00  0.00     0.345 HD
ATOM     13  H   UNL     1      22.163  12.113 -17.280  1.00  0.00     0.345 HD
ENDBRANCH   9  10
BRANCH   9  14
ATOM     14  C   UNL     1      22.236  11.952 -19.655  1.00  0.00     0.099 C 
ATOM     15  O   UNL     1      22.369  12.324 -20.851  1.00  0.00    -0.544 OA
ATOM     16  O   UNL     1      23.290  11.310 -19.017  1.00  0.00    -0.544 OA
ENDBRANCH   9  14
ENDBRANCH   8   9
ENDBRANCH   1   8
TORSDOF 7
ENDMDL
