MODEL 1
REMARK VINA RESULT:    -6.008      0.000      0.000
REMARK INTER + INTRA:          -6.754
REMARK INTER:                  -6.711
REMARK INTRA:                  -0.044
REMARK UNBOUND:                -0.044
REMARK SMILES O=C([O-])c1ccc(O)c(O)c1
REMARK SMILES IDX 4 1 11 2 5 3 9 4 6 5 7 6 2 7 1 8 3 9 10 10 8 12
REMARK H PARENT 10 11 8 13
REMARK Flexibility Score: inf
ROOT
ATOM      1  C   UNL     1     -31.775  -3.388 -18.243  1.00  0.00     0.001 A 
ATOM      2  C   UNL     1     -32.658  -2.827 -19.180  1.00  0.00     0.060 A 
ATOM      3  C   UNL     1     -30.393  -3.252 -18.445  1.00  0.00     0.014 A 
ATOM      4  C   UNL     1     -32.179  -2.139 -20.302  1.00  0.00     0.158 A 
ATOM      5  C   UNL     1     -29.906  -2.569 -19.561  1.00  0.00     0.051 A 
ATOM      6  C   UNL     1     -30.783  -2.009 -20.496  1.00  0.00     0.157 A 
ENDROOT
BRANCH   1   7
ATOM      7  C   UNL     1     -32.298  -4.112 -17.063  1.00  0.00     0.072 C 
ATOM      8  O   UNL     1     -31.552  -4.882 -16.401  1.00  0.00    -0.545 OA
ATOM      9  O   UNL     1     -33.620  -3.951 -16.666  1.00  0.00    -0.545 OA
ENDBRANCH   1   7
BRANCH   4  10
ATOM     10  O   UNL     1     -33.115  -1.608 -21.191  1.00  0.00    -0.504 OA
ATOM     11  H   UNL     1     -33.338  -0.625 -21.256  1.00  0.00     0.293 HD
ENDBRANCH   4  10
BRANCH   6  12
ATOM     12  O   UNL     1     -30.231  -1.338 -21.588  1.00  0.00    -0.504 OA
ATOM     13  H   UNL     1     -30.697  -0.595 -22.089  1.00  0.00     0.293 HD
ENDBRANCH   6  12
TORSDOF 3
ENDMDL
MODEL 2
REMARK VINA RESULT:    -5.572      1.250      4.146
REMARK INTER + INTRA:          -6.267
REMARK INTER:                  -6.223
REMARK INTRA:                  -0.045
REMARK UNBOUND:                -0.044
REMARK SMILES O=C([O-])c1ccc(O)c(O)c1
REMARK SMILES IDX 4 1 11 2 5 3 9 4 6 5 7 6 2 7 1 8 3 9 10 10 8 12
REMARK H PARENT 10 11 8 13
REMARK Flexibility Score: inf
ROOT
ATOM      1  C   UNL     1     -30.952  -2.326 -20.022  1.00  0.00     0.001 A 
ATOM      2  C   UNL     1     -32.340  -2.275 -20.235  1.00  0.00     0.060 A 
ATOM      3  C   UNL     1     -30.470  -2.794 -18.790  1.00  0.00     0.014 A 
ATOM      4  C   UNL     1     -33.238  -2.682 -19.240  1.00  0.00     0.158 A 
ATOM      5  C   UNL     1     -31.357  -3.202 -17.792  1.00  0.00     0.051 A 
ATOM      6  C   UNL     1     -32.740  -3.152 -18.001  1.00  0.00     0.157 A 
ENDROOT
BRANCH   1   7
ATOM      7  C   UNL     1     -30.016  -1.892 -21.083  1.00  0.00     0.072 C 
ATOM      8  O   UNL     1     -30.449  -1.416 -22.165  1.00  0.00    -0.545 OA
ATOM      9  O   UNL     1     -28.643  -2.002 -20.898  1.00  0.00    -0.545 OA
ENDBRANCH   1   7
BRANCH   4  10
ATOM     10  O   UNL     1     -34.603  -2.604 -19.523  1.00  0.00    -0.504 OA
ATOM     11  H   UNL     1     -34.991  -2.658 -20.453  1.00  0.00     0.293 HD
ENDBRANCH   4  10
BRANCH   6  12
ATOM     12  O   UNL     1     -33.573  -3.574 -16.964  1.00  0.00    -0.504 OA
ATOM     13  H   UNL     1     -33.633  -4.529 -16.641  1.00  0.00     0.293 HD
ENDBRANCH   6  12
TORSDOF 3
ENDMDL
MODEL 3
REMARK VINA RESULT:    -5.366      0.974      2.350
REMARK INTER + INTRA:          -6.037
REMARK INTER:                  -5.997
REMARK INTRA:                  -0.040
REMARK UNBOUND:                -0.044
REMARK SMILES O=C([O-])c1ccc(O)c(O)c1
REMARK SMILES IDX 4 1 11 2 5 3 9 4 6 5 7 6 2 7 1 8 3 9 10 10 8 12
REMARK H PARENT 10 11 8 13
REMARK Flexibility Score: inf
ROOT
ATOM      1  C   UNL     1     -32.148  -3.668 -17.840  1.00  0.00     0.001 A 
ATOM      2  C   UNL     1     -31.077  -3.167 -18.598  1.00  0.00     0.060 A 
ATOM      3  C   UNL     1     -33.459  -3.469 -18.301  1.00  0.00     0.014 A 
ATOM      4  C   UNL     1     -31.301  -2.478 -19.796  1.00  0.00     0.158 A 
ATOM      5  C   UNL     1     -33.692  -2.783 -19.495  1.00  0.00     0.051 A 
ATOM      6  C   UNL     1     -32.627  -2.283 -20.252  1.00  0.00     0.157 A 
ENDROOT
BRANCH   1   7
ATOM      7  C   UNL     1     -31.896  -4.394 -16.575  1.00  0.00     0.072 C 
ATOM      8  O   UNL     1     -32.618  -4.189 -15.564  1.00  0.00    -0.545 OA
ATOM      9  O   UNL     1     -30.859  -5.315 -16.487  1.00  0.00    -0.545 OA
ENDBRANCH   1   7
BRANCH   4  10
ATOM     10  O   UNL     1     -30.187  -2.009 -20.496  1.00  0.00    -0.504 OA
ATOM     11  H   UNL     1     -29.330  -2.530 -20.608  1.00  0.00     0.293 HD
ENDBRANCH   4  10
BRANCH   6  12
ATOM     12  O   UNL     1     -32.927  -1.607 -21.435  1.00  0.00    -0.504 OA
ATOM     13  H   UNL     1     -32.258  -1.064 -21.961  1.00  0.00     0.293 HD
ENDBRANCH   6  12
TORSDOF 3
ENDMDL
MODEL 4
REMARK VINA RESULT:    -5.279      1.120      4.685
REMARK INTER + INTRA:          -5.940
REMARK INTER:                  -5.896
REMARK INTRA:                  -0.044
REMARK UNBOUND:                -0.044
REMARK SMILES O=C([O-])c1ccc(O)c(O)c1
REMARK SMILES IDX 4 1 11 2 5 3 9 4 6 5 7 6 2 7 1 8 3 9 10 10 8 12
REMARK H PARENT 10 11 8 13
REMARK Flexibility Score: inf
ROOT
ATOM      1  C   UNL     1     -30.817  -2.404 -19.966  1.00  0.00     0.001 A 
ATOM      2  C   UNL     1     -30.195  -3.058 -18.889  1.00  0.00     0.060 A 
ATOM      3  C   UNL     1     -32.211  -2.239 -19.947  1.00  0.00     0.014 A 
ATOM      4  C   UNL     1     -30.943  -3.541 -17.809  1.00  0.00     0.158 A 
ATOM      5  C   UNL     1     -32.965  -2.717 -18.874  1.00  0.00     0.051 A 
ATOM      6  C   UNL     1     -32.348  -3.368 -17.800  1.00  0.00     0.157 A 
ENDROOT
BRANCH   1   7
ATOM      7  C   UNL     1     -30.013  -1.900 -21.101  1.00  0.00     0.072 C 
ATOM      8  O   UNL     1     -30.574  -1.455 -22.137  1.00  0.00    -0.545 OA
ATOM      9  O   UNL     1     -28.624  -1.908 -21.039  1.00  0.00    -0.545 OA
ENDBRANCH   1   7
BRANCH   4  10
ATOM     10  O   UNL     1     -30.257  -4.181 -16.775  1.00  0.00    -0.504 OA
ATOM     11  H   UNL     1     -29.818  -3.697 -16.004  1.00  0.00     0.293 HD
ENDBRANCH   4  10
BRANCH   6  12
ATOM     12  O   UNL     1     -33.158  -3.822 -16.759  1.00  0.00    -0.504 OA
ATOM     13  H   UNL     1     -34.077  -3.455 -16.556  1.00  0.00     0.293 HD
ENDBRANCH   6  12
TORSDOF 3
ENDMDL
MODEL 5
REMARK VINA RESULT:    -5.105      9.357     11.064
REMARK INTER + INTRA:          -5.746
REMARK INTER:                  -5.709
REMARK INTRA:                  -0.037
REMARK UNBOUND:                -0.044
REMARK SMILES O=C([O-])c1ccc(O)c(O)c1
REMARK SMILES IDX 4 1 11 2 5 3 9 4 6 5 7 6 2 7 1 8 3 9 10 10 8 12
REMARK H PARENT 10 11 8 13
REMARK Flexibility Score: inf
ROOT
ATOM      1  C   UNL     1     -38.513  -8.073 -13.728  1.00  0.00     0.001 A 
ATOM      2  C   UNL     1     -38.960  -6.742 -13.681  1.00  0.00     0.060 A 
ATOM      3  C   UNL     1     -39.453  -9.110 -13.628  1.00  0.00     0.014 A 
ATOM      4  C   UNL     1     -40.321  -6.443 -13.537  1.00  0.00     0.158 A 
ATOM      5  C   UNL     1     -40.811  -8.821 -13.485  1.00  0.00     0.051 A 
ATOM      6  C   UNL     1     -41.260  -7.497 -13.438  1.00  0.00     0.157 A 
ENDROOT
BRANCH   1   7
ATOM      7  C   UNL     1     -37.072  -8.373 -13.880  1.00  0.00     0.072 C 
ATOM      8  O   UNL     1     -36.262  -8.115 -12.950  1.00  0.00    -0.545 OA
ATOM      9  O   UNL     1     -36.591  -8.948 -15.050  1.00  0.00    -0.545 OA
ENDBRANCH   1   7
BRANCH   4  10
ATOM     10  O   UNL     1     -40.692  -5.097 -13.498  1.00  0.00    -0.504 OA
ATOM     11  H   UNL     1     -40.036  -4.333 -13.418  1.00  0.00     0.293 HD
ENDBRANCH   4  10
BRANCH   6  12
ATOM     12  O   UNL     1     -42.631  -7.276 -13.293  1.00  0.00    -0.504 OA
ATOM     13  H   UNL     1     -43.287  -7.980 -12.989  1.00  0.00     0.293 HD
ENDBRANCH   6  12
TORSDOF 3
ENDMDL
MODEL 6
REMARK VINA RESULT:    -5.037      7.822     10.525
REMARK INTER + INTRA:          -5.669
REMARK INTER:                  -5.633
REMARK INTRA:                  -0.037
REMARK UNBOUND:                -0.044
REMARK SMILES O=C([O-])c1ccc(O)c(O)c1
REMARK SMILES IDX 4 1 11 2 5 3 9 4 6 5 7 6 2 7 1 8 3 9 10 10 8 12
REMARK H PARENT 10 11 8 13
REMARK Flexibility Score: inf
ROOT
ATOM      1  C   UNL     1     -37.723  -7.075 -13.733  1.00  0.00     0.001 A 
ATOM      2  C   UNL     1     -38.893  -6.342 -13.470  1.00  0.00     0.060 A 
ATOM      3  C   UNL     1     -37.801  -8.474 -13.815  1.00  0.00     0.014 A 
ATOM      4  C   UNL     1     -40.123  -6.986 -13.291  1.00  0.00     0.158 A 
ATOM      5  C   UNL     1     -39.023  -9.125 -13.638  1.00  0.00     0.051 A 
ATOM      6  C   UNL     1     -40.190  -8.398 -13.376  1.00  0.00     0.157 A 
ENDROOT
BRANCH   1   7
ATOM      7  C   UNL     1     -36.430  -6.379 -13.919  1.00  0.00     0.072 C 
ATOM      8  O   UNL     1     -35.861  -5.813 -12.949  1.00  0.00    -0.545 OA
ATOM      9  O   UNL     1     -35.823  -6.344 -15.169  1.00  0.00    -0.545 OA
ENDBRANCH   1   7
BRANCH   4  10
ATOM     10  O   UNL     1     -41.243  -6.194 -13.033  1.00  0.00    -0.504 OA
ATOM     11  H   UNL     1     -41.279  -5.198 -13.196  1.00  0.00     0.293 HD
ENDBRANCH   4  10
BRANCH   6  12
ATOM     12  O   UNL     1     -41.379  -9.109 -13.209  1.00  0.00    -0.504 OA
ATOM     13  H   UNL     1     -41.558  -9.738 -12.440  1.00  0.00     0.293 HD
ENDBRANCH   6  12
TORSDOF 3
ENDMDL
MODEL 7
REMARK VINA RESULT:    -4.853      7.720      9.845
REMARK INTER + INTRA:          -5.464
REMARK INTER:                  -5.421
REMARK INTRA:                  -0.043
REMARK UNBOUND:                -0.044
REMARK SMILES O=C([O-])c1ccc(O)c(O)c1
REMARK SMILES IDX 4 1 11 2 5 3 9 4 6 5 7 6 2 7 1 8 3 9 10 10 8 12
REMARK H PARENT 10 11 8 13
REMARK Flexibility Score: inf
ROOT
ATOM      1  C   UNL     1     -39.419  -7.475 -13.873  1.00  0.00     0.001 A 
ATOM      2  C   UNL     1     -38.580  -8.336 -14.599  1.00  0.00     0.060 A 
ATOM      3  C   UNL     1     -38.938  -6.209 -13.504  1.00  0.00     0.014 A 
ATOM      4  C   UNL     1     -37.282  -7.949 -14.955  1.00  0.00     0.158 A 
ATOM      5  C   UNL     1     -37.646  -5.814 -13.854  1.00  0.00     0.051 A 
ATOM      6  C   UNL     1     -36.808  -6.670 -14.578  1.00  0.00     0.157 A 
ENDROOT
BRANCH   1   7
ATOM      7  C   UNL     1     -40.788  -7.899 -13.503  1.00  0.00     0.072 C 
ATOM      8  O   UNL     1     -41.068  -9.120 -13.375  1.00  0.00    -0.545 OA
ATOM      9  O   UNL     1     -41.784  -6.954 -13.290  1.00  0.00    -0.545 OA
ENDBRANCH   1   7
BRANCH   4  10
ATOM     10  O   UNL     1     -36.505  -8.857 -15.677  1.00  0.00    -0.504 OA
ATOM     11  H   UNL     1     -36.363  -9.819 -15.405  1.00  0.00     0.293 HD
ENDBRANCH   4  10
BRANCH   6  12
ATOM     12  O   UNL     1     -35.528  -6.215 -14.896  1.00  0.00    -0.504 OA
ATOM     13  H   UNL     1     -35.342  -5.425 -15.498  1.00  0.00     0.293 HD
ENDBRANCH   6  12
TORSDOF 3
ENDMDL
MODEL 8
REMARK VINA RESULT:    -4.832      7.879     10.397
REMARK INTER + INTRA:          -5.441
REMARK INTER:                  -5.401
REMARK INTRA:                  -0.040
REMARK UNBOUND:                -0.044
REMARK SMILES O=C([O-])c1ccc(O)c(O)c1
REMARK SMILES IDX 4 1 11 2 5 3 9 4 6 5 7 6 2 7 1 8 3 9 10 10 8 12
REMARK H PARENT 10 11 8 13
REMARK Flexibility Score: inf
ROOT
ATOM      1  C   UNL     1     -38.002  -6.221 -13.574  1.00  0.00     0.001 A 
ATOM      2  C   UNL     1     -38.416  -7.481 -14.034  1.00  0.00     0.060 A 
ATOM      3  C   UNL     1     -38.968  -5.317 -13.106  1.00  0.00     0.014 A 
ATOM      4  C   UNL     1     -39.769  -7.843 -14.029  1.00  0.00     0.158 A 
ATOM      5  C   UNL     1     -40.319  -5.668 -13.098  1.00  0.00     0.051 A 
ATOM      6  C   UNL     1     -40.735  -6.923 -13.555  1.00  0.00     0.157 A 
ENDROOT
BRANCH   1   7
ATOM      7  C   UNL     1     -36.569  -5.853 -13.585  1.00  0.00     0.072 C 
ATOM      8  O   UNL     1     -36.063  -5.215 -12.624  1.00  0.00    -0.545 OA
ATOM      9  O   UNL     1     -35.758  -6.210 -14.657  1.00  0.00    -0.545 OA
ENDBRANCH   1   7
BRANCH   4  10
ATOM     10  O   UNL     1     -40.106  -9.113 -14.502  1.00  0.00    -0.504 OA
ATOM     11  H   UNL     1     -40.182  -9.931 -13.915  1.00  0.00     0.293 HD
ENDBRANCH   4  10
BRANCH   6  12
ATOM     12  O   UNL     1     -42.100  -7.212 -13.521  1.00  0.00    -0.504 OA
ATOM     13  H   UNL     1     -42.793  -6.614 -13.095  1.00  0.00     0.293 HD
ENDBRANCH   6  12
TORSDOF 3
ENDMDL
MODEL 9
REMARK VINA RESULT:    -4.771      5.440      7.393
REMARK INTER + INTRA:          -5.373
REMARK INTER:                  -5.332
REMARK INTRA:                  -0.040
REMARK UNBOUND:                -0.044
REMARK SMILES O=C([O-])c1ccc(O)c(O)c1
REMARK SMILES IDX 4 1 11 2 5 3 9 4 6 5 7 6 2 7 1 8 3 9 10 10 8 12
REMARK H PARENT 10 11 8 13
REMARK Flexibility Score: inf
ROOT
ATOM      1  C   UNL     1     -36.752  -6.969 -15.097  1.00  0.00     0.001 A 
ATOM      2  C   UNL     1     -36.483  -6.164 -13.978  1.00  0.00     0.060 A 
ATOM      3  C   UNL     1     -36.089  -6.698 -16.304  1.00  0.00     0.014 A 
ATOM      4  C   UNL     1     -35.570  -5.105 -14.052  1.00  0.00     0.158 A 
ATOM      5  C   UNL     1     -35.177  -5.644 -16.388  1.00  0.00     0.051 A 
ATOM      6  C   UNL     1     -34.907  -4.841 -15.275  1.00  0.00     0.157 A 
ENDROOT
BRANCH   1   7
ATOM      7  C   UNL     1     -37.719  -8.084 -15.002  1.00  0.00     0.072 C 
ATOM      8  O   UNL     1     -37.747  -8.825 -13.984  1.00  0.00    -0.545 OA
ATOM      9  O   UNL     1     -38.616  -8.329 -16.036  1.00  0.00    -0.545 OA
ENDBRANCH   1   7
BRANCH   4  10
ATOM     10  O   UNL     1     -35.353  -4.348 -12.899  1.00  0.00    -0.504 OA
ATOM     11  H   UNL     1     -34.786  -3.513 -12.871  1.00  0.00     0.293 HD
ENDBRANCH   4  10
BRANCH   6  12
ATOM     12  O   UNL     1     -33.985  -3.804 -15.426  1.00  0.00    -0.504 OA
ATOM     13  H   UNL     1     -32.989  -3.910 -15.296  1.00  0.00     0.293 HD
ENDBRANCH   6  12
TORSDOF 3
ENDMDL
