MODEL 1
REMARK VINA RESULT:    -3.155      0.000      0.000
REMARK INTER + INTRA:          -3.795
REMARK INTER:                  -3.708
REMARK INTRA:                  -0.086
REMARK UNBOUND:                -0.086
REMARK SMILES CCCCC(=O)[O-]
REMARK SMILES IDX 4 1 5 2 6 3 7 4 3 5 2 6 1 7
REMARK H PARENT
REMARK Flexibility Score: inf
ROOT
ATOM      1  C   UNL     1      10.096  14.646   1.557  1.00  0.00     0.053 C 
ENDROOT
BRANCH   1   2
ATOM      2  C   UNL     1      10.131  16.122   1.792  1.00  0.00     0.041 C 
ATOM      3  O   UNL     1       9.075  16.742   2.088  1.00  0.00    -0.550 OA
ATOM      4  O   UNL     1      11.337  16.807   1.730  1.00  0.00    -0.550 OA
ENDBRANCH   1   2
BRANCH   1   5
ATOM      5  C   UNL     1       9.824  14.343   0.081  1.00  0.00     0.006 C 
BRANCH   5   6
ATOM      6  C   UNL     1      11.024  13.643  -0.568  1.00  0.00    -0.003 C 
ATOM      7  C   UNL     1      11.970  13.078   0.489  1.00  0.00     0.004 C 
ENDBRANCH   5   6
ENDBRANCH   1   5
TORSDOF 3
ENDMDL
MODEL 2
REMARK VINA RESULT:    -2.710      1.129      1.857
REMARK INTER + INTRA:          -3.272
REMARK INTER:                  -3.250
REMARK INTRA:                  -0.022
REMARK UNBOUND:                -0.086
REMARK SMILES CCCCC(=O)[O-]
REMARK SMILES IDX 4 1 5 2 6 3 7 4 3 5 2 6 1 7
REMARK H PARENT
REMARK Flexibility Score: inf
ROOT
ATOM      1  C   UNL     1      11.012  15.331   1.581  1.00  0.00     0.053 C 
ENDROOT
BRANCH   1   2
ATOM      2  C   UNL     1       9.585  15.635   1.907  1.00  0.00     0.041 C 
ATOM      3  O   UNL     1       9.194  16.829   1.993  1.00  0.00    -0.550 OA
ATOM      4  O   UNL     1       8.674  14.599   2.068  1.00  0.00    -0.550 OA
ENDBRANCH   1   2
BRANCH   1   5
ATOM      5  C   UNL     1      11.311  13.847   1.807  1.00  0.00     0.006 C 
BRANCH   5   6
ATOM      6  C   UNL     1      11.721  13.162   0.498  1.00  0.00    -0.003 C 
ATOM      7  C   UNL     1      10.890  13.675  -0.676  1.00  0.00     0.004 C 
ENDBRANCH   5   6
ENDBRANCH   1   5
TORSDOF 3
ENDMDL
MODEL 3
REMARK VINA RESULT:    -2.657      2.453      3.591
REMARK INTER + INTRA:          -3.210
REMARK INTER:                  -3.176
REMARK INTRA:                  -0.034
REMARK UNBOUND:                -0.086
REMARK SMILES CCCCC(=O)[O-]
REMARK SMILES IDX 4 1 5 2 6 3 7 4 3 5 2 6 1 7
REMARK H PARENT
REMARK Flexibility Score: inf
ROOT
ATOM      1  C   UNL     1      10.954  14.043   1.596  1.00  0.00     0.053 C 
ENDROOT
BRANCH   1   2
ATOM      2  C   UNL     1      11.503  13.495   0.318  1.00  0.00     0.041 C 
ATOM      3  O   UNL     1      12.599  12.875   0.313  1.00  0.00    -0.550 OA
ATOM      4  O   UNL     1      10.782  13.628  -0.861  1.00  0.00    -0.550 OA
ENDBRANCH   1   2
BRANCH   1   5
ATOM      5  C   UNL     1       9.667  14.830   1.334  1.00  0.00     0.006 C 
BRANCH   5   6
ATOM      6  C   UNL     1       9.863  16.321   1.634  1.00  0.00    -0.003 C 
ATOM      7  C   UNL     1      11.306  16.618   2.034  1.00  0.00     0.004 C 
ENDBRANCH   5   6
ENDBRANCH   1   5
TORSDOF 3
ENDMDL
MODEL 4
REMARK VINA RESULT:    -2.125      2.525      3.834
REMARK INTER + INTRA:          -2.584
REMARK INTER:                  -2.541
REMARK INTRA:                  -0.043
REMARK UNBOUND:                -0.086
REMARK SMILES CCCCC(=O)[O-]
REMARK SMILES IDX 4 1 5 2 6 3 7 4 3 5 2 6 1 7
REMARK H PARENT
REMARK Flexibility Score: inf
ROOT
ATOM      1  C   UNL     1      11.311  15.106   0.776  1.00  0.00     0.053 C 
ENDROOT
BRANCH   1   2
ATOM      2  C   UNL     1      11.302  13.707   0.247  1.00  0.00     0.041 C 
ATOM      3  O   UNL     1      12.162  12.875   0.641  1.00  0.00    -0.550 OA
ATOM      4  O   UNL     1      10.316  13.308  -0.645  1.00  0.00    -0.550 OA
ENDBRANCH   1   2
BRANCH   1   5
ATOM      5  C   UNL     1      10.569  15.179   2.114  1.00  0.00     0.006 C 
BRANCH   5   6
ATOM      6  C   UNL     1       9.055  15.287   1.898  1.00  0.00    -0.003 C 
ATOM      7  C   UNL     1       8.568  16.716   2.118  1.00  0.00     0.004 C 
ENDBRANCH   5   6
ENDBRANCH   1   5
TORSDOF 3
ENDMDL
MODEL 5
REMARK VINA RESULT:    -0.919      2.525      2.954
REMARK INTER + INTRA:          -1.166
REMARK INTER:                  -1.133
REMARK INTRA:                  -0.033
REMARK UNBOUND:                -0.086
REMARK SMILES CCCCC(=O)[O-]
REMARK SMILES IDX 4 1 5 2 6 3 7 4 3 5 2 6 1 7
REMARK H PARENT
REMARK Flexibility Score: inf
ROOT
ATOM      1  C   UNL     1      10.009  14.763   0.790  1.00  0.00     0.053 C 
ENDROOT
BRANCH   1   2
ATOM      2  C   UNL     1       9.965  14.075  -0.537  1.00  0.00     0.041 C 
ATOM      3  O   UNL     1       8.859  13.762  -1.052  1.00  0.00    -0.550 OA
ATOM      4  O   UNL     1      11.143  13.823  -1.228  1.00  0.00    -0.550 OA
ENDBRANCH   1   2
BRANCH   1   5
ATOM      5  C   UNL     1      11.456  14.920   1.265  1.00  0.00     0.006 C 
BRANCH   5   6
ATOM      6  C   UNL     1      11.887  13.725   2.124  1.00  0.00    -0.003 C 
ATOM      7  C   UNL     1      12.985  12.918   1.435  1.00  0.00     0.004 C 
ENDBRANCH   5   6
ENDBRANCH   1   5
TORSDOF 3
ENDMDL
MODEL 6
REMARK VINA RESULT:    -0.414     15.840     16.204
REMARK INTER + INTRA:          -0.573
REMARK INTER:                  -0.532
REMARK INTRA:                  -0.041
REMARK UNBOUND:                -0.086
REMARK SMILES CCCCC(=O)[O-]
REMARK SMILES IDX 4 1 5 2 6 3 7 4 3 5 2 6 1 7
REMARK H PARENT
REMARK Flexibility Score: inf
ROOT
ATOM      1  C   UNL     1      18.571  18.787 -11.623  1.00  0.00     0.053 C 
ENDROOT
BRANCH   1   2
ATOM      2  C   UNL     1      18.736  20.053 -12.401  1.00  0.00     0.041 C 
ATOM      3  O   UNL     1      17.846  20.418 -13.214  1.00  0.00    -0.550 OA
ATOM      4  O   UNL     1      19.850  20.856 -12.193  1.00  0.00    -0.550 OA
ENDBRANCH   1   2
BRANCH   1   5
ATOM      5  C   UNL     1      18.825  17.570 -12.518  1.00  0.00     0.006 C 
BRANCH   5   6
ATOM      6  C   UNL     1      17.603  16.644 -12.547  1.00  0.00    -0.003 C 
ATOM      7  C   UNL     1      17.903  15.360 -13.316  1.00  0.00     0.004 C 
ENDBRANCH   5   6
ENDBRANCH   1   5
TORSDOF 3
ENDMDL
MODEL 7
REMARK VINA RESULT:    -0.372     15.811     16.185
REMARK INTER + INTRA:          -0.523
REMARK INTER:                  -0.482
REMARK INTRA:                  -0.041
REMARK UNBOUND:                -0.086
REMARK SMILES CCCCC(=O)[O-]
REMARK SMILES IDX 4 1 5 2 6 3 7 4 3 5 2 6 1 7
REMARK H PARENT
REMARK Flexibility Score: inf
ROOT
ATOM      1  C   UNL     1      18.611  18.728 -11.531  1.00  0.00     0.053 C 
ENDROOT
BRANCH   1   2
ATOM      2  C   UNL     1      18.791  20.005 -12.287  1.00  0.00     0.041 C 
ATOM      3  O   UNL     1      19.832  20.696 -12.127  1.00  0.00    -0.550 OA
ATOM      4  O   UNL     1      17.832  20.410 -13.206  1.00  0.00    -0.550 OA
ENDBRANCH   1   2
BRANCH   1   5
ATOM      5  C   UNL     1      18.836  17.524 -12.450  1.00  0.00     0.006 C 
BRANCH   5   6
ATOM      6  C   UNL     1      17.581  16.647 -12.526  1.00  0.00    -0.003 C 
ATOM      7  C   UNL     1      17.854  15.360 -13.300  1.00  0.00     0.004 C 
ENDBRANCH   5   6
ENDBRANCH   1   5
TORSDOF 3
ENDMDL
