MODEL 1
REMARK VINA RESULT:    -4.247      0.000      0.000
REMARK INTER + INTRA:          -4.938
REMARK INTER:                  -4.744
REMARK INTRA:                  -0.194
REMARK UNBOUND:                -0.194
REMARK SMILES O=C([O-])c1ccccc1C(=O)[O-]
REMARK SMILES IDX 4 1 9 2 5 3 8 4 6 5 7 6 2 7 1 8 3 9 10 10 11 11 12 12
REMARK H PARENT
REMARK Flexibility Score: inf
ROOT
ATOM      1  C   UNL     1      11.394  35.727  45.777  1.00  0.00     0.006 A 
ATOM      2  C   UNL     1      10.449  35.049  46.595  1.00  0.00     0.006 A 
ATOM      3  C   UNL     1      12.748  35.350  45.839  1.00  0.00     0.010 A 
ATOM      4  C   UNL     1      10.902  34.065  47.493  1.00  0.00     0.010 A 
ATOM      5  C   UNL     1      13.172  34.356  46.722  1.00  0.00     0.001 A 
ATOM      6  C   UNL     1      12.254  33.724  47.556  1.00  0.00     0.001 A 
ENDROOT
BRANCH   1   7
ATOM      7  C   UNL     1      11.032  36.867  44.903  1.00  0.00     0.072 C 
ATOM      8  O   UNL     1      10.952  38.035  45.367  1.00  0.00    -0.545 OA
ATOM      9  O   UNL     1      10.841  36.668  43.540  1.00  0.00    -0.545 OA
ENDBRANCH   1   7
BRANCH   2  10
ATOM     10  C   UNL     1       8.988  35.282  46.494  1.00  0.00     0.072 C 
ATOM     11  O   UNL     1       8.339  34.818  45.520  1.00  0.00    -0.545 OA
ATOM     12  O   UNL     1       8.329  36.065  47.433  1.00  0.00    -0.545 OA
ENDBRANCH   2  10
TORSDOF 2
ENDMDL
MODEL 2
REMARK VINA RESULT:    -4.200      0.103      3.033
REMARK INTER + INTRA:          -4.885
REMARK INTER:                  -4.692
REMARK INTRA:                  -0.193
REMARK UNBOUND:                -0.194
REMARK SMILES O=C([O-])c1ccccc1C(=O)[O-]
REMARK SMILES IDX 4 1 9 2 5 3 8 4 6 5 7 6 2 7 1 8 3 9 10 10 11 11 12 12
REMARK H PARENT
REMARK Flexibility Score: inf
ROOT
ATOM      1  C   UNL     1      10.424  35.111  46.625  1.00  0.00     0.006 A 
ATOM      2  C   UNL     1      11.357  35.749  45.761  1.00  0.00     0.006 A 
ATOM      3  C   UNL     1      10.885  34.139  47.532  1.00  0.00     0.010 A 
ATOM      4  C   UNL     1      12.705  35.344  45.792  1.00  0.00     0.010 A 
ATOM      5  C   UNL     1      12.230  33.769  47.560  1.00  0.00     0.001 A 
ATOM      6  C   UNL     1      13.136  34.362  46.683  1.00  0.00     0.001 A 
ENDROOT
BRANCH   1   7
ATOM      7  C   UNL     1       8.967  35.371  46.568  1.00  0.00     0.072 C 
ATOM      8  O   UNL     1       8.262  34.892  45.642  1.00  0.00    -0.545 OA
ATOM      9  O   UNL     1       8.349  36.095  47.582  1.00  0.00    -0.545 OA
ENDBRANCH   1   7
BRANCH   2  10
ATOM     10  C   UNL     1      10.987  36.878  44.875  1.00  0.00     0.072 C 
ATOM     11  O   UNL     1      10.782  36.679  43.648  1.00  0.00    -0.545 OA
ATOM     12  O   UNL     1      10.924  38.174  45.369  1.00  0.00    -0.545 OA
ENDBRANCH   2  10
TORSDOF 2
ENDMDL
MODEL 3
REMARK VINA RESULT:    -4.179      0.209      3.008
REMARK INTER + INTRA:          -4.861
REMARK INTER:                  -4.652
REMARK INTRA:                  -0.209
REMARK UNBOUND:                -0.194
REMARK SMILES O=C([O-])c1ccccc1C(=O)[O-]
REMARK SMILES IDX 4 1 9 2 5 3 8 4 6 5 7 6 2 7 1 8 3 9 10 10 11 11 12 12
REMARK H PARENT
REMARK Flexibility Score: inf
ROOT
ATOM      1  C   UNL     1      10.527  35.189  46.714  1.00  0.00     0.006 A 
ATOM      2  C   UNL     1      11.435  35.798  45.804  1.00  0.00     0.006 A 
ATOM      3  C   UNL     1      11.000  34.202  47.597  1.00  0.00     0.010 A 
ATOM      4  C   UNL     1      12.769  35.350  45.768  1.00  0.00     0.010 A 
ATOM      5  C   UNL     1      12.332  33.789  47.557  1.00  0.00     0.001 A 
ATOM      6  C   UNL     1      13.212  34.353  46.636  1.00  0.00     0.001 A 
ENDROOT
BRANCH   1   7
ATOM      7  C   UNL     1       9.077  35.496  46.731  1.00  0.00     0.072 C 
ATOM      8  O   UNL     1       8.579  36.208  47.642  1.00  0.00    -0.545 OA
ATOM      9  O   UNL     1       8.260  35.054  45.697  1.00  0.00    -0.545 OA
ENDBRANCH   1   7
BRANCH   2  10
ATOM     10  C   UNL     1      11.058  36.940  44.938  1.00  0.00     0.072 C 
ATOM     11  O   UNL     1      11.067  38.113  45.397  1.00  0.00    -0.545 OA
ATOM     12  O   UNL     1      10.630  36.728  43.634  1.00  0.00    -0.545 OA
ENDBRANCH   2  10
TORSDOF 2
ENDMDL
MODEL 4
REMARK VINA RESULT:    -3.754     11.501     12.199
REMARK INTER + INTRA:          -4.387
REMARK INTER:                  -4.211
REMARK INTRA:                  -0.176
REMARK UNBOUND:                -0.194
REMARK SMILES O=C([O-])c1ccccc1C(=O)[O-]
REMARK SMILES IDX 4 1 9 2 5 3 8 4 6 5 7 6 2 7 1 8 3 9 10 10 11 11 12 12
REMARK H PARENT
REMARK Flexibility Score: inf
ROOT
ATOM      1  C   UNL     1       8.594  30.031  36.052  1.00  0.00     0.006 A 
ATOM      2  C   UNL     1       9.037  28.680  36.097  1.00  0.00     0.006 A 
ATOM      3  C   UNL     1       8.561  30.699  34.814  1.00  0.00     0.010 A 
ATOM      4  C   UNL     1       9.492  28.069  34.914  1.00  0.00     0.010 A 
ATOM      5  C   UNL     1       8.998  30.066  33.649  1.00  0.00     0.001 A 
ATOM      6  C   UNL     1       9.474  28.758  33.701  1.00  0.00     0.001 A 
ENDROOT
BRANCH   1   7
ATOM      7  C   UNL     1       8.227  30.800  37.264  1.00  0.00     0.072 C 
ATOM      8  O   UNL     1       9.048  31.588  37.801  1.00  0.00    -0.545 OA
ATOM      9  O   UNL     1       6.940  30.708  37.784  1.00  0.00    -0.545 OA
ENDBRANCH   1   7
BRANCH   2  10
ATOM     10  C   UNL     1       8.973  27.857  37.328  1.00  0.00     0.072 C 
ATOM     11  O   UNL     1      10.033  27.460  37.880  1.00  0.00    -0.545 OA
ATOM     12  O   UNL     1       7.749  27.459  37.851  1.00  0.00    -0.545 OA
ENDBRANCH   2  10
TORSDOF 2
ENDMDL
MODEL 5
REMARK VINA RESULT:    -3.688     16.362     17.609
REMARK INTER + INTRA:          -4.314
REMARK INTER:                  -4.082
REMARK INTRA:                  -0.232
REMARK UNBOUND:                -0.194
REMARK SMILES O=C([O-])c1ccccc1C(=O)[O-]
REMARK SMILES IDX 4 1 9 2 5 3 8 4 6 5 7 6 2 7 1 8 3 9 10 10 11 11 12 12
REMARK H PARENT
REMARK Flexibility Score: inf
ROOT
ATOM      1  C   UNL     1      24.088  24.858  44.721  1.00  0.00     0.006 A 
ATOM      2  C   UNL     1      23.973  24.705  46.130  1.00  0.00     0.006 A 
ATOM      3  C   UNL     1      23.113  25.602  44.032  1.00  0.00     0.010 A 
ATOM      4  C   UNL     1      22.853  25.247  46.789  1.00  0.00     0.010 A 
ATOM      5  C   UNL     1      22.022  26.149  44.709  1.00  0.00     0.001 A 
ATOM      6  C   UNL     1      21.886  25.961  46.082  1.00  0.00     0.001 A 
ENDROOT
BRANCH   1   7
ATOM      7  C   UNL     1      25.155  24.208  43.924  1.00  0.00     0.072 C 
ATOM      8  O   UNL     1      26.196  24.839  43.606  1.00  0.00    -0.545 OA
ATOM      9  O   UNL     1      25.044  22.866  43.575  1.00  0.00    -0.545 OA
ENDBRANCH   1   7
BRANCH   2  10
ATOM     10  C   UNL     1      25.023  24.059  46.954  1.00  0.00     0.072 C 
ATOM     11  O   UNL     1      26.010  24.728  47.360  1.00  0.00    -0.545 OA
ATOM     12  O   UNL     1      24.966  22.700  47.235  1.00  0.00    -0.545 OA
ENDBRANCH   2  10
TORSDOF 2
ENDMDL
MODEL 6
REMARK VINA RESULT:    -3.664     15.919     17.309
REMARK INTER + INTRA:          -4.286
REMARK INTER:                  -4.108
REMARK INTRA:                  -0.178
REMARK UNBOUND:                -0.194
REMARK SMILES O=C([O-])c1ccccc1C(=O)[O-]
REMARK SMILES IDX 4 1 9 2 5 3 8 4 6 5 7 6 2 7 1 8 3 9 10 10 11 11 12 12
REMARK H PARENT
REMARK Flexibility Score: inf
ROOT
ATOM      1  C   UNL     1      24.401  24.180  46.483  1.00  0.00     0.006 A 
ATOM      2  C   UNL     1      23.462  25.190  46.134  1.00  0.00     0.006 A 
ATOM      3  C   UNL     1      25.219  23.630  45.480  1.00  0.00     0.010 A 
ATOM      4  C   UNL     1      23.332  25.566  44.783  1.00  0.00     0.010 A 
ATOM      5  C   UNL     1      25.087  24.033  44.150  1.00  0.00     0.001 A 
ATOM      6  C   UNL     1      24.137  24.990  43.801  1.00  0.00     0.001 A 
ENDROOT
BRANCH   1   7
ATOM      7  C   UNL     1      24.513  23.623  47.852  1.00  0.00     0.072 C 
ATOM      8  O   UNL     1      24.078  22.473  48.117  1.00  0.00    -0.545 OA
ATOM      9  O   UNL     1      25.164  24.346  48.846  1.00  0.00    -0.545 OA
ENDBRANCH   1   7
BRANCH   2  10
ATOM     10  C   UNL     1      22.661  25.923  47.142  1.00  0.00     0.072 C 
ATOM     11  O   UNL     1      21.436  25.667  47.286  1.00  0.00    -0.545 OA
ATOM     12  O   UNL     1      23.230  26.942  47.895  1.00  0.00    -0.545 OA
ENDBRANCH   2  10
TORSDOF 2
ENDMDL
MODEL 7
REMARK VINA RESULT:    -3.642     11.667     12.731
REMARK INTER + INTRA:          -4.261
REMARK INTER:                  -4.044
REMARK INTRA:                  -0.217
REMARK UNBOUND:                -0.194
REMARK SMILES O=C([O-])c1ccccc1C(=O)[O-]
REMARK SMILES IDX 4 1 9 2 5 3 8 4 6 5 7 6 2 7 1 8 3 9 10 10 11 11 12 12
REMARK H PARENT
REMARK Flexibility Score: inf
ROOT
ATOM      1  C   UNL     1       8.447  29.590  36.500  1.00  0.00     0.006 A 
ATOM      2  C   UNL     1       8.871  29.896  35.178  1.00  0.00     0.006 A 
ATOM      3  C   UNL     1       8.057  30.637  37.354  1.00  0.00     0.010 A 
ATOM      4  C   UNL     1       8.950  31.244  34.779  1.00  0.00     0.010 A 
ATOM      5  C   UNL     1       8.124  31.965  36.931  1.00  0.00     0.001 A 
ATOM      6  C   UNL     1       8.580  32.269  35.651  1.00  0.00     0.001 A 
ENDROOT
BRANCH   1   7
ATOM      7  C   UNL     1       8.463  28.215  37.053  1.00  0.00     0.072 C 
ATOM      8  O   UNL     1       9.426  27.813  37.757  1.00  0.00    -0.545 OA
ATOM      9  O   UNL     1       7.375  27.372  36.854  1.00  0.00    -0.545 OA
ENDBRANCH   1   7
BRANCH   2  10
ATOM     10  C   UNL     1       9.165  28.852  34.168  1.00  0.00     0.072 C 
ATOM     11  O   UNL     1      10.357  28.534  33.914  1.00  0.00    -0.545 OA
ATOM     12  O   UNL     1       8.139  28.257  33.445  1.00  0.00    -0.545 OA
ENDBRANCH   2  10
TORSDOF 2
ENDMDL
MODEL 8
REMARK VINA RESULT:    -3.625     11.645     12.448
REMARK INTER + INTRA:          -4.243
REMARK INTER:                  -4.026
REMARK INTRA:                  -0.217
REMARK UNBOUND:                -0.194
REMARK SMILES O=C([O-])c1ccccc1C(=O)[O-]
REMARK SMILES IDX 4 1 9 2 5 3 8 4 6 5 7 6 2 7 1 8 3 9 10 10 11 11 12 12
REMARK H PARENT
REMARK Flexibility Score: inf
ROOT
ATOM      1  C   UNL     1       8.844  29.919  35.178  1.00  0.00     0.006 A 
ATOM      2  C   UNL     1       8.427  29.623  36.506  1.00  0.00     0.006 A 
ATOM      3  C   UNL     1       8.907  31.262  34.765  1.00  0.00     0.010 A 
ATOM      4  C   UNL     1       8.027  30.677  37.349  1.00  0.00     0.010 A 
ATOM      5  C   UNL     1       8.526  32.293  35.625  1.00  0.00     0.001 A 
ATOM      6  C   UNL     1       8.075  32.000  36.910  1.00  0.00     0.001 A 
ENDROOT
BRANCH   1   7
ATOM      7  C   UNL     1       9.151  28.871  34.178  1.00  0.00     0.072 C 
ATOM      8  O   UNL     1      10.331  28.468  34.008  1.00  0.00    -0.545 OA
ATOM      9  O   UNL     1       8.123  28.271  33.459  1.00  0.00    -0.545 OA
ENDBRANCH   1   7
BRANCH   2  10
ATOM     10  C   UNL     1       8.463  28.253  37.070  1.00  0.00     0.072 C 
ATOM     11  O   UNL     1       7.465  27.493  36.954  1.00  0.00    -0.545 OA
ATOM     12  O   UNL     1       9.568  27.811  37.787  1.00  0.00    -0.545 OA
ENDBRANCH   2  10
TORSDOF 2
ENDMDL
MODEL 9
REMARK VINA RESULT:    -3.608     15.913     17.281
REMARK INTER + INTRA:          -4.224
REMARK INTER:                  -4.039
REMARK INTRA:                  -0.185
REMARK UNBOUND:                -0.194
REMARK SMILES O=C([O-])c1ccccc1C(=O)[O-]
REMARK SMILES IDX 4 1 9 2 5 3 8 4 6 5 7 6 2 7 1 8 3 9 10 10 11 11 12 12
REMARK H PARENT
REMARK Flexibility Score: inf
ROOT
ATOM      1  C   UNL     1      23.475  25.217  46.143  1.00  0.00     0.006 A 
ATOM      2  C   UNL     1      24.427  24.215  46.479  1.00  0.00     0.006 A 
ATOM      3  C   UNL     1      23.304  25.573  44.793  1.00  0.00     0.010 A 
ATOM      4  C   UNL     1      25.217  23.652  45.459  1.00  0.00     0.010 A 
ATOM      5  C   UNL     1      24.083  24.986  43.796  1.00  0.00     0.001 A 
ATOM      6  C   UNL     1      25.046  24.037  44.129  1.00  0.00     0.001 A 
ENDROOT
BRANCH   1   7
ATOM      7  C   UNL     1      22.698  25.963  47.160  1.00  0.00     0.072 C 
ATOM      8  O   UNL     1      21.505  25.653  47.415  1.00  0.00    -0.545 OA
ATOM      9  O   UNL     1      23.304  26.976  47.896  1.00  0.00    -0.545 OA
ENDBRANCH   1   7
BRANCH   2  10
ATOM     10  C   UNL     1      24.576  23.679  47.853  1.00  0.00     0.072 C 
ATOM     11  O   UNL     1      24.046  22.580  48.165  1.00  0.00    -0.545 OA
ATOM     12  O   UNL     1      25.243  24.409  48.829  1.00  0.00    -0.545 OA
ENDBRANCH   2  10
TORSDOF 2
ENDMDL
