MODEL 1
REMARK VINA RESULT:    -5.653      0.000      0.000
REMARK INTER + INTRA:          -6.079
REMARK INTER:                  -5.983
REMARK INTRA:                  -0.096
REMARK UNBOUND:                -0.096
REMARK SMILES C=C(C)[C@H]1CC=C(C)C(=O)C1
REMARK SMILES IDX 8 1 7 2 6 3 5 4 4 5 11 6 9 7 10 8 2 9 1 10 3 11
REMARK H PARENT
REMARK Flexibility Score: inf
ROOT
ATOM      1  C   UNL     1      23.362  23.221  30.660  1.00  0.00     0.048 C 
ATOM      2  C   UNL     1      22.562  23.136  29.389  1.00  0.00    -0.012 C 
ATOM      3  C   UNL     1      21.864  22.022  29.112  1.00  0.00    -0.019 C 
ATOM      4  C   UNL     1      21.062  21.875  27.846  1.00  0.00     0.036 C 
ATOM      5  C   UNL     1      20.489  23.233  27.393  1.00  0.00     0.025 C 
ATOM      6  C   UNL     1      21.621  24.268  27.251  1.00  0.00     0.089 C 
ATOM      7  C   UNL     1      22.447  24.324  28.506  1.00  0.00     0.158 C 
ATOM      8  O   UNL     1      23.073  25.382  28.783  1.00  0.00    -0.295 OA
ENDROOT
BRANCH   5   9
ATOM      9  C   UNL     1      19.683  23.101  26.107  1.00  0.00    -0.077 C 
ATOM     10  C   UNL     1      19.123  21.933  25.750  1.00  0.00     0.008 C 
ATOM     11  C   UNL     1      19.499  24.295  25.205  1.00  0.00     0.039 C 
ENDBRANCH   5   9
TORSDOF 1
ENDMDL
MODEL 2
REMARK VINA RESULT:    -5.517      1.927      4.635
REMARK INTER + INTRA:          -5.935
REMARK INTER:                  -5.839
REMARK INTRA:                  -0.096
REMARK UNBOUND:                -0.096
REMARK SMILES C=C(C)[C@H]1CC=C(C)C(=O)C1
REMARK SMILES IDX 8 1 7 2 6 3 5 4 4 5 11 6 9 7 10 8 2 9 1 10 3 11
REMARK H PARENT
REMARK Flexibility Score: inf
ROOT
ATOM      1  C   UNL     1      19.303  24.873  25.005  1.00  0.00     0.048 C 
ATOM      2  C   UNL     1      20.250  24.351  26.051  1.00  0.00    -0.012 C 
ATOM      3  C   UNL     1      21.242  25.135  26.505  1.00  0.00    -0.019 C 
ATOM      4  C   UNL     1      22.230  24.656  27.537  1.00  0.00     0.036 C 
ATOM      5  C   UNL     1      21.572  23.662  28.514  1.00  0.00     0.025 C 
ATOM      6  C   UNL     1      20.929  22.498  27.738  1.00  0.00     0.089 C 
ATOM      7  C   UNL     1      20.014  23.019  26.665  1.00  0.00     0.158 C 
ATOM      8  O   UNL     1      19.061  22.298  26.264  1.00  0.00    -0.295 OA
ENDROOT
BRANCH   5   9
ATOM      9  C   UNL     1      22.563  23.162  29.558  1.00  0.00    -0.077 C 
ATOM     10  C   UNL     1      22.947  21.875  29.597  1.00  0.00     0.008 C 
ATOM     11  C   UNL     1      23.134  24.117  30.575  1.00  0.00     0.039 C 
ENDBRANCH   5   9
TORSDOF 1
ENDMDL
MODEL 3
REMARK VINA RESULT:    -5.474      1.600      4.358
REMARK INTER + INTRA:          -5.889
REMARK INTER:                  -5.797
REMARK INTRA:                  -0.092
REMARK UNBOUND:                -0.096
REMARK SMILES C=C(C)[C@H]1CC=C(C)C(=O)C1
REMARK SMILES IDX 8 1 7 2 6 3 5 4 4 5 11 6 9 7 10 8 2 9 1 10 3 11
REMARK H PARENT
REMARK Flexibility Score: inf
ROOT
ATOM      1  C   UNL     1      19.153  22.980  25.756  1.00  0.00     0.048 C 
ATOM      2  C   UNL     1      20.234  23.276  26.760  1.00  0.00    -0.012 C 
ATOM      3  C   UNL     1      20.602  22.333  27.643  1.00  0.00    -0.019 C 
ATOM      4  C   UNL     1      21.665  22.582  28.681  1.00  0.00     0.036 C 
ATOM      5  C   UNL     1      22.739  23.553  28.153  1.00  0.00     0.025 C 
ATOM      6  C   UNL     1      22.083  24.858  27.664  1.00  0.00     0.089 C 
ATOM      7  C   UNL     1      20.974  24.562  26.693  1.00  0.00     0.158 C 
ATOM      8  O   UNL     1      20.653  25.433  25.840  1.00  0.00    -0.295 OA
ENDROOT
BRANCH   5   9
ATOM      9  C   UNL     1      23.815  23.822  29.197  1.00  0.00    -0.077 C 
ATOM     10  C   UNL     1      25.074  24.128  28.840  1.00  0.00     0.008 C 
ATOM     11  C   UNL     1      23.480  23.747  30.664  1.00  0.00     0.039 C 
ENDBRANCH   5   9
TORSDOF 1
ENDMDL
MODEL 4
REMARK VINA RESULT:    -5.338      1.253      1.661
REMARK INTER + INTRA:          -5.746
REMARK INTER:                  -5.650
REMARK INTRA:                  -0.096
REMARK UNBOUND:                -0.096
REMARK SMILES C=C(C)[C@H]1CC=C(C)C(=O)C1
REMARK SMILES IDX 8 1 7 2 6 3 5 4 4 5 11 6 9 7 10 8 2 9 1 10 3 11
REMARK H PARENT
REMARK Flexibility Score: inf
ROOT
ATOM      1  C   UNL     1      23.402  22.948  30.661  1.00  0.00     0.048 C 
ATOM      2  C   UNL     1      22.784  23.363  29.354  1.00  0.00    -0.012 C 
ATOM      3  C   UNL     1      21.538  22.964  29.047  1.00  0.00    -0.019 C 
ATOM      4  C   UNL     1      20.879  23.336  27.745  1.00  0.00     0.036 C 
ATOM      5  C   UNL     1      21.346  24.723  27.263  1.00  0.00     0.025 C 
ATOM      6  C   UNL     1      22.883  24.767  27.172  1.00  0.00     0.089 C 
ATOM      7  C   UNL     1      23.502  24.311  28.465  1.00  0.00     0.158 C 
ATOM      8  O   UNL     1      24.656  24.715  28.769  1.00  0.00    -0.295 OA
ENDROOT
BRANCH   5   9
ATOM      9  C   UNL     1      20.694  25.107  25.941  1.00  0.00    -0.077 C 
ATOM     10  C   UNL     1      19.872  24.263  25.295  1.00  0.00     0.008 C 
ATOM     11  C   UNL     1      20.965  26.458  25.330  1.00  0.00     0.039 C 
ENDBRANCH   5   9
TORSDOF 1
ENDMDL
MODEL 5
REMARK VINA RESULT:    -5.097     10.488     12.551
REMARK INTER + INTRA:          -5.490
REMARK INTER:                  -5.397
REMARK INTRA:                  -0.093
REMARK UNBOUND:                -0.096
REMARK SMILES C=C(C)[C@H]1CC=C(C)C(=O)C1
REMARK SMILES IDX 8 1 7 2 6 3 5 4 4 5 11 6 9 7 10 8 2 9 1 10 3 11
REMARK H PARENT
REMARK Flexibility Score: inf
ROOT
ATOM      1  C   UNL     1      18.890  29.686  36.175  1.00  0.00     0.048 C 
ATOM      2  C   UNL     1      20.132  29.383  36.967  1.00  0.00    -0.012 C 
ATOM      3  C   UNL     1      20.661  30.325  37.766  1.00  0.00    -0.019 C 
ATOM      4  C   UNL     1      21.914  30.082  38.566  1.00  0.00     0.036 C 
ATOM      5  C   UNL     1      22.017  28.606  39.001  1.00  0.00     0.025 C 
ATOM      6  C   UNL     1      21.919  27.681  37.774  1.00  0.00     0.089 C 
ATOM      7  C   UNL     1      20.699  28.010  36.958  1.00  0.00     0.158 C 
ATOM      8  O   UNL     1      20.182  27.116  36.237  1.00  0.00    -0.295 OA
ENDROOT
BRANCH   5   9
ATOM      9  C   UNL     1      23.285  28.344  39.803  1.00  0.00    -0.077 C 
ATOM     10  C   UNL     1      24.500  28.608  39.295  1.00  0.00     0.008 C 
ATOM     11  C   UNL     1      23.193  27.776  41.197  1.00  0.00     0.039 C 
ENDBRANCH   5   9
TORSDOF 1
ENDMDL
MODEL 6
REMARK VINA RESULT:    -4.914     10.150     11.832
REMARK INTER + INTRA:          -5.297
REMARK INTER:                  -5.203
REMARK INTRA:                  -0.094
REMARK UNBOUND:                -0.096
REMARK SMILES C=C(C)[C@H]1CC=C(C)C(=O)C1
REMARK SMILES IDX 8 1 7 2 6 3 5 4 4 5 11 6 9 7 10 8 2 9 1 10 3 11
REMARK H PARENT
REMARK Flexibility Score: inf
ROOT
ATOM      1  C   UNL     1      16.386  31.596  37.355  1.00  0.00     0.048 C 
ATOM      2  C   UNL     1      17.634  30.798  37.095  1.00  0.00    -0.012 C 
ATOM      3  C   UNL     1      18.722  30.994  37.858  1.00  0.00    -0.019 C 
ATOM      4  C   UNL     1      20.004  30.236  37.631  1.00  0.00     0.036 C 
ATOM      5  C   UNL     1      19.722  28.815  37.103  1.00  0.00     0.025 C 
ATOM      6  C   UNL     1      18.849  28.881  35.836  1.00  0.00     0.089 C 
ATOM      7  C   UNL     1      17.621  29.714  36.081  1.00  0.00     0.158 C 
ATOM      8  O   UNL     1      16.588  29.506  35.390  1.00  0.00    -0.295 OA
ENDROOT
BRANCH   5   9
ATOM      9  C   UNL     1      21.010  28.040  36.859  1.00  0.00    -0.077 C 
ATOM     10  C   UNL     1      22.106  28.643  36.369  1.00  0.00     0.008 C 
ATOM     11  C   UNL     1      21.075  26.566  37.167  1.00  0.00     0.039 C 
ENDBRANCH   5   9
TORSDOF 1
ENDMDL
MODEL 7
REMARK VINA RESULT:    -4.892     10.113     12.071
REMARK INTER + INTRA:          -5.273
REMARK INTER:                  -5.180
REMARK INTRA:                  -0.093
REMARK UNBOUND:                -0.096
REMARK SMILES C=C(C)[C@H]1CC=C(C)C(=O)C1
REMARK SMILES IDX 8 1 7 2 6 3 5 4 4 5 11 6 9 7 10 8 2 9 1 10 3 11
REMARK H PARENT
REMARK Flexibility Score: inf
ROOT
ATOM      1  C   UNL     1      18.408  28.745  35.479  1.00  0.00     0.048 C 
ATOM      2  C   UNL     1      19.536  28.717  36.474  1.00  0.00    -0.012 C 
ATOM      3  C   UNL     1      20.288  27.611  36.600  1.00  0.00    -0.019 C 
ATOM      4  C   UNL     1      21.418  27.522  37.592  1.00  0.00     0.036 C 
ATOM      5  C   UNL     1      22.090  28.895  37.792  1.00  0.00     0.025 C 
ATOM      6  C   UNL     1      21.040  29.949  38.194  1.00  0.00     0.089 C 
ATOM      7  C   UNL     1      19.892  29.949  37.224  1.00  0.00     0.158 C 
ATOM      8  O   UNL     1      19.208  30.997  37.080  1.00  0.00    -0.295 OA
ENDROOT
BRANCH   5   9
ATOM      9  C   UNL     1      23.228  28.821  38.802  1.00  0.00    -0.077 C 
ATOM     10  C   UNL     1      23.053  28.268  40.014  1.00  0.00     0.008 C 
ATOM     11  C   UNL     1      24.585  29.376  38.451  1.00  0.00     0.039 C 
ENDBRANCH   5   9
TORSDOF 1
ENDMDL
MODEL 8
REMARK VINA RESULT:    -4.853     10.327     12.044
REMARK INTER + INTRA:          -5.232
REMARK INTER:                  -5.135
REMARK INTRA:                  -0.098
REMARK UNBOUND:                -0.096
REMARK SMILES C=C(C)[C@H]1CC=C(C)C(=O)C1
REMARK SMILES IDX 8 1 7 2 6 3 5 4 4 5 11 6 9 7 10 8 2 9 1 10 3 11
REMARK H PARENT
REMARK Flexibility Score: inf
ROOT
ATOM      1  C   UNL     1      24.612  31.453  39.257  1.00  0.00     0.048 C 
ATOM      2  C   UNL     1      23.488  30.569  38.790  1.00  0.00    -0.012 C 
ATOM      3  C   UNL     1      22.626  31.017  37.863  1.00  0.00    -0.019 C 
ATOM      4  C   UNL     1      21.473  30.182  37.373  1.00  0.00     0.036 C 
ATOM      5  C   UNL     1      21.833  28.683  37.377  1.00  0.00     0.025 C 
ATOM      6  C   UNL     1      22.313  28.254  38.776  1.00  0.00     0.089 C 
ATOM      7  C   UNL     1      23.408  29.163  39.262  1.00  0.00     0.158 C 
ATOM      8  O   UNL     1      24.238  28.729  40.105  1.00  0.00    -0.295 OA
ENDROOT
BRANCH   5   9
ATOM      9  C   UNL     1      20.672  27.825  36.893  1.00  0.00    -0.077 C 
ATOM     10  C   UNL     1      20.627  26.505  37.142  1.00  0.00     0.008 C 
ATOM     11  C   UNL     1      19.541  28.451  36.117  1.00  0.00     0.039 C 
ENDBRANCH   5   9
TORSDOF 1
ENDMDL
MODEL 9
REMARK VINA RESULT:    -4.761     10.126     11.614
REMARK INTER + INTRA:          -5.135
REMARK INTER:                  -5.039
REMARK INTRA:                  -0.096
REMARK UNBOUND:                -0.096
REMARK SMILES C=C(C)[C@H]1CC=C(C)C(=O)C1
REMARK SMILES IDX 8 1 7 2 6 3 5 4 4 5 11 6 9 7 10 8 2 9 1 10 3 11
REMARK H PARENT
REMARK Flexibility Score: inf
ROOT
ATOM      1  C   UNL     1      25.000  31.056  39.253  1.00  0.00     0.048 C 
ATOM      2  C   UNL     1      24.005  30.132  38.604  1.00  0.00    -0.012 C 
ATOM      3  C   UNL     1      23.383  29.196  39.341  1.00  0.00    -0.019 C 
ATOM      4  C   UNL     1      22.393  28.234  38.739  1.00  0.00     0.036 C 
ATOM      5  C   UNL     1      21.620  28.888  37.578  1.00  0.00     0.025 C 
ATOM      6  C   UNL     1      22.602  29.446  36.531  1.00  0.00     0.089 C 
ATOM      7  C   UNL     1      23.623  30.336  37.184  1.00  0.00     0.158 C 
ATOM      8  O   UNL     1      24.179  31.238  36.502  1.00  0.00    -0.295 OA
ENDROOT
BRANCH   5   9
ATOM      9  C   UNL     1      20.621  27.922  36.953  1.00  0.00    -0.077 C 
ATOM     10  C   UNL     1      20.715  26.596  37.148  1.00  0.00     0.008 C 
ATOM     11  C   UNL     1      19.498  28.447  36.096  1.00  0.00     0.039 C 
ENDBRANCH   5   9
TORSDOF 1
ENDMDL
