MODEL 1
REMARK VINA RESULT:    -3.359      0.000      0.000
REMARK INTER + INTRA:          -4.067
REMARK INTER:                  -3.948
REMARK INTRA:                  -0.119
REMARK UNBOUND:                -0.119
REMARK SMILES O=C([O-])CCC(=O)[O-]
REMARK SMILES IDX 4 1 2 2 1 3 3 4 5 5 6 6 7 7 8 8
REMARK H PARENT
REMARK Flexibility Score: inf
ROOT
ATOM      1  C   UNL     1     -14.137 -26.508 -17.741  1.00  0.00     0.059 C 
ENDROOT
BRANCH   1   2
ATOM      2  C   UNL     1     -15.067 -27.150 -18.722  1.00  0.00     0.042 C 
ATOM      3  O   UNL     1     -14.799 -28.284 -19.199  1.00  0.00    -0.550 OA
ATOM      4  O   UNL     1     -16.254 -26.519 -19.072  1.00  0.00    -0.550 OA
ENDBRANCH   1   2
BRANCH   1   5
ATOM      5  C   UNL     1     -12.708 -26.499 -18.284  1.00  0.00     0.059 C 
BRANCH   5   6
ATOM      6  C   UNL     1     -11.796 -27.256 -17.371  1.00  0.00     0.042 C 
ATOM      7  O   UNL     1     -12.244 -28.198 -16.667  1.00  0.00    -0.550 OA
ATOM      8  O   UNL     1     -10.461 -26.888 -17.258  1.00  0.00    -0.550 OA
ENDBRANCH   5   6
ENDBRANCH   1   5
TORSDOF 3
ENDMDL
MODEL 2
REMARK VINA RESULT:    -3.333      0.087      4.021
REMARK INTER + INTRA:          -4.036
REMARK INTER:                  -3.916
REMARK INTRA:                  -0.120
REMARK UNBOUND:                -0.119
REMARK SMILES O=C([O-])CCC(=O)[O-]
REMARK SMILES IDX 4 1 2 2 1 3 3 4 5 5 6 6 7 7 8 8
REMARK H PARENT
REMARK Flexibility Score: inf
ROOT
ATOM      1  C   UNL     1     -12.767 -26.510 -18.277  1.00  0.00     0.059 C 
ENDROOT
BRANCH   1   2
ATOM      2  C   UNL     1     -11.874 -27.293 -17.367  1.00  0.00     0.042 C 
ATOM      3  O   UNL     1     -12.333 -28.265 -16.713  1.00  0.00    -0.550 OA
ATOM      4  O   UNL     1     -10.523 -26.982 -17.281  1.00  0.00    -0.550 OA
ENDBRANCH   1   2
BRANCH   1   5
ATOM      5  C   UNL     1     -14.200 -26.500 -17.743  1.00  0.00     0.059 C 
BRANCH   5   6
ATOM      6  C   UNL     1     -15.131 -27.129 -18.731  1.00  0.00     0.042 C 
ATOM      7  O   UNL     1     -14.842 -28.234 -19.260  1.00  0.00    -0.550 OA
ATOM      8  O   UNL     1     -16.296 -26.470 -19.106  1.00  0.00    -0.550 OA
ENDBRANCH   5   6
ENDBRANCH   1   5
TORSDOF 3
ENDMDL
MODEL 3
REMARK VINA RESULT:    -3.284      9.766     11.817
REMARK INTER + INTRA:          -3.979
REMARK INTER:                  -3.938
REMARK INTRA:                  -0.041
REMARK UNBOUND:                -0.119
REMARK SMILES O=C([O-])CCC(=O)[O-]
REMARK SMILES IDX 4 1 2 2 1 3 3 4 5 5 6 6 7 7 8 8
REMARK H PARENT
REMARK Flexibility Score: inf
ROOT
ATOM      1  C   UNL     1     -25.571 -25.518 -18.487  1.00  0.00     0.059 C 
ENDROOT
BRANCH   1   2
ATOM      2  C   UNL     1     -26.839 -24.786 -18.178  1.00  0.00     0.042 C 
ATOM      3  O   UNL     1     -27.953 -25.304 -18.454  1.00  0.00    -0.550 OA
ATOM      4  O   UNL     1     -26.792 -23.554 -17.538  1.00  0.00    -0.550 OA
ENDBRANCH   1   2
BRANCH   1   5
ATOM      5  C   UNL     1     -24.425 -24.995 -17.621  1.00  0.00     0.059 C 
BRANCH   5   6
ATOM      6  C   UNL     1     -23.110 -25.480 -18.144  1.00  0.00     0.042 C 
ATOM      7  O   UNL     1     -22.981 -25.772 -19.361  1.00  0.00    -0.550 OA
ATOM      8  O   UNL     1     -22.039 -25.658 -17.277  1.00  0.00    -0.550 OA
ENDBRANCH   5   6
ENDBRANCH   1   5
TORSDOF 3
ENDMDL
MODEL 4
REMARK VINA RESULT:    -3.270      9.637     12.104
REMARK INTER + INTRA:          -3.962
REMARK INTER:                  -3.905
REMARK INTRA:                  -0.057
REMARK UNBOUND:                -0.119
REMARK SMILES O=C([O-])CCC(=O)[O-]
REMARK SMILES IDX 4 1 2 2 1 3 3 4 5 5 6 6 7 7 8 8
REMARK H PARENT
REMARK Flexibility Score: inf
ROOT
ATOM      1  C   UNL     1     -24.156 -25.319 -17.598  1.00  0.00     0.059 C 
ENDROOT
BRANCH   1   2
ATOM      2  C   UNL     1     -22.892 -25.028 -18.345  1.00  0.00     0.042 C 
ATOM      3  O   UNL     1     -22.399 -25.893 -19.116  1.00  0.00    -0.550 OA
ATOM      4  O   UNL     1     -22.286 -23.784 -18.229  1.00  0.00    -0.550 OA
ENDBRANCH   1   2
BRANCH   1   5
ATOM      5  C   UNL     1     -25.284 -25.665 -18.570  1.00  0.00     0.059 C 
BRANCH   5   6
ATOM      6  C   UNL     1     -26.519 -24.889 -18.237  1.00  0.00     0.042 C 
ATOM      7  O   UNL     1     -27.655 -25.405 -18.405  1.00  0.00    -0.550 OA
ATOM      8  O   UNL     1     -26.418 -23.578 -17.790  1.00  0.00    -0.550 OA
ENDBRANCH   5   6
ENDBRANCH   1   5
TORSDOF 3
ENDMDL
MODEL 5
REMARK VINA RESULT:    -3.250      1.324      4.120
REMARK INTER + INTRA:          -3.939
REMARK INTER:                  -3.832
REMARK INTRA:                  -0.107
REMARK UNBOUND:                -0.119
REMARK SMILES O=C([O-])CCC(=O)[O-]
REMARK SMILES IDX 4 1 2 2 1 3 3 4 5 5 6 6 7 7 8 8
REMARK H PARENT
REMARK Flexibility Score: inf
ROOT
ATOM      1  C   UNL     1     -12.686 -28.067 -16.973  1.00  0.00     0.059 C 
ENDROOT
BRANCH   1   2
ATOM      2  C   UNL     1     -11.513 -27.189 -17.277  1.00  0.00     0.042 C 
ATOM      3  O   UNL     1     -11.533 -26.432 -18.283  1.00  0.00    -0.550 OA
ATOM      4  O   UNL     1     -10.419 -27.169 -16.422  1.00  0.00    -0.550 OA
ENDBRANCH   1   2
BRANCH   1   5
ATOM      5  C   UNL     1     -13.980 -27.253 -16.981  1.00  0.00     0.059 C 
BRANCH   5   6
ATOM      6  C   UNL     1     -14.828 -27.627 -18.156  1.00  0.00     0.042 C 
ATOM      7  O   UNL     1     -14.873 -26.879 -19.167  1.00  0.00    -0.550 OA
ATOM      8  O   UNL     1     -15.608 -28.776 -18.113  1.00  0.00    -0.550 OA
ENDBRANCH   5   6
ENDBRANCH   1   5
TORSDOF 3
ENDMDL
MODEL 6
REMARK VINA RESULT:    -3.230      1.061      1.632
REMARK INTER + INTRA:          -3.916
REMARK INTER:                  -3.804
REMARK INTRA:                  -0.112
REMARK UNBOUND:                -0.119
REMARK SMILES O=C([O-])CCC(=O)[O-]
REMARK SMILES IDX 4 1 2 2 1 3 3 4 5 5 6 6 7 7 8 8
REMARK H PARENT
REMARK Flexibility Score: inf
ROOT
ATOM      1  C   UNL     1     -14.123 -26.954 -16.970  1.00  0.00     0.059 C 
ENDROOT
BRANCH   1   2
ATOM      2  C   UNL     1     -14.969 -27.174 -18.183  1.00  0.00     0.042 C 
ATOM      3  O   UNL     1     -15.958 -26.428 -18.410  1.00  0.00    -0.550 OA
ATOM      4  O   UNL     1     -14.637 -28.171 -19.092  1.00  0.00    -0.550 OA
ENDBRANCH   1   2
BRANCH   1   5
ATOM      5  C   UNL     1     -12.963 -27.951 -16.937  1.00  0.00     0.059 C 
BRANCH   5   6
ATOM      6  C   UNL     1     -11.661 -27.247 -17.155  1.00  0.00     0.042 C 
ATOM      7  O   UNL     1     -10.742 -27.338 -16.299  1.00  0.00    -0.550 OA
ATOM      8  O   UNL     1     -11.480 -26.448 -18.276  1.00  0.00    -0.550 OA
ENDBRANCH   5   6
ENDBRANCH   1   5
TORSDOF 3
ENDMDL
MODEL 7
REMARK VINA RESULT:    -3.145      2.277      3.674
REMARK INTER + INTRA:          -3.815
REMARK INTER:                  -3.694
REMARK INTRA:                  -0.121
REMARK UNBOUND:                -0.119
REMARK SMILES O=C([O-])CCC(=O)[O-]
REMARK SMILES IDX 4 1 2 2 1 3 3 4 5 5 6 6 7 7 8 8
REMARK H PARENT
REMARK Flexibility Score: inf
ROOT
ATOM      1  C   UNL     1     -12.219 -27.784 -16.584  1.00  0.00     0.059 C 
ENDROOT
BRANCH   1   2
ATOM      2  C   UNL     1     -11.923 -26.921 -17.770  1.00  0.00     0.042 C 
ATOM      3  O   UNL     1     -10.737 -26.773 -18.164  1.00  0.00    -0.550 OA
ATOM      4  O   UNL     1     -12.962 -26.323 -18.472  1.00  0.00    -0.550 OA
ENDBRANCH   1   2
BRANCH   1   5
ATOM      5  C   UNL     1     -13.040 -29.005 -17.001  1.00  0.00     0.059 C 
BRANCH   5   6
ATOM      6  C   UNL     1     -14.431 -28.911 -16.461  1.00  0.00     0.042 C 
ATOM      7  O   UNL     1     -14.822 -27.855 -15.897  1.00  0.00    -0.550 OA
ATOM      8  O   UNL     1     -15.281 -30.007 -16.533  1.00  0.00    -0.550 OA
ENDBRANCH   5   6
ENDBRANCH   1   5
TORSDOF 3
ENDMDL
MODEL 8
REMARK VINA RESULT:    -3.092      1.217      4.079
REMARK INTER + INTRA:          -3.752
REMARK INTER:                  -3.665
REMARK INTRA:                  -0.087
REMARK UNBOUND:                -0.119
REMARK SMILES O=C([O-])CCC(=O)[O-]
REMARK SMILES IDX 4 1 2 2 1 3 3 4 5 5 6 6 7 7 8 8
REMARK H PARENT
REMARK Flexibility Score: inf
ROOT
ATOM      1  C   UNL     1     -13.782 -26.475 -18.272  1.00  0.00     0.059 C 
ENDROOT
BRANCH   1   2
ATOM      2  C   UNL     1     -12.625 -27.306 -17.816  1.00  0.00     0.042 C 
ATOM      3  O   UNL     1     -11.449 -26.870 -17.927  1.00  0.00    -0.550 OA
ATOM      4  O   UNL     1     -12.847 -28.542 -17.221  1.00  0.00    -0.550 OA
ENDBRANCH   1   2
BRANCH   1   5
ATOM      5  C   UNL     1     -14.824 -27.346 -18.975  1.00  0.00     0.059 C 
BRANCH   5   6
ATOM      6  C   UNL     1     -16.180 -27.120 -18.385  1.00  0.00     0.042 C 
ATOM      7  O   UNL     1     -16.568 -27.812 -17.408  1.00  0.00    -0.550 OA
ATOM      8  O   UNL     1     -17.035 -26.181 -18.946  1.00  0.00    -0.550 OA
ENDBRANCH   5   6
ENDBRANCH   1   5
TORSDOF 3
ENDMDL
MODEL 9
REMARK VINA RESULT:    -2.956      1.971      2.502
REMARK INTER + INTRA:          -3.593
REMARK INTER:                  -3.431
REMARK INTRA:                  -0.163
REMARK UNBOUND:                -0.119
REMARK SMILES O=C([O-])CCC(=O)[O-]
REMARK SMILES IDX 4 1 2 2 1 3 3 4 5 5 6 6 7 7 8 8
REMARK H PARENT
REMARK Flexibility Score: inf
ROOT
ATOM      1  C   UNL     1     -14.669 -27.065 -17.865  1.00  0.00     0.059 C 
ENDROOT
BRANCH   1   2
ATOM      2  C   UNL     1     -15.070 -26.823 -16.444  1.00  0.00     0.042 C 
ATOM      3  O   UNL     1     -15.316 -25.654 -16.045  1.00  0.00    -0.550 OA
ATOM      4  O   UNL     1     -15.222 -27.893 -15.572  1.00  0.00    -0.550 OA
ENDBRANCH   1   2
BRANCH   1   5
ATOM      5  C   UNL     1     -13.454 -27.990 -17.928  1.00  0.00     0.059 C 
BRANCH   5   6
ATOM      6  C   UNL     1     -12.212 -27.251 -17.543  1.00  0.00     0.042 C 
ATOM      7  O   UNL     1     -11.732 -26.376 -18.310  1.00  0.00    -0.550 OA
ATOM      8  O   UNL     1     -11.554 -27.564 -16.360  1.00  0.00    -0.550 OA
ENDBRANCH   5   6
ENDBRANCH   1   5
TORSDOF 3
ENDMDL
