MODEL 1
REMARK VINA RESULT:    -4.553      0.000      0.000
REMARK INTER + INTRA:         -13.647
REMARK INTER:                 -10.410
REMARK INTRA:                  -3.238
REMARK UNBOUND:                -3.238
REMARK SMILES CCCCCCCCCCCCCCCCCCCCCCCC(=O)[O-]
REMARK SMILES IDX 13 1 14 2 15 3 16 4 17 5 18 6 19 7 20 8 21 9 22 10 23 11
REMARK SMILES IDX 24 12 25 13 26 14 12 15 11 16 10 17 9 18 8 19 7 20 6 21 5 22
REMARK SMILES IDX 4 23 3 24 2 25 1 26
REMARK H PARENT
REMARK Flexibility Score: inf
ROOT
ATOM      1  C   UNL     1      50.285   9.013  18.912  1.00  0.00     0.000 C 
ENDROOT
BRANCH   1   2
ATOM      2  C   UNL     1      49.758   8.618  20.303  1.00  0.00     0.000 C 
BRANCH   2   3
ATOM      3  C   UNL     1      48.266   8.234  20.347  1.00  0.00     0.000 C 
BRANCH   3   4
ATOM      4  C   UNL     1      48.025   6.838  20.941  1.00  0.00     0.000 C 
BRANCH   4   5
ATOM      5  C   UNL     1      49.334   6.226  21.460  1.00  0.00     0.000 C 
BRANCH   5   6
ATOM      6  C   UNL     1      49.391   6.152  22.997  1.00  0.00     0.000 C 
BRANCH   6   7
ATOM      7  C   UNL     1      50.149   7.308  23.672  1.00  0.00     0.000 C 
BRANCH   7   8
ATOM      8  C   UNL     1      49.337   7.979  24.794  1.00  0.00     0.000 C 
BRANCH   8   9
ATOM      9  C   UNL     1      48.743   9.336  24.359  1.00  0.00     0.000 C 
BRANCH   9  10
ATOM     10  C   UNL     1      47.329   9.227  23.753  1.00  0.00     0.006 C 
BRANCH  10  11
ATOM     11  C   UNL     1      46.895  10.455  22.938  1.00  0.00     0.053 C 
BRANCH  11  12
ATOM     12  C   UNL     1      46.763  11.680  23.793  1.00  0.00     0.041 C 
ATOM     13  O   UNL     1      47.512  12.673  23.597  1.00  0.00    -0.550 OA
ATOM     14  O   UNL     1      45.818  11.724  24.810  1.00  0.00    -0.550 OA
ENDBRANCH  11  12
ENDBRANCH  10  11
ENDBRANCH   9  10
ENDBRANCH   8   9
ENDBRANCH   7   8
ENDBRANCH   6   7
ENDBRANCH   5   6
ENDBRANCH   4   5
ENDBRANCH   3   4
ENDBRANCH   2   3
ENDBRANCH   1   2
BRANCH   1  15
ATOM     15  C   UNL     1      50.979   7.849  18.184  1.00  0.00     0.000 C 
BRANCH  15  16
ATOM     16  C   UNL     1      51.891   7.033  19.114  1.00  0.00     0.000 C 
BRANCH  16  17
ATOM     17  C   UNL     1      52.540   5.838  18.393  1.00  0.00     0.000 C 
BRANCH  17  18
ATOM     18  C   UNL     1      51.811   4.514  18.672  1.00  0.00    -0.000 C 
BRANCH  18  19
ATOM     19  C   UNL     1      52.751   3.420  19.199  1.00  0.00    -0.000 C 
BRANCH  19  20
ATOM     20  C   UNL     1      51.956   2.297  19.877  1.00  0.00    -0.000 C 
BRANCH  20  21
ATOM     21  C   UNL     1      50.518   2.741  20.177  1.00  0.00    -0.000 C 
BRANCH  21  22
ATOM     22  C   UNL     1      50.064   2.384  21.605  1.00  0.00    -0.000 C 
BRANCH  22  23
ATOM     23  C   UNL     1      48.551   2.152  21.770  1.00  0.00    -0.000 C 
BRANCH  23  24
ATOM     24  C   UNL     1      47.707   2.958  20.771  1.00  0.00    -0.000 C 
BRANCH  24  25
ATOM     25  C   UNL     1      46.291   2.380  20.658  1.00  0.00    -0.003 C 
ATOM     26  C   UNL     1      45.324   3.403  20.068  1.00  0.00     0.004 C 
ENDBRANCH  24  25
ENDBRANCH  23  24
ENDBRANCH  22  23
ENDBRANCH  21  22
ENDBRANCH  20  21
ENDBRANCH  19  20
ENDBRANCH  18  19
ENDBRANCH  17  18
ENDBRANCH  16  17
ENDBRANCH  15  16
ENDBRANCH   1  15
TORSDOF 22
ENDMDL
MODEL 2
REMARK VINA RESULT:    -4.463      3.424      7.544
REMARK INTER + INTRA:         -13.440
REMARK INTER:                  -9.720
REMARK INTRA:                  -3.720
REMARK UNBOUND:                -3.238
REMARK SMILES CCCCCCCCCCCCCCCCCCCCCCCC(=O)[O-]
REMARK SMILES IDX 13 1 14 2 15 3 16 4 17 5 18 6 19 7 20 8 21 9 22 10 23 11
REMARK SMILES IDX 24 12 25 13 26 14 12 15 11 16 10 17 9 18 8 19 7 20 6 21 5 22
REMARK SMILES IDX 4 23 3 24 2 25 1 26
REMARK H PARENT
REMARK Flexibility Score: inf
ROOT
ATOM      1  C   UNL     1      47.843   6.257  21.779  1.00  0.00     0.000 C 
ENDROOT
BRANCH   1   2
ATOM      2  C   UNL     1      49.326   6.140  21.383  1.00  0.00     0.000 C 
BRANCH   2   3
ATOM      3  C   UNL     1      50.010   7.475  21.027  1.00  0.00     0.000 C 
BRANCH   3   4
ATOM      4  C   UNL     1      49.639   7.981  19.625  1.00  0.00     0.000 C 
BRANCH   4   5
ATOM      5  C   UNL     1      50.888   8.131  18.744  1.00  0.00     0.000 C 
BRANCH   5   6
ATOM      6  C   UNL     1      51.999   7.130  19.108  1.00  0.00     0.000 C 
BRANCH   6   7
ATOM      7  C   UNL     1      52.285   6.064  18.035  1.00  0.00     0.000 C 
BRANCH   7   8
ATOM      8  C   UNL     1      51.650   4.702  18.364  1.00  0.00     0.000 C 
BRANCH   8   9
ATOM      9  C   UNL     1      52.613   3.776  19.137  1.00  0.00     0.000 C 
BRANCH   9  10
ATOM     10  C   UNL     1      51.984   2.426  19.539  1.00  0.00     0.006 C 
BRANCH  10  11
ATOM     11  C   UNL     1      50.588   2.545  20.172  1.00  0.00     0.053 C 
BRANCH  11  12
ATOM     12  C   UNL     1      50.579   2.094  21.602  1.00  0.00     0.041 C 
ATOM     13  O   UNL     1      50.302   0.899  21.887  1.00  0.00    -0.550 OA
ATOM     14  O   UNL     1      50.870   2.993  22.620  1.00  0.00    -0.550 OA
ENDBRANCH  11  12
ENDBRANCH  10  11
ENDBRANCH   9  10
ENDBRANCH   8   9
ENDBRANCH   7   8
ENDBRANCH   6   7
ENDBRANCH   5   6
ENDBRANCH   4   5
ENDBRANCH   3   4
ENDBRANCH   2   3
ENDBRANCH   1   2
BRANCH   1  15
ATOM     15  C   UNL     1      47.539   5.625  23.148  1.00  0.00     0.000 C 
BRANCH  15  16
ATOM     16  C   UNL     1      46.466   6.401  23.929  1.00  0.00     0.000 C 
BRANCH  16  17
ATOM     17  C   UNL     1      46.729   6.395  25.446  1.00  0.00     0.000 C 
BRANCH  17  18
ATOM     18  C   UNL     1      47.913   5.494  25.836  1.00  0.00    -0.000 C 
BRANCH  18  19
ATOM     19  C   UNL     1      49.084   6.283  26.437  1.00  0.00    -0.000 C 
BRANCH  19  20
ATOM     20  C   UNL     1      50.371   6.045  25.638  1.00  0.00    -0.000 C 
BRANCH  20  21
ATOM     21  C   UNL     1      50.663   7.222  24.697  1.00  0.00    -0.000 C 
BRANCH  21  22
ATOM     22  C   UNL     1      49.835   8.477  25.030  1.00  0.00    -0.000 C 
BRANCH  22  23
ATOM     23  C   UNL     1      49.044   9.070  23.849  1.00  0.00    -0.000 C 
BRANCH  23  24
ATOM     24  C   UNL     1      47.819   9.882  24.294  1.00  0.00    -0.000 C 
BRANCH  24  25
ATOM     25  C   UNL     1      47.314  10.779  23.157  1.00  0.00    -0.003 C 
ATOM     26  C   UNL     1      47.133   9.983  21.866  1.00  0.00     0.004 C 
ENDBRANCH  24  25
ENDBRANCH  23  24
ENDBRANCH  22  23
ENDBRANCH  21  22
ENDBRANCH  20  21
ENDBRANCH  19  20
ENDBRANCH  18  19
ENDBRANCH  17  18
ENDBRANCH  16  17
ENDBRANCH  15  16
ENDBRANCH   1  15
TORSDOF 22
ENDMDL
MODEL 3
REMARK VINA RESULT:    -4.461      3.651      7.806
REMARK INTER + INTRA:         -13.436
REMARK INTER:                  -9.630
REMARK INTRA:                  -3.806
REMARK UNBOUND:                -3.238
REMARK SMILES CCCCCCCCCCCCCCCCCCCCCCCC(=O)[O-]
REMARK SMILES IDX 13 1 14 2 15 3 16 4 17 5 18 6 19 7 20 8 21 9 22 10 23 11
REMARK SMILES IDX 24 12 25 13 26 14 12 15 11 16 10 17 9 18 8 19 7 20 6 21 5 22
REMARK SMILES IDX 4 23 3 24 2 25 1 26
REMARK H PARENT
REMARK Flexibility Score: inf
ROOT
ATOM      1  C   UNL     1      47.349   3.215  22.904  1.00  0.00     0.000 C 
ENDROOT
BRANCH   1   2
ATOM      2  C   UNL     1      47.970   3.449  21.515  1.00  0.00     0.000 C 
BRANCH   2   3
ATOM      3  C   UNL     1      47.583   2.408  20.446  1.00  0.00     0.000 C 
BRANCH   3   4
ATOM      4  C   UNL     1      46.969   1.135  21.046  1.00  0.00     0.000 C 
BRANCH   4   5
ATOM      5  C   UNL     1      47.984  -0.017  21.051  1.00  0.00     0.000 C 
BRANCH   5   6
ATOM      6  C   UNL     1      48.753  -0.130  22.380  1.00  0.00     0.000 C 
BRANCH   6   7
ATOM      7  C   UNL     1      50.265   0.140  22.276  1.00  0.00     0.000 C 
BRANCH   7   8
ATOM      8  C   UNL     1      50.718   1.335  23.134  1.00  0.00     0.000 C 
BRANCH   8   9
ATOM      9  C   UNL     1      51.426   2.423  22.298  1.00  0.00     0.000 C 
BRANCH   9  10
ATOM     10  C   UNL     1      51.416   2.143  20.782  1.00  0.00     0.006 C 
BRANCH  10  11
ATOM     11  C   UNL     1      52.795   1.805  20.194  1.00  0.00     0.053 C 
BRANCH  11  12
ATOM     12  C   UNL     1      53.556   3.036  19.802  1.00  0.00     0.041 C 
ATOM     13  O   UNL     1      52.991   3.946  19.141  1.00  0.00    -0.550 OA
ATOM     14  O   UNL     1      54.890   3.178  20.163  1.00  0.00    -0.550 OA
ENDBRANCH  11  12
ENDBRANCH  10  11
ENDBRANCH   9  10
ENDBRANCH   8   9
ENDBRANCH   7   8
ENDBRANCH   6   7
ENDBRANCH   5   6
ENDBRANCH   4   5
ENDBRANCH   3   4
ENDBRANCH   2   3
ENDBRANCH   1   2
BRANCH   1  15
ATOM     15  C   UNL     1      47.461   4.442  23.823  1.00  0.00     0.000 C 
BRANCH  15  16
ATOM     16  C   UNL     1      48.723   4.406  24.702  1.00  0.00     0.000 C 
BRANCH  16  17
ATOM     17  C   UNL     1      49.868   5.250  24.114  1.00  0.00     0.000 C 
BRANCH  17  18
ATOM     18  C   UNL     1      50.537   6.150  25.166  1.00  0.00    -0.000 C 
BRANCH  18  19
ATOM     19  C   UNL     1      50.407   7.644  24.835  1.00  0.00    -0.000 C 
BRANCH  19  20
ATOM     20  C   UNL     1      48.933   8.048  24.708  1.00  0.00    -0.000 C 
BRANCH  20  21
ATOM     21  C   UNL     1      48.637   8.628  23.318  1.00  0.00    -0.000 C 
BRANCH  21  22
ATOM     22  C   UNL     1      47.790   7.686  22.442  1.00  0.00    -0.000 C 
BRANCH  22  23
ATOM     23  C   UNL     1      48.488   7.176  21.168  1.00  0.00    -0.000 C 
BRANCH  23  24
ATOM     24  C   UNL     1      49.956   7.616  21.071  1.00  0.00    -0.000 C 
BRANCH  24  25
ATOM     25  C   UNL     1      50.483   7.454  19.640  1.00  0.00    -0.003 C 
ATOM     26  C   UNL     1      50.901   8.799  19.050  1.00  0.00     0.004 C 
ENDBRANCH  24  25
ENDBRANCH  23  24
ENDBRANCH  22  23
ENDBRANCH  21  22
ENDBRANCH  20  21
ENDBRANCH  19  20
ENDBRANCH  18  19
ENDBRANCH  17  18
ENDBRANCH  16  17
ENDBRANCH  15  16
ENDBRANCH   1  15
TORSDOF 22
ENDMDL
MODEL 4
REMARK VINA RESULT:    -4.460      2.795      5.743
REMARK INTER + INTRA:         -13.435
REMARK INTER:                  -9.690
REMARK INTRA:                  -3.744
REMARK UNBOUND:                -3.238
REMARK SMILES CCCCCCCCCCCCCCCCCCCCCCCC(=O)[O-]
REMARK SMILES IDX 13 1 14 2 15 3 16 4 17 5 18 6 19 7 20 8 21 9 22 10 23 11
REMARK SMILES IDX 24 12 25 13 26 14 12 15 11 16 10 17 9 18 8 19 7 20 6 21 5 22
REMARK SMILES IDX 4 23 3 24 2 25 1 26
REMARK H PARENT
REMARK Flexibility Score: inf
ROOT
ATOM      1  C   UNL     1      50.249   6.749  24.466  1.00  0.00     0.000 C 
ENDROOT
BRANCH   1   2
ATOM      2  C   UNL     1      50.357   8.280  24.585  1.00  0.00     0.000 C 
BRANCH   2   3
ATOM      3  C   UNL     1      49.032   9.042  24.384  1.00  0.00     0.000 C 
BRANCH   3   4
ATOM      4  C   UNL     1      47.795   8.163  24.618  1.00  0.00     0.000 C 
BRANCH   4   5
ATOM      5  C   UNL     1      46.862   8.186  23.398  1.00  0.00     0.000 C 
BRANCH   5   6
ATOM      6  C   UNL     1      46.330   6.790  23.026  1.00  0.00     0.000 C 
BRANCH   6   7
ATOM      7  C   UNL     1      47.190   6.021  22.008  1.00  0.00     0.000 C 
BRANCH   7   8
ATOM      8  C   UNL     1      47.905   6.948  21.010  1.00  0.00     0.000 C 
BRANCH   8   9
ATOM      9  C   UNL     1      49.420   6.664  20.927  1.00  0.00     0.000 C 
BRANCH   9  10
ATOM     10  C   UNL     1      50.287   7.940  20.886  1.00  0.00     0.006 C 
BRANCH  10  11
ATOM     11  C   UNL     1      51.011   8.168  19.550  1.00  0.00     0.053 C 
BRANCH  11  12
ATOM     12  C   UNL     1      50.181   8.966  18.590  1.00  0.00     0.041 C 
ATOM     13  O   UNL     1      50.273  10.222  18.566  1.00  0.00    -0.550 OA
ATOM     14  O   UNL     1      49.303   8.326  17.724  1.00  0.00    -0.550 OA
ENDBRANCH  11  12
ENDBRANCH  10  11
ENDBRANCH   9  10
ENDBRANCH   8   9
ENDBRANCH   7   8
ENDBRANCH   6   7
ENDBRANCH   5   6
ENDBRANCH   4   5
ENDBRANCH   3   4
ENDBRANCH   2   3
ENDBRANCH   1   2
BRANCH   1  15
ATOM     15  C   UNL     1      50.848   6.013  25.676  1.00  0.00     0.000 C 
BRANCH  15  16
ATOM     16  C   UNL     1      49.937   6.075  26.913  1.00  0.00     0.000 C 
BRANCH  16  17
ATOM     17  C   UNL     1      49.487   4.678  27.377  1.00  0.00     0.000 C 
BRANCH  17  18
ATOM     18  C   UNL     1      48.778   3.887  26.265  1.00  0.00    -0.000 C 
BRANCH  18  19
ATOM     19  C   UNL     1      49.363   2.480  26.074  1.00  0.00    -0.000 C 
BRANCH  19  20
ATOM     20  C   UNL     1      49.517   2.150  24.584  1.00  0.00    -0.000 C 
BRANCH  20  21
ATOM     21  C   UNL     1      49.073   3.329  23.708  1.00  0.00    -0.000 C 
BRANCH  21  22
ATOM     22  C   UNL     1      49.800   3.378  22.351  1.00  0.00    -0.000 C 
BRANCH  22  23
ATOM     23  C   UNL     1      51.247   2.850  22.368  1.00  0.00    -0.000 C 
BRANCH  23  24
ATOM     24  C   UNL     1      51.552   1.896  21.204  1.00  0.00    -0.000 C 
BRANCH  24  25
ATOM     25  C   UNL     1      51.169   2.530  19.861  1.00  0.00    -0.003 C 
ATOM     26  C   UNL     1      52.264   3.471  19.364  1.00  0.00     0.004 C 
ENDBRANCH  24  25
ENDBRANCH  23  24
ENDBRANCH  22  23
ENDBRANCH  21  22
ENDBRANCH  20  21
ENDBRANCH  19  20
ENDBRANCH  18  19
ENDBRANCH  17  18
ENDBRANCH  16  17
ENDBRANCH  15  16
ENDBRANCH   1  15
TORSDOF 22
ENDMDL
MODEL 5
REMARK VINA RESULT:    -4.457      2.882      5.807
REMARK INTER + INTRA:         -13.428
REMARK INTER:                 -10.064
REMARK INTRA:                  -3.364
REMARK UNBOUND:                -3.238
REMARK SMILES CCCCCCCCCCCCCCCCCCCCCCCC(=O)[O-]
REMARK SMILES IDX 13 1 14 2 15 3 16 4 17 5 18 6 19 7 20 8 21 9 22 10 23 11
REMARK SMILES IDX 24 12 25 13 26 14 12 15 11 16 10 17 9 18 8 19 7 20 6 21 5 22
REMARK SMILES IDX 4 23 3 24 2 25 1 26
REMARK H PARENT
REMARK Flexibility Score: inf
ROOT
ATOM      1  C   UNL     1      47.758   4.323  24.786  1.00  0.00     0.000 C 
ENDROOT
BRANCH   1   2
ATOM      2  C   UNL     1      49.243   4.135  25.146  1.00  0.00     0.000 C 
BRANCH   2   3
ATOM      3  C   UNL     1      50.205   5.139  24.479  1.00  0.00     0.000 C 
BRANCH   3   4
ATOM      4  C   UNL     1      50.605   6.292  25.411  1.00  0.00     0.000 C 
BRANCH   4   5
ATOM      5  C   UNL     1      50.418   7.650  24.720  1.00  0.00     0.000 C 
BRANCH   5   6
ATOM      6  C   UNL     1      48.937   8.008  24.498  1.00  0.00     0.000 C 
BRANCH   6   7
ATOM      7  C   UNL     1      48.599   8.507  23.082  1.00  0.00     0.000 C 
BRANCH   7   8
ATOM      8  C   UNL     1      49.611   8.033  22.024  1.00  0.00     0.000 C 
BRANCH   8   9
ATOM      9  C   UNL     1      48.937   7.687  20.679  1.00  0.00     0.000 C 
BRANCH   9  10
ATOM     10  C   UNL     1      49.041   8.812  19.628  1.00  0.00     0.006 C 
BRANCH  10  11
ATOM     11  C   UNL     1      50.468   9.067  19.118  1.00  0.00     0.053 C 
BRANCH  11  12
ATOM     12  C   UNL     1      51.048   7.861  18.443  1.00  0.00     0.041 C 
ATOM     13  O   UNL     1      51.882   7.137  19.048  1.00  0.00    -0.550 OA
ATOM     14  O   UNL     1      50.674   7.538  17.145  1.00  0.00    -0.550 OA
ENDBRANCH  11  12
ENDBRANCH  10  11
ENDBRANCH   9  10
ENDBRANCH   8   9
ENDBRANCH   7   8
ENDBRANCH   6   7
ENDBRANCH   5   6
ENDBRANCH   4   5
ENDBRANCH   3   4
ENDBRANCH   2   3
ENDBRANCH   1   2
BRANCH   1  15
ATOM     15  C   UNL     1      47.543   4.687  23.308  1.00  0.00     0.000 C 
BRANCH  15  16
ATOM     16  C   UNL     1      46.319   3.982  22.700  1.00  0.00     0.000 C 
BRANCH  16  17
ATOM     17  C   UNL     1      45.998   4.488  21.283  1.00  0.00     0.000 C 
BRANCH  17  18
ATOM     18  C   UNL     1      45.869   3.344  20.263  1.00  0.00    -0.000 C 
BRANCH  18  19
ATOM     19  C   UNL     1      45.936   1.957  20.918  1.00  0.00    -0.000 C 
BRANCH  19  20
ATOM     20  C   UNL     1      47.049   1.110  20.288  1.00  0.00    -0.000 C 
BRANCH  20  21
ATOM     21  C   UNL     1      48.380   1.874  20.267  1.00  0.00    -0.000 C 
BRANCH  21  22
ATOM     22  C   UNL     1      49.141   1.793  21.603  1.00  0.00    -0.000 C 
BRANCH  22  23
ATOM     23  C   UNL     1      50.495   2.527  21.629  1.00  0.00    -0.000 C 
BRANCH  23  24
ATOM     24  C   UNL     1      50.720   3.415  20.396  1.00  0.00    -0.000 C 
BRANCH  24  25
ATOM     25  C   UNL     1      51.759   2.792  19.456  1.00  0.00    -0.003 C 
ATOM     26  C   UNL     1      53.126   2.697  20.130  1.00  0.00     0.004 C 
ENDBRANCH  24  25
ENDBRANCH  23  24
ENDBRANCH  22  23
ENDBRANCH  21  22
ENDBRANCH  20  21
ENDBRANCH  19  20
ENDBRANCH  18  19
ENDBRANCH  17  18
ENDBRANCH  16  17
ENDBRANCH  15  16
ENDBRANCH   1  15
TORSDOF 22
ENDMDL
MODEL 6
REMARK VINA RESULT:    -4.406      3.712      7.584
REMARK INTER + INTRA:         -13.311
REMARK INTER:                  -9.267
REMARK INTRA:                  -4.044
REMARK UNBOUND:                -3.238
REMARK SMILES CCCCCCCCCCCCCCCCCCCCCCCC(=O)[O-]
REMARK SMILES IDX 13 1 14 2 15 3 16 4 17 5 18 6 19 7 20 8 21 9 22 10 23 11
REMARK SMILES IDX 24 12 25 13 26 14 12 15 11 16 10 17 9 18 8 19 7 20 6 21 5 22
REMARK SMILES IDX 4 23 3 24 2 25 1 26
REMARK H PARENT
REMARK Flexibility Score: inf
ROOT
ATOM      1  C   UNL     1      46.701   5.816  21.730  1.00  0.00     0.000 C 
ENDROOT
BRANCH   1   2
ATOM      2  C   UNL     1      45.758   5.755  22.946  1.00  0.00     0.000 C 
BRANCH   2   3
ATOM      3  C   UNL     1      44.276   5.503  22.607  1.00  0.00     0.000 C 
BRANCH   3   4
ATOM      4  C   UNL     1      43.703   4.266  23.314  1.00  0.00     0.000 C 
BRANCH   4   5
ATOM      5  C   UNL     1      43.721   3.042  22.388  1.00  0.00     0.000 C 
BRANCH   5   6
ATOM      6  C   UNL     1      43.588   3.417  20.900  1.00  0.00     0.000 C 
BRANCH   6   7
ATOM      7  C   UNL     1      44.817   3.083  20.037  1.00  0.00     0.000 C 
BRANCH   7   8
ATOM      8  C   UNL     1      45.784   2.105  20.728  1.00  0.00     0.000 C 
BRANCH   8   9
ATOM      9  C   UNL     1      47.044   1.828  19.881  1.00  0.00     0.000 C 
BRANCH   9  10
ATOM     10  C   UNL     1      48.210   1.219  20.687  1.00  0.00     0.006 C 
BRANCH  10  11
ATOM     11  C   UNL     1      49.543   1.968  20.531  1.00  0.00     0.053 C 
BRANCH  11  12
ATOM     12  C   UNL     1      50.460   1.733  21.694  1.00  0.00     0.041 C 
ATOM     13  O   UNL     1      51.387   2.548  21.944  1.00  0.00    -0.550 OA
ATOM     14  O   UNL     1      50.295   0.613  22.498  1.00  0.00    -0.550 OA
ENDBRANCH  11  12
ENDBRANCH  10  11
ENDBRANCH   9  10
ENDBRANCH   8   9
ENDBRANCH   7   8
ENDBRANCH   6   7
ENDBRANCH   5   6
ENDBRANCH   4   5
ENDBRANCH   3   4
ENDBRANCH   2   3
ENDBRANCH   1   2
BRANCH   1  15
ATOM     15  C   UNL     1      47.926   4.899  21.877  1.00  0.00     0.000 C 
BRANCH  15  16
ATOM     16  C   UNL     1      47.910   4.103  23.192  1.00  0.00     0.000 C 
BRANCH  16  17
ATOM     17  C   UNL     1      49.154   4.379  24.056  1.00  0.00     0.000 C 
BRANCH  17  18
ATOM     18  C   UNL     1      48.959   5.572  25.006  1.00  0.00    -0.000 C 
BRANCH  18  19
ATOM     19  C   UNL     1      50.279   6.278  25.346  1.00  0.00    -0.000 C 
BRANCH  19  20
ATOM     20  C   UNL     1      50.480   7.516  24.463  1.00  0.00    -0.000 C 
BRANCH  20  21
ATOM     21  C   UNL     1      49.147   8.232  24.203  1.00  0.00    -0.000 C 
BRANCH  21  22
ATOM     22  C   UNL     1      48.946   8.611  22.724  1.00  0.00    -0.000 C 
BRANCH  22  23
ATOM     23  C   UNL     1      49.862   7.871  21.731  1.00  0.00    -0.000 C 
BRANCH  23  24
ATOM     24  C   UNL     1      49.426   8.044  20.269  1.00  0.00    -0.000 C 
BRANCH  24  25
ATOM     25  C   UNL     1      50.587   8.559  19.409  1.00  0.00    -0.003 C 
ATOM     26  C   UNL     1      51.586   7.445  19.106  1.00  0.00     0.004 C 
ENDBRANCH  24  25
ENDBRANCH  23  24
ENDBRANCH  22  23
ENDBRANCH  21  22
ENDBRANCH  20  21
ENDBRANCH  19  20
ENDBRANCH  18  19
ENDBRANCH  17  18
ENDBRANCH  16  17
ENDBRANCH  15  16
ENDBRANCH   1  15
TORSDOF 22
ENDMDL
MODEL 7
REMARK VINA RESULT:    -4.370      4.577      7.502
REMARK INTER + INTRA:         -13.229
REMARK INTER:                  -8.733
REMARK INTRA:                  -4.496
REMARK UNBOUND:                -3.238
REMARK SMILES CCCCCCCCCCCCCCCCCCCCCCCC(=O)[O-]
REMARK SMILES IDX 13 1 14 2 15 3 16 4 17 5 18 6 19 7 20 8 21 9 22 10 23 11
REMARK SMILES IDX 24 12 25 13 26 14 12 15 11 16 10 17 9 18 8 19 7 20 6 21 5 22
REMARK SMILES IDX 4 23 3 24 2 25 1 26
REMARK H PARENT
REMARK Flexibility Score: inf
ROOT
ATOM      1  C   UNL     1      46.317   2.707  20.660  1.00  0.00     0.000 C 
ENDROOT
BRANCH   1   2
ATOM      2  C   UNL     1      45.118   3.377  19.964  1.00  0.00     0.000 C 
BRANCH   2   3
ATOM      3  C   UNL     1      43.752   3.116  20.628  1.00  0.00     0.000 C 
BRANCH   3   4
ATOM      4  C   UNL     1      43.777   3.321  22.149  1.00  0.00     0.000 C 
BRANCH   4   5
ATOM      5  C   UNL     1      43.251   2.080  22.884  1.00  0.00     0.000 C 
BRANCH   5   6
ATOM      6  C   UNL     1      43.330   0.802  22.029  1.00  0.00     0.000 C 
BRANCH   6   7
ATOM      7  C   UNL     1      43.954  -0.413  22.738  1.00  0.00     0.000 C 
BRANCH   7   8
ATOM      8  C   UNL     1      43.853  -0.325  24.271  1.00  0.00     0.000 C 
BRANCH   8   9
ATOM      9  C   UNL     1      45.239  -0.249  24.947  1.00  0.00     0.000 C 
BRANCH   9  10
ATOM     10  C   UNL     1      45.347   0.862  26.013  1.00  0.00     0.006 C 
BRANCH  10  11
ATOM     11  C   UNL     1      45.956   2.175  25.496  1.00  0.00     0.053 C 
BRANCH  11  12
ATOM     12  C   UNL     1      46.976   2.733  26.442  1.00  0.00     0.041 C 
ATOM     13  O   UNL     1      47.766   1.962  27.048  1.00  0.00    -0.550 OA
ATOM     14  O   UNL     1      47.051   4.102  26.661  1.00  0.00    -0.550 OA
ENDBRANCH  11  12
ENDBRANCH  10  11
ENDBRANCH   9  10
ENDBRANCH   8   9
ENDBRANCH   7   8
ENDBRANCH   6   7
ENDBRANCH   5   6
ENDBRANCH   4   5
ENDBRANCH   3   4
ENDBRANCH   2   3
ENDBRANCH   1   2
BRANCH   1  15
ATOM     15  C   UNL     1      46.865   1.503  19.877  1.00  0.00     0.000 C 
BRANCH  15  16
ATOM     16  C   UNL     1      47.459   0.424  20.796  1.00  0.00     0.000 C 
BRANCH  16  17
ATOM     17  C   UNL     1      47.453   0.849  22.276  1.00  0.00     0.000 C 
BRANCH  17  18
ATOM     18  C   UNL     1      48.761   0.489  22.998  1.00  0.00    -0.000 C 
BRANCH  18  19
ATOM     19  C   UNL     1      49.330   1.660  23.812  1.00  0.00    -0.000 C 
BRANCH  19  20
ATOM     20  C   UNL     1      48.865   3.003  23.234  1.00  0.00    -0.000 C 
BRANCH  20  21
ATOM     21  C   UNL     1      50.053   3.818  22.705  1.00  0.00    -0.000 C 
BRANCH  21  22
ATOM     22  C   UNL     1      49.993   4.051  21.184  1.00  0.00    -0.000 C 
BRANCH  22  23
ATOM     23  C   UNL     1      50.187   2.789  20.323  1.00  0.00    -0.000 C 
BRANCH  23  24
ATOM     24  C   UNL     1      51.575   2.715  19.670  1.00  0.00    -0.000 C 
BRANCH  24  25
ATOM     25  C   UNL     1      52.620   2.193  20.664  1.00  0.00    -0.003 C 
ATOM     26  C   UNL     1      52.128   0.932  21.370  1.00  0.00     0.004 C 
ENDBRANCH  24  25
ENDBRANCH  23  24
ENDBRANCH  22  23
ENDBRANCH  21  22
ENDBRANCH  20  21
ENDBRANCH  19  20
ENDBRANCH  18  19
ENDBRANCH  17  18
ENDBRANCH  16  17
ENDBRANCH  15  16
ENDBRANCH   1  15
TORSDOF 22
ENDMDL
MODEL 8
REMARK VINA RESULT:    -4.361      3.335      6.638
REMARK INTER + INTRA:         -13.207
REMARK INTER:                  -9.964
REMARK INTRA:                  -3.244
REMARK UNBOUND:                -3.238
REMARK SMILES CCCCCCCCCCCCCCCCCCCCCCCC(=O)[O-]
REMARK SMILES IDX 13 1 14 2 15 3 16 4 17 5 18 6 19 7 20 8 21 9 22 10 23 11
REMARK SMILES IDX 24 12 25 13 26 14 12 15 11 16 10 17 9 18 8 19 7 20 6 21 5 22
REMARK SMILES IDX 4 23 3 24 2 25 1 26
REMARK H PARENT
REMARK Flexibility Score: inf
ROOT
ATOM      1  C   UNL     1      49.604   8.963  23.997  1.00  0.00     0.000 C 
ENDROOT
BRANCH   1   2
ATOM      2  C   UNL     1      48.278   9.033  24.776  1.00  0.00     0.000 C 
BRANCH   2   3
ATOM      3  C   UNL     1      47.382  10.238  24.428  1.00  0.00     0.000 C 
BRANCH   3   4
ATOM      4  C   UNL     1      46.091   9.834  23.702  1.00  0.00     0.000 C 
BRANCH   4   5
ATOM      5  C   UNL     1      45.900  10.654  22.417  1.00  0.00     0.000 C 
BRANCH   5   6
ATOM      6  C   UNL     1      47.000  11.712  22.215  1.00  0.00     0.000 C 
BRANCH   6   7
ATOM      7  C   UNL     1      47.012  12.374  20.826  1.00  0.00     0.000 C 
BRANCH   7   8
ATOM      8  C   UNL     1      47.433  13.853  20.873  1.00  0.00     0.000 C 
BRANCH   8   9
ATOM      9  C   UNL     1      48.424  14.218  19.748  1.00  0.00     0.000 C 
BRANCH   9  10
ATOM     10  C   UNL     1      48.646  13.084  18.726  1.00  0.00     0.006 C 
BRANCH  10  11
ATOM     11  C   UNL     1      49.957  13.199  17.931  1.00  0.00     0.053 C 
BRANCH  11  12
ATOM     12  C   UNL     1      49.710  13.419  16.469  1.00  0.00     0.041 C 
ATOM     13  O   UNL     1      50.677  13.477  15.665  1.00  0.00    -0.550 OA
ATOM     14  O   UNL     1      48.413  13.567  15.994  1.00  0.00    -0.550 OA
ENDBRANCH  11  12
ENDBRANCH  10  11
ENDBRANCH   9  10
ENDBRANCH   8   9
ENDBRANCH   7   8
ENDBRANCH   6   7
ENDBRANCH   5   6
ENDBRANCH   4   5
ENDBRANCH   3   4
ENDBRANCH   2   3
ENDBRANCH   1   2
BRANCH   1  15
ATOM     15  C   UNL     1      50.384   7.665  24.260  1.00  0.00     0.000 C 
BRANCH  15  16
ATOM     16  C   UNL     1      49.460   6.474  24.563  1.00  0.00     0.000 C 
BRANCH  16  17
ATOM     17  C   UNL     1      49.037   5.724  23.287  1.00  0.00     0.000 C 
BRANCH  17  18
ATOM     18  C   UNL     1      47.511   5.591  23.159  1.00  0.00    -0.000 C 
BRANCH  18  19
ATOM     19  C   UNL     1      46.913   6.580  22.148  1.00  0.00    -0.000 C 
BRANCH  19  20
ATOM     20  C   UNL     1      47.970   7.022  21.127  1.00  0.00    -0.000 C 
BRANCH  20  21
ATOM     21  C   UNL     1      47.487   8.237  20.323  1.00  0.00    -0.000 C 
BRANCH  21  22
ATOM     22  C   UNL     1      48.534   8.746  19.315  1.00  0.00    -0.000 C 
BRANCH  22  23
ATOM     23  C   UNL     1      49.943   8.972  19.896  1.00  0.00    -0.000 C 
BRANCH  23  24
ATOM     24  C   UNL     1      51.058   8.404  19.006  1.00  0.00    -0.000 C 
BRANCH  24  25
ATOM     25  C   UNL     1      51.122   6.876  19.118  1.00  0.00    -0.003 C 
ATOM     26  C   UNL     1      52.453   6.340  18.595  1.00  0.00     0.004 C 
ENDBRANCH  24  25
ENDBRANCH  23  24
ENDBRANCH  22  23
ENDBRANCH  21  22
ENDBRANCH  20  21
ENDBRANCH  19  20
ENDBRANCH  18  19
ENDBRANCH  17  18
ENDBRANCH  16  17
ENDBRANCH  15  16
ENDBRANCH   1  15
TORSDOF 22
ENDMDL
MODEL 9
REMARK VINA RESULT:    -4.323      4.678      8.579
REMARK INTER + INTRA:         -13.121
REMARK INTER:                  -8.945
REMARK INTRA:                  -4.176
REMARK UNBOUND:                -3.238
REMARK SMILES CCCCCCCCCCCCCCCCCCCCCCCC(=O)[O-]
REMARK SMILES IDX 13 1 14 2 15 3 16 4 17 5 18 6 19 7 20 8 21 9 22 10 23 11
REMARK SMILES IDX 24 12 25 13 26 14 12 15 11 16 10 17 9 18 8 19 7 20 6 21 5 22
REMARK SMILES IDX 4 23 3 24 2 25 1 26
REMARK H PARENT
REMARK Flexibility Score: inf
ROOT
ATOM      1  C   UNL     1      43.179   0.147  22.146  1.00  0.00     0.000 C 
ENDROOT
BRANCH   1   2
ATOM      2  C   UNL     1      43.114   0.962  23.450  1.00  0.00     0.000 C 
BRANCH   2   3
ATOM      3  C   UNL     1      44.450   1.082  24.209  1.00  0.00     0.000 C 
BRANCH   3   4
ATOM      4  C   UNL     1      45.209  -0.250  24.296  1.00  0.00     0.000 C 
BRANCH   4   5
ATOM      5  C   UNL     1      46.664  -0.088  23.833  1.00  0.00     0.000 C 
BRANCH   5   6
ATOM      6  C   UNL     1      46.925  -0.716  22.452  1.00  0.00     0.000 C 
BRANCH   6   7
ATOM      7  C   UNL     1      48.061  -0.059  21.647  1.00  0.00     0.000 C 
BRANCH   7   8
ATOM      8  C   UNL     1      47.556   1.027  20.682  1.00  0.00     0.000 C 
BRANCH   8   9
ATOM      9  C   UNL     1      48.575   2.173  20.502  1.00  0.00     0.000 C 
BRANCH   9  10
ATOM     10  C   UNL     1      50.007   1.801  20.939  1.00  0.00     0.006 C 
BRANCH  10  11
ATOM     11  C   UNL     1      51.022   2.950  20.817  1.00  0.00     0.053 C 
BRANCH  11  12
ATOM     12  C   UNL     1      51.786   2.891  19.529  1.00  0.00     0.041 C 
ATOM     13  O   UNL     1      51.641   3.795  18.665  1.00  0.00    -0.550 OA
ATOM     14  O   UNL     1      52.654   1.836  19.279  1.00  0.00    -0.550 OA
ENDBRANCH  11  12
ENDBRANCH  10  11
ENDBRANCH   9  10
ENDBRANCH   8   9
ENDBRANCH   7   8
ENDBRANCH   6   7
ENDBRANCH   5   6
ENDBRANCH   4   5
ENDBRANCH   3   4
ENDBRANCH   2   3
ENDBRANCH   1   2
BRANCH   1  15
ATOM     15  C   UNL     1      43.820   0.927  20.986  1.00  0.00     0.000 C 
BRANCH  15  16
ATOM     16  C   UNL     1      43.303   2.371  20.891  1.00  0.00     0.000 C 
BRANCH  16  17
ATOM     17  C   UNL     1      44.334   3.320  20.254  1.00  0.00     0.000 C 
BRANCH  17  18
ATOM     18  C   UNL     1      45.315   3.904  21.285  1.00  0.00    -0.000 C 
BRANCH  18  19
ATOM     19  C   UNL     1      44.623   4.317  22.591  1.00  0.00    -0.000 C 
BRANCH  19  20
ATOM     20  C   UNL     1      45.655   4.629  23.681  1.00  0.00    -0.000 C 
BRANCH  20  21
ATOM     21  C   UNL     1      47.082   4.347  23.189  1.00  0.00    -0.000 C 
BRANCH  21  22
ATOM     22  C   UNL     1      47.815   3.295  24.042  1.00  0.00    -0.000 C 
BRANCH  22  23
ATOM     23  C   UNL     1      49.283   3.627  24.367  1.00  0.00    -0.000 C 
BRANCH  23  24
ATOM     24  C   UNL     1      49.705   5.022  23.881  1.00  0.00    -0.000 C 
BRANCH  24  25
ATOM     25  C   UNL     1      50.376   5.814  25.010  1.00  0.00    -0.003 C 
ATOM     26  C   UNL     1      49.733   5.505  26.359  1.00  0.00     0.004 C 
ENDBRANCH  24  25
ENDBRANCH  23  24
ENDBRANCH  22  23
ENDBRANCH  21  22
ENDBRANCH  20  21
ENDBRANCH  19  20
ENDBRANCH  18  19
ENDBRANCH  17  18
ENDBRANCH  16  17
ENDBRANCH  15  16
ENDBRANCH   1  15
TORSDOF 22
ENDMDL
