MODEL 1
REMARK VINA RESULT:    -6.367      0.000      0.000
REMARK INTER + INTRA:          -6.981
REMARK INTER:                  -6.739
REMARK INTRA:                  -0.241
REMARK UNBOUND:                -0.241
REMARK SMILES O=c1cc(-c2ccccc2)oc2ccccc12
REMARK SMILES IDX 4 1 3 2 2 3 1 4 17 5 16 6 15 7 14 8 13 9 12 10 11 11 5 12
REMARK SMILES IDX 8 13 7 14 9 15 6 16 10 17
REMARK H PARENT
REMARK Flexibility Score: inf
ROOT
ATOM      1  C   UNL     1      -3.817  -2.300  -4.898  1.00  0.00     0.138 A 
ATOM      2  C   UNL     1      -3.106  -1.467  -5.787  1.00  0.00     0.100 A 
ATOM      3  C   UNL     1      -3.526  -0.149  -5.980  1.00  0.00     0.193 A 
ATOM      4  O   UNL     1      -2.891   0.596  -6.775  1.00  0.00    -0.289 OA
ATOM      5  C   UNL     1      -4.648   0.326  -5.287  1.00  0.00     0.065 A 
ATOM      6  C   UNL     1      -5.124   1.641  -5.436  1.00  0.00     0.016 A 
ATOM      7  C   UNL     1      -6.248   2.065  -4.719  1.00  0.00     0.001 A 
ATOM      8  C   UNL     1      -6.904   1.183  -3.855  1.00  0.00     0.004 A 
ATOM      9  C   UNL     1      -6.438  -0.125  -3.701  1.00  0.00     0.048 A 
ATOM     10  C   UNL     1      -5.314  -0.559  -4.413  1.00  0.00     0.138 A 
ATOM     11  O   UNL     1      -4.879  -1.806  -4.260  1.00  0.00    -0.456 OA
ENDROOT
BRANCH   1  12
ATOM     12  C   UNL     1      -3.435  -3.722  -4.634  1.00  0.00     0.017 A 
ATOM     13  C   UNL     1      -2.808  -6.432  -4.152  1.00  0.00     0.000 A 
ATOM     14  C   UNL     1      -4.113  -6.065  -4.478  1.00  0.00     0.001 A 
ATOM     15  C   UNL     1      -1.813  -5.459  -4.063  1.00  0.00     0.001 A 
ATOM     16  C   UNL     1      -4.426  -4.724  -4.718  1.00  0.00     0.012 A 
ATOM     17  C   UNL     1      -2.118  -4.115  -4.301  1.00  0.00     0.012 A 
ENDBRANCH   1  12
TORSDOF 1
ENDMDL
MODEL 2
REMARK VINA RESULT:    -6.168      1.888      6.584
REMARK INTER + INTRA:          -6.770
REMARK INTER:                  -6.514
REMARK INTRA:                  -0.255
REMARK UNBOUND:                -0.241
REMARK SMILES O=c1cc(-c2ccccc2)oc2ccccc12
REMARK SMILES IDX 4 1 3 2 2 3 1 4 17 5 16 6 15 7 14 8 13 9 12 10 11 11 5 12
REMARK SMILES IDX 8 13 7 14 9 15 6 16 10 17
REMARK H PARENT
REMARK Flexibility Score: inf
ROOT
ATOM      1  C   UNL     1      -5.858   1.527  -5.105  1.00  0.00     0.138 A 
ATOM      2  C   UNL     1      -4.788   1.819  -5.977  1.00  0.00     0.100 A 
ATOM      3  C   UNL     1      -3.796   0.861  -6.196  1.00  0.00     0.193 A 
ATOM      4  O   UNL     1      -2.839   1.123  -6.975  1.00  0.00    -0.289 OA
ATOM      5  C   UNL     1      -3.877  -0.378  -5.545  1.00  0.00     0.065 A 
ATOM      6  C   UNL     1      -2.912  -1.386  -5.720  1.00  0.00     0.016 A 
ATOM      7  C   UNL     1      -3.042  -2.605  -5.046  1.00  0.00     0.001 A 
ATOM      8  C   UNL     1      -4.130  -2.825  -4.196  1.00  0.00     0.004 A 
ATOM      9  C   UNL     1      -5.093  -1.829  -4.017  1.00  0.00     0.048 A 
ATOM     10  C   UNL     1      -4.973  -0.607  -4.685  1.00  0.00     0.138 A 
ATOM     11  O   UNL     1      -5.895   0.335  -4.507  1.00  0.00    -0.456 OA
ENDROOT
BRANCH   1  12
ATOM     12  C   UNL     1      -6.960   2.495  -4.816  1.00  0.00     0.017 A 
ATOM     13  C   UNL     1      -8.978   4.396  -4.284  1.00  0.00     0.000 A 
ATOM     14  C   UNL     1      -7.689   4.818  -4.608  1.00  0.00     0.001 A 
ATOM     15  C   UNL     1      -9.269   3.034  -4.223  1.00  0.00     0.001 A 
ATOM     16  C   UNL     1      -6.688   3.879  -4.873  1.00  0.00     0.012 A 
ATOM     17  C   UNL     1      -8.273   2.087  -4.485  1.00  0.00     0.012 A 
ENDBRANCH   1  12
TORSDOF 1
ENDMDL
MODEL 3
REMARK VINA RESULT:    -6.122      2.906      7.417
REMARK INTER + INTRA:          -6.721
REMARK INTER:                  -6.464
REMARK INTRA:                  -0.257
REMARK UNBOUND:                -0.241
REMARK SMILES O=c1cc(-c2ccccc2)oc2ccccc12
REMARK SMILES IDX 4 1 3 2 2 3 1 4 17 5 16 6 15 7 14 8 13 9 12 10 11 11 5 12
REMARK SMILES IDX 8 13 7 14 9 15 6 16 10 17
REMARK H PARENT
REMARK Flexibility Score: inf
ROOT
ATOM      1  C   UNL     1      -6.794   2.177  -4.621  1.00  0.00     0.138 A 
ATOM      2  C   UNL     1      -6.985   0.984  -3.893  1.00  0.00     0.100 A 
ATOM      3  C   UNL     1      -6.098  -0.080  -4.069  1.00  0.00     0.193 A 
ATOM      4  O   UNL     1      -6.269  -1.147  -3.418  1.00  0.00    -0.289 OA
ATOM      5  C   UNL     1      -5.031   0.052  -4.967  1.00  0.00     0.065 A 
ATOM      6  C   UNL     1      -4.102  -0.980  -5.192  1.00  0.00     0.016 A 
ATOM      7  C   UNL     1      -3.055  -0.794  -6.100  1.00  0.00     0.001 A 
ATOM      8  C   UNL     1      -2.927   0.417  -6.788  1.00  0.00     0.004 A 
ATOM      9  C   UNL     1      -3.845   1.447  -6.571  1.00  0.00     0.048 A 
ATOM     10  C   UNL     1      -4.896   1.272  -5.665  1.00  0.00     0.138 A 
ATOM     11  O   UNL     1      -5.765   2.259  -5.465  1.00  0.00    -0.456 OA
ENDROOT
BRANCH   1  12
ATOM     12  C   UNL     1      -7.697   3.363  -4.492  1.00  0.00     0.017 A 
ATOM     13  C   UNL     1      -9.473   5.540  -4.225  1.00  0.00     0.000 A 
ATOM     14  C   UNL     1      -9.918   4.242  -3.981  1.00  0.00     0.001 A 
ATOM     15  C   UNL     1      -8.149   5.762  -4.601  1.00  0.00     0.001 A 
ATOM     16  C   UNL     1      -9.041   3.162  -4.112  1.00  0.00     0.012 A 
ATOM     17  C   UNL     1      -7.264   4.687  -4.736  1.00  0.00     0.012 A 
ENDBRANCH   1  12
TORSDOF 1
ENDMDL
MODEL 4
REMARK VINA RESULT:    -6.051      1.105      1.267
REMARK INTER + INTRA:          -6.646
REMARK INTER:                  -6.390
REMARK INTRA:                  -0.256
REMARK UNBOUND:                -0.241
REMARK SMILES O=c1cc(-c2ccccc2)oc2ccccc12
REMARK SMILES IDX 4 1 3 2 2 3 1 4 17 5 16 6 15 7 14 8 13 9 12 10 11 11 5 12
REMARK SMILES IDX 8 13 7 14 9 15 6 16 10 17
REMARK H PARENT
REMARK Flexibility Score: inf
ROOT
ATOM      1  C   UNL     1      -4.672  -2.054  -4.701  1.00  0.00     0.138 A 
ATOM      2  C   UNL     1      -3.953  -0.915  -5.118  1.00  0.00     0.100 A 
ATOM      3  C   UNL     1      -4.606   0.316  -5.211  1.00  0.00     0.193 A 
ATOM      4  O   UNL     1      -3.963   1.335  -5.584  1.00  0.00    -0.289 OA
ATOM      5  C   UNL     1      -5.967   0.402  -4.887  1.00  0.00     0.065 A 
ATOM      6  C   UNL     1      -6.685   1.609  -4.959  1.00  0.00     0.016 A 
ATOM      7  C   UNL     1      -8.042   1.638  -4.624  1.00  0.00     0.001 A 
ATOM      8  C   UNL     1      -8.691   0.468  -4.218  1.00  0.00     0.004 A 
ATOM      9  C   UNL     1      -7.986  -0.736  -4.144  1.00  0.00     0.048 A 
ATOM     10  C   UNL     1      -6.628  -0.776  -4.476  1.00  0.00     0.138 A 
ATOM     11  O   UNL     1      -5.966  -1.927  -4.403  1.00  0.00    -0.456 OA
ENDROOT
BRANCH   1  12
ATOM     12  C   UNL     1      -4.050  -3.409  -4.575  1.00  0.00     0.017 A 
ATOM     13  C   UNL     1      -2.963  -6.005  -4.360  1.00  0.00     0.000 A 
ATOM     14  C   UNL     1      -4.308  -5.836  -4.688  1.00  0.00     0.001 A 
ATOM     15  C   UNL     1      -2.156  -4.890  -4.138  1.00  0.00     0.001 A 
ATOM     16  C   UNL     1      -4.848  -4.552  -4.796  1.00  0.00     0.012 A 
ATOM     17  C   UNL     1      -2.689  -3.601  -4.243  1.00  0.00     0.012 A 
ENDBRANCH   1  12
TORSDOF 1
ENDMDL
MODEL 5
REMARK VINA RESULT:    -5.979      2.902      6.998
REMARK INTER + INTRA:          -6.570
REMARK INTER:                  -6.323
REMARK INTRA:                  -0.247
REMARK UNBOUND:                -0.241
REMARK SMILES O=c1cc(-c2ccccc2)oc2ccccc12
REMARK SMILES IDX 4 1 3 2 2 3 1 4 17 5 16 6 15 7 14 8 13 9 12 10 11 11 5 12
REMARK SMILES IDX 8 13 7 14 9 15 6 16 10 17
REMARK H PARENT
REMARK Flexibility Score: inf
ROOT
ATOM      1  C   UNL     1      -1.707  -4.167  -4.673  1.00  0.00     0.138 A 
ATOM      2  C   UNL     1      -0.661  -4.254  -5.617  1.00  0.00     0.100 A 
ATOM      3  C   UNL     1       0.353  -5.196  -5.436  1.00  0.00     0.193 A 
ATOM      4  O   UNL     1       1.288  -5.274  -6.279  1.00  0.00    -0.289 OA
ATOM      5  C   UNL     1       0.318  -6.043  -4.319  1.00  0.00     0.065 A 
ATOM      6  C   UNL     1       1.307  -7.013  -4.077  1.00  0.00     0.016 A 
ATOM      7  C   UNL     1       1.222  -7.833  -2.947  1.00  0.00     0.001 A 
ATOM      8  C   UNL     1       0.157  -7.690  -2.054  1.00  0.00     0.004 A 
ATOM      9  C   UNL     1      -0.830  -6.729  -2.286  1.00  0.00     0.048 A 
ATOM     10  C   UNL     1      -0.756  -5.904  -3.413  1.00  0.00     0.138 A 
ATOM     11  O   UNL     1      -1.700  -4.993  -3.626  1.00  0.00    -0.456 OA
ENDROOT
BRANCH   1  12
ATOM     12  C   UNL     1      -2.830  -3.187  -4.791  1.00  0.00     0.017 A 
ATOM     13  C   UNL     1      -4.886  -1.269  -5.040  1.00  0.00     0.000 A 
ATOM     14  C   UNL     1      -3.565  -0.916  -5.315  1.00  0.00     0.001 A 
ATOM     15  C   UNL     1      -5.190  -2.570  -4.642  1.00  0.00     0.001 A 
ATOM     16  C   UNL     1      -2.545  -1.864  -5.193  1.00  0.00     0.012 A 
ATOM     17  C   UNL     1      -4.176  -3.525  -4.516  1.00  0.00     0.012 A 
ENDBRANCH   1  12
TORSDOF 1
ENDMDL
MODEL 6
REMARK VINA RESULT:    -5.922      2.483      4.541
REMARK INTER + INTRA:          -6.509
REMARK INTER:                  -6.276
REMARK INTRA:                  -0.234
REMARK UNBOUND:                -0.241
REMARK SMILES O=c1cc(-c2ccccc2)oc2ccccc12
REMARK SMILES IDX 4 1 3 2 2 3 1 4 17 5 16 6 15 7 14 8 13 9 12 10 11 11 5 12
REMARK SMILES IDX 8 13 7 14 9 15 6 16 10 17
REMARK H PARENT
REMARK Flexibility Score: inf
ROOT
ATOM      1  C   UNL     1      -2.095  -5.447  -3.923  1.00  0.00     0.138 A 
ATOM      2  C   UNL     1      -3.317  -6.103  -4.184  1.00  0.00     0.100 A 
ATOM      3  C   UNL     1      -4.412  -5.364  -4.637  1.00  0.00     0.193 A 
ATOM      4  O   UNL     1      -5.504  -5.951  -4.871  1.00  0.00    -0.289 OA
ATOM      5  C   UNL     1      -4.281  -3.982  -4.827  1.00  0.00     0.065 A 
ATOM      6  C   UNL     1      -5.343  -3.179  -5.280  1.00  0.00     0.016 A 
ATOM      7  C   UNL     1      -5.158  -1.803  -5.452  1.00  0.00     0.001 A 
ATOM      8  C   UNL     1      -3.918  -1.221  -5.173  1.00  0.00     0.004 A 
ATOM      9  C   UNL     1      -2.858  -2.010  -4.722  1.00  0.00     0.048 A 
ATOM     10  C   UNL     1      -3.031  -3.387  -4.547  1.00  0.00     0.138 A 
ATOM     11  O   UNL     1      -2.016  -4.130  -4.117  1.00  0.00    -0.456 OA
ENDROOT
BRANCH   1  12
ATOM     12  C   UNL     1      -0.875  -6.163  -3.436  1.00  0.00     0.017 A 
ATOM     13  C   UNL     1       1.376  -7.542  -2.438  1.00  0.00     0.000 A 
ATOM     14  C   UNL     1       0.173  -7.567  -1.733  1.00  0.00     0.001 A 
ATOM     15  C   UNL     1       1.466  -6.834  -3.635  1.00  0.00     0.001 A 
ATOM     16  C   UNL     1      -0.944  -6.886  -2.226  1.00  0.00     0.012 A 
ATOM     17  C   UNL     1       0.354  -6.148  -4.135  1.00  0.00     0.012 A 
ENDBRANCH   1  12
TORSDOF 1
ENDMDL
MODEL 7
REMARK VINA RESULT:    -5.910      1.407      2.805
REMARK INTER + INTRA:          -6.497
REMARK INTER:                  -6.234
REMARK INTRA:                  -0.264
REMARK UNBOUND:                -0.241
REMARK SMILES O=c1cc(-c2ccccc2)oc2ccccc12
REMARK SMILES IDX 4 1 3 2 2 3 1 4 17 5 16 6 15 7 14 8 13 9 12 10 11 11 5 12
REMARK SMILES IDX 8 13 7 14 9 15 6 16 10 17
REMARK H PARENT
REMARK Flexibility Score: inf
ROOT
ATOM      1  C   UNL     1      -3.261  -2.928  -4.873  1.00  0.00     0.138 A 
ATOM      2  C   UNL     1      -4.432  -2.696  -4.122  1.00  0.00     0.100 A 
ATOM      3  C   UNL     1      -5.105  -1.480  -4.254  1.00  0.00     0.193 A 
ATOM      4  O   UNL     1      -6.152  -1.272  -3.582  1.00  0.00    -0.289 OA
ATOM      5  C   UNL     1      -4.608  -0.507  -5.132  1.00  0.00     0.065 A 
ATOM      6  C   UNL     1      -5.236   0.738  -5.312  1.00  0.00     0.016 A 
ATOM      7  C   UNL     1      -4.697   1.673  -6.202  1.00  0.00     0.001 A 
ATOM      8  C   UNL     1      -3.532   1.374  -6.914  1.00  0.00     0.004 A 
ATOM      9  C   UNL     1      -2.901   0.140  -6.741  1.00  0.00     0.048 A 
ATOM     10  C   UNL     1      -3.431  -0.803  -5.854  1.00  0.00     0.138 A 
ATOM     11  O   UNL     1      -2.823  -1.974  -5.696  1.00  0.00    -0.456 OA
ENDROOT
BRANCH   1  12
ATOM     12  C   UNL     1      -2.480  -4.201  -4.791  1.00  0.00     0.017 A 
ATOM     13  C   UNL     1      -0.933  -6.559  -4.684  1.00  0.00     0.000 A 
ATOM     14  C   UNL     1      -0.420  -5.416  -5.295  1.00  0.00     0.001 A 
ATOM     15  C   UNL     1      -2.210  -6.537  -4.126  1.00  0.00     0.001 A 
ATOM     16  C   UNL     1      -1.184  -4.246  -5.349  1.00  0.00     0.012 A 
ATOM     17  C   UNL     1      -2.982  -5.372  -4.176  1.00  0.00     0.012 A 
ENDBRANCH   1  12
TORSDOF 1
ENDMDL
MODEL 8
REMARK VINA RESULT:    -5.903      1.947      3.828
REMARK INTER + INTRA:          -6.489
REMARK INTER:                  -6.227
REMARK INTRA:                  -0.262
REMARK UNBOUND:                -0.241
REMARK SMILES O=c1cc(-c2ccccc2)oc2ccccc12
REMARK SMILES IDX 4 1 3 2 2 3 1 4 17 5 16 6 15 7 14 8 13 9 12 10 11 11 5 12
REMARK SMILES IDX 8 13 7 14 9 15 6 16 10 17
REMARK H PARENT
REMARK Flexibility Score: inf
ROOT
ATOM      1  C   UNL     1      -5.892  -0.450  -4.602  1.00  0.00     0.138 A 
ATOM      2  C   UNL     1      -7.217  -0.880  -4.376  1.00  0.00     0.100 A 
ATOM      3  C   UNL     1      -8.247   0.062  -4.322  1.00  0.00     0.193 A 
ATOM      4  O   UNL     1      -9.431  -0.322  -4.119  1.00  0.00    -0.289 OA
ATOM      5  C   UNL     1      -7.949   1.421  -4.494  1.00  0.00     0.065 A 
ATOM      6  C   UNL     1      -8.938   2.420  -4.451  1.00  0.00     0.016 A 
ATOM      7  C   UNL     1      -8.586   3.762  -4.630  1.00  0.00     0.001 A 
ATOM      8  C   UNL     1      -7.251   4.115  -4.850  1.00  0.00     0.004 A 
ATOM      9  C   UNL     1      -6.263   3.129  -4.894  1.00  0.00     0.048 A 
ATOM     10  C   UNL     1      -6.603   1.784  -4.717  1.00  0.00     0.138 A 
ATOM     11  O   UNL     1      -5.655   0.853  -4.760  1.00  0.00    -0.456 OA
ENDROOT
BRANCH   1  12
ATOM     12  C   UNL     1      -4.732  -1.391  -4.674  1.00  0.00     0.017 A 
ATOM     13  C   UNL     1      -2.491  -3.098  -4.854  1.00  0.00     0.000 A 
ATOM     14  C   UNL     1      -2.420  -1.797  -5.352  1.00  0.00     0.001 A 
ATOM     15  C   UNL     1      -3.671  -3.555  -4.267  1.00  0.00     0.001 A 
ATOM     16  C   UNL     1      -3.528  -0.950  -5.263  1.00  0.00     0.012 A 
ATOM     17  C   UNL     1      -4.785  -2.714  -4.175  1.00  0.00     0.012 A 
ENDBRANCH   1  12
TORSDOF 1
ENDMDL
MODEL 9
REMARK VINA RESULT:    -5.852      2.528      7.077
REMARK INTER + INTRA:          -6.435
REMARK INTER:                  -6.206
REMARK INTRA:                  -0.229
REMARK UNBOUND:                -0.241
REMARK SMILES O=c1cc(-c2ccccc2)oc2ccccc12
REMARK SMILES IDX 4 1 3 2 2 3 1 4 17 5 16 6 15 7 14 8 13 9 12 10 11 11 5 12
REMARK SMILES IDX 8 13 7 14 9 15 6 16 10 17
REMARK H PARENT
REMARK Flexibility Score: inf
ROOT
ATOM      1  C   UNL     1      -2.676  -4.503  -4.470  1.00  0.00     0.138 A 
ATOM      2  C   UNL     1      -3.302  -5.645  -5.011  1.00  0.00     0.100 A 
ATOM      3  C   UNL     1      -2.749  -6.907  -4.781  1.00  0.00     0.193 A 
ATOM      4  O   UNL     1      -3.309  -7.929  -5.265  1.00  0.00    -0.289 OA
ATOM      5  C   UNL     1      -1.580  -7.020  -4.016  1.00  0.00     0.065 A 
ATOM      6  C   UNL     1      -0.972  -8.259  -3.748  1.00  0.00     0.016 A 
ATOM      7  C   UNL     1       0.195  -8.315  -2.978  1.00  0.00     0.001 A 
ATOM      8  C   UNL     1       0.761  -7.140  -2.474  1.00  0.00     0.004 A 
ATOM      9  C   UNL     1       0.163  -5.905  -2.736  1.00  0.00     0.048 A 
ATOM     10  C   UNL     1      -1.004  -5.837  -3.504  1.00  0.00     0.138 A 
ATOM     11  O   UNL     1      -1.565  -4.657  -3.749  1.00  0.00    -0.456 OA
ENDROOT
BRANCH   1  12
ATOM     12  C   UNL     1      -3.201  -3.116  -4.668  1.00  0.00     0.017 A 
ATOM     13  C   UNL     1      -4.271  -0.525  -4.991  1.00  0.00     0.000 A 
ATOM     14  C   UNL     1      -4.975  -1.485  -4.265  1.00  0.00     0.001 A 
ATOM     15  C   UNL     1      -3.038  -0.846  -5.557  1.00  0.00     0.001 A 
ATOM     16  C   UNL     1      -4.447  -2.769  -4.104  1.00  0.00     0.012 A 
ATOM     17  C   UNL     1      -2.503  -2.128  -5.401  1.00  0.00     0.012 A 
ENDBRANCH   1  12
TORSDOF 1
ENDMDL
