MODEL 1
REMARK VINA RESULT:    -3.017      0.000      0.000
REMARK INTER + INTRA:          -3.387
REMARK INTER:                  -3.370
REMARK INTRA:                  -0.017
REMARK UNBOUND:                -0.017
REMARK SMILES CCCC(=O)[O-]
REMARK SMILES IDX 3 1 4 2 5 3 6 4 2 5 1 6
REMARK H PARENT
REMARK Flexibility Score: inf
ROOT
ATOM      1  C   UNL     1      58.674  35.359  79.394  1.00  0.00     0.052 C 
ENDROOT
BRANCH   1   2
ATOM      2  C   UNL     1      58.660  36.014  80.739  1.00  0.00     0.041 C 
ATOM      3  O   UNL     1      59.119  35.408  81.743  1.00  0.00    -0.550 OA
ATOM      4  O   UNL     1      58.092  37.272  80.894  1.00  0.00    -0.550 OA
ENDBRANCH   1   2
BRANCH   1   5
ATOM      5  C   UNL     1      58.900  33.852  79.533  1.00  0.00     0.003 C 
ATOM      6  C   UNL     1      57.995  33.070  78.587  1.00  0.00     0.004 C 
ENDBRANCH   1   5
TORSDOF 2
ENDMDL
MODEL 2
REMARK VINA RESULT:    -3.017      1.053      1.301
REMARK INTER + INTRA:          -3.387
REMARK INTER:                  -3.347
REMARK INTRA:                  -0.040
REMARK UNBOUND:                -0.017
REMARK SMILES CCCC(=O)[O-]
REMARK SMILES IDX 3 1 4 2 5 3 6 4 2 5 1 6
REMARK H PARENT
REMARK Flexibility Score: inf
ROOT
ATOM      1  C   UNL     1      58.809  34.765  80.830  1.00  0.00     0.052 C 
ENDROOT
BRANCH   1   2
ATOM      2  C   UNL     1      58.745  36.193  80.387  1.00  0.00     0.041 C 
ATOM      3  O   UNL     1      59.334  36.556  79.335  1.00  0.00    -0.550 OA
ATOM      4  O   UNL     1      58.078  37.133  81.162  1.00  0.00    -0.550 OA
ENDBRANCH   1   2
BRANCH   1   5
ATOM      5  C   UNL     1      59.160  33.853  79.652  1.00  0.00     0.003 C 
ATOM      6  C   UNL     1      57.903  33.275  79.009  1.00  0.00     0.004 C 
ENDBRANCH   1   5
TORSDOF 2
ENDMDL
MODEL 3
REMARK VINA RESULT:    -3.000      1.081      1.408
REMARK INTER + INTRA:          -3.368
REMARK INTER:                  -3.326
REMARK INTRA:                  -0.042
REMARK UNBOUND:                -0.017
REMARK SMILES CCCC(=O)[O-]
REMARK SMILES IDX 3 1 4 2 5 3 6 4 2 5 1 6
REMARK H PARENT
REMARK Flexibility Score: inf
ROOT
ATOM      1  C   UNL     1      58.789  34.776  80.839  1.00  0.00     0.052 C 
ENDROOT
BRANCH   1   2
ATOM      2  C   UNL     1      58.775  36.212  80.421  1.00  0.00     0.041 C 
ATOM      3  O   UNL     1      58.152  37.066  81.105  1.00  0.00    -0.550 OA
ATOM      4  O   UNL     1      59.409  36.601  79.246  1.00  0.00    -0.550 OA
ENDBRANCH   1   2
BRANCH   1   5
ATOM      5  C   UNL     1      59.152  33.876  79.656  1.00  0.00     0.003 C 
ATOM      6  C   UNL     1      57.901  33.308  78.992  1.00  0.00     0.004 C 
ENDBRANCH   1   5
TORSDOF 2
ENDMDL
MODEL 4
REMARK VINA RESULT:    -2.659      1.810      2.924
REMARK INTER + INTRA:          -2.987
REMARK INTER:                  -2.978
REMARK INTRA:                  -0.009
REMARK UNBOUND:                -0.017
REMARK SMILES CCCC(=O)[O-]
REMARK SMILES IDX 3 1 4 2 5 3 6 4 2 5 1 6
REMARK H PARENT
REMARK Flexibility Score: inf
ROOT
ATOM      1  C   UNL     1      58.656  36.364  79.679  1.00  0.00     0.052 C 
ENDROOT
BRANCH   1   2
ATOM      2  C   UNL     1      58.964  35.184  80.545  1.00  0.00     0.041 C 
ATOM      3  O   UNL     1      59.091  35.327  81.789  1.00  0.00    -0.550 OA
ATOM      4  O   UNL     1      59.162  33.933  79.972  1.00  0.00    -0.550 OA
ENDBRANCH   1   2
BRANCH   1   5
ATOM      5  C   UNL     1      57.493  37.169  80.265  1.00  0.00     0.003 C 
ATOM      6  C   UNL     1      56.487  37.551  79.183  1.00  0.00     0.004 C 
ENDBRANCH   1   5
TORSDOF 2
ENDMDL
MODEL 5
REMARK VINA RESULT:    -2.636      1.752      2.275
REMARK INTER + INTRA:          -2.962
REMARK INTER:                  -2.952
REMARK INTRA:                  -0.010
REMARK UNBOUND:                -0.017
REMARK SMILES CCCC(=O)[O-]
REMARK SMILES IDX 3 1 4 2 5 3 6 4 2 5 1 6
REMARK H PARENT
REMARK Flexibility Score: inf
ROOT
ATOM      1  C   UNL     1      57.821  35.776  79.220  1.00  0.00     0.052 C 
ENDROOT
BRANCH   1   2
ATOM      2  C   UNL     1      58.341  36.182  80.563  1.00  0.00     0.041 C 
ATOM      3  O   UNL     1      59.065  35.394  81.227  1.00  0.00    -0.550 OA
ATOM      4  O   UNL     1      57.986  37.412  81.104  1.00  0.00    -0.550 OA
ENDBRANCH   1   2
BRANCH   1   5
ATOM      5  C   UNL     1      56.912  36.865  78.645  1.00  0.00     0.003 C 
ATOM      6  C   UNL     1      56.329  36.442  77.300  1.00  0.00     0.004 C 
ENDBRANCH   1   5
TORSDOF 2
ENDMDL
MODEL 6
REMARK VINA RESULT:    -2.622     11.994     12.661
REMARK INTER + INTRA:          -2.946
REMARK INTER:                  -2.894
REMARK INTRA:                  -0.052
REMARK UNBOUND:                -0.017
REMARK SMILES CCCC(=O)[O-]
REMARK SMILES IDX 3 1 4 2 5 3 6 4 2 5 1 6
REMARK H PARENT
REMARK Flexibility Score: inf
ROOT
ATOM      1  C   UNL     1      51.149  26.221  80.463  1.00  0.00     0.052 C 
ENDROOT
BRANCH   1   2
ATOM      2  C   UNL     1      51.114  25.024  81.361  1.00  0.00     0.041 C 
ATOM      3  O   UNL     1      50.216  24.153  81.220  1.00  0.00    -0.550 OA
ATOM      4  O   UNL     1      52.042  24.896  82.387  1.00  0.00    -0.550 OA
ENDBRANCH   1   2
BRANCH   1   5
ATOM      5  C   UNL     1      49.834  26.999  80.555  1.00  0.00     0.003 C 
ATOM      6  C   UNL     1      49.567  27.461  81.985  1.00  0.00     0.004 C 
ENDBRANCH   1   5
TORSDOF 2
ENDMDL
MODEL 7
REMARK VINA RESULT:    -2.604      2.208      3.365
REMARK INTER + INTRA:          -2.926
REMARK INTER:                  -2.888
REMARK INTRA:                  -0.038
REMARK UNBOUND:                -0.017
REMARK SMILES CCCC(=O)[O-]
REMARK SMILES IDX 3 1 4 2 5 3 6 4 2 5 1 6
REMARK H PARENT
REMARK Flexibility Score: inf
ROOT
ATOM      1  C   UNL     1      58.647  35.234  79.143  1.00  0.00     0.052 C 
ENDROOT
BRANCH   1   2
ATOM      2  C   UNL     1      58.217  33.815  79.342  1.00  0.00     0.041 C 
ATOM      3  O   UNL     1      58.319  32.984  78.401  1.00  0.00    -0.550 OA
ATOM      4  O   UNL     1      57.656  33.420  80.551  1.00  0.00    -0.550 OA
ENDBRANCH   1   2
BRANCH   1   5
ATOM      5  C   UNL     1      57.558  36.197  79.624  1.00  0.00     0.003 C 
ATOM      6  C   UNL     1      58.059  37.063  80.775  1.00  0.00     0.004 C 
ENDBRANCH   1   5
TORSDOF 2
ENDMDL
MODEL 8
REMARK VINA RESULT:    -2.564      2.807      3.728
REMARK INTER + INTRA:          -2.881
REMARK INTER:                  -2.850
REMARK INTRA:                  -0.031
REMARK UNBOUND:                -0.017
REMARK SMILES CCCC(=O)[O-]
REMARK SMILES IDX 3 1 4 2 5 3 6 4 2 5 1 6
REMARK H PARENT
REMARK Flexibility Score: inf
ROOT
ATOM      1  C   UNL     1      56.495  37.596  79.146  1.00  0.00     0.052 C 
ENDROOT
BRANCH   1   2
ATOM      2  C   UNL     1      57.367  36.768  80.035  1.00  0.00     0.041 C 
ATOM      3  O   UNL     1      57.961  37.297  81.011  1.00  0.00    -0.550 OA
ATOM      4  O   UNL     1      57.566  35.421  79.756  1.00  0.00    -0.550 OA
ENDBRANCH   1   2
BRANCH   1   5
ATOM      5  C   UNL     1      57.153  37.790  77.778  1.00  0.00     0.003 C 
ATOM      6  C   UNL     1      57.689  39.210  77.621  1.00  0.00     0.004 C 
ENDBRANCH   1   5
TORSDOF 2
ENDMDL
MODEL 9
REMARK VINA RESULT:    -2.495      3.437      4.245
REMARK INTER + INTRA:          -2.804
REMARK INTER:                  -2.791
REMARK INTRA:                  -0.013
REMARK UNBOUND:                -0.017
REMARK SMILES CCCC(=O)[O-]
REMARK SMILES IDX 3 1 4 2 5 3 6 4 2 5 1 6
REMARK H PARENT
REMARK Flexibility Score: inf
ROOT
ATOM      1  C   UNL     1      58.034  33.180  78.604  1.00  0.00     0.052 C 
ENDROOT
BRANCH   1   2
ATOM      2  C   UNL     1      57.692  33.431  77.170  1.00  0.00     0.041 C 
ATOM      3  O   UNL     1      57.257  34.557  76.810  1.00  0.00    -0.550 OA
ATOM      4  O   UNL     1      57.803  32.406  76.238  1.00  0.00    -0.550 OA
ENDBRANCH   1   2
BRANCH   1   5
ATOM      5  C   UNL     1      57.990  34.485  79.403  1.00  0.00     0.003 C 
ATOM      6  C   UNL     1      58.816  34.377  80.681  1.00  0.00     0.004 C 
ENDBRANCH   1   5
TORSDOF 2
ENDMDL
