MODEL 1
REMARK VINA RESULT:    -4.818      0.000      0.000
REMARK INTER + INTRA:          -6.064
REMARK INTER:                  -5.803
REMARK INTRA:                  -0.261
REMARK UNBOUND:                -0.261
REMARK SMILES O=c1c(O)c(-c2ccc(O)c(O)c2)oc2cc(O)cc(O)c12
REMARK SMILES IDX 5 1 3 2 2 3 1 4 22 5 20 6 19 7 17 8 16 9 15 10 14 11 6 12
REMARK SMILES IDX 7 13 8 14 9 15 13 16 11 17 10 18 12 20 4 22 21 24 18 26
REMARK H PARENT 10 19 12 21 4 23 21 25 18 27
REMARK Flexibility Score: inf
ROOT
ATOM      1  C   UNL     1     153.194 145.121 134.258  1.00  0.00     0.180 A 
ATOM      2  C   UNL     1     153.001 143.821 134.755  1.00  0.00     0.208 A 
ATOM      3  C   UNL     1     152.290 142.893 133.978  1.00  0.00     0.238 A 
ATOM      4  O   UNL     1     152.167 141.716 134.405  1.00  0.00    -0.285 OA
ATOM      5  C   UNL     1     151.764 143.281 132.722  1.00  0.00     0.111 A 
ATOM      6  C   UNL     1     150.993 142.436 131.869  1.00  0.00     0.134 A 
ATOM      7  C   UNL     1     150.637 142.884 130.591  1.00  0.00     0.093 A 
ATOM      8  C   UNL     1     150.968 144.171 130.161  1.00  0.00     0.123 A 
ATOM      9  C   UNL     1     151.669 145.024 131.009  1.00  0.00     0.094 A 
ATOM     10  C   UNL     1     152.070 144.593 132.276  1.00  0.00     0.146 A 
ATOM     11  O   UNL     1     152.746 145.436 133.048  1.00  0.00    -0.452 OA
ENDROOT
BRANCH   1  12
ATOM     12  C   UNL     1     153.912 146.161 135.030  1.00  0.00     0.025 A 
ATOM     13  C   UNL     1     153.331 146.768 136.157  1.00  0.00     0.016 A 
ATOM     14  C   UNL     1     154.018 147.765 136.855  1.00  0.00     0.051 A 
ATOM     15  C   UNL     1     155.287 148.179 136.430  1.00  0.00     0.157 A 
ATOM     16  C   UNL     1     155.176 146.595 134.596  1.00  0.00     0.062 A 
ATOM     17  C   UNL     1     155.865 147.595 135.296  1.00  0.00     0.158 A 
BRANCH  15  18
ATOM     18  O   UNL     1     155.976 149.171 137.125  1.00  0.00    -0.504 OA
ATOM     19  H   UNL     1     156.956 149.359 136.948  1.00  0.00     0.293 HD
ENDBRANCH  15  18
BRANCH  17  20
ATOM     20  O   UNL     1     157.125 148.013 134.871  1.00  0.00    -0.504 OA
ATOM     21  H   UNL     1     157.780 148.455 135.506  1.00  0.00     0.293 HD
ENDBRANCH  17  20
ENDBRANCH   1  12
BRANCH   2  22
ATOM     22  O   UNL     1     153.546 143.452 135.988  1.00  0.00    -0.502 OA
ATOM     23  H   UNL     1     152.998 143.423 136.839  1.00  0.00     0.293 HD
ENDBRANCH   2  22
BRANCH   6  24
ATOM     24  O   UNL     1     150.532 141.169 132.237  1.00  0.00    -0.507 OA
ATOM     25  H   UNL     1     150.456 140.838 133.188  1.00  0.00     0.293 HD
ENDBRANCH   6  24
BRANCH   8  26
ATOM     26  O   UNL     1     150.596 144.615 128.894  1.00  0.00    -0.508 OA
ATOM     27  H   UNL     1     150.541 145.603 128.674  1.00  0.00     0.293 HD
ENDBRANCH   8  26
TORSDOF 6
ENDMDL
MODEL 2
REMARK VINA RESULT:    -3.738      1.420      3.332
REMARK INTER + INTRA:          -4.763
REMARK INTER:                  -4.453
REMARK INTRA:                  -0.310
REMARK UNBOUND:                -0.261
REMARK SMILES O=c1c(O)c(-c2ccc(O)c(O)c2)oc2cc(O)cc(O)c12
REMARK SMILES IDX 5 1 3 2 2 3 1 4 22 5 20 6 19 7 17 8 16 9 15 10 14 11 6 12
REMARK SMILES IDX 7 13 8 14 9 15 13 16 11 17 10 18 12 20 4 22 21 24 18 26
REMARK H PARENT 10 19 12 21 4 23 21 25 18 27
REMARK Flexibility Score: inf
ROOT
ATOM      1  C   UNL     1     153.393 145.903 132.813  1.00  0.00     0.180 A 
ATOM      2  C   UNL     1     152.796 146.581 131.736  1.00  0.00     0.208 A 
ATOM      3  C   UNL     1     151.893 145.891 130.912  1.00  0.00     0.238 A 
ATOM      4  O   UNL     1     151.322 146.518 129.983  1.00  0.00    -0.285 OA
ATOM      5  C   UNL     1     151.611 144.526 131.164  1.00  0.00     0.111 A 
ATOM      6  C   UNL     1     150.745 143.718 130.369  1.00  0.00     0.134 A 
ATOM      7  C   UNL     1     150.436 142.417 130.787  1.00  0.00     0.093 A 
ATOM      8  C   UNL     1     151.017 141.874 131.936  1.00  0.00     0.123 A 
ATOM      9  C   UNL     1     151.910 142.636 132.685  1.00  0.00     0.094 A 
ATOM     10  C   UNL     1     152.209 143.949 132.314  1.00  0.00     0.146 A 
ATOM     11  O   UNL     1     153.058 144.642 133.063  1.00  0.00    -0.452 OA
ENDROOT
BRANCH   1  12
ATOM     12  C   UNL     1     154.372 146.556 133.710  1.00  0.00     0.025 A 
ATOM     13  C   UNL     1     155.719 146.713 133.335  1.00  0.00     0.016 A 
ATOM     14  C   UNL     1     156.631 147.310 134.209  1.00  0.00     0.051 A 
ATOM     15  C   UNL     1     156.215 147.748 135.473  1.00  0.00     0.157 A 
ATOM     16  C   UNL     1     153.966 146.979 134.987  1.00  0.00     0.062 A 
ATOM     17  C   UNL     1     154.881 147.579 135.864  1.00  0.00     0.158 A 
BRANCH  15  18
ATOM     18  O   UNL     1     157.121 148.347 136.346  1.00  0.00    -0.504 OA
ATOM     19  H   UNL     1     158.085 148.038 136.404  1.00  0.00     0.293 HD
ENDBRANCH  15  18
BRANCH  17  20
ATOM     20  O   UNL     1     154.472 148.009 137.125  1.00  0.00    -0.504 OA
ATOM     21  H   UNL     1     154.433 148.993 137.363  1.00  0.00     0.293 HD
ENDBRANCH  17  20
ENDBRANCH   1  12
BRANCH   2  22
ATOM     22  O   UNL     1     153.072 147.934 131.519  1.00  0.00    -0.502 OA
ATOM     23  H   UNL     1     153.990 148.334 131.670  1.00  0.00     0.293 HD
ENDBRANCH   2  22
BRANCH   6  24
ATOM     24  O   UNL     1     150.186 144.132 129.156  1.00  0.00    -0.507 OA
ATOM     25  H   UNL     1     149.616 143.552 128.558  1.00  0.00     0.293 HD
ENDBRANCH   6  24
BRANCH   8  26
ATOM     26  O   UNL     1     150.718 140.574 132.337  1.00  0.00    -0.508 OA
ATOM     27  H   UNL     1     149.830 140.344 132.769  1.00  0.00     0.293 HD
ENDBRANCH   8  26
TORSDOF 6
ENDMDL
MODEL 3
REMARK VINA RESULT:    -3.139      2.246      6.697
REMARK INTER + INTRA:          -4.042
REMARK INTER:                  -3.825
REMARK INTRA:                  -0.217
REMARK UNBOUND:                -0.261
REMARK SMILES O=c1c(O)c(-c2ccc(O)c(O)c2)oc2cc(O)cc(O)c12
REMARK SMILES IDX 5 1 3 2 2 3 1 4 22 5 20 6 19 7 17 8 16 9 15 10 14 11 6 12
REMARK SMILES IDX 7 13 8 14 9 15 13 16 11 17 10 18 12 20 4 22 21 24 18 26
REMARK H PARENT 10 19 12 21 4 23 21 25 18 27
REMARK Flexibility Score: inf
ROOT
ATOM      1  C   UNL     1     152.996 144.771 134.418  1.00  0.00     0.180 A 
ATOM      2  C   UNL     1     154.249 145.337 134.710  1.00  0.00     0.208 A 
ATOM      3  C   UNL     1     154.301 146.549 135.417  1.00  0.00     0.238 A 
ATOM      4  O   UNL     1     155.426 147.023 135.722  1.00  0.00    -0.285 OA
ATOM      5  C   UNL     1     153.100 147.189 135.809  1.00  0.00     0.111 A 
ATOM      6  C   UNL     1     153.033 148.439 136.493  1.00  0.00     0.134 A 
ATOM      7  C   UNL     1     151.796 148.913 136.948  1.00  0.00     0.093 A 
ATOM      8  C   UNL     1     150.616 148.213 136.683  1.00  0.00     0.123 A 
ATOM      9  C   UNL     1     150.665 147.022 135.964  1.00  0.00     0.094 A 
ATOM     10  C   UNL     1     151.888 146.505 135.529  1.00  0.00     0.146 A 
ATOM     11  O   UNL     1     151.890 145.361 134.856  1.00  0.00    -0.452 OA
ENDROOT
BRANCH   1  12
ATOM     12  C   UNL     1     152.860 143.510 133.655  1.00  0.00     0.025 A 
ATOM     13  C   UNL     1     152.326 143.494 132.354  1.00  0.00     0.016 A 
ATOM     14  C   UNL     1     152.184 142.288 131.663  1.00  0.00     0.051 A 
ATOM     15  C   UNL     1     152.561 141.080 132.265  1.00  0.00     0.157 A 
ATOM     16  C   UNL     1     153.216 142.293 134.261  1.00  0.00     0.062 A 
ATOM     17  C   UNL     1     153.075 141.083 133.568  1.00  0.00     0.158 A 
BRANCH  15  18
ATOM     18  O   UNL     1     152.423 139.876 131.578  1.00  0.00    -0.504 OA
ATOM     19  H   UNL     1     152.024 139.056 132.020  1.00  0.00     0.293 HD
ENDBRANCH  15  18
BRANCH  17  20
ATOM     20  O   UNL     1     153.441 139.879 134.167  1.00  0.00    -0.504 OA
ATOM     21  H   UNL     1     154.008 139.195 133.680  1.00  0.00     0.293 HD
ENDBRANCH  17  20
ENDBRANCH   1  12
BRANCH   2  22
ATOM     22  O   UNL     1     155.422 144.679 134.333  1.00  0.00    -0.502 OA
ATOM     23  H   UNL     1     155.716 143.806 134.753  1.00  0.00     0.293 HD
ENDBRANCH   2  22
BRANCH   6  24
ATOM     24  O   UNL     1     154.140 149.260 136.727  1.00  0.00    -0.507 OA
ATOM     25  H   UNL     1     154.863 149.071 137.404  1.00  0.00     0.293 HD
ENDBRANCH   6  24
BRANCH   8  26
ATOM     26  O   UNL     1     149.387 148.700 137.125  1.00  0.00    -0.508 OA
ATOM     27  H   UNL     1     148.584 148.746 136.508  1.00  0.00     0.293 HD
ENDBRANCH   8  26
TORSDOF 6
ENDMDL
MODEL 4
REMARK VINA RESULT:    -1.863      2.038      6.951
REMARK INTER + INTRA:          -2.504
REMARK INTER:                  -2.202
REMARK INTRA:                  -0.302
REMARK UNBOUND:                -0.261
REMARK SMILES O=c1c(O)c(-c2ccc(O)c(O)c2)oc2cc(O)cc(O)c12
REMARK SMILES IDX 5 1 3 2 2 3 1 4 22 5 20 6 19 7 17 8 16 9 15 10 14 11 6 12
REMARK SMILES IDX 7 13 8 14 9 15 13 16 11 17 10 18 12 20 4 22 21 24 18 26
REMARK H PARENT 10 19 12 21 4 23 21 25 18 27
REMARK Flexibility Score: inf
ROOT
ATOM      1  C   UNL     1     152.275 145.925 133.027  1.00  0.00     0.180 A 
ATOM      2  C   UNL     1     153.522 145.567 133.569  1.00  0.00     0.208 A 
ATOM      3  C   UNL     1     153.960 146.197 134.744  1.00  0.00     0.238 A 
ATOM      4  O   UNL     1     155.052 145.835 135.254  1.00  0.00    -0.285 OA
ATOM      5  C   UNL     1     153.155 147.189 135.355  1.00  0.00     0.111 A 
ATOM      6  C   UNL     1     153.517 147.922 136.524  1.00  0.00     0.134 A 
ATOM      7  C   UNL     1     152.586 148.785 137.115  1.00  0.00     0.093 A 
ATOM      8  C   UNL     1     151.331 148.992 136.540  1.00  0.00     0.123 A 
ATOM      9  C   UNL     1     150.990 148.327 135.365  1.00  0.00     0.094 A 
ATOM     10  C   UNL     1     151.883 147.432 134.772  1.00  0.00     0.146 A 
ATOM     11  O   UNL     1     151.514 146.811 133.658  1.00  0.00    -0.452 OA
ENDROOT
BRANCH   1  12
ATOM     12  C   UNL     1     151.757 145.322 131.778  1.00  0.00     0.025 A 
ATOM     13  C   UNL     1     151.848 145.997 130.547  1.00  0.00     0.016 A 
ATOM     14  C   UNL     1     151.330 145.419 129.385  1.00  0.00     0.051 A 
ATOM     15  C   UNL     1     150.703 144.167 129.438  1.00  0.00     0.157 A 
ATOM     16  C   UNL     1     151.109 144.077 131.827  1.00  0.00     0.062 A 
ATOM     17  C   UNL     1     150.590 143.497 130.661  1.00  0.00     0.158 A 
BRANCH  15  18
ATOM     18  O   UNL     1     150.187 143.587 128.280  1.00  0.00    -0.504 OA
ATOM     19  H   UNL     1     150.225 142.586 128.127  1.00  0.00     0.293 HD
ENDBRANCH  15  18
BRANCH  17  20
ATOM     20  O   UNL     1     149.959 142.255 130.712  1.00  0.00    -0.504 OA
ATOM     21  H   UNL     1     149.703 141.755 129.869  1.00  0.00     0.293 HD
ENDBRANCH  17  20
ENDBRANCH   1  12
BRANCH   2  22
ATOM     22  O   UNL     1     154.292 144.571 132.963  1.00  0.00    -0.502 OA
ATOM     23  H   UNL     1     153.933 143.979 132.223  1.00  0.00     0.293 HD
ENDBRANCH   2  22
BRANCH   6  24
ATOM     24  O   UNL     1     154.778 147.858 137.125  1.00  0.00    -0.507 OA
ATOM     25  H   UNL     1     154.938 147.795 138.119  1.00  0.00     0.293 HD
ENDBRANCH   6  24
BRANCH   8  26
ATOM     26  O   UNL     1     150.416 149.866 137.125  1.00  0.00    -0.508 OA
ATOM     27  H   UNL     1     149.424 149.807 136.922  1.00  0.00     0.293 HD
ENDBRANCH   8  26
TORSDOF 6
ENDMDL
