MODEL 1
REMARK VINA RESULT:    -3.117      0.000      0.000
REMARK INTER + INTRA:          -4.006
REMARK INTER:                  -4.393
REMARK INTRA:                   0.386
REMARK UNBOUND:                 0.386
REMARK SMILES CC1=CCC(=C(C)C)C(=O)CC(C)=CCC1
REMARK SMILES IDX 12 1 14 2 13 3 15 4 16 5 2 6 1 7 3 8 11 10 9 11 10 12 5 13
REMARK SMILES IDX 6 14 7 15 8 16 4 17
REMARK H PARENT
REMARK Flexibility Score: 60.00
ROOT
ATOM      1  C   UNL     1       8.594 -35.753  13.332  1.00  0.00    -0.070 C 
ATOM      2  C   UNL     1       8.380 -37.046  13.663  1.00  0.00    -0.027 C 
ATOM      3  C   UNL     1      10.017 -35.251  13.333  1.00  0.00     0.039 C 
ENDROOT
BRANCH   2   4
ATOM      4  C   UNL     1       7.046 -37.757  13.627  1.00  0.00     0.032 C 
BRANCH   4   5
ATOM      5  C   UNL     1       5.879 -36.978  14.268  1.00  0.00     0.034 C 
BRANCH   5   6
ATOM      6  C   UNL     1       6.059 -36.752  15.759  1.00  0.00    -0.077 C 
ATOM      7  C   UNL     1       6.252 -37.967  16.633  1.00  0.00     0.039 C 
ATOM      8  C   UNL     1       6.127 -35.532  16.345  1.00  0.00    -0.023 CG0
ATOM      9  G   UNL     1       5.943 -34.185  15.675  1.00  0.00     0.000 G0
ENDBRANCH   5   6
ENDBRANCH   4   5
ENDBRANCH   2   4
BRANCH   1  10
ATOM     10  C   UNL     1       7.494 -34.819  12.875  1.00  0.00     0.111 C 
BRANCH  10  11
ATOM     11  C   UNL     1       7.460 -33.556  13.695  1.00  0.00     0.163 C 
ATOM     12  O   UNL     1       7.598 -32.455  13.096  1.00  0.00    -0.294 OA
BRANCH  11  13
ATOM     13  C   UNL     1       7.212 -33.563  15.167  1.00  0.00    -0.002 C 
ATOM     14  C   UNL     1       8.081 -32.950  16.026  1.00  0.00    -0.069 C 
ATOM     15  C   UNL     1       7.780 -32.802  17.501  1.00  0.00     0.039 C 
ATOM     16  C   UNL     1       9.398 -32.385  15.538  1.00  0.00     0.039 C 
BRANCH  13  17
ATOM     17  C   UNL     1       5.914 -34.190  15.651  1.00  0.00     0.066 CG0
ATOM     18  G   UNL     1       6.142 -35.512  16.357  1.00  0.00     0.000 G0
ENDBRANCH  13  17
ENDBRANCH  11  13
ENDBRANCH  10  11
ENDBRANCH   1  10
TORSDOF 0
ENDMDL
MODEL 2
REMARK VINA RESULT:    -2.840      1.752      4.131
REMARK INTER + INTRA:          -3.616
REMARK INTER:                  -4.629
REMARK INTRA:                   1.013
REMARK UNBOUND:                 0.386
REMARK SMILES CC1=CCC(=C(C)C)C(=O)CC(C)=CCC1
REMARK SMILES IDX 12 1 14 2 13 3 15 4 16 5 2 6 1 7 3 8 11 10 9 11 10 12 5 13
REMARK SMILES IDX 6 14 7 15 8 16 4 17
REMARK H PARENT
REMARK Flexibility Score: 60.00
ROOT
ATOM      1  C   UNL     1       6.491 -36.267  16.102  1.00  0.00    -0.070 C 
ATOM      2  C   UNL     1       7.141 -36.046  17.265  1.00  0.00    -0.027 C 
ATOM      3  C   UNL     1       6.268 -37.698  15.679  1.00  0.00     0.039 C 
ENDROOT
BRANCH   2   4
ATOM      4  C   UNL     1       7.374 -34.695  17.904  1.00  0.00     0.032 C 
BRANCH   4   5
ATOM      5  C   UNL     1       7.083 -33.487  16.988  1.00  0.00     0.034 C 
BRANCH   5   6
ATOM      6  C   UNL     1       8.328 -32.690  16.639  1.00  0.00    -0.077 C 
ATOM      7  C   UNL     1       9.171 -32.172  17.777  1.00  0.00     0.039 C 
ATOM      8  C   UNL     1       8.767 -32.474  15.374  1.00  0.00    -0.023 CG0
ATOM      9  G   UNL     1       8.080 -32.880  14.086  1.00  0.00     0.000 G0
ENDBRANCH   5   6
ENDBRANCH   4   5
ENDBRANCH   2   4
BRANCH   1  10
ATOM     10  C   UNL     1       5.898 -35.159  15.257  1.00  0.00     0.111 C 
BRANCH  10  11
ATOM     11  C   UNL     1       6.635 -34.998  13.953  1.00  0.00     0.163 C 
ATOM     12  O   UNL     1       6.055 -35.363  12.895  1.00  0.00    -0.294 OA
BRANCH  11  13
ATOM     13  C   UNL     1       7.988 -34.373  13.870  1.00  0.00    -0.002 C 
ATOM     14  C   UNL     1       9.084 -35.120  13.539  1.00  0.00    -0.069 C 
ATOM     15  C   UNL     1      10.438 -34.491  13.292  1.00  0.00     0.039 C 
ATOM     16  C   UNL     1       8.996 -36.624  13.402  1.00  0.00     0.039 C 
BRANCH  13  17
ATOM     17  C   UNL     1       8.073 -32.868  14.072  1.00  0.00     0.066 CG0
ATOM     18  G   UNL     1       8.764 -32.500  15.369  1.00  0.00     0.000 G0
ENDBRANCH  13  17
ENDBRANCH  11  13
ENDBRANCH  10  11
ENDBRANCH   1  10
TORSDOF 0
ENDMDL
MODEL 3
REMARK VINA RESULT:    -2.343      2.004      3.844
REMARK INTER + INTRA:          -2.915
REMARK INTER:                  -3.489
REMARK INTRA:                   0.574
REMARK UNBOUND:                 0.386
REMARK SMILES CC1=CCC(=C(C)C)C(=O)CC(C)=CCC1
REMARK SMILES IDX 12 1 14 2 13 3 15 4 16 5 2 6 1 7 3 8 11 10 9 11 10 12 5 13
REMARK SMILES IDX 6 14 7 15 8 16 4 17
REMARK H PARENT
REMARK Flexibility Score: 60.00
ROOT
ATOM      1  C   UNL     1       7.142 -36.451  14.217  1.00  0.00    -0.070 C 
ATOM      2  C   UNL     1       7.602 -35.958  13.046  1.00  0.00    -0.027 C 
ATOM      3  C   UNL     1       5.960 -37.388  14.172  1.00  0.00     0.039 C 
ENDROOT
BRANCH   2   4
ATOM      4  C   UNL     1       8.828 -35.088  12.875  1.00  0.00     0.032 C 
BRANCH   4   5
ATOM      5  C   UNL     1       8.553 -33.570  12.900  1.00  0.00     0.034 C 
BRANCH   5   6
ATOM      6  C   UNL     1       9.217 -32.863  14.069  1.00  0.00    -0.077 C 
ATOM      7  C   UNL     1      10.632 -32.375  13.881  1.00  0.00     0.039 C 
ATOM      8  C   UNL     1       8.600 -32.582  15.243  1.00  0.00    -0.023 CG0
ATOM      9  G   UNL     1       7.200 -32.987  15.660  1.00  0.00     0.000 G0
ENDBRANCH   5   6
ENDBRANCH   4   5
ENDBRANCH   2   4
BRANCH   1  10
ATOM     10  C   UNL     1       7.809 -36.186  15.550  1.00  0.00     0.111 C 
BRANCH  10  11
ATOM     11  C   UNL     1       6.911 -35.407  16.476  1.00  0.00     0.163 C 
ATOM     12  O   UNL     1       5.951 -36.015  17.021  1.00  0.00    -0.294 OA
BRANCH  11  13
ATOM     13  C   UNL     1       7.155 -33.973  16.809  1.00  0.00    -0.002 C 
ATOM     14  C   UNL     1       7.424 -33.589  18.093  1.00  0.00    -0.069 C 
ATOM     15  C   UNL     1       7.831 -32.173  18.438  1.00  0.00     0.039 C 
ATOM     16  C   UNL     1       7.326 -34.569  19.241  1.00  0.00     0.039 C 
BRANCH  13  17
ATOM     17  C   UNL     1       7.189 -32.986  15.652  1.00  0.00     0.066 CG0
ATOM     18  G   UNL     1       8.603 -32.604  15.263  1.00  0.00     0.000 G0
ENDBRANCH  13  17
ENDBRANCH  11  13
ENDBRANCH  10  11
ENDBRANCH   1  10
TORSDOF 0
ENDMDL
MODEL 4
REMARK VINA RESULT:    -2.061      1.761      4.733
REMARK INTER + INTRA:          -2.518
REMARK INTER:                  -4.121
REMARK INTRA:                   1.603
REMARK UNBOUND:                 0.386
REMARK SMILES CC1=CCC(=C(C)C)C(=O)CC(C)=CCC1
REMARK SMILES IDX 12 1 14 2 13 3 15 4 16 5 2 6 1 7 3 8 11 10 9 11 10 12 5 13
REMARK SMILES IDX 6 14 7 15 8 16 4 17
REMARK H PARENT
REMARK Flexibility Score: 60.00
ROOT
ATOM      1  C   UNL     1       8.874 -32.634  17.078  1.00  0.00    -0.070 C 
ATOM      2  C   UNL     1       9.261 -31.998  15.951  1.00  0.00    -0.027 C 
ATOM      3  C   UNL     1       9.014 -31.898  18.387  1.00  0.00     0.039 C 
ENDROOT
BRANCH   2   4
ATOM      4  C   UNL     1       9.109 -32.527  14.542  1.00  0.00     0.032 C 
BRANCH   4   5
ATOM      5  C   UNL     1      10.393 -33.135  13.937  1.00  0.00     0.034 C 
BRANCH   5   6
ATOM      6  C   UNL     1      10.209 -34.566  13.464  1.00  0.00    -0.077 C 
ATOM      7  C   UNL     1      11.449 -35.361  13.138  1.00  0.00     0.039 C 
ATOM      8  C   UNL     1       9.012 -35.197  13.383  1.00  0.00    -0.023 CG0
ATOM      9  G   UNL     1       7.644 -34.598  13.641  1.00  0.00     0.000 G0
ENDBRANCH   5   6
ENDBRANCH   4   5
ENDBRANCH   2   4
BRANCH   1  10
ATOM     10  C   UNL     1       8.225 -34.002  17.079  1.00  0.00     0.111 C 
BRANCH  10  11
ATOM     11  C   UNL     1       7.080 -34.075  16.103  1.00  0.00     0.163 C 
ATOM     12  O   UNL     1       6.149 -33.232  16.216  1.00  0.00    -0.294 OA
BRANCH  11  13
ATOM     13  C   UNL     1       7.043 -35.064  14.985  1.00  0.00    -0.002 C 
ATOM     14  C   UNL     1       6.446 -36.283  15.149  1.00  0.00    -0.069 C 
ATOM     15  C   UNL     1       6.251 -37.242  13.995  1.00  0.00     0.039 C 
ATOM     16  C   UNL     1       5.947 -36.736  16.504  1.00  0.00     0.039 C 
BRANCH  13  17
ATOM     17  C   UNL     1       7.604 -34.618  13.644  1.00  0.00     0.066 CG0
ATOM     18  G   UNL     1       8.991 -35.174  13.388  1.00  0.00     0.000 G0
ENDBRANCH  13  17
ENDBRANCH  11  13
ENDBRANCH  10  11
ENDBRANCH   1  10
TORSDOF 0
ENDMDL
MODEL 5
REMARK VINA RESULT:    -1.970      1.495      2.128
REMARK INTER + INTRA:          -2.389
REMARK INTER:                  -4.258
REMARK INTRA:                   1.869
REMARK UNBOUND:                 0.386
REMARK SMILES CC1=CCC(=C(C)C)C(=O)CC(C)=CCC1
REMARK SMILES IDX 12 1 14 2 13 3 15 4 16 5 2 6 1 7 3 8 11 10 9 11 10 12 5 13
REMARK SMILES IDX 6 14 7 15 8 16 4 17
REMARK H PARENT
REMARK Flexibility Score: 60.00
ROOT
ATOM      1  C   UNL     1       9.706 -33.594  13.666  1.00  0.00    -0.070 C 
ATOM      2  C   UNL     1       9.832 -34.938  13.629  1.00  0.00    -0.027 C 
ATOM      3  C   UNL     1      10.809 -32.765  13.058  1.00  0.00     0.039 C 
ENDROOT
BRANCH   2   4
ATOM      4  C   UNL     1       8.794 -35.936  14.094  1.00  0.00     0.032 C 
BRANCH   4   5
ATOM      5  C   UNL     1       7.343 -35.411  14.087  1.00  0.00     0.034 C 
BRANCH   5   6
ATOM      6  C   UNL     1       6.570 -35.775  15.343  1.00  0.00    -0.077 C 
ATOM      7  C   UNL     1       6.323 -37.239  15.614  1.00  0.00     0.039 C 
ATOM      8  C   UNL     1       6.149 -34.879  16.268  1.00  0.00    -0.023 CG0
ATOM      9  G   UNL     1       6.268 -33.369  16.199  1.00  0.00     0.000 G0
ENDBRANCH   5   6
ENDBRANCH   4   5
ENDBRANCH   2   4
BRANCH   1  10
ATOM     10  C   UNL     1       8.476 -32.888  14.199  1.00  0.00     0.111 C 
BRANCH  10  11
ATOM     11  C   UNL     1       8.638 -32.509  15.648  1.00  0.00     0.163 C 
ATOM     12  O   UNL     1       9.653 -31.837  15.976  1.00  0.00    -0.294 OA
BRANCH  11  13
ATOM     13  C   UNL     1       7.617 -32.847  16.683  1.00  0.00    -0.002 C 
ATOM     14  C   UNL     1       7.861 -32.619  18.009  1.00  0.00    -0.069 C 
ATOM     15  C   UNL     1       6.793 -32.801  19.064  1.00  0.00     0.039 C 
ATOM     16  C   UNL     1       9.224 -32.168  18.488  1.00  0.00     0.039 C 
BRANCH  13  17
ATOM     17  C   UNL     1       6.271 -33.359  16.192  1.00  0.00     0.066 CG0
ATOM     18  G   UNL     1       6.163 -34.868  16.281  1.00  0.00     0.000 G0
ENDBRANCH  13  17
ENDBRANCH  11  13
ENDBRANCH  10  11
ENDBRANCH   1  10
TORSDOF 0
ENDMDL
MODEL 6
REMARK VINA RESULT:    -0.862      1.994      4.457
REMARK INTER + INTRA:          -0.828
REMARK INTER:                  -2.647
REMARK INTRA:                   1.819
REMARK UNBOUND:                 0.386
REMARK SMILES CC1=CCC(=C(C)C)C(=O)CC(C)=CCC1
REMARK SMILES IDX 12 1 14 2 13 3 15 4 16 5 2 6 1 7 3 8 11 10 9 11 10 12 5 13
REMARK SMILES IDX 6 14 7 15 8 16 4 17
REMARK H PARENT
REMARK Flexibility Score: 60.00
ROOT
ATOM      1  C   UNL     1       8.961 -32.537  17.407  1.00  0.00    -0.070 C 
ATOM      2  C   UNL     1       8.971 -32.070  16.139  1.00  0.00    -0.027 C 
ATOM      3  C   UNL     1       8.980 -31.530  18.530  1.00  0.00     0.039 C 
ENDROOT
BRANCH   2   4
ATOM      4  C   UNL     1       8.857 -32.911  14.887  1.00  0.00     0.032 C 
BRANCH   4   5
ATOM      5  C   UNL     1       8.816 -34.434  15.132  1.00  0.00     0.034 C 
BRANCH   5   6
ATOM      6  C   UNL     1       7.785 -35.149  14.275  1.00  0.00    -0.077 C 
ATOM      7  C   UNL     1       8.196 -35.561  12.883  1.00  0.00     0.039 C 
ATOM      8  C   UNL     1       6.547 -35.499  14.701  1.00  0.00    -0.023 CG0
ATOM      9  G   UNL     1       5.916 -35.177  16.041  1.00  0.00     0.000 G0
ENDBRANCH   5   6
ENDBRANCH   4   5
ENDBRANCH   2   4
BRANCH   1  10
ATOM     10  C   UNL     1       8.839 -34.006  17.750  1.00  0.00     0.111 C 
BRANCH  10  11
ATOM     11  C   UNL     1       7.405 -34.406  17.981  1.00  0.00     0.163 C 
ATOM     12  O   UNL     1       6.723 -33.726  18.794  1.00  0.00    -0.294 OA
BRANCH  11  13
ATOM     13  C   UNL     1       6.759 -35.530  17.241  1.00  0.00    -0.002 C 
ATOM     14  C   UNL     1       6.874 -36.818  17.685  1.00  0.00    -0.069 C 
ATOM     15  C   UNL     1       6.103 -37.956  17.053  1.00  0.00     0.039 C 
ATOM     16  C   UNL     1       7.785 -37.170  18.841  1.00  0.00     0.039 C 
BRANCH  13  17
ATOM     17  C   UNL     1       5.895 -35.169  16.043  1.00  0.00     0.066 CG0
ATOM     18  G   UNL     1       6.577 -35.483  14.727  1.00  0.00     0.000 G0
ENDBRANCH  13  17
ENDBRANCH  11  13
ENDBRANCH  10  11
ENDBRANCH   1  10
TORSDOF 0
ENDMDL
