MODEL 1
REMARK VINA RESULT:    -4.835      0.000      0.000
REMARK INTER + INTRA:          -5.606
REMARK INTER:                  -5.400
REMARK INTRA:                  -0.206
REMARK UNBOUND:                -0.206
REMARK SMILES O=C([O-])c1ccccc1C(=O)[O-]
REMARK SMILES IDX 4 1 9 2 5 3 8 4 6 5 7 6 2 7 1 8 3 9 10 10 11 11 12 12
REMARK H PARENT
REMARK Flexibility Score: inf
ROOT
ATOM      1  C   UNL     1      38.744  18.551   9.329  1.00  0.00     0.006 A 
ATOM      2  C   UNL     1      37.729  18.275  10.287  1.00  0.00     0.006 A 
ATOM      3  C   UNL     1      38.424  19.321   8.196  1.00  0.00     0.010 A 
ATOM      4  C   UNL     1      36.417  18.725  10.044  1.00  0.00     0.010 A 
ATOM      5  C   UNL     1      37.122  19.777   7.986  1.00  0.00     0.001 A 
ATOM      6  C   UNL     1      36.119  19.468   8.902  1.00  0.00     0.001 A 
ENDROOT
BRANCH   1   7
ATOM      7  C   UNL     1      40.117  18.003   9.429  1.00  0.00     0.072 C 
ATOM      8  O   UNL     1      40.452  16.980   8.775  1.00  0.00    -0.545 OA
ATOM      9  O   UNL     1      41.073  18.655  10.200  1.00  0.00    -0.545 OA
ENDBRANCH   1   7
BRANCH   2  10
ATOM     10  C   UNL     1      38.005  17.592  11.572  1.00  0.00     0.072 C 
ATOM     11  O   UNL     1      37.620  16.407  11.757  1.00  0.00    -0.545 OA
ATOM     12  O   UNL     1      38.632  18.268  12.613  1.00  0.00    -0.545 OA
ENDBRANCH   2  10
TORSDOF 2
ENDMDL
MODEL 2
REMARK VINA RESULT:    -4.818      1.691      3.557
REMARK INTER + INTRA:          -5.588
REMARK INTER:                  -5.422
REMARK INTRA:                  -0.166
REMARK UNBOUND:                -0.206
REMARK SMILES O=C([O-])c1ccccc1C(=O)[O-]
REMARK SMILES IDX 4 1 9 2 5 3 8 4 6 5 7 6 2 7 1 8 3 9 10 10 11 11 12 12
REMARK H PARENT
REMARK Flexibility Score: inf
ROOT
ATOM      1  C   UNL     1      36.086  18.888  10.413  1.00  0.00     0.006 A 
ATOM      2  C   UNL     1      37.407  18.361  10.429  1.00  0.00     0.006 A 
ATOM      3  C   UNL     1      35.581  19.432   9.217  1.00  0.00     0.010 A 
ATOM      4  C   UNL     1      38.197  18.457   9.269  1.00  0.00     0.010 A 
ATOM      5  C   UNL     1      36.375  19.496   8.071  1.00  0.00     0.001 A 
ATOM      6  C   UNL     1      37.684  19.020   8.101  1.00  0.00     0.001 A 
ENDROOT
BRANCH   1   7
ATOM      7  C   UNL     1      35.230  18.957  11.620  1.00  0.00     0.072 C 
ATOM      8  O   UNL     1      34.982  20.062  12.171  1.00  0.00    -0.545 OA
ATOM      9  O   UNL     1      34.635  17.804  12.121  1.00  0.00    -0.545 OA
ENDBRANCH   1   7
BRANCH   2  10
ATOM     10  C   UNL     1      37.969  17.647  11.600  1.00  0.00     0.072 C 
ATOM     11  O   UNL     1      37.701  16.431  11.790  1.00  0.00    -0.545 OA
ATOM     12  O   UNL     1      38.742  18.323  12.538  1.00  0.00    -0.545 OA
ENDBRANCH   2  10
TORSDOF 2
ENDMDL
MODEL 3
REMARK VINA RESULT:    -4.810      1.697      2.852
REMARK INTER + INTRA:          -5.578
REMARK INTER:                  -5.425
REMARK INTRA:                  -0.153
REMARK UNBOUND:                -0.206
REMARK SMILES O=C([O-])c1ccccc1C(=O)[O-]
REMARK SMILES IDX 4 1 9 2 5 3 8 4 6 5 7 6 2 7 1 8 3 9 10 10 11 11 12 12
REMARK H PARENT
REMARK Flexibility Score: inf
ROOT
ATOM      1  C   UNL     1      37.388  18.375  10.478  1.00  0.00     0.006 A 
ATOM      2  C   UNL     1      36.066  18.897  10.416  1.00  0.00     0.006 A 
ATOM      3  C   UNL     1      38.219  18.480   9.348  1.00  0.00     0.010 A 
ATOM      4  C   UNL     1      35.603  19.445   9.205  1.00  0.00     0.010 A 
ATOM      5  C   UNL     1      37.746  19.048   8.164  1.00  0.00     0.001 A 
ATOM      6  C   UNL     1      36.437  19.518   8.089  1.00  0.00     0.001 A 
ENDROOT
BRANCH   1   7
ATOM      7  C   UNL     1      37.916  17.657  11.662  1.00  0.00     0.072 C 
ATOM      8  O   UNL     1      37.692  16.428  11.823  1.00  0.00    -0.545 OA
ATOM      9  O   UNL     1      38.723  18.323  12.578  1.00  0.00    -0.545 OA
ENDBRANCH   1   7
BRANCH   2  10
ATOM     10  C   UNL     1      35.172  18.955  11.595  1.00  0.00     0.072 C 
ATOM     11  O   UNL     1      34.961  20.052  12.178  1.00  0.00    -0.545 OA
ATOM     12  O   UNL     1      34.607  17.795  12.114  1.00  0.00    -0.545 OA
ENDBRANCH   2  10
TORSDOF 2
ENDMDL
MODEL 4
REMARK VINA RESULT:    -4.791      2.754      3.604
REMARK INTER + INTRA:          -5.558
REMARK INTER:                  -5.368
REMARK INTRA:                  -0.190
REMARK UNBOUND:                -0.206
REMARK SMILES O=C([O-])c1ccccc1C(=O)[O-]
REMARK SMILES IDX 4 1 9 2 5 3 8 4 6 5 7 6 2 7 1 8 3 9 10 10 11 11 12 12
REMARK H PARENT
REMARK Flexibility Score: inf
ROOT
ATOM      1  C   UNL     1      35.573  19.729   9.340  1.00  0.00     0.006 A 
ATOM      2  C   UNL     1      36.026  18.982  10.462  1.00  0.00     0.006 A 
ATOM      3  C   UNL     1      34.613  20.740   9.533  1.00  0.00     0.010 A 
ATOM      4  C   UNL     1      35.456  19.229  11.725  1.00  0.00     0.010 A 
ATOM      5  C   UNL     1      34.078  20.984  10.798  1.00  0.00     0.001 A 
ATOM      6  C   UNL     1      34.490  20.222  11.889  1.00  0.00     0.001 A 
ENDROOT
BRANCH   1   7
ATOM      7  C   UNL     1      36.011  19.446   7.953  1.00  0.00     0.072 C 
ATOM      8  O   UNL     1      35.252  18.847   7.146  1.00  0.00    -0.545 OA
ATOM      9  O   UNL     1      37.247  19.900   7.507  1.00  0.00    -0.545 OA
ENDBRANCH   1   7
BRANCH   2  10
ATOM     10  C   UNL     1      37.129  17.997  10.376  1.00  0.00     0.072 C 
ATOM     11  O   UNL     1      36.881  16.762  10.409  1.00  0.00    -0.545 OA
ATOM     12  O   UNL     1      38.453  18.418  10.324  1.00  0.00    -0.545 OA
ENDBRANCH   2  10
TORSDOF 2
ENDMDL
MODEL 5
REMARK VINA RESULT:    -4.785      0.347      2.881
REMARK INTER + INTRA:          -5.551
REMARK INTER:                  -5.321
REMARK INTRA:                  -0.230
REMARK UNBOUND:                -0.206
REMARK SMILES O=C([O-])c1ccccc1C(=O)[O-]
REMARK SMILES IDX 4 1 9 2 5 3 8 4 6 5 7 6 2 7 1 8 3 9 10 10 11 11 12 12
REMARK H PARENT
REMARK Flexibility Score: inf
ROOT
ATOM      1  C   UNL     1      37.488  18.368  10.343  1.00  0.00     0.006 A 
ATOM      2  C   UNL     1      38.410  18.642   9.296  1.00  0.00     0.006 A 
ATOM      3  C   UNL     1      36.155  18.802  10.211  1.00  0.00     0.010 A 
ATOM      4  C   UNL     1      37.983  19.395   8.186  1.00  0.00     0.010 A 
ATOM      5  C   UNL     1      35.747  19.527   9.091  1.00  0.00     0.001 A 
ATOM      6  C   UNL     1      36.663  19.833   8.087  1.00  0.00     0.001 A 
ENDROOT
BRANCH   1   7
ATOM      7  C   UNL     1      37.878  17.705  11.609  1.00  0.00     0.072 C 
ATOM      8  O   UNL     1      37.681  16.473  11.779  1.00  0.00    -0.545 OA
ATOM      9  O   UNL     1      38.529  18.429  12.602  1.00  0.00    -0.545 OA
ENDBRANCH   1   7
BRANCH   2  10
ATOM     10  C   UNL     1      39.792  18.107   9.286  1.00  0.00     0.072 C 
ATOM     11  O   UNL     1      40.035  16.988   8.762  1.00  0.00    -0.545 OA
ATOM     12  O   UNL     1      40.824  18.798   9.912  1.00  0.00    -0.545 OA
ENDBRANCH   2  10
TORSDOF 2
ENDMDL
MODEL 6
REMARK VINA RESULT:    -4.722      2.832      4.172
REMARK INTER + INTRA:          -5.481
REMARK INTER:                  -5.327
REMARK INTRA:                  -0.153
REMARK UNBOUND:                -0.206
REMARK SMILES O=C([O-])c1ccccc1C(=O)[O-]
REMARK SMILES IDX 4 1 9 2 5 3 8 4 6 5 7 6 2 7 1 8 3 9 10 10 11 11 12 12
REMARK H PARENT
REMARK Flexibility Score: inf
ROOT
ATOM      1  C   UNL     1      35.949  19.071  10.487  1.00  0.00     0.006 A 
ATOM      2  C   UNL     1      35.483  19.800   9.358  1.00  0.00     0.006 A 
ATOM      3  C   UNL     1      35.372  19.319  11.747  1.00  0.00     0.010 A 
ATOM      4  C   UNL     1      34.504  20.795   9.541  1.00  0.00     0.010 A 
ATOM      5  C   UNL     1      34.386  20.295  11.902  1.00  0.00     0.001 A 
ATOM      6  C   UNL     1      33.962  21.039  10.803  1.00  0.00     0.001 A 
ENDROOT
BRANCH   1   7
ATOM      7  C   UNL     1      37.070  18.106  10.417  1.00  0.00     0.072 C 
ATOM      8  O   UNL     1      36.851  16.868  10.332  1.00  0.00    -0.545 OA
ATOM      9  O   UNL     1      38.383  18.563  10.378  1.00  0.00    -0.545 OA
ENDBRANCH   1   7
BRANCH   2  10
ATOM     10  C   UNL     1      35.933  19.510   7.977  1.00  0.00     0.072 C 
ATOM     11  O   UNL     1      37.062  19.904   7.581  1.00  0.00    -0.545 OA
ATOM     12  O   UNL     1      35.093  18.859   7.080  1.00  0.00    -0.545 OA
ENDBRANCH   2  10
TORSDOF 2
ENDMDL
MODEL 7
REMARK VINA RESULT:    -4.685      8.794     10.108
REMARK INTER + INTRA:          -5.439
REMARK INTER:                  -5.206
REMARK INTRA:                  -0.233
REMARK UNBOUND:                -0.206
REMARK SMILES O=C([O-])c1ccccc1C(=O)[O-]
REMARK SMILES IDX 4 1 9 2 5 3 8 4 6 5 7 6 2 7 1 8 3 9 10 10 11 11 12 12
REMARK H PARENT
REMARK Flexibility Score: inf
ROOT
ATOM      1  C   UNL     1      32.148  13.263  15.092  1.00  0.00     0.006 A 
ATOM      2  C   UNL     1      31.796  14.631  14.930  1.00  0.00     0.006 A 
ATOM      3  C   UNL     1      33.506  12.917  15.223  1.00  0.00     0.010 A 
ATOM      4  C   UNL     1      32.818  15.595  14.840  1.00  0.00     0.010 A 
ATOM      5  C   UNL     1      34.502  13.892  15.154  1.00  0.00     0.001 A 
ATOM      6  C   UNL     1      34.158  15.227  14.951  1.00  0.00     0.001 A 
ENDROOT
BRANCH   1   7
ATOM      7  C   UNL     1      31.154  12.165  15.058  1.00  0.00     0.072 C 
ATOM      8  O   UNL     1      30.683  11.689  16.125  1.00  0.00    -0.545 OA
ATOM      9  O   UNL     1      30.681  11.690  13.840  1.00  0.00    -0.545 OA
ENDBRANCH   1   7
BRANCH   2  10
ATOM     10  C   UNL     1      30.391  15.100  14.922  1.00  0.00     0.072 C 
ATOM     11  O   UNL     1      29.800  15.351  16.006  1.00  0.00    -0.545 OA
ATOM     12  O   UNL     1      29.686  15.206  13.728  1.00  0.00    -0.545 OA
ENDBRANCH   2  10
TORSDOF 2
ENDMDL
MODEL 8
REMARK VINA RESULT:    -4.668      8.831     10.138
REMARK INTER + INTRA:          -5.420
REMARK INTER:                  -5.187
REMARK INTRA:                  -0.233
REMARK UNBOUND:                -0.206
REMARK SMILES O=C([O-])c1ccccc1C(=O)[O-]
REMARK SMILES IDX 4 1 9 2 5 3 8 4 6 5 7 6 2 7 1 8 3 9 10 10 11 11 12 12
REMARK H PARENT
REMARK Flexibility Score: inf
ROOT
ATOM      1  C   UNL     1      31.725  14.602  14.898  1.00  0.00     0.006 A 
ATOM      2  C   UNL     1      32.020  13.217  15.025  1.00  0.00     0.006 A 
ATOM      3  C   UNL     1      32.784  15.529  14.881  1.00  0.00     0.010 A 
ATOM      4  C   UNL     1      33.358  12.814  15.195  1.00  0.00     0.010 A 
ATOM      5  C   UNL     1      34.106  15.105  15.028  1.00  0.00     0.001 A 
ATOM      6  C   UNL     1      34.390  13.752  15.197  1.00  0.00     0.001 A 
ENDROOT
BRANCH   1   7
ATOM      7  C   UNL     1      30.342  15.132  14.854  1.00  0.00     0.072 C 
ATOM      8  O   UNL     1      29.773  15.357  13.754  1.00  0.00    -0.545 OA
ATOM      9  O   UNL     1      29.631  15.324  16.034  1.00  0.00    -0.545 OA
ENDBRANCH   1   7
BRANCH   2  10
ATOM     10  C   UNL     1      30.983  12.165  14.915  1.00  0.00     0.072 C 
ATOM     11  O   UNL     1      30.662  11.706  13.787  1.00  0.00    -0.545 OA
ATOM     12  O   UNL     1      30.304  11.717  16.043  1.00  0.00    -0.545 OA
ENDBRANCH   2  10
TORSDOF 2
ENDMDL
MODEL 9
REMARK VINA RESULT:    -4.610      1.702      3.581
REMARK INTER + INTRA:          -5.355
REMARK INTER:                  -5.165
REMARK INTRA:                  -0.190
REMARK UNBOUND:                -0.206
REMARK SMILES O=C([O-])c1ccccc1C(=O)[O-]
REMARK SMILES IDX 4 1 9 2 5 3 8 4 6 5 7 6 2 7 1 8 3 9 10 10 11 11 12 12
REMARK H PARENT
REMARK Flexibility Score: inf
ROOT
ATOM      1  C   UNL     1      35.895  18.918  11.292  1.00  0.00     0.006 A 
ATOM      2  C   UNL     1      36.709  18.760  10.136  1.00  0.00     0.006 A 
ATOM      3  C   UNL     1      34.750  19.732  11.216  1.00  0.00     0.010 A 
ATOM      4  C   UNL     1      36.383  19.473   8.966  1.00  0.00     0.010 A 
ATOM      5  C   UNL     1      34.433  20.412  10.039  1.00  0.00     0.001 A 
ATOM      6  C   UNL     1      35.254  20.291   8.921  1.00  0.00     0.001 A 
ENDROOT
BRANCH   1   7
ATOM      7  C   UNL     1      36.235  18.321  12.604  1.00  0.00     0.072 C 
ATOM      8  O   UNL     1      35.612  17.315  13.035  1.00  0.00    -0.545 OA
ATOM      9  O   UNL     1      37.294  18.829  13.348  1.00  0.00    -0.545 OA
ENDBRANCH   1   7
BRANCH   2  10
ATOM     10  C   UNL     1      37.851  17.818  10.084  1.00  0.00     0.072 C 
ATOM     11  O   UNL     1      37.648  16.579   9.984  1.00  0.00    -0.545 OA
ATOM     12  O   UNL     1      39.157  18.280  10.211  1.00  0.00    -0.545 OA
ENDBRANCH   2  10
TORSDOF 2
ENDMDL
