MODEL 1
REMARK VINA RESULT:    -1.533      0.000      0.000
REMARK INTER + INTRA:          -2.980
REMARK INTER:                  -2.250
REMARK INTRA:                  -0.730
REMARK UNBOUND:                -0.730
REMARK SMILES C=C1C=C[C@H](C(C)C)CCC(C)=CCC1
REMARK SMILES IDX 3 1 4 2 5 3 9 4 10 5 11 6 12 7 13 8 6 10 7 11 8 12 2 13 1 14
REMARK SMILES IDX 15 15 14 16
REMARK H PARENT
REMARK Flexibility Score: 70.00
ROOT
ATOM      1  C   UNL     1     167.114 174.133 141.572  1.00  0.00    -0.001 C 
ATOM      2  C   UNL     1     166.855 172.895 141.130  1.00  0.00    -0.023 C 
ENDROOT
BRANCH   2   3
ATOM      3  C   UNL     1     166.013 172.551 139.919  1.00  0.00     0.014 C 
BRANCH   3   4
ATOM      4  C   UNL     1     166.881 171.828 138.859  1.00  0.00     0.012 C 
BRANCH   4   5
ATOM      5  C   UNL     1     167.078 172.645 137.570  1.00  0.00     0.031 C 
BRANCH   5   6
ATOM      6  C   UNL     1     168.375 173.438 137.578  1.00  0.00    -0.077 C 
ATOM      7  C   UNL     1     169.626 172.748 137.097  1.00  0.00     0.039 C 
ATOM      8  C   UNL     1     168.476 174.732 137.965  1.00  0.00    -0.028 CG0
ATOM      9  G   UNL     1     167.344 175.637 138.394  1.00  0.00     0.000 G0
ENDBRANCH   5   6
ENDBRANCH   4   5
ENDBRANCH   3   4
BRANCH   3  10
ATOM     10  C   UNL     1     164.756 171.741 140.355  1.00  0.00    -0.010 C 
ATOM     11  C   UNL     1     163.469 172.582 140.430  1.00  0.00     0.008 C 
ATOM     12  C   UNL     1     164.981 171.000 141.683  1.00  0.00     0.008 C 
ENDBRANCH   3  10
ENDBRANCH   2   3
BRANCH   1  13
ATOM     13  C   UNL     1     166.711 175.394 140.903  1.00  0.00    -0.055 C 
ATOM     14  C   UNL     1     165.543 175.937 141.256  1.00  0.00     0.012 C 
BRANCH  13  15
ATOM     15  C   UNL     1     167.569 176.111 139.872  1.00  0.00     0.039 C 
BRANCH  15  16
ATOM     16  C   UNL     1     167.366 175.652 138.408  1.00  0.00     0.032 CG0
ATOM     17  G   UNL     1     168.465 174.707 137.977  1.00  0.00     0.000 G0
ENDBRANCH  15  16
ENDBRANCH  13  15
ENDBRANCH   1  13
TORSDOF 1
ENDMDL
MODEL 2
REMARK VINA RESULT:    -1.337     13.639     15.581
REMARK INTER + INTRA:          -2.693
REMARK INTER:                  -2.027
REMARK INTRA:                  -0.666
REMARK UNBOUND:                -0.730
REMARK SMILES C=C1C=C[C@H](C(C)C)CCC(C)=CCC1
REMARK SMILES IDX 3 1 4 2 5 3 9 4 10 5 11 6 12 7 13 8 6 10 7 11 8 12 2 13 1 14
REMARK SMILES IDX 15 15 14 16
REMARK H PARENT
REMARK Flexibility Score: 70.00
ROOT
ATOM      1  C   UNL     1     163.855 158.097 140.605  1.00  0.00    -0.001 C 
ATOM      2  C   UNL     1     164.975 158.474 141.238  1.00  0.00    -0.023 C 
ENDROOT
BRANCH   2   3
ATOM      3  C   UNL     1     166.384 158.075 140.849  1.00  0.00     0.014 C 
BRANCH   3   4
ATOM      4  C   UNL     1     167.232 159.339 140.564  1.00  0.00     0.012 C 
BRANCH   4   5
ATOM      5  C   UNL     1     166.478 160.410 139.755  1.00  0.00     0.031 C 
BRANCH   5   6
ATOM      6  C   UNL     1     166.571 160.177 138.255  1.00  0.00    -0.077 C 
ATOM      7  C   UNL     1     167.913 160.367 137.594  1.00  0.00     0.039 C 
ATOM      8  C   UNL     1     165.533 159.787 137.478  1.00  0.00    -0.028 CG0
ATOM      9  G   UNL     1     164.133 159.455 137.942  1.00  0.00     0.000 G0
ENDBRANCH   5   6
ENDBRANCH   4   5
ENDBRANCH   3   4
BRANCH   3  10
ATOM     10  C   UNL     1     166.995 157.145 141.939  1.00  0.00    -0.010 C 
ATOM     11  C   UNL     1     166.070 155.990 142.361  1.00  0.00     0.008 C 
ATOM     12  C   UNL     1     167.454 157.933 143.176  1.00  0.00     0.008 C 
ENDBRANCH   3  10
ENDBRANCH   2   3
BRANCH   1  13
ATOM     13  C   UNL     1     163.794 157.306 139.352  1.00  0.00    -0.055 C 
ATOM     14  C   UNL     1     163.630 155.985 139.461  1.00  0.00     0.012 C 
BRANCH  13  15
ATOM     15  C   UNL     1     163.869 157.922 137.964  1.00  0.00     0.039 C 
BRANCH  15  16
ATOM     16  C   UNL     1     164.103 159.451 137.929  1.00  0.00     0.032 CG0
ATOM     17  G   UNL     1     165.514 159.777 137.495  1.00  0.00     0.000 G0
ENDBRANCH  15  16
ENDBRANCH  13  15
ENDBRANCH   1  13
TORSDOF 1
ENDMDL
MODEL 3
REMARK VINA RESULT:    -1.312      2.119      3.077
REMARK INTER + INTRA:          -2.655
REMARK INTER:                  -2.003
REMARK INTRA:                  -0.652
REMARK UNBOUND:                -0.730
REMARK SMILES C=C1C=C[C@H](C(C)C)CCC(C)=CCC1
REMARK SMILES IDX 3 1 4 2 5 3 9 4 10 5 11 6 12 7 13 8 6 10 7 11 8 12 2 13 1 14
REMARK SMILES IDX 15 15 14 16
REMARK H PARENT
REMARK Flexibility Score: 70.00
ROOT
ATOM      1  C   UNL     1     167.984 173.898 140.932  1.00  0.00    -0.001 C 
ATOM      2  C   UNL     1     166.781 173.326 140.779  1.00  0.00    -0.023 C 
ENDROOT
BRANCH   2   3
ATOM      3  C   UNL     1     166.046 173.161 139.465  1.00  0.00     0.014 C 
BRANCH   3   4
ATOM      4  C   UNL     1     165.892 171.656 139.131  1.00  0.00     0.012 C 
BRANCH   4   5
ATOM      5  C   UNL     1     167.069 170.797 139.627  1.00  0.00     0.031 C 
BRANCH   5   6
ATOM      6  C   UNL     1     168.119 170.572 138.550  1.00  0.00    -0.077 C 
ATOM      7  C   UNL     1     167.733 169.741 137.353  1.00  0.00     0.039 C 
ATOM      8  C   UNL     1     169.370 171.089 138.584  1.00  0.00    -0.028 CG0
ATOM      9  G   UNL     1     169.936 172.016 139.636  1.00  0.00     0.000 G0
ENDBRANCH   5   6
ENDBRANCH   4   5
ENDBRANCH   3   4
BRANCH   3  10
ATOM     10  C   UNL     1     164.693 173.932 139.509  1.00  0.00    -0.010 C 
ATOM     11  C   UNL     1     164.824 175.389 139.986  1.00  0.00     0.008 C 
ATOM     12  C   UNL     1     163.638 173.195 140.349  1.00  0.00     0.008 C 
ENDBRANCH   3  10
ENDBRANCH   2   3
BRANCH   1  13
ATOM     13  C   UNL     1     168.858 174.381 139.837  1.00  0.00    -0.055 C 
ATOM     14  C   UNL     1     168.768 175.669 139.494  1.00  0.00     0.012 C 
BRANCH  13  15
ATOM     15  C   UNL     1     169.869 173.503 139.116  1.00  0.00     0.039 C 
BRANCH  15  16
ATOM     16  C   UNL     1     169.946 172.038 139.612  1.00  0.00     0.032 CG0
ATOM     17  G   UNL     1     169.375 171.085 138.587  1.00  0.00     0.000 G0
ENDBRANCH  15  16
ENDBRANCH  13  15
ENDBRANCH   1  13
TORSDOF 1
ENDMDL
MODEL 4
REMARK VINA RESULT:    -1.262     13.598     15.536
REMARK INTER + INTRA:          -2.582
REMARK INTER:                  -2.036
REMARK INTRA:                  -0.546
REMARK UNBOUND:                -0.730
REMARK SMILES C=C1C=C[C@H](C(C)C)CCC(C)=CCC1
REMARK SMILES IDX 3 1 4 2 5 3 9 4 10 5 11 6 12 7 13 8 6 10 7 11 8 12 2 13 1 14
REMARK SMILES IDX 15 15 14 16
REMARK H PARENT
REMARK Flexibility Score: 70.00
ROOT
ATOM      1  C   UNL     1     163.253 160.895 138.570  1.00  0.00    -0.001 C 
ATOM      2  C   UNL     1     163.546 161.136 139.856  1.00  0.00    -0.023 C 
ENDROOT
BRANCH   2   3
ATOM      3  C   UNL     1     163.367 160.157 140.997  1.00  0.00     0.014 C 
BRANCH   3   4
ATOM      4  C   UNL     1     164.671 159.348 141.209  1.00  0.00     0.012 C 
BRANCH   4   5
ATOM      5  C   UNL     1     164.487 157.832 141.014  1.00  0.00     0.031 C 
BRANCH   5   6
ATOM      6  C   UNL     1     165.464 157.254 140.003  1.00  0.00    -0.077 C 
ATOM      7  C   UNL     1     166.850 156.904 140.482  1.00  0.00     0.039 C 
ATOM      8  C   UNL     1     165.164 157.010 138.705  1.00  0.00    -0.028 CG0
ATOM      9  G   UNL     1     163.821 157.201 138.038  1.00  0.00     0.000 G0
ENDBRANCH   5   6
ENDBRANCH   4   5
ENDBRANCH   3   4
BRANCH   3  10
ATOM     10  C   UNL     1     162.883 160.907 142.274  1.00  0.00    -0.010 C 
ATOM     11  C   UNL     1     162.231 159.991 143.324  1.00  0.00     0.008 C 
ATOM     12  C   UNL     1     161.942 162.075 141.934  1.00  0.00     0.008 C 
ENDBRANCH   3  10
ENDBRANCH   2   3
BRANCH   1  13
ATOM     13  C   UNL     1     162.798 159.598 138.014  1.00  0.00    -0.055 C 
ATOM     14  C   UNL     1     161.493 159.321 138.076  1.00  0.00     0.012 C 
BRANCH  13  15
ATOM     15  C   UNL     1     163.728 158.594 137.350  1.00  0.00     0.039 C 
BRANCH  15  16
ATOM     16  C   UNL     1     163.816 157.213 138.045  1.00  0.00     0.032 CG0
ATOM     17  G   UNL     1     165.174 157.008 138.677  1.00  0.00     0.000 G0
ENDBRANCH  15  16
ENDBRANCH  13  15
ENDBRANCH   1  13
TORSDOF 1
ENDMDL
MODEL 5
REMARK VINA RESULT:    -1.244      2.370      4.731
REMARK INTER + INTRA:          -2.556
REMARK INTER:                  -1.963
REMARK INTRA:                  -0.593
REMARK UNBOUND:                -0.730
REMARK SMILES C=C1C=C[C@H](C(C)C)CCC(C)=CCC1
REMARK SMILES IDX 3 1 4 2 5 3 9 4 10 5 11 6 12 7 13 8 6 10 7 11 8 12 2 13 1 14
REMARK SMILES IDX 15 15 14 16
REMARK H PARENT
REMARK Flexibility Score: 70.00
ROOT
ATOM      1  C   UNL     1     167.300 172.911 138.585  1.00  0.00    -0.001 C 
ATOM      2  C   UNL     1     168.022 172.113 139.385  1.00  0.00    -0.023 C 
ENDROOT
BRANCH   2   3
ATOM      3  C   UNL     1     168.811 172.565 140.597  1.00  0.00     0.014 C 
BRANCH   3   4
ATOM      4  C   UNL     1     167.985 172.321 141.885  1.00  0.00     0.012 C 
BRANCH   4   5
ATOM      5  C   UNL     1     167.679 173.610 142.668  1.00  0.00     0.031 C 
BRANCH   5   6
ATOM      6  C   UNL     1     166.187 173.875 142.790  1.00  0.00    -0.077 C 
ATOM      7  C   UNL     1     165.438 173.185 143.903  1.00  0.00     0.039 C 
ATOM      8  C   UNL     1     165.490 174.708 141.982  1.00  0.00    -0.028 CG0
ATOM      9  G   UNL     1     166.051 175.563 140.868  1.00  0.00     0.000 G0
ENDBRANCH   5   6
ENDBRANCH   4   5
ENDBRANCH   3   4
BRANCH   3  10
ATOM     10  C   UNL     1     170.209 171.877 140.612  1.00  0.00    -0.010 C 
ATOM     11  C   UNL     1     170.756 171.612 142.025  1.00  0.00     0.008 C 
ATOM     12  C   UNL     1     171.242 172.657 139.783  1.00  0.00     0.008 C 
ENDBRANCH   3  10
ENDBRANCH   2   3
BRANCH   1  13
ATOM     13  C   UNL     1     167.056 174.358 138.796  1.00  0.00    -0.055 C 
ATOM     14  C   UNL     1     167.969 175.214 138.329  1.00  0.00     0.012 C 
BRANCH  13  15
ATOM     15  C   UNL     1     165.815 174.912 139.477  1.00  0.00     0.039 C 
BRANCH  15  16
ATOM     16  C   UNL     1     166.055 175.568 140.859  1.00  0.00     0.032 CG0
ATOM     17  G   UNL     1     165.503 174.708 141.973  1.00  0.00     0.000 G0
ENDBRANCH  15  16
ENDBRANCH  13  15
ENDBRANCH   1  13
TORSDOF 1
ENDMDL
MODEL 6
REMARK VINA RESULT:    -1.085     13.515     15.907
REMARK INTER + INTRA:          -2.322
REMARK INTER:                  -1.632
REMARK INTRA:                  -0.690
REMARK UNBOUND:                -0.730
REMARK SMILES C=C1C=C[C@H](C(C)C)CCC(C)=CCC1
REMARK SMILES IDX 3 1 4 2 5 3 9 4 10 5 11 6 12 7 13 8 6 10 7 11 8 12 2 13 1 14
REMARK SMILES IDX 15 15 14 16
REMARK H PARENT
REMARK Flexibility Score: 70.00
ROOT
ATOM      1  C   UNL     1     167.367 158.273 140.869  1.00  0.00    -0.001 C 
ATOM      2  C   UNL     1     167.092 159.518 140.455  1.00  0.00    -0.023 C 
ENDROOT
BRANCH   2   3
ATOM      3  C   UNL     1     166.913 159.947 139.013  1.00  0.00     0.014 C 
BRANCH   3   4
ATOM      4  C   UNL     1     165.507 160.566 138.816  1.00  0.00     0.012 C 
BRANCH   4   5
ATOM      5  C   UNL     1     164.387 159.769 139.509  1.00  0.00     0.031 C 
BRANCH   5   6
ATOM      6  C   UNL     1     163.894 158.606 138.663  1.00  0.00    -0.077 C 
ATOM      7  C   UNL     1     163.157 158.925 137.386  1.00  0.00     0.039 C 
ATOM      8  C   UNL     1     164.093 157.302 138.969  1.00  0.00    -0.028 CG0
ATOM      9  G   UNL     1     164.876 156.759 140.143  1.00  0.00     0.000 G0
ENDBRANCH   5   6
ENDBRANCH   4   5
ENDBRANCH   3   4
BRANCH   3  10
ATOM     10  C   UNL     1     168.077 160.892 138.589  1.00  0.00    -0.010 C 
ATOM     11  C   UNL     1     169.020 160.283 137.536  1.00  0.00     0.008 C 
ATOM     12  C   UNL     1     168.886 161.388 139.798  1.00  0.00     0.008 C 
ENDBRANCH   3  10
ENDBRANCH   2   3
BRANCH   1  13
ATOM     13  C   UNL     1     167.446 157.071 140.005  1.00  0.00    -0.055 C 
ATOM     14  C   UNL     1     168.645 156.729 139.527  1.00  0.00     0.012 C 
BRANCH  13  15
ATOM     15  C   UNL     1     166.249 156.195 139.669  1.00  0.00     0.039 C 
BRANCH  15  16
ATOM     16  C   UNL     1     164.877 156.741 140.135  1.00  0.00     0.032 CG0
ATOM     17  G   UNL     1     164.091 157.303 138.972  1.00  0.00     0.000 G0
ENDBRANCH  15  16
ENDBRANCH  13  15
ENDBRANCH   1  13
TORSDOF 1
ENDMDL
MODEL 7
REMARK VINA RESULT:    -1.073     12.340     14.317
REMARK INTER + INTRA:          -2.305
REMARK INTER:                  -1.740
REMARK INTRA:                  -0.565
REMARK UNBOUND:                -0.730
REMARK SMILES C=C1C=C[C@H](C(C)C)CCC(C)=CCC1
REMARK SMILES IDX 3 1 4 2 5 3 9 4 10 5 11 6 12 7 13 8 6 10 7 11 8 12 2 13 1 14
REMARK SMILES IDX 15 15 14 16
REMARK H PARENT
REMARK Flexibility Score: 70.00
ROOT
ATOM      1  C   UNL     1     162.437 160.194 139.583  1.00  0.00    -0.001 C 
ATOM      2  C   UNL     1     163.342 159.494 140.282  1.00  0.00    -0.023 C 
ENDROOT
BRANCH   2   3
ATOM      3  C   UNL     1     164.440 158.635 139.689  1.00  0.00     0.014 C 
BRANCH   3   4
ATOM      4  C   UNL     1     165.806 159.025 140.307  1.00  0.00     0.012 C 
BRANCH   4   5
ATOM      5  C   UNL     1     166.087 160.538 140.262  1.00  0.00     0.031 C 
BRANCH   5   6
ATOM      6  C   UNL     1     166.594 160.994 138.904  1.00  0.00    -0.077 C 
ATOM      7  C   UNL     1     168.018 160.661 138.535  1.00  0.00     0.039 C 
ATOM      8  C   UNL     1     165.844 161.659 137.992  1.00  0.00    -0.028 CG0
ATOM      9  G   UNL     1     164.380 162.014 138.116  1.00  0.00     0.000 G0
ENDBRANCH   5   6
ENDBRANCH   4   5
ENDBRANCH   3   4
BRANCH   3  10
ATOM     10  C   UNL     1     164.087 157.127 139.855  1.00  0.00    -0.010 C 
ATOM     11  C   UNL     1     165.192 156.302 140.537  1.00  0.00     0.008 C 
ATOM     12  C   UNL     1     163.692 156.478 138.519  1.00  0.00     0.008 C 
ENDBRANCH   3  10
ENDBRANCH   2   3
BRANCH   1  13
ATOM     13  C   UNL     1     162.408 160.340 138.108  1.00  0.00    -0.055 C 
ATOM     14  C   UNL     1     161.337 159.872 137.460  1.00  0.00     0.012 C 
BRANCH  13  15
ATOM     15  C   UNL     1     163.506 161.022 137.307  1.00  0.00     0.039 C 
BRANCH  15  16
ATOM     16  C   UNL     1     164.386 162.017 138.102  1.00  0.00     0.032 CG0
ATOM     17  G   UNL     1     165.850 161.659 137.990  1.00  0.00     0.000 G0
ENDBRANCH  15  16
ENDBRANCH  13  15
ENDBRANCH   1  13
TORSDOF 1
ENDMDL
MODEL 8
REMARK VINA RESULT:    -1.045      3.114      5.990
REMARK INTER + INTRA:          -2.265
REMARK INTER:                  -1.681
REMARK INTRA:                  -0.584
REMARK UNBOUND:                -0.730
REMARK SMILES C=C1C=C[C@H](C(C)C)CCC(C)=CCC1
REMARK SMILES IDX 3 1 4 2 5 3 9 4 10 5 11 6 12 7 13 8 6 10 7 11 8 12 2 13 1 14
REMARK SMILES IDX 15 15 14 16
REMARK H PARENT
REMARK Flexibility Score: 70.00
ROOT
ATOM      1  C   UNL     1     170.867 170.184 140.301  1.00  0.00    -0.001 C 
ATOM      2  C   UNL     1     171.459 171.387 140.302  1.00  0.00    -0.023 C 
ENDROOT
BRANCH   2   3
ATOM      3  C   UNL     1     171.366 172.415 139.194  1.00  0.00     0.014 C 
BRANCH   3   4
ATOM      4  C   UNL     1     170.285 173.469 139.541  1.00  0.00     0.012 C 
BRANCH   4   5
ATOM      5  C   UNL     1     169.165 173.564 138.489  1.00  0.00     0.031 C 
BRANCH   5   6
ATOM      6  C   UNL     1     167.797 173.237 139.066  1.00  0.00    -0.077 C 
ATOM      7  C   UNL     1     167.025 174.351 139.725  1.00  0.00     0.039 C 
ATOM      8  C   UNL     1     167.215 172.015 139.005  1.00  0.00    -0.028 CG0
ATOM      9  G   UNL     1     167.767 170.786 138.318  1.00  0.00     0.000 G0
ENDBRANCH   5   6
ENDBRANCH   4   5
ENDBRANCH   3   4
BRANCH   3  10
ATOM     10  C   UNL     1     172.770 173.029 138.915  1.00  0.00    -0.010 C 
ATOM     11  C   UNL     1     172.957 174.441 139.496  1.00  0.00     0.008 C 
ATOM     12  C   UNL     1     173.113 173.025 137.417  1.00  0.00     0.008 C 
ENDBRANCH   3  10
ENDBRANCH   2   3
BRANCH   1  13
ATOM     13  C   UNL     1     169.932 169.680 139.266  1.00  0.00    -0.055 C 
ATOM     14  C   UNL     1     170.456 169.048 138.213  1.00  0.00     0.012 C 
BRANCH  13  15
ATOM     15  C   UNL     1     168.420 169.814 139.361  1.00  0.00     0.039 C 
BRANCH  15  16
ATOM     16  C   UNL     1     167.774 170.769 138.329  1.00  0.00     0.032 CG0
ATOM     17  G   UNL     1     167.223 172.006 139.002  1.00  0.00     0.000 G0
ENDBRANCH  15  16
ENDBRANCH  13  15
ENDBRANCH   1  13
TORSDOF 1
ENDMDL
MODEL 9
REMARK VINA RESULT:    -0.987      2.828      5.120
REMARK INTER + INTRA:          -2.179
REMARK INTER:                  -1.661
REMARK INTRA:                  -0.518
REMARK UNBOUND:                -0.730
REMARK SMILES C=C1C=C[C@H](C(C)C)CCC(C)=CCC1
REMARK SMILES IDX 3 1 4 2 5 3 9 4 10 5 11 6 12 7 13 8 6 10 7 11 8 12 2 13 1 14
REMARK SMILES IDX 15 15 14 16
REMARK H PARENT
REMARK Flexibility Score: 70.00
ROOT
ATOM      1  C   UNL     1     169.830 171.341 142.059  1.00  0.00    -0.001 C 
ATOM      2  C   UNL     1     170.862 171.713 141.288  1.00  0.00    -0.023 C 
ENDROOT
BRANCH   2   3
ATOM      3  C   UNL     1     170.811 171.920 139.788  1.00  0.00     0.014 C 
BRANCH   3   4
ATOM      4  C   UNL     1     170.378 173.373 139.471  1.00  0.00     0.012 C 
BRANCH   4   5
ATOM      5  C   UNL     1     169.114 173.456 138.596  1.00  0.00     0.031 C 
BRANCH   5   6
ATOM      6  C   UNL     1     168.078 174.414 139.162  1.00  0.00    -0.077 C 
ATOM      7  C   UNL     1     168.189 175.872 138.792  1.00  0.00     0.039 C 
ATOM      8  C   UNL     1     167.048 174.041 139.958  1.00  0.00    -0.028 CG0
ATOM      9  G   UNL     1     166.697 172.632 140.379  1.00  0.00     0.000 G0
ENDBRANCH   5   6
ENDBRANCH   4   5
ENDBRANCH   3   4
BRANCH   3  10
ATOM     10  C   UNL     1     172.173 171.520 139.147  1.00  0.00    -0.010 C 
ATOM     11  C   UNL     1     173.258 171.148 140.173  1.00  0.00     0.008 C 
ATOM     12  C   UNL     1     172.699 172.602 138.190  1.00  0.00     0.008 C 
ENDBRANCH   3  10
ENDBRANCH   2   3
BRANCH   1  13
ATOM     13  C   UNL     1     168.430 171.164 141.604  1.00  0.00    -0.055 C 
ATOM     14  C   UNL     1     168.085 169.972 141.110  1.00  0.00     0.012 C 
BRANCH  13  15
ATOM     15  C   UNL     1     167.368 172.247 141.705  1.00  0.00     0.039 C 
BRANCH  15  16
ATOM     16  C   UNL     1     166.685 172.632 140.371  1.00  0.00     0.032 CG0
ATOM     17  G   UNL     1     167.044 174.042 139.962  1.00  0.00     0.000 G0
ENDBRANCH  15  16
ENDBRANCH  13  15
ENDBRANCH   1  13
TORSDOF 1
ENDMDL
