MODEL 1
REMARK VINA RESULT:     5.118      0.000      0.000
REMARK INTER + INTRA:           7.476
REMARK INTER:                   7.811
REMARK INTRA:                  -0.334
REMARK UNBOUND:                -0.334
REMARK SMILES CCCCCCCCCC=CC(=O)[O-]
REMARK SMILES IDX 7 1 8 2 9 3 10 4 11 5 12 6 13 7 14 8 6 9 5 10 4 11 3 12 2 13
REMARK SMILES IDX 1 14
REMARK H PARENT
REMARK Flexibility Score: inf
ROOT
ATOM      1  C   UNL     1      78.157   0.700  62.581  1.00  0.00     0.000 C 
ENDROOT
BRANCH   1   2
ATOM      2  C   UNL     1      77.964   0.504  64.096  1.00  0.00     0.004 C 
BRANCH   2   3
ATOM      3  C   UNL     1      79.277   0.317  64.878  1.00  0.00     0.027 C 
BRANCH   3   4
ATOM      4  C   UNL     1      79.240  -0.875  65.793  1.00  0.00    -0.025 C 
ATOM      5  C   UNL     1      79.886  -0.879  66.963  1.00  0.00     0.020 C 
BRANCH   5   6
ATOM      6  C   UNL     1      79.861  -2.033  67.874  1.00  0.00     0.064 C 
ATOM      7  O   UNL     1      78.845  -2.774  67.959  1.00  0.00    -0.545 OA
ATOM      8  O   UNL     1      80.976  -2.312  68.653  1.00  0.00    -0.545 OA
ENDBRANCH   5   6
ENDBRANCH   3   4
ENDBRANCH   2   3
ENDBRANCH   1   2
BRANCH   1   9
ATOM      9  C   UNL     1      76.904   1.267  61.891  1.00  0.00     0.000 C 
BRANCH   9  10
ATOM     10  C   UNL     1      76.883   2.804  61.876  1.00  0.00     0.000 C 
BRANCH  10  11
ATOM     11  C   UNL     1      78.113   3.418  62.559  1.00  0.00    -0.000 C 
BRANCH  11  12
ATOM     12  C   UNL     1      77.697   4.412  63.650  1.00  0.00    -0.000 C 
BRANCH  12  13
ATOM     13  C   UNL     1      78.924   5.087  64.276  1.00  0.00    -0.003 C 
ATOM     14  C   UNL     1      78.738   6.599  64.357  1.00  0.00     0.004 C 
ENDBRANCH  12  13
ENDBRANCH  11  12
ENDBRANCH  10  11
ENDBRANCH   9  10
ENDBRANCH   1   9
TORSDOF 9
ENDMDL
MODEL 2
REMARK VINA RESULT:     6.516      1.246      2.037
REMARK INTER + INTRA:           9.610
REMARK INTER:                   8.937
REMARK INTRA:                   0.673
REMARK UNBOUND:                -0.334
REMARK SMILES CCCCCCCCCC=CC(=O)[O-]
REMARK SMILES IDX 7 1 8 2 9 3 10 4 11 5 12 6 13 7 14 8 6 9 5 10 4 11 3 12 2 13
REMARK SMILES IDX 1 14
REMARK H PARENT
REMARK Flexibility Score: inf
ROOT
ATOM      1  C   UNL     1      76.910   0.922  63.685  1.00  0.00     0.000 C 
ENDROOT
BRANCH   1   2
ATOM      2  C   UNL     1      77.818  -0.238  64.131  1.00  0.00     0.004 C 
BRANCH   2   3
ATOM      3  C   UNL     1      78.971   0.185  65.059  1.00  0.00     0.027 C 
BRANCH   3   4
ATOM      4  C   UNL     1      79.542  -0.968  65.836  1.00  0.00    -0.025 C 
ATOM      5  C   UNL     1      79.404  -1.055  67.163  1.00  0.00     0.020 C 
BRANCH   5   6
ATOM      6  C   UNL     1      79.953  -2.175  67.941  1.00  0.00     0.064 C 
ATOM      7  O   UNL     1      79.268  -3.209  68.167  1.00  0.00    -0.545 OA
ATOM      8  O   UNL     1      81.248  -2.094  68.434  1.00  0.00    -0.545 OA
ENDBRANCH   5   6
ENDBRANCH   3   4
ENDBRANCH   2   3
ENDBRANCH   1   2
BRANCH   1   9
ATOM      9  C   UNL     1      77.118   1.306  62.210  1.00  0.00     0.000 C 
BRANCH   9  10
ATOM     10  C   UNL     1      76.875   2.802  61.949  1.00  0.00     0.000 C 
BRANCH  10  11
ATOM     11  C   UNL     1      77.689   3.704  62.888  1.00  0.00    -0.000 C 
BRANCH  11  12
ATOM     12  C   UNL     1      79.189   3.411  62.768  1.00  0.00    -0.000 C 
BRANCH  12  13
ATOM     13  C   UNL     1      79.441   2.187  61.878  1.00  0.00    -0.003 C 
ATOM     14  C   UNL     1      80.739   1.483  62.265  1.00  0.00     0.004 C 
ENDBRANCH  12  13
ENDBRANCH  11  12
ENDBRANCH  10  11
ENDBRANCH   9  10
ENDBRANCH   1   9
TORSDOF 9
ENDMDL
MODEL 3
REMARK VINA RESULT:     6.921      3.639      6.761
REMARK INTER + INTRA:          10.228
REMARK INTER:                  10.416
REMARK INTRA:                  -0.188
REMARK UNBOUND:                -0.334
REMARK SMILES CCCCCCCCCC=CC(=O)[O-]
REMARK SMILES IDX 7 1 8 2 9 3 10 4 11 5 12 6 13 7 14 8 6 9 5 10 4 11 3 12 2 13
REMARK SMILES IDX 1 14
REMARK H PARENT
REMARK Flexibility Score: inf
ROOT
ATOM      1  C   UNL     1      78.567   1.011  62.701  1.00  0.00     0.000 C 
ENDROOT
BRANCH   1   2
ATOM      2  C   UNL     1      77.330   1.422  61.882  1.00  0.00     0.004 C 
BRANCH   2   3
ATOM      3  C   UNL     1      76.928   2.898  62.046  1.00  0.00     0.027 C 
BRANCH   3   4
ATOM      4  C   UNL     1      77.799   3.630  63.029  1.00  0.00    -0.025 C 
ATOM      5  C   UNL     1      77.668   4.944  63.238  1.00  0.00     0.020 C 
BRANCH   5   6
ATOM      6  C   UNL     1      78.508   5.678  64.196  1.00  0.00     0.064 C 
ATOM      7  O   UNL     1      79.602   5.201  64.601  1.00  0.00    -0.545 OA
ATOM      8  O   UNL     1      78.090   6.916  64.662  1.00  0.00    -0.545 OA
ENDBRANCH   5   6
ENDBRANCH   3   4
ENDBRANCH   2   3
ENDBRANCH   1   2
BRANCH   1   9
ATOM      9  C   UNL     1      78.219   0.632  64.151  1.00  0.00     0.000 C 
BRANCH   9  10
ATOM     10  C   UNL     1      79.389  -0.049  64.880  1.00  0.00     0.000 C 
BRANCH  10  11
ATOM     11  C   UNL     1      79.041  -0.434  66.325  1.00  0.00    -0.000 C 
BRANCH  11  12
ATOM     12  C   UNL     1      80.259  -1.025  67.044  1.00  0.00    -0.000 C 
BRANCH  12  13
ATOM     13  C   UNL     1      79.866  -2.258  67.869  1.00  0.00    -0.003 C 
ATOM     14  C   UNL     1      78.365  -2.516  67.790  1.00  0.00     0.004 C 
ENDBRANCH  12  13
ENDBRANCH  11  12
ENDBRANCH  10  11
ENDBRANCH   9  10
ENDBRANCH   1   9
TORSDOF 9
ENDMDL
MODEL 4
REMARK VINA RESULT:     7.628      0.952      1.316
REMARK INTER + INTRA:          11.306
REMARK INTER:                  11.360
REMARK INTRA:                  -0.053
REMARK UNBOUND:                -0.334
REMARK SMILES CCCCCCCCCC=CC(=O)[O-]
REMARK SMILES IDX 7 1 8 2 9 3 10 4 11 5 12 6 13 7 14 8 6 9 5 10 4 11 3 12 2 13
REMARK SMILES IDX 1 14
REMARK H PARENT
REMARK Flexibility Score: inf
ROOT
ATOM      1  C   UNL     1      78.978   1.017  63.757  1.00  0.00     0.000 C 
ENDROOT
BRANCH   1   2
ATOM      2  C   UNL     1      79.362  -0.141  64.695  1.00  0.00     0.004 C 
BRANCH   2   3
ATOM      3  C   UNL     1      78.397  -0.340  65.877  1.00  0.00     0.027 C 
BRANCH   3   4
ATOM      4  C   UNL     1      78.921  -1.312  66.896  1.00  0.00    -0.025 C 
ATOM      5  C   UNL     1      80.168  -1.224  67.372  1.00  0.00     0.020 C 
BRANCH   5   6
ATOM      6  C   UNL     1      80.699  -2.164  68.370  1.00  0.00     0.064 C 
ATOM      7  O   UNL     1      79.938  -2.740  69.192  1.00  0.00    -0.545 OA
ATOM      8  O   UNL     1      82.063  -2.422  68.407  1.00  0.00    -0.545 OA
ENDBRANCH   5   6
ENDBRANCH   3   4
ENDBRANCH   2   3
ENDBRANCH   1   2
BRANCH   1   9
ATOM      9  C   UNL     1      77.510   0.951  63.301  1.00  0.00     0.000 C 
BRANCH   9  10
ATOM     10  C   UNL     1      77.307   1.503  61.881  1.00  0.00     0.000 C 
BRANCH  10  11
ATOM     11  C   UNL     1      76.915   2.988  61.875  1.00  0.00    -0.000 C 
BRANCH  11  12
ATOM     12  C   UNL     1      77.158   3.626  63.248  1.00  0.00    -0.000 C 
BRANCH  12  13
ATOM     13  C   UNL     1      78.516   4.336  63.292  1.00  0.00    -0.003 C 
ATOM     14  C   UNL     1      78.467   5.563  64.199  1.00  0.00     0.004 C 
ENDBRANCH  12  13
ENDBRANCH  11  12
ENDBRANCH  10  11
ENDBRANCH   9  10
ENDBRANCH   1   9
TORSDOF 9
ENDMDL
MODEL 5
REMARK VINA RESULT:     8.029      2.039      3.720
REMARK INTER + INTRA:          11.919
REMARK INTER:                  12.167
REMARK INTRA:                  -0.248
REMARK UNBOUND:                -0.334
REMARK SMILES CCCCCCCCCC=CC(=O)[O-]
REMARK SMILES IDX 7 1 8 2 9 3 10 4 11 5 12 6 13 7 14 8 6 9 5 10 4 11 3 12 2 13
REMARK SMILES IDX 1 14
REMARK H PARENT
REMARK Flexibility Score: inf
ROOT
ATOM      1  C   UNL     1      79.461  -0.513  66.268  1.00  0.00     0.000 C 
ENDROOT
BRANCH   1   2
ATOM      2  C   UNL     1      78.791  -1.534  67.204  1.00  0.00     0.004 C 
BRANCH   2   3
ATOM      3  C   UNL     1      79.682  -1.997  68.371  1.00  0.00     0.027 C 
BRANCH   3   4
ATOM      4  C   UNL     1      81.058  -2.402  67.923  1.00  0.00    -0.025 C 
ATOM      5  C   UNL     1      82.085  -2.457  68.779  1.00  0.00     0.020 C 
BRANCH   5   6
ATOM      6  C   UNL     1      83.438  -2.852  68.361  1.00  0.00     0.064 C 
ATOM      7  O   UNL     1      83.869  -2.584  67.208  1.00  0.00    -0.545 OA
ATOM      8  O   UNL     1      84.257  -3.532  69.253  1.00  0.00    -0.545 OA
ENDBRANCH   5   6
ENDBRANCH   3   4
ENDBRANCH   2   3
ENDBRANCH   1   2
BRANCH   1   9
ATOM      9  C   UNL     1      78.921  -0.582  64.829  1.00  0.00     0.000 C 
BRANCH   9  10
ATOM     10  C   UNL     1      78.661   0.808  64.228  1.00  0.00     0.000 C 
BRANCH  10  11
ATOM     11  C   UNL     1      77.468   0.819  63.260  1.00  0.00    -0.000 C 
BRANCH  11  12
ATOM     12  C   UNL     1      77.822   1.552  61.961  1.00  0.00    -0.000 C 
BRANCH  12  13
ATOM     13  C   UNL     1      77.122   2.915  61.889  1.00  0.00    -0.003 C 
ATOM     14  C   UNL     1      77.634   3.854  62.978  1.00  0.00     0.004 C 
ENDBRANCH  12  13
ENDBRANCH  11  12
ENDBRANCH  10  11
ENDBRANCH   9  10
ENDBRANCH   1   9
TORSDOF 9
ENDMDL
