MODEL 1
REMARK VINA RESULT:    -5.022      0.000      0.000
REMARK INTER + INTRA:          -9.152
REMARK INTER:                  -7.665
REMARK INTRA:                  -1.487
REMARK UNBOUND:                -1.487
REMARK SMILES OC[C@@H]1O[C@H](O[C@]2(CO)O[C@H](CO)[C@@H](O)[C@@H]2O)[C@@H](O)[C@@H](O)[C@H]1O
REMARK SMILES IDX 6 1 5 2 3 3 22 4 4 5 20 6 18 7 2 8 1 9 23 11 21 13 19 15
REMARK SMILES IDX 7 17 16 18 10 19 14 20 11 21 8 22 9 23 17 25 15 27 12 29
REMARK SMILES IDX 13 30
REMARK H PARENT 1 10 23 12 21 14 19 16 9 24 17 26 15 28 13 31
REMARK Flexibility Score: inf
ROOT
ATOM      1  O   UNL     1      33.791  17.269 134.805  1.00  0.00    -0.313 OA
ENDROOT
BRANCH   1   2
ATOM      2  C   UNL     1      32.414  17.053 135.092  1.00  0.00     0.285 C 
ATOM      3  C   UNL     1      30.845  16.674 136.792  1.00  0.00     0.178 C 
ATOM      4  C   UNL     1      29.726  17.339 135.922  1.00  0.00     0.177 C 
ATOM      5  O   UNL     1      32.142  17.168 136.482  1.00  0.00    -0.341 OA
ATOM      6  C   UNL     1      30.318  18.488 135.079  1.00  0.00     0.179 C 
ATOM      7  C   UNL     1      31.520  18.002 134.243  1.00  0.00     0.202 C 
BRANCH   3   8
ATOM      8  C   UNL     1      30.596  16.922 138.285  1.00  0.00     0.191 C 
BRANCH   8   9
ATOM      9  O   UNL     1      31.717  16.537 139.041  1.00  0.00    -0.394 OA
ATOM     10  H   UNL     1      32.354  16.102 138.409  1.00  0.00     0.210 HD
ENDBRANCH   8   9
ENDBRANCH   3   8
BRANCH   4  11
ATOM     11  O   UNL     1      29.145  16.379 135.077  1.00  0.00    -0.387 OA
ATOM     12  H   UNL     1      28.197  16.286 135.355  1.00  0.00     0.211 HD
ENDBRANCH   4  11
BRANCH   6  13
ATOM     13  O   UNL     1      29.345  19.125 134.287  1.00  0.00    -0.387 OA
ATOM     14  H   UNL     1      28.457  18.751 134.520  1.00  0.00     0.211 HD
ENDBRANCH   6  13
BRANCH   7  15
ATOM     15  O   UNL     1      31.074  17.332 133.090  1.00  0.00    -0.385 OA
ATOM     16  H   UNL     1      30.675  16.474 133.398  1.00  0.00     0.211 HD
ENDBRANCH   7  15
ENDBRANCH   1   2
BRANCH   1  17
ATOM     17  C   UNL     1      34.645  16.123 134.869  1.00  0.00     0.224 C 
ATOM     18  C   UNL     1      35.676  16.342 135.997  1.00  0.00     0.208 C 
ATOM     19  O   UNL     1      33.937  14.930 135.161  1.00  0.00    -0.337 OA
ATOM     20  C   UNL     1      35.828  14.980 136.643  1.00  0.00     0.180 C 
ATOM     21  C   UNL     1      34.739  14.120 135.988  1.00  0.00     0.179 C 
BRANCH  17  22
ATOM     22  C   UNL     1      35.347  15.982 133.497  1.00  0.00     0.225 C 
BRANCH  22  23
ATOM     23  O   UNL     1      36.733  15.846 133.644  1.00  0.00    -0.391 OA
ATOM     24  H   UNL     1      36.936  14.888 133.476  1.00  0.00     0.210 HD
ENDBRANCH  22  23
ENDBRANCH  17  22
BRANCH  18  25
ATOM     25  O   UNL     1      35.191  17.255 136.953  1.00  0.00    -0.385 OA
ATOM     26  H   UNL     1      35.935  17.876 137.161  1.00  0.00     0.211 HD
ENDBRANCH  18  25
BRANCH  20  27
ATOM     27  O   UNL     1      37.104  14.457 136.370  1.00  0.00    -0.387 OA
ATOM     28  H   UNL     1      37.735  14.930 136.975  1.00  0.00     0.211 HD
ENDBRANCH  20  27
BRANCH  21  29
ATOM     29  C   UNL     1      33.847  13.417 137.018  1.00  0.00     0.191 C 
BRANCH  29  30
ATOM     30  O   UNL     1      33.113  14.360 137.756  1.00  0.00    -0.394 OA
ATOM     31  H   UNL     1      32.802  13.906 138.581  1.00  0.00     0.210 HD
ENDBRANCH  29  30
ENDBRANCH  21  29
ENDBRANCH   1  17
TORSDOF 13
ENDMDL
MODEL 2
REMARK VINA RESULT:    -4.955     11.077     13.523
REMARK INTER + INTRA:          -9.049
REMARK INTER:                  -7.870
REMARK INTRA:                  -1.179
REMARK UNBOUND:                -1.487
REMARK SMILES OC[C@@H]1O[C@H](O[C@]2(CO)O[C@H](CO)[C@@H](O)[C@@H]2O)[C@@H](O)[C@@H](O)[C@H]1O
REMARK SMILES IDX 6 1 5 2 3 3 22 4 4 5 20 6 18 7 2 8 1 9 23 11 21 13 19 15
REMARK SMILES IDX 7 17 16 18 10 19 14 20 11 21 8 22 9 23 17 25 15 27 12 29
REMARK SMILES IDX 13 30
REMARK H PARENT 1 10 23 12 21 14 19 16 9 24 17 26 15 28 13 31
REMARK Flexibility Score: inf
ROOT
ATOM      1  O   UNL     1      28.588   6.321 143.730  1.00  0.00    -0.313 OA
ENDROOT
BRANCH   1   2
ATOM      2  C   UNL     1      27.965   7.483 143.195  1.00  0.00     0.285 C 
ATOM      3  C   UNL     1      25.952   8.670 143.011  1.00  0.00     0.178 C 
ATOM      4  C   UNL     1      26.743  10.012 142.862  1.00  0.00     0.177 C 
ATOM      5  O   UNL     1      26.672   7.690 143.748  1.00  0.00    -0.341 OA
ATOM      6  C   UNL     1      28.030   9.969 143.712  1.00  0.00     0.179 C 
ATOM      7  C   UNL     1      28.882   8.728 143.372  1.00  0.00     0.202 C 
BRANCH   3   8
ATOM      8  C   UNL     1      24.615   8.901 143.726  1.00  0.00     0.191 C 
BRANCH   8   9
ATOM      9  O   UNL     1      24.457  10.259 144.049  1.00  0.00    -0.394 OA
ATOM     10  H   UNL     1      23.611  10.334 144.572  1.00  0.00     0.210 HD
ENDBRANCH   8   9
ENDBRANCH   3   8
BRANCH   4  11
ATOM     11  O   UNL     1      27.072  10.224 141.512  1.00  0.00    -0.387 OA
ATOM     12  H   UNL     1      26.267   9.991 140.979  1.00  0.00     0.211 HD
ENDBRANCH   4  11
BRANCH   6  13
ATOM     13  O   UNL     1      28.772  11.162 143.618  1.00  0.00    -0.387 OA
ATOM     14  H   UNL     1      28.865  11.545 144.528  1.00  0.00     0.211 HD
ENDBRANCH   6  13
BRANCH   7  15
ATOM     15  O   UNL     1      29.619   8.949 142.195  1.00  0.00    -0.385 OA
ATOM     16  H   UNL     1      30.508   8.522 142.335  1.00  0.00     0.211 HD
ENDBRANCH   7  15
ENDBRANCH   1   2
BRANCH   1  17
ATOM     17  C   UNL     1      28.626   5.169 142.884  1.00  0.00     0.224 C 
ATOM     18  C   UNL     1      27.583   4.151 143.393  1.00  0.00     0.208 C 
ATOM     19  O   UNL     1      28.307   5.470 141.536  1.00  0.00    -0.337 OA
ATOM     20  C   UNL     1      26.988   3.552 142.135  1.00  0.00     0.180 C 
ATOM     21  C   UNL     1      27.572   4.397 140.994  1.00  0.00     0.179 C 
BRANCH  17  22
ATOM     22  C   UNL     1      30.056   4.580 142.954  1.00  0.00     0.225 C 
BRANCH  22  23
ATOM     23  O   UNL     1      30.037   3.245 143.380  1.00  0.00    -0.391 OA
ATOM     24  H   UNL     1      30.157   2.694 142.562  1.00  0.00     0.210 HD
ENDBRANCH  22  23
ENDBRANCH  17  22
BRANCH  18  25
ATOM     25  O   UNL     1      26.566   4.794 144.124  1.00  0.00    -0.385 OA
ATOM     26  H   UNL     1      26.575   4.402 145.035  1.00  0.00     0.211 HD
ENDBRANCH  18  25
BRANCH  20  27
ATOM     27  O   UNL     1      27.381   2.209 142.008  1.00  0.00    -0.387 OA
ATOM     28  H   UNL     1      26.848   1.697 142.672  1.00  0.00     0.211 HD
ENDBRANCH  20  27
BRANCH  21  29
ATOM     29  C   UNL     1      26.489   4.952 140.061  1.00  0.00     0.191 C 
BRANCH  29  30
ATOM     30  O   UNL     1      25.912   6.108 140.612  1.00  0.00    -0.394 OA
ATOM     31  H   UNL     1      25.955   6.814 139.917  1.00  0.00     0.210 HD
ENDBRANCH  29  30
ENDBRANCH  21  29
ENDBRANCH   1  17
TORSDOF 13
ENDMDL
MODEL 3
REMARK VINA RESULT:    -4.937     10.533     13.705
REMARK INTER + INTRA:          -9.021
REMARK INTER:                  -8.041
REMARK INTRA:                  -0.980
REMARK UNBOUND:                -1.487
REMARK SMILES OC[C@@H]1O[C@H](O[C@]2(CO)O[C@H](CO)[C@@H](O)[C@@H]2O)[C@@H](O)[C@@H](O)[C@H]1O
REMARK SMILES IDX 6 1 5 2 3 3 22 4 4 5 20 6 18 7 2 8 1 9 23 11 21 13 19 15
REMARK SMILES IDX 7 17 16 18 10 19 14 20 11 21 8 22 9 23 17 25 15 27 12 29
REMARK SMILES IDX 13 30
REMARK H PARENT 1 10 23 12 21 14 19 16 9 24 17 26 15 28 13 31
REMARK Flexibility Score: inf
ROOT
ATOM      1  O   UNL     1      28.390   7.335 141.497  1.00  0.00    -0.313 OA
ENDROOT
BRANCH   1   2
ATOM      2  C   UNL     1      28.087   5.971 141.765  1.00  0.00     0.285 C 
ATOM      3  C   UNL     1      27.462   3.921 140.813  1.00  0.00     0.178 C 
ATOM      4  C   UNL     1      28.171   3.152 141.977  1.00  0.00     0.177 C 
ATOM      5  O   UNL     1      28.039   5.199 140.572  1.00  0.00    -0.341 OA
ATOM      6  C   UNL     1      29.427   3.920 142.437  1.00  0.00     0.179 C 
ATOM      7  C   UNL     1      29.085   5.380 142.802  1.00  0.00     0.202 C 
BRANCH   3   8
ATOM      8  C   UNL     1      27.536   3.123 139.505  1.00  0.00     0.191 C 
BRANCH   8   9
ATOM      9  O   UNL     1      28.850   3.115 139.007  1.00  0.00    -0.394 OA
ATOM     10  H   UNL     1      28.910   2.354 138.365  1.00  0.00     0.210 HD
ENDBRANCH   8   9
ENDBRANCH   3   8
BRANCH   4  11
ATOM     11  O   UNL     1      27.285   2.999 143.056  1.00  0.00    -0.387 OA
ATOM     12  H   UNL     1      26.392   2.801 142.671  1.00  0.00     0.211 HD
ENDBRANCH   4  11
BRANCH   6  13
ATOM     13  O   UNL     1      30.106   3.259 143.478  1.00  0.00    -0.387 OA
ATOM     14  H   UNL     1      31.024   3.631 143.538  1.00  0.00     0.211 HD
ENDBRANCH   6  13
BRANCH   7  15
ATOM     15  O   UNL     1      28.527   5.443 144.091  1.00  0.00    -0.385 OA
ATOM     16  H   UNL     1      28.828   6.305 144.488  1.00  0.00     0.211 HD
ENDBRANCH   7  15
ENDBRANCH   1   2
BRANCH   1  17
ATOM     17  C   UNL     1      27.511   8.309 142.067  1.00  0.00     0.224 C 
ATOM     18  C   UNL     1      28.298   9.132 143.108  1.00  0.00     0.208 C 
ATOM     19  O   UNL     1      26.999   9.214 141.103  1.00  0.00    -0.337 OA
ATOM     20  C   UNL     1      27.787  10.549 142.940  1.00  0.00     0.180 C 
ATOM     21  C   UNL     1      26.898  10.490 141.691  1.00  0.00     0.179 C 
BRANCH  17  22
ATOM     22  C   UNL     1      26.337   7.550 142.733  1.00  0.00     0.225 C 
BRANCH  22  23
ATOM     23  O   UNL     1      26.351   7.709 144.125  1.00  0.00    -0.391 OA
ATOM     24  H   UNL     1      27.304   7.644 144.399  1.00  0.00     0.210 HD
ENDBRANCH  22  23
ENDBRANCH  17  22
BRANCH  18  25
ATOM     25  O   UNL     1      29.679   9.104 142.834  1.00  0.00    -0.385 OA
ATOM     26  H   UNL     1      30.086   8.465 143.474  1.00  0.00     0.211 HD
ENDBRANCH  18  25
BRANCH  20  27
ATOM     27  O   UNL     1      27.036  10.927 144.066  1.00  0.00    -0.387 OA
ATOM     28  H   UNL     1      26.092  10.691 143.866  1.00  0.00     0.211 HD
ENDBRANCH  20  27
BRANCH  21  29
ATOM     29  C   UNL     1      27.276  11.552 140.651  1.00  0.00     0.191 C 
BRANCH  29  30
ATOM     30  O   UNL     1      26.804  12.814 141.044  1.00  0.00    -0.394 OA
ATOM     31  H   UNL     1      27.099  12.956 141.980  1.00  0.00     0.210 HD
ENDBRANCH  29  30
ENDBRANCH  21  29
ENDBRANCH   1  17
TORSDOF 13
ENDMDL
MODEL 4
REMARK VINA RESULT:    -4.839     10.981     13.498
REMARK INTER + INTRA:          -8.872
REMARK INTER:                  -7.436
REMARK INTRA:                  -1.435
REMARK UNBOUND:                -1.487
REMARK SMILES OC[C@@H]1O[C@H](O[C@]2(CO)O[C@H](CO)[C@@H](O)[C@@H]2O)[C@@H](O)[C@@H](O)[C@H]1O
REMARK SMILES IDX 6 1 5 2 3 3 22 4 4 5 20 6 18 7 2 8 1 9 23 11 21 13 19 15
REMARK SMILES IDX 7 17 16 18 10 19 14 20 11 21 8 22 9 23 17 25 15 27 12 29
REMARK SMILES IDX 13 30
REMARK H PARENT 1 10 23 12 21 14 19 16 9 24 17 26 15 28 13 31
REMARK Flexibility Score: inf
ROOT
ATOM      1  O   UNL     1      28.454   5.813 143.207  1.00  0.00    -0.313 OA
ENDROOT
BRANCH   1   2
ATOM      2  C   UNL     1      28.198   7.004 142.473  1.00  0.00     0.285 C 
ATOM      3  C   UNL     1      26.753   8.047 140.950  1.00  0.00     0.178 C 
ATOM      4  C   UNL     1      27.133   9.449 141.533  1.00  0.00     0.177 C 
ATOM      5  O   UNL     1      26.896   7.002 141.904  1.00  0.00    -0.341 OA
ATOM      6  C   UNL     1      27.393   9.344 143.050  1.00  0.00     0.179 C 
ATOM      7  C   UNL     1      28.445   8.259 143.360  1.00  0.00     0.202 C 
BRANCH   3   8
ATOM      8  C   UNL     1      25.300   8.034 140.458  1.00  0.00     0.191 C 
BRANCH   8   9
ATOM      9  O   UNL     1      25.221   7.473 139.172  1.00  0.00    -0.394 OA
ATOM     10  H   UNL     1      24.251   7.373 138.961  1.00  0.00     0.210 HD
ENDBRANCH   8   9
ENDBRANCH   3   8
BRANCH   4  11
ATOM     11  O   UNL     1      28.280   9.940 140.886  1.00  0.00    -0.387 OA
ATOM     12  H   UNL     1      28.902   9.174 140.782  1.00  0.00     0.211 HD
ENDBRANCH   4  11
BRANCH   6  13
ATOM     13  O   UNL     1      27.727  10.585 143.622  1.00  0.00    -0.387 OA
ATOM     14  H   UNL     1      28.667  10.543 143.934  1.00  0.00     0.211 HD
ENDBRANCH   6  13
BRANCH   7  15
ATOM     15  O   UNL     1      29.740   8.756 143.133  1.00  0.00    -0.385 OA
ATOM     16  H   UNL     1      29.884   8.733 142.147  1.00  0.00     0.211 HD
ENDBRANCH   7  15
ENDBRANCH   1   2
BRANCH   1  17
ATOM     17  C   UNL     1      28.886   4.677 142.451  1.00  0.00     0.224 C 
ATOM     18  C   UNL     1      27.901   3.516 142.702  1.00  0.00     0.208 C 
ATOM     19  O   UNL     1      28.909   4.926 141.056  1.00  0.00    -0.337 OA
ATOM     20  C   UNL     1      27.764   2.834 141.356  1.00  0.00     0.180 C 
ATOM     21  C   UNL     1      28.510   3.755 140.381  1.00  0.00     0.179 C 
BRANCH  17  22
ATOM     22  C   UNL     1      30.312   4.308 142.930  1.00  0.00     0.225 C 
BRANCH  22  23
ATOM     23  O   UNL     1      30.362   2.995 143.415  1.00  0.00    -0.391 OA
ATOM     24  H   UNL     1      30.049   3.038 144.358  1.00  0.00     0.210 HD
ENDBRANCH  22  23
ENDBRANCH  17  22
BRANCH  18  25
ATOM     25  O   UNL     1      26.641   4.002 143.104  1.00  0.00    -0.385 OA
ATOM     26  H   UNL     1      26.474   4.831 142.587  1.00  0.00     0.211 HD
ENDBRANCH  18  25
BRANCH  20  27
ATOM     27  O   UNL     1      28.364   1.564 141.397  1.00  0.00    -0.387 OA
ATOM     28  H   UNL     1      28.722   1.452 142.317  1.00  0.00     0.211 HD
ENDBRANCH  20  27
BRANCH  21  29
ATOM     29  C   UNL     1      27.656   4.142 139.168  1.00  0.00     0.191 C 
BRANCH  29  30
ATOM     30  O   UNL     1      26.536   4.886 139.574  1.00  0.00    -0.394 OA
ATOM     31  H   UNL     1      25.796   4.242 139.717  1.00  0.00     0.210 HD
ENDBRANCH  29  30
ENDBRANCH  21  29
ENDBRANCH   1  17
TORSDOF 13
ENDMDL
MODEL 5
REMARK VINA RESULT:    -4.710     11.725     14.608
REMARK INTER + INTRA:          -8.675
REMARK INTER:                  -7.680
REMARK INTRA:                  -0.994
REMARK UNBOUND:                -1.487
REMARK SMILES OC[C@@H]1O[C@H](O[C@]2(CO)O[C@H](CO)[C@@H](O)[C@@H]2O)[C@@H](O)[C@@H](O)[C@H]1O
REMARK SMILES IDX 6 1 5 2 3 3 22 4 4 5 20 6 18 7 2 8 1 9 23 11 21 13 19 15
REMARK SMILES IDX 7 17 16 18 10 19 14 20 11 21 8 22 9 23 17 25 15 27 12 29
REMARK SMILES IDX 13 30
REMARK H PARENT 1 10 23 12 21 14 19 16 9 24 17 26 15 28 13 31
REMARK Flexibility Score: inf
ROOT
ATOM      1  O   UNL     1      26.618   6.008 141.788  1.00  0.00    -0.313 OA
ENDROOT
BRANCH   1   2
ATOM      2  C   UNL     1      27.230   4.725 141.731  1.00  0.00     0.285 C 
ATOM      3  C   UNL     1      26.898   2.424 142.036  1.00  0.00     0.178 C 
ATOM      4  C   UNL     1      28.018   2.112 140.989  1.00  0.00     0.177 C 
ATOM      5  O   UNL     1      26.270   3.679 141.806  1.00  0.00    -0.341 OA
ATOM      6  C   UNL     1      28.019   3.180 139.875  1.00  0.00     0.179 C 
ATOM      7  C   UNL     1      28.129   4.601 140.466  1.00  0.00     0.202 C 
BRANCH   3   8
ATOM      8  C   UNL     1      25.808   1.346 142.009  1.00  0.00     0.191 C 
BRANCH   8   9
ATOM      9  O   UNL     1      26.245   0.186 142.671  1.00  0.00    -0.394 OA
ATOM     10  H   UNL     1      26.191  -0.560 142.011  1.00  0.00     0.210 HD
ENDBRANCH   8   9
ENDBRANCH   3   8
BRANCH   4  11
ATOM     11  O   UNL     1      29.271   2.086 141.624  1.00  0.00    -0.387 OA
ATOM     12  H   UNL     1      29.784   2.864 141.283  1.00  0.00     0.211 HD
ENDBRANCH   4  11
BRANCH   6  13
ATOM     13  O   UNL     1      29.005   2.934 138.901  1.00  0.00    -0.387 OA
ATOM     14  H   UNL     1      29.726   2.393 139.315  1.00  0.00     0.211 HD
ENDBRANCH   6  13
BRANCH   7  15
ATOM     15  O   UNL     1      29.463   4.890 140.799  1.00  0.00    -0.385 OA
ATOM     16  H   UNL     1      29.528   5.881 140.877  1.00  0.00     0.211 HD
ENDBRANCH   7  15
ENDBRANCH   1   2
BRANCH   1  17
ATOM     17  C   UNL     1      27.095   6.899 142.799  1.00  0.00     0.224 C 
ATOM     18  C   UNL     1      28.071   7.903 142.149  1.00  0.00     0.208 C 
ATOM     19  O   UNL     1      26.053   7.646 143.404  1.00  0.00    -0.337 OA
ATOM     20  C   UNL     1      27.778   9.220 142.838  1.00  0.00     0.180 C 
ATOM     21  C   UNL     1      26.530   8.942 143.685  1.00  0.00     0.179 C 
BRANCH  17  22
ATOM     22  C   UNL     1      27.810   6.049 143.877  1.00  0.00     0.225 C 
BRANCH  22  23
ATOM     23  O   UNL     1      29.105   6.522 144.124  1.00  0.00    -0.391 OA
ATOM     24  H   UNL     1      29.720   5.896 143.657  1.00  0.00     0.210 HD
ENDBRANCH  22  23
ENDBRANCH  17  22
BRANCH  18  25
ATOM     25  O   UNL     1      27.814   8.036 140.771  1.00  0.00    -0.385 OA
ATOM     26  H   UNL     1      26.830   8.000 140.657  1.00  0.00     0.211 HD
ENDBRANCH  18  25
BRANCH  20  27
ATOM     27  O   UNL     1      28.861   9.587 143.656  1.00  0.00    -0.387 OA
ATOM     28  H   UNL     1      28.847   8.968 144.433  1.00  0.00     0.211 HD
ENDBRANCH  20  27
BRANCH  21  29
ATOM     29  C   UNL     1      25.408   9.955 143.428  1.00  0.00     0.191 C 
BRANCH  29  30
ATOM     30  O   UNL     1      25.943  11.233 143.203  1.00  0.00    -0.394 OA
ATOM     31  H   UNL     1      25.436  11.632 142.449  1.00  0.00     0.210 HD
ENDBRANCH  29  30
ENDBRANCH  21  29
ENDBRANCH   1  17
TORSDOF 13
ENDMDL
MODEL 6
REMARK VINA RESULT:    -4.673     10.992     13.969
REMARK INTER + INTRA:          -8.618
REMARK INTER:                  -7.473
REMARK INTRA:                  -1.145
REMARK UNBOUND:                -1.487
REMARK SMILES OC[C@@H]1O[C@H](O[C@]2(CO)O[C@H](CO)[C@@H](O)[C@@H]2O)[C@@H](O)[C@@H](O)[C@H]1O
REMARK SMILES IDX 6 1 5 2 3 3 22 4 4 5 20 6 18 7 2 8 1 9 23 11 21 13 19 15
REMARK SMILES IDX 7 17 16 18 10 19 14 20 11 21 8 22 9 23 17 25 15 27 12 29
REMARK SMILES IDX 13 30
REMARK H PARENT 1 10 23 12 21 14 19 16 9 24 17 26 15 28 13 31
REMARK Flexibility Score: inf
ROOT
ATOM      1  O   UNL     1      28.116   7.582 141.472  1.00  0.00    -0.313 OA
ENDROOT
BRANCH   1   2
ATOM      2  C   UNL     1      27.670   6.314 141.938  1.00  0.00     0.285 C 
ATOM      3  C   UNL     1      26.483   4.371 141.378  1.00  0.00     0.178 C 
ATOM      4  C   UNL     1      27.333   3.544 142.398  1.00  0.00     0.177 C 
ATOM      5  O   UNL     1      27.182   5.504 140.877  1.00  0.00    -0.341 OA
ATOM      6  C   UNL     1      28.777   4.086 142.454  1.00  0.00     0.179 C 
ATOM      7  C   UNL     1      28.791   5.601 142.748  1.00  0.00     0.202 C 
BRANCH   3   8
ATOM      8  C   UNL     1      26.077   3.507 140.177  1.00  0.00     0.191 C 
BRANCH   8   9
ATOM      9  O   UNL     1      24.907   2.783 140.466  1.00  0.00    -0.394 OA
ATOM     10  H   UNL     1      25.190   1.850 140.674  1.00  0.00     0.210 HD
ENDBRANCH   8   9
ENDBRANCH   3   8
BRANCH   4  11
ATOM     11  O   UNL     1      26.749   3.615 143.674  1.00  0.00    -0.387 OA
ATOM     12  H   UNL     1      27.329   4.204 144.224  1.00  0.00     0.211 HD
ENDBRANCH   4  11
BRANCH   6  13
ATOM     13  O   UNL     1      29.584   3.365 143.353  1.00  0.00    -0.387 OA
ATOM     14  H   UNL     1      30.414   3.096 142.881  1.00  0.00     0.211 HD
ENDBRANCH   6  13
BRANCH   7  15
ATOM     15  O   UNL     1      28.610   5.833 144.122  1.00  0.00    -0.385 OA
ATOM     16  H   UNL     1      29.510   5.761 144.543  1.00  0.00     0.211 HD
ENDBRANCH   7  15
ENDBRANCH   1   2
BRANCH   1  17
ATOM     17  C   UNL     1      27.873   8.700 142.330  1.00  0.00     0.224 C 
ATOM     18  C   UNL     1      27.180   9.808 141.508  1.00  0.00     0.208 C 
ATOM     19  O   UNL     1      27.022   8.379 143.417  1.00  0.00    -0.337 OA
ATOM     20  C   UNL     1      26.163  10.408 142.457  1.00  0.00     0.180 C 
ATOM     21  C   UNL     1      26.191   9.486 143.683  1.00  0.00     0.179 C 
BRANCH  17  22
ATOM     22  C   UNL     1      29.240   9.184 142.872  1.00  0.00     0.225 C 
BRANCH  22  23
ATOM     23  O   UNL     1      29.553   8.567 144.090  1.00  0.00    -0.391 OA
ATOM     24  H   UNL     1      29.487   7.589 143.927  1.00  0.00     0.210 HD
ENDBRANCH  22  23
ENDBRANCH  17  22
BRANCH  18  25
ATOM     25  O   UNL     1      26.510   9.266 140.394  1.00  0.00    -0.385 OA
ATOM     26  H   UNL     1      25.888   8.577 140.740  1.00  0.00     0.211 HD
ENDBRANCH  18  25
BRANCH  20  27
ATOM     27  O   UNL     1      26.544  11.714 142.809  1.00  0.00    -0.387 OA
ATOM     28  H   UNL     1      27.337  11.624 143.400  1.00  0.00     0.211 HD
ENDBRANCH  20  27
BRANCH  21  29
ATOM     29  C   UNL     1      24.795   8.982 144.071  1.00  0.00     0.191 C 
BRANCH  29  30
ATOM     30  O   UNL     1      23.804   9.788 143.490  1.00  0.00    -0.394 OA
ATOM     31  H   UNL     1      23.630   9.428 142.582  1.00  0.00     0.210 HD
ENDBRANCH  29  30
ENDBRANCH  21  29
ENDBRANCH   1  17
TORSDOF 13
ENDMDL
MODEL 7
REMARK VINA RESULT:    -4.633      1.597      2.206
REMARK INTER + INTRA:          -8.558
REMARK INTER:                  -7.417
REMARK INTRA:                  -1.141
REMARK UNBOUND:                -1.487
REMARK SMILES OC[C@@H]1O[C@H](O[C@]2(CO)O[C@H](CO)[C@@H](O)[C@@H]2O)[C@@H](O)[C@@H](O)[C@H]1O
REMARK SMILES IDX 6 1 5 2 3 3 22 4 4 5 20 6 18 7 2 8 1 9 23 11 21 13 19 15
REMARK SMILES IDX 7 17 16 18 10 19 14 20 11 21 8 22 9 23 17 25 15 27 12 29
REMARK SMILES IDX 13 30
REMARK H PARENT 1 10 23 12 21 14 19 16 9 24 17 26 15 28 13 31
REMARK Flexibility Score: inf
ROOT
ATOM      1  O   UNL     1      32.669  17.138 136.611  1.00  0.00    -0.313 OA
ENDROOT
BRANCH   1   2
ATOM      2  C   UNL     1      31.486  16.798 135.897  1.00  0.00     0.285 C 
ATOM      3  C   UNL     1      29.372  15.795 136.053  1.00  0.00     0.178 C 
ATOM      4  C   UNL     1      28.845  16.699 134.889  1.00  0.00     0.177 C 
ATOM      5  O   UNL     1      30.439  16.399 136.774  1.00  0.00    -0.341 OA
ATOM      6  C   UNL     1      29.514  18.088 134.948  1.00  0.00     0.179 C 
ATOM      7  C   UNL     1      31.052  17.966 134.965  1.00  0.00     0.202 C 
BRANCH   3   8
ATOM      8  C   UNL     1      28.253  15.483 137.054  1.00  0.00     0.191 C 
BRANCH   8   9
ATOM      9  O   UNL     1      27.039  16.050 136.627  1.00  0.00    -0.394 OA
ATOM     10  H   UNL     1      26.542  16.317 137.449  1.00  0.00     0.210 HD
ENDBRANCH   8   9
ENDBRANCH   3   8
BRANCH   4  11
ATOM     11  O   UNL     1      29.119  16.091 133.652  1.00  0.00    -0.387 OA
ATOM     12  H   UNL     1      29.906  15.502 133.788  1.00  0.00     0.211 HD
ENDBRANCH   4  11
BRANCH   6  13
ATOM     13  O   UNL     1      29.062  18.942 133.925  1.00  0.00    -0.387 OA
ATOM     14  H   UNL     1      29.724  19.671 133.811  1.00  0.00     0.211 HD
ENDBRANCH   6  13
BRANCH   7  15
ATOM     15  O   UNL     1      31.538  17.744 133.665  1.00  0.00    -0.385 OA
ATOM     16  H   UNL     1      31.216  18.505 133.108  1.00  0.00     0.211 HD
ENDBRANCH   7  15
ENDBRANCH   1   2
BRANCH   1  17
ATOM     17  C   UNL     1      33.734  16.185 136.572  1.00  0.00     0.224 C 
ATOM     18  C   UNL     1      34.077  15.772 138.020  1.00  0.00     0.208 C 
ATOM     19  O   UNL     1      33.389  15.007 135.863  1.00  0.00    -0.337 OA
ATOM     20  C   UNL     1      34.372  14.289 137.935  1.00  0.00     0.180 C 
ATOM     21  C   UNL     1      33.987  13.903 136.500  1.00  0.00     0.179 C 
BRANCH  17  22
ATOM     22  C   UNL     1      34.947  16.860 135.887  1.00  0.00     0.225 C 
BRANCH  22  23
ATOM     23  O   UNL     1      36.071  16.859 136.723  1.00  0.00    -0.391 OA
ATOM     24  H   UNL     1      35.966  16.074 137.323  1.00  0.00     0.210 HD
ENDBRANCH  22  23
ENDBRANCH  17  22
BRANCH  18  25
ATOM     25  O   UNL     1      32.977  15.976 138.876  1.00  0.00    -0.385 OA
ATOM     26  H   UNL     1      33.345  16.217 139.765  1.00  0.00     0.211 HD
ENDBRANCH  18  25
BRANCH  20  27
ATOM     27  O   UNL     1      35.739  14.056 138.162  1.00  0.00    -0.387 OA
ATOM     28  H   UNL     1      36.045  13.452 137.434  1.00  0.00     0.211 HD
ENDBRANCH  20  27
BRANCH  21  29
ATOM     29  C   UNL     1      33.022  12.712 136.451  1.00  0.00     0.191 C 
BRANCH  29  30
ATOM     30  O   UNL     1      31.952  12.911 137.338  1.00  0.00    -0.394 OA
ATOM     31  H   UNL     1      31.570  12.018 137.538  1.00  0.00     0.210 HD
ENDBRANCH  29  30
ENDBRANCH  21  29
ENDBRANCH   1  17
TORSDOF 13
ENDMDL
MODEL 8
REMARK VINA RESULT:    -4.591      1.754      6.037
REMARK INTER + INTRA:          -8.493
REMARK INTER:                  -7.391
REMARK INTRA:                  -1.102
REMARK UNBOUND:                -1.487
REMARK SMILES OC[C@@H]1O[C@H](O[C@]2(CO)O[C@H](CO)[C@@H](O)[C@@H]2O)[C@@H](O)[C@@H](O)[C@H]1O
REMARK SMILES IDX 6 1 5 2 3 3 22 4 4 5 20 6 18 7 2 8 1 9 23 11 21 13 19 15
REMARK SMILES IDX 7 17 16 18 10 19 14 20 11 21 8 22 9 23 17 25 15 27 12 29
REMARK SMILES IDX 13 30
REMARK H PARENT 1 10 23 12 21 14 19 16 9 24 17 26 15 28 13 31
REMARK Flexibility Score: inf
ROOT
ATOM      1  O   UNL     1      31.832  17.292 137.348  1.00  0.00    -0.313 OA
ENDROOT
BRANCH   1   2
ATOM      2  C   UNL     1      32.810  16.389 136.848  1.00  0.00     0.285 C 
ATOM      3  C   UNL     1      33.967  15.677 134.937  1.00  0.00     0.178 C 
ATOM      4  C   UNL     1      35.177  15.229 135.822  1.00  0.00     0.177 C 
ATOM      5  O   UNL     1      33.217  16.731 135.529  1.00  0.00    -0.341 OA
ATOM      6  C   UNL     1      35.335  16.177 137.029  1.00  0.00     0.179 C 
ATOM      7  C   UNL     1      34.018  16.291 137.824  1.00  0.00     0.202 C 
BRANCH   3   8
ATOM      8  C   UNL     1      34.445  16.163 133.562  1.00  0.00     0.191 C 
BRANCH   8   9
ATOM      9  O   UNL     1      35.734  15.672 133.288  1.00  0.00    -0.394 OA
ATOM     10  H   UNL     1      36.372  16.231 133.813  1.00  0.00     0.210 HD
ENDBRANCH   8   9
ENDBRANCH   3   8
BRANCH   4  11
ATOM     11  O   UNL     1      34.975  13.914 136.274  1.00  0.00    -0.387 OA
ATOM     12  H   UNL     1      34.081  13.891 136.705  1.00  0.00     0.211 HD
ENDBRANCH   4  11
BRANCH   6  13
ATOM     13  O   UNL     1      36.420  15.820 137.851  1.00  0.00    -0.387 OA
ATOM     14  H   UNL     1      36.063  15.407 138.679  1.00  0.00     0.211 HD
ENDBRANCH   6  13
BRANCH   7  15
ATOM     15  O   UNL     1      33.860  15.179 138.669  1.00  0.00    -0.385 OA
ATOM     16  H   UNL     1      34.644  15.176 139.283  1.00  0.00     0.211 HD
ENDBRANCH   7  15
ENDBRANCH   1   2
BRANCH   1  17
ATOM     17  C   UNL     1      30.480  16.824 137.368  1.00  0.00     0.224 C 
ATOM     18  C   UNL     1      29.669  17.621 136.323  1.00  0.00     0.208 C 
ATOM     19  O   UNL     1      30.373  15.450 137.035  1.00  0.00    -0.337 OA
ATOM     20  C   UNL     1      28.732  16.601 135.709  1.00  0.00     0.180 C 
ATOM     21  C   UNL     1      29.196  15.257 136.285  1.00  0.00     0.179 C 
BRANCH  17  22
ATOM     22  C   UNL     1      29.923  17.053 138.794  1.00  0.00     0.225 C 
BRANCH  22  23
ATOM     23  O   UNL     1      30.022  18.398 139.171  1.00  0.00    -0.391 OA
ATOM     24  H   UNL     1      29.090  18.739 139.223  1.00  0.00     0.210 HD
ENDBRANCH  22  23
ENDBRANCH  17  22
BRANCH  18  25
ATOM     25  O   UNL     1      30.510  18.138 135.319  1.00  0.00    -0.385 OA
ATOM     26  H   UNL     1      30.999  17.369 134.928  1.00  0.00     0.211 HD
ENDBRANCH  18  25
BRANCH  20  27
ATOM     27  O   UNL     1      27.407  16.873 136.090  1.00  0.00    -0.387 OA
ATOM     28  H   UNL     1      27.413  16.966 137.080  1.00  0.00     0.211 HD
ENDBRANCH  20  27
BRANCH  21  29
ATOM     29  C   UNL     1      29.462  14.211 135.196  1.00  0.00     0.191 C 
BRANCH  29  30
ATOM     30  O   UNL     1      30.586  14.570 134.436  1.00  0.00    -0.394 OA
ATOM     31  H   UNL     1      30.308  14.562 133.484  1.00  0.00     0.210 HD
ENDBRANCH  29  30
ENDBRANCH  21  29
ENDBRANCH   1  17
TORSDOF 13
ENDMDL
MODEL 9
REMARK VINA RESULT:    -4.510      2.328      4.672
REMARK INTER + INTRA:          -8.370
REMARK INTER:                  -7.446
REMARK INTRA:                  -0.924
REMARK UNBOUND:                -1.487
REMARK SMILES OC[C@@H]1O[C@H](O[C@]2(CO)O[C@H](CO)[C@@H](O)[C@@H]2O)[C@@H](O)[C@@H](O)[C@H]1O
REMARK SMILES IDX 6 1 5 2 3 3 22 4 4 5 20 6 18 7 2 8 1 9 23 11 21 13 19 15
REMARK SMILES IDX 7 17 16 18 10 19 14 20 11 21 8 22 9 23 17 25 15 27 12 29
REMARK SMILES IDX 13 30
REMARK H PARENT 1 10 23 12 21 14 19 16 9 24 17 26 15 28 13 31
REMARK Flexibility Score: inf
ROOT
ATOM      1  O   UNL     1      30.881  16.258 135.045  1.00  0.00    -0.313 OA
ENDROOT
BRANCH   1   2
ATOM      2  C   UNL     1      29.471  16.431 135.133  1.00  0.00     0.285 C 
ATOM      3  C   UNL     1      27.628  17.622 134.306  1.00  0.00     0.178 C 
ATOM      4  C   UNL     1      26.688  16.415 134.633  1.00  0.00     0.177 C 
ATOM      5  O   UNL     1      28.970  17.218 134.060  1.00  0.00    -0.341 OA
ATOM      6  C   UNL     1      27.437  15.083 134.426  1.00  0.00     0.179 C 
ATOM      7  C   UNL     1      28.754  15.054 135.231  1.00  0.00     0.202 C 
BRANCH   3   8
ATOM      8  C   UNL     1      27.136  18.380 133.066  1.00  0.00     0.191 C 
BRANCH   8   9
ATOM      9  O   UNL     1      25.868  18.937 133.302  1.00  0.00    -0.394 OA
ATOM     10  H   UNL     1      25.570  19.349 132.444  1.00  0.00     0.210 HD
ENDBRANCH   8   9
ENDBRANCH   3   8
BRANCH   4  11
ATOM     11  O   UNL     1      26.239  16.507 135.961  1.00  0.00    -0.387 OA
ATOM     12  H   UNL     1      25.948  15.597 136.231  1.00  0.00     0.211 HD
ENDBRANCH   4  11
BRANCH   6  13
ATOM     13  O   UNL     1      26.626  13.966 134.698  1.00  0.00    -0.387 OA
ATOM     14  H   UNL     1      25.705  14.165 134.391  1.00  0.00     0.211 HD
ENDBRANCH   6  13
BRANCH   7  15
ATOM     15  O   UNL     1      28.496  14.745 136.578  1.00  0.00    -0.385 OA
ATOM     16  H   UNL     1      27.548  14.998 136.750  1.00  0.00     0.211 HD
ENDBRANCH   7  15
ENDBRANCH   1   2
BRANCH   1  17
ATOM     17  C   UNL     1      31.643  16.629 136.197  1.00  0.00     0.224 C 
ATOM     18  C   UNL     1      31.952  15.355 137.012  1.00  0.00     0.208 C 
ATOM     19  O   UNL     1      32.881  17.233 135.862  1.00  0.00    -0.337 OA
ATOM     20  C   UNL     1      33.367  15.557 137.514  1.00  0.00     0.180 C 
ATOM     21  C   UNL     1      33.852  16.825 136.798  1.00  0.00     0.179 C 
BRANCH  17  22
ATOM     22  C   UNL     1      30.793  17.623 137.025  1.00  0.00     0.225 C 
BRANCH  22  23
ATOM     23  O   UNL     1      30.706  17.227 138.366  1.00  0.00    -0.391 OA
ATOM     24  H   UNL     1      31.602  17.397 138.761  1.00  0.00     0.210 HD
ENDBRANCH  22  23
ENDBRANCH  17  22
BRANCH  18  25
ATOM     25  O   UNL     1      31.912  14.210 136.193  1.00  0.00    -0.385 OA
ATOM     26  H   UNL     1      31.982  14.524 135.255  1.00  0.00     0.211 HD
ENDBRANCH  18  25
BRANCH  20  27
ATOM     27  O   UNL     1      33.362  15.745 138.907  1.00  0.00    -0.387 OA
ATOM     28  H   UNL     1      34.029  15.110 139.278  1.00  0.00     0.211 HD
ENDBRANCH  20  27
BRANCH  21  29
ATOM     29  C   UNL     1      35.188  16.617 136.075  1.00  0.00     0.191 C 
BRANCH  29  30
ATOM     30  O   UNL     1      36.254  16.678 136.987  1.00  0.00    -0.394 OA
ATOM     31  H   UNL     1      35.902  16.381 137.865  1.00  0.00     0.210 HD
ENDBRANCH  29  30
ENDBRANCH  21  29
ENDBRANCH   1  17
TORSDOF 13
ENDMDL
