MODEL 1
REMARK VINA RESULT:    -3.545      0.000      0.000
REMARK INTER + INTRA:          -6.874
REMARK INTER:                  -5.617
REMARK INTRA:                  -1.257
REMARK UNBOUND:                -1.257
REMARK SMILES CCCCCCCCCCCC(=O)[O-]
REMARK SMILES IDX 7 1 8 2 9 3 10 4 11 5 12 6 13 7 14 8 6 9 5 10 4 11 3 12 2 13
REMARK SMILES IDX 1 14
REMARK H PARENT
REMARK Flexibility Score: inf
ROOT
ATOM      1  C   UNL     1      -5.809  15.222  21.271  1.00  0.00     0.000 C 
ENDROOT
BRANCH   1   2
ATOM      2  C   UNL     1      -5.432  16.013  22.533  1.00  0.00     0.000 C 
BRANCH   2   3
ATOM      3  C   UNL     1      -4.959  17.427  22.173  1.00  0.00     0.000 C 
BRANCH   3   4
ATOM      4  C   UNL     1      -3.636  17.761  22.873  1.00  0.00     0.006 C 
BRANCH   4   5
ATOM      5  C   UNL     1      -2.698  16.551  22.879  1.00  0.00     0.053 C 
BRANCH   5   6
ATOM      6  C   UNL     1      -1.846  16.542  21.649  1.00  0.00     0.041 C 
ATOM      7  O   UNL     1      -1.496  15.451  21.129  1.00  0.00    -0.550 OA
ATOM      8  O   UNL     1      -1.481  17.740  21.048  1.00  0.00    -0.550 OA
ENDBRANCH   5   6
ENDBRANCH   4   5
ENDBRANCH   3   4
ENDBRANCH   2   3
ENDBRANCH   1   2
BRANCH   1   9
ATOM      9  C   UNL     1      -7.264  14.726  21.293  1.00  0.00     0.000 C 
BRANCH   9  10
ATOM     10  C   UNL     1      -8.091  15.371  22.420  1.00  0.00    -0.000 C 
BRANCH  10  11
ATOM     11  C   UNL     1      -9.089  16.415  21.896  1.00  0.00    -0.000 C 
BRANCH  11  12
ATOM     12  C   UNL     1      -8.707  17.853  22.290  1.00  0.00    -0.000 C 
BRANCH  12  13
ATOM     13  C   UNL     1      -8.328  18.715  21.076  1.00  0.00    -0.003 C 
ATOM     14  C   UNL     1      -8.331  17.924  19.768  1.00  0.00     0.004 C 
ENDBRANCH  12  13
ENDBRANCH  11  12
ENDBRANCH  10  11
ENDBRANCH   9  10
ENDBRANCH   1   9
TORSDOF 10
ENDMDL
MODEL 2
REMARK VINA RESULT:    -3.455      3.149      5.974
REMARK INTER + INTRA:          -6.731
REMARK INTER:                  -5.992
REMARK INTRA:                  -0.739
REMARK UNBOUND:                -1.257
REMARK SMILES CCCCCCCCCCCC(=O)[O-]
REMARK SMILES IDX 7 1 8 2 9 3 10 4 11 5 12 6 13 7 14 8 6 9 5 10 4 11 3 12 2 13
REMARK SMILES IDX 1 14
REMARK H PARENT
REMARK Flexibility Score: inf
ROOT
ATOM      1  C   UNL     1      -5.507  15.585  21.274  1.00  0.00     0.000 C 
ENDROOT
BRANCH   1   2
ATOM      2  C   UNL     1      -6.722  14.711  21.623  1.00  0.00     0.000 C 
BRANCH   2   3
ATOM      3  C   UNL     1      -8.032  15.467  21.367  1.00  0.00     0.000 C 
BRANCH   3   4
ATOM      4  C   UNL     1      -7.778  16.970  21.202  1.00  0.00     0.006 C 
BRANCH   4   5
ATOM      5  C   UNL     1      -8.392  17.490  19.900  1.00  0.00     0.053 C 
BRANCH   5   6
ATOM      6  C   UNL     1      -8.596  18.971  19.971  1.00  0.00     0.041 C 
ATOM      7  O   UNL     1      -8.781  19.532  21.083  1.00  0.00    -0.550 OA
ATOM      8  O   UNL     1      -8.532  19.738  18.815  1.00  0.00    -0.550 OA
ENDBRANCH   5   6
ENDBRANCH   4   5
ENDBRANCH   3   4
ENDBRANCH   2   3
ENDBRANCH   1   2
BRANCH   1   9
ATOM      9  C   UNL     1      -4.611  15.869  22.491  1.00  0.00     0.000 C 
BRANCH   9  10
ATOM     10  C   UNL     1      -4.295  17.366  22.655  1.00  0.00    -0.000 C 
BRANCH  10  11
ATOM     11  C   UNL     1      -2.807  17.625  22.945  1.00  0.00    -0.000 C 
BRANCH  11  12
ATOM     12  C   UNL     1      -1.935  17.559  21.678  1.00  0.00    -0.000 C 
BRANCH  12  13
ATOM     13  C   UNL     1      -0.887  16.437  21.744  1.00  0.00    -0.003 C 
ATOM     14  C   UNL     1      -1.293  15.204  20.936  1.00  0.00     0.004 C 
ENDBRANCH  12  13
ENDBRANCH  11  12
ENDBRANCH  10  11
ENDBRANCH   9  10
ENDBRANCH   1   9
TORSDOF 10
ENDMDL
MODEL 3
REMARK VINA RESULT:    -3.267      1.032      1.677
REMARK INTER + INTRA:          -6.433
REMARK INTER:                  -5.355
REMARK INTRA:                  -1.078
REMARK UNBOUND:                -1.257
REMARK SMILES CCCCCCCCCCCC(=O)[O-]
REMARK SMILES IDX 7 1 8 2 9 3 10 4 11 5 12 6 13 7 14 8 6 9 5 10 4 11 3 12 2 13
REMARK SMILES IDX 1 14
REMARK H PARENT
REMARK Flexibility Score: inf
ROOT
ATOM      1  C   UNL     1      -6.532  15.084  21.114  1.00  0.00     0.000 C 
ENDROOT
BRANCH   1   2
ATOM      2  C   UNL     1      -5.530  15.408  22.234  1.00  0.00     0.000 C 
BRANCH   2   3
ATOM      3  C   UNL     1      -4.938  16.810  22.051  1.00  0.00     0.000 C 
BRANCH   3   4
ATOM      4  C   UNL     1      -3.508  16.881  22.599  1.00  0.00     0.006 C 
BRANCH   4   5
ATOM      5  C   UNL     1      -2.561  16.002  21.778  1.00  0.00     0.053 C 
BRANCH   5   6
ATOM      6  C   UNL     1      -1.305  16.746  21.451  1.00  0.00     0.041 C 
ATOM      7  O   UNL     1      -1.362  17.930  21.027  1.00  0.00    -0.550 OA
ATOM      8  O   UNL     1      -0.069  16.150  21.665  1.00  0.00    -0.550 OA
ENDBRANCH   5   6
ENDBRANCH   4   5
ENDBRANCH   3   4
ENDBRANCH   2   3
ENDBRANCH   1   2
BRANCH   1   9
ATOM      9  C   UNL     1      -7.968  14.911  21.634  1.00  0.00     0.000 C 
BRANCH   9  10
ATOM     10  C   UNL     1      -8.782  16.215  21.569  1.00  0.00    -0.000 C 
BRANCH  10  11
ATOM     11  C   UNL     1      -8.427  17.071  20.341  1.00  0.00    -0.000 C 
BRANCH  11  12
ATOM     12  C   UNL     1      -8.053  18.517  20.714  1.00  0.00    -0.000 C 
BRANCH  12  13
ATOM     13  C   UNL     1      -8.342  18.838  22.189  1.00  0.00    -0.003 C 
ATOM     14  C   UNL     1      -7.181  19.560  22.873  1.00  0.00     0.004 C 
ENDBRANCH  12  13
ENDBRANCH  11  12
ENDBRANCH  10  11
ENDBRANCH   9  10
ENDBRANCH   1   9
TORSDOF 10
ENDMDL
MODEL 4
REMARK VINA RESULT:    -3.237     10.248     14.688
REMARK INTER + INTRA:          -6.385
REMARK INTER:                  -5.361
REMARK INTRA:                  -1.024
REMARK UNBOUND:                -1.257
REMARK SMILES CCCCCCCCCCCC(=O)[O-]
REMARK SMILES IDX 7 1 8 2 9 3 10 4 11 5 12 6 13 7 14 8 6 9 5 10 4 11 3 12 2 13
REMARK SMILES IDX 1 14
REMARK H PARENT
REMARK Flexibility Score: inf
ROOT
ATOM      1  C   UNL     1       8.194  16.814  20.807  1.00  0.00     0.000 C 
ENDROOT
BRANCH   1   2
ATOM      2  C   UNL     1       8.070  16.317  22.256  1.00  0.00     0.000 C 
BRANCH   2   3
ATOM      3  C   UNL     1       7.705  14.828  22.295  1.00  0.00     0.000 C 
BRANCH   3   4
ATOM      4  C   UNL     1       6.247  14.607  21.875  1.00  0.00     0.006 C 
BRANCH   4   5
ATOM      5  C   UNL     1       5.297  15.455  22.724  1.00  0.00     0.053 C 
BRANCH   5   6
ATOM      6  C   UNL     1       4.338  16.202  21.851  1.00  0.00     0.041 C 
ATOM      7  O   UNL     1       4.762  16.879  20.879  1.00  0.00    -0.550 OA
ATOM      8  O   UNL     1       2.971  16.108  22.081  1.00  0.00    -0.550 OA
ENDBRANCH   5   6
ENDBRANCH   4   5
ENDBRANCH   3   4
ENDBRANCH   2   3
ENDBRANCH   1   2
BRANCH   1   9
ATOM      9  C   UNL     1       9.462  17.651  20.572  1.00  0.00     0.000 C 
BRANCH   9  10
ATOM     10  C   UNL     1      10.732  16.787  20.479  1.00  0.00    -0.000 C 
BRANCH  10  11
ATOM     11  C   UNL     1      10.529  15.533  19.613  1.00  0.00    -0.000 C 
BRANCH  11  12
ATOM     12  C   UNL     1      10.902  14.235  20.351  1.00  0.00    -0.000 C 
BRANCH  12  13
ATOM     13  C   UNL     1      10.074  13.030  19.877  1.00  0.00    -0.003 C 
ATOM     14  C   UNL     1      10.415  12.607  18.449  1.00  0.00     0.004 C 
ENDBRANCH  12  13
ENDBRANCH  11  12
ENDBRANCH  10  11
ENDBRANCH   9  10
ENDBRANCH   1   9
TORSDOF 10
ENDMDL
MODEL 5
REMARK VINA RESULT:    -3.074      7.279     11.871
REMARK INTER + INTRA:          -6.127
REMARK INTER:                  -5.697
REMARK INTRA:                  -0.430
REMARK UNBOUND:                -1.257
REMARK SMILES CCCCCCCCCCCC(=O)[O-]
REMARK SMILES IDX 7 1 8 2 9 3 10 4 11 5 12 6 13 7 14 8 6 9 5 10 4 11 3 12 2 13
REMARK SMILES IDX 1 14
REMARK H PARENT
REMARK Flexibility Score: inf
ROOT
ATOM      1  C   UNL     1       4.340  16.738  21.334  1.00  0.00     0.000 C 
ENDROOT
BRANCH   1   2
ATOM      2  C   UNL     1       3.800  15.753  22.383  1.00  0.00     0.000 C 
BRANCH   2   3
ATOM      3  C   UNL     1       2.452  16.227  22.938  1.00  0.00     0.000 C 
BRANCH   3   4
ATOM      4  C   UNL     1       1.325  15.991  21.925  1.00  0.00     0.006 C 
BRANCH   4   5
ATOM      5  C   UNL     1      -0.048  16.125  22.590  1.00  0.00     0.053 C 
BRANCH   5   6
ATOM      6  C   UNL     1      -1.110  16.342  21.559  1.00  0.00     0.041 C 
ATOM      7  O   UNL     1      -1.513  17.506  21.298  1.00  0.00    -0.550 OA
ATOM      8  O   UNL     1      -1.621  15.262  20.850  1.00  0.00    -0.550 OA
ENDBRANCH   5   6
ENDBRANCH   4   5
ENDBRANCH   3   4
ENDBRANCH   2   3
ENDBRANCH   1   2
BRANCH   1   9
ATOM      9  C   UNL     1       5.806  16.465  20.962  1.00  0.00     0.000 C 
BRANCH   9  10
ATOM     10  C   UNL     1       6.682  16.167  22.192  1.00  0.00    -0.000 C 
BRANCH  10  11
ATOM     11  C   UNL     1       8.184  16.298  21.892  1.00  0.00    -0.000 C 
BRANCH  11  12
ATOM     12  C   UNL     1       8.497  17.450  20.920  1.00  0.00    -0.000 C 
BRANCH  12  13
ATOM     13  C   UNL     1       9.935  17.393  20.384  1.00  0.00    -0.003 C 
ATOM     14  C   UNL     1      10.367  15.976  20.004  1.00  0.00     0.004 C 
ENDBRANCH  12  13
ENDBRANCH  11  12
ENDBRANCH  10  11
ENDBRANCH   9  10
ENDBRANCH   1   9
TORSDOF 10
ENDMDL
MODEL 6
REMARK VINA RESULT:    -2.974     11.812     15.855
REMARK INTER + INTRA:          -5.970
REMARK INTER:                  -5.366
REMARK INTRA:                  -0.604
REMARK UNBOUND:                -1.257
REMARK SMILES CCCCCCCCCCCC(=O)[O-]
REMARK SMILES IDX 7 1 8 2 9 3 10 4 11 5 12 6 13 7 14 8 6 9 5 10 4 11 3 12 2 13
REMARK SMILES IDX 1 14
REMARK H PARENT
REMARK Flexibility Score: inf
ROOT
ATOM      1  C   UNL     1      10.149  15.484  20.397  1.00  0.00     0.000 C 
ENDROOT
BRANCH   1   2
ATOM      2  C   UNL     1       9.664  16.933  20.226  1.00  0.00     0.000 C 
BRANCH   2   3
ATOM      3  C   UNL     1       8.430  17.203  21.095  1.00  0.00     0.000 C 
BRANCH   3   4
ATOM      4  C   UNL     1       8.346  16.208  22.259  1.00  0.00     0.006 C 
BRANCH   4   5
ATOM      5  C   UNL     1       6.982  16.284  22.949  1.00  0.00     0.053 C 
BRANCH   5   6
ATOM      6  C   UNL     1       5.937  15.606  22.120  1.00  0.00     0.041 C 
ATOM      7  O   UNL     1       6.149  14.461  21.644  1.00  0.00    -0.550 OA
ATOM      8  O   UNL     1       4.707  16.220  21.914  1.00  0.00    -0.550 OA
ENDBRANCH   5   6
ENDBRANCH   4   5
ENDBRANCH   3   4
ENDBRANCH   2   3
ENDBRANCH   1   2
BRANCH   1   9
ATOM      9  C   UNL     1      10.975  14.990  19.198  1.00  0.00     0.000 C 
BRANCH   9  10
ATOM     10  C   UNL     1      10.999  13.455  19.089  1.00  0.00    -0.000 C 
BRANCH  10  11
ATOM     11  C   UNL     1      10.732  12.764  20.437  1.00  0.00    -0.000 C 
BRANCH  11  12
ATOM     12  C   UNL     1      10.927  11.239  20.371  1.00  0.00    -0.000 C 
BRANCH  12  13
ATOM     13  C   UNL     1      10.880  10.701  18.932  1.00  0.00    -0.003 C 
ATOM     14  C   UNL     1      11.003   9.179  18.868  1.00  0.00     0.004 C 
ENDBRANCH  12  13
ENDBRANCH  11  12
ENDBRANCH  10  11
ENDBRANCH   9  10
ENDBRANCH   1   9
TORSDOF 10
ENDMDL
MODEL 7
REMARK VINA RESULT:    -2.889      1.245      2.594
REMARK INTER + INTRA:          -5.835
REMARK INTER:                  -4.991
REMARK INTRA:                  -0.844
REMARK UNBOUND:                -1.257
REMARK SMILES CCCCCCCCCCCC(=O)[O-]
REMARK SMILES IDX 7 1 8 2 9 3 10 4 11 5 12 6 13 7 14 8 6 9 5 10 4 11 3 12 2 13
REMARK SMILES IDX 1 14
REMARK H PARENT
REMARK Flexibility Score: inf
ROOT
ATOM      1  C   UNL     1      -5.584  18.204  21.928  1.00  0.00     0.000 C 
ENDROOT
BRANCH   1   2
ATOM      2  C   UNL     1      -4.629  18.079  23.125  1.00  0.00     0.000 C 
BRANCH   2   3
ATOM      3  C   UNL     1      -3.877  16.743  23.089  1.00  0.00     0.000 C 
BRANCH   3   4
ATOM      4  C   UNL     1      -2.360  16.963  23.112  1.00  0.00     0.006 C 
BRANCH   4   5
ATOM      5  C   UNL     1      -1.778  16.919  21.696  1.00  0.00     0.053 C 
BRANCH   5   6
ATOM      6  C   UNL     1      -0.697  15.888  21.606  1.00  0.00     0.041 C 
ATOM      7  O   UNL     1      -0.854  14.865  20.890  1.00  0.00    -0.550 OA
ATOM      8  O   UNL     1       0.506  16.083  22.274  1.00  0.00    -0.550 OA
ENDBRANCH   5   6
ENDBRANCH   4   5
ENDBRANCH   3   4
ENDBRANCH   2   3
ENDBRANCH   1   2
BRANCH   1   9
ATOM      9  C   UNL     1      -7.061  18.269  22.352  1.00  0.00     0.000 C 
BRANCH   9  10
ATOM     10  C   UNL     1      -8.020  18.309  21.149  1.00  0.00    -0.000 C 
BRANCH  10  11
ATOM     11  C   UNL     1      -8.490  16.909  20.723  1.00  0.00    -0.000 C 
BRANCH  11  12
ATOM     12  C   UNL     1      -8.624  15.941  21.913  1.00  0.00    -0.000 C 
BRANCH  12  13
ATOM     13  C   UNL     1      -7.868  14.623  21.686  1.00  0.00    -0.003 C 
ATOM     14  C   UNL     1      -6.503  14.832  21.031  1.00  0.00     0.004 C 
ENDBRANCH  12  13
ENDBRANCH  11  12
ENDBRANCH  10  11
ENDBRANCH   9  10
ENDBRANCH   1   9
TORSDOF 10
ENDMDL
MODEL 8
REMARK VINA RESULT:    -2.884     10.884     14.483
REMARK INTER + INTRA:          -5.827
REMARK INTER:                  -5.086
REMARK INTRA:                  -0.741
REMARK UNBOUND:                -1.257
REMARK SMILES CCCCCCCCCCCC(=O)[O-]
REMARK SMILES IDX 7 1 8 2 9 3 10 4 11 5 12 6 13 7 14 8 6 9 5 10 4 11 3 12 2 13
REMARK SMILES IDX 1 14
REMARK H PARENT
REMARK Flexibility Score: inf
ROOT
ATOM      1  C   UNL     1       8.506  16.788  20.521  1.00  0.00     0.000 C 
ENDROOT
BRANCH   1   2
ATOM      2  C   UNL     1       9.894  17.436  20.401  1.00  0.00     0.000 C 
BRANCH   2   3
ATOM      3  C   UNL     1      11.001  16.377  20.479  1.00  0.00     0.000 C 
BRANCH   3   4
ATOM      4  C   UNL     1      10.692  15.188  19.562  1.00  0.00     0.006 C 
BRANCH   4   5
ATOM      5  C   UNL     1      10.808  13.864  20.323  1.00  0.00     0.053 C 
BRANCH   5   6
ATOM      6  C   UNL     1      10.728  12.707  19.377  1.00  0.00     0.041 C 
ATOM      7  O   UNL     1      10.678  11.530  19.818  1.00  0.00    -0.550 OA
ATOM      8  O   UNL     1      10.657  12.933  18.008  1.00  0.00    -0.550 OA
ENDBRANCH   5   6
ENDBRANCH   4   5
ENDBRANCH   3   4
ENDBRANCH   2   3
ENDBRANCH   1   2
BRANCH   1   9
ATOM      9  C   UNL     1       8.014  16.702  21.975  1.00  0.00     0.000 C 
BRANCH   9  10
ATOM     10  C   UNL     1       8.124  15.280  22.553  1.00  0.00    -0.000 C 
BRANCH  10  11
ATOM     11  C   UNL     1       6.757  14.694  22.943  1.00  0.00    -0.000 C 
BRANCH  11  12
ATOM     12  C   UNL     1       5.624  15.162  22.011  1.00  0.00    -0.000 C 
BRANCH  12  13
ATOM     13  C   UNL     1       4.314  15.429  22.768  1.00  0.00    -0.003 C 
ATOM     14  C   UNL     1       3.366  16.348  21.998  1.00  0.00     0.004 C 
ENDBRANCH  12  13
ENDBRANCH  11  12
ENDBRANCH  10  11
ENDBRANCH   9  10
ENDBRANCH   1   9
TORSDOF 10
ENDMDL
MODEL 9
REMARK VINA RESULT:    -2.869      3.973      5.693
REMARK INTER + INTRA:          -5.803
REMARK INTER:                  -5.486
REMARK INTRA:                  -0.317
REMARK UNBOUND:                -1.257
REMARK SMILES CCCCCCCCCCCC(=O)[O-]
REMARK SMILES IDX 7 1 8 2 9 3 10 4 11 5 12 6 13 7 14 8 6 9 5 10 4 11 3 12 2 13
REMARK SMILES IDX 1 14
REMARK H PARENT
REMARK Flexibility Score: inf
ROOT
ATOM      1  C   UNL     1      -1.177  16.697  21.537  1.00  0.00     0.000 C 
ENDROOT
BRANCH   1   2
ATOM      2  C   UNL     1      -0.027  16.016  22.295  1.00  0.00     0.000 C 
BRANCH   2   3
ATOM      3  C   UNL     1       1.322  16.321  21.634  1.00  0.00     0.000 C 
BRANCH   3   4
ATOM      4  C   UNL     1       2.484  16.024  22.590  1.00  0.00     0.006 C 
BRANCH   4   5
ATOM      5  C   UNL     1       3.827  16.390  21.952  1.00  0.00     0.053 C 
BRANCH   5   6
ATOM      6  C   UNL     1       4.907  15.481  22.446  1.00  0.00     0.041 C 
ATOM      7  O   UNL     1       4.729  14.235  22.464  1.00  0.00    -0.550 OA
ATOM      8  O   UNL     1       6.131  16.006  22.841  1.00  0.00    -0.550 OA
ENDBRANCH   5   6
ENDBRANCH   4   5
ENDBRANCH   3   4
ENDBRANCH   2   3
ENDBRANCH   1   2
BRANCH   1   9
ATOM      9  C   UNL     1      -2.507  15.936  21.666  1.00  0.00     0.000 C 
BRANCH   9  10
ATOM     10  C   UNL     1      -3.290  16.325  22.932  1.00  0.00    -0.000 C 
BRANCH  10  11
ATOM     11  C   UNL     1      -4.812  16.222  22.739  1.00  0.00    -0.000 C 
BRANCH  11  12
ATOM     12  C   UNL     1      -5.197  15.528  21.420  1.00  0.00    -0.000 C 
BRANCH  12  13
ATOM     13  C   UNL     1      -6.214  14.396  21.626  1.00  0.00    -0.003 C 
ATOM     14  C   UNL     1      -7.661  14.885  21.566  1.00  0.00     0.004 C 
ENDBRANCH  12  13
ENDBRANCH  11  12
ENDBRANCH  10  11
ENDBRANCH   9  10
ENDBRANCH   1   9
TORSDOF 10
ENDMDL
