MODEL 1
REMARK VINA RESULT:     3.851      0.000      0.000
REMARK INTER + INTRA:           4.231
REMARK INTER:                   4.864
REMARK INTRA:                  -0.633
REMARK UNBOUND:                -0.633
REMARK SMILES O=C(C=Cc1ccc(O)cc1)c1ccc(O)cc1O
REMARK SMILES IDX 4 1 3 2 5 3 6 4 7 5 8 6 11 7 10 8 9 9 2 11 1 12 12 13 18 14
REMARK SMILES IDX 13 15 17 16 14 17 15 18 19 19 16 21
REMARK H PARENT 9 10 19 20 16 22
REMARK Flexibility Score: inf
ROOT
ATOM      1  C   UNL     1      12.875  22.537   2.635  1.00  0.00     0.012 C 
ATOM      2  C   UNL     1      13.593  22.222   1.546  1.00  0.00     0.053 C 
ENDROOT
BRANCH   1   3
ATOM      3  C   UNL     1      13.238  22.128   4.013  1.00  0.00    -0.025 A 
ATOM      4  C   UNL     1      12.861  20.884   4.562  1.00  0.00     0.012 A 
ATOM      5  C   UNL     1      13.222  20.550   5.871  1.00  0.00     0.047 A 
ATOM      6  C   UNL     1      13.953  21.453   6.653  1.00  0.00     0.115 A 
ATOM      7  C   UNL     1      13.959  23.031   4.814  1.00  0.00     0.012 A 
ATOM      8  C   UNL     1      14.317  22.693   6.121  1.00  0.00     0.047 A 
BRANCH   6   9
ATOM      9  O   UNL     1      14.318  21.128   7.958  1.00  0.00    -0.508 OA
ATOM     10  H   UNL     1      14.936  20.352   8.158  1.00  0.00     0.293 HD
ENDBRANCH   6   9
ENDBRANCH   1   3
BRANCH   2  11
ATOM     11  C   UNL     1      13.207  22.643   0.183  1.00  0.00     0.189 C 
ATOM     12  O   UNL     1      12.976  23.866  -0.019  1.00  0.00    -0.289 OA
BRANCH  11  13
ATOM     13  C   UNL     1      13.087  21.699  -0.951  1.00  0.00     0.064 A 
ATOM     14  C   UNL     1      13.865  21.847  -2.118  1.00  0.00     0.130 A 
ATOM     15  C   UNL     1      12.209  20.609  -0.846  1.00  0.00     0.020 A 
ATOM     16  C   UNL     1      13.722  20.934  -3.173  1.00  0.00     0.093 A 
ATOM     17  C   UNL     1      12.076  19.701  -1.899  1.00  0.00     0.047 A 
ATOM     18  C   UNL     1      12.830  19.864  -3.066  1.00  0.00     0.119 A 
BRANCH  14  19
ATOM     19  O   UNL     1      14.790  22.887  -2.223  1.00  0.00    -0.507 OA
ATOM     20  H   UNL     1      15.012  23.314  -3.114  1.00  0.00     0.293 HD
ENDBRANCH  14  19
BRANCH  18  21
ATOM     21  O   UNL     1      12.703  18.966  -4.125  1.00  0.00    -0.508 OA
ATOM     22  H   UNL     1      12.757  17.965  -3.979  1.00  0.00     0.293 HD
ENDBRANCH  18  21
ENDBRANCH  11  13
ENDBRANCH   2  11
TORSDOF 6
ENDMDL
MODEL 2
REMARK VINA RESULT:     4.674      2.244      3.480
REMARK INTER + INTRA:           5.271
REMARK INTER:                   5.886
REMARK INTRA:                  -0.614
REMARK UNBOUND:                -0.633
REMARK SMILES O=C(C=Cc1ccc(O)cc1)c1ccc(O)cc1O
REMARK SMILES IDX 4 1 3 2 5 3 6 4 7 5 8 6 11 7 10 8 9 9 2 11 1 12 12 13 18 14
REMARK SMILES IDX 13 15 17 16 14 17 15 18 19 19 16 21
REMARK H PARENT 9 10 19 20 16 22
REMARK Flexibility Score: inf
ROOT
ATOM      1  C   UNL     1      13.832  21.887   1.237  1.00  0.00     0.012 C 
ATOM      2  C   UNL     1      15.027  21.520   0.750  1.00  0.00     0.053 C 
ENDROOT
BRANCH   1   3
ATOM      3  C   UNL     1      13.302  21.443   2.550  1.00  0.00    -0.025 A 
ATOM      4  C   UNL     1      13.011  22.344   3.596  1.00  0.00     0.012 A 
ATOM      5  C   UNL     1      12.522  21.873   4.819  1.00  0.00     0.047 A 
ATOM      6  C   UNL     1      12.326  20.501   5.018  1.00  0.00     0.115 A 
ATOM      7  C   UNL     1      13.115  20.068   2.768  1.00  0.00     0.012 A 
ATOM      8  C   UNL     1      12.625  19.602   3.992  1.00  0.00     0.047 A 
BRANCH   6   9
ATOM      9  O   UNL     1      11.837  20.023   6.233  1.00  0.00    -0.508 OA
ATOM     10  H   UNL     1      10.951  19.536   6.293  1.00  0.00     0.293 HD
ENDBRANCH   6   9
ENDBRANCH   1   3
BRANCH   2  11
ATOM     11  C   UNL     1      15.530  21.977  -0.563  1.00  0.00     0.189 C 
ATOM     12  O   UNL     1      16.635  21.524  -0.968  1.00  0.00    -0.289 OA
BRANCH  11  13
ATOM     13  C   UNL     1      14.795  22.933  -1.422  1.00  0.00     0.064 A 
ATOM     14  C   UNL     1      14.046  22.498  -2.534  1.00  0.00     0.130 A 
ATOM     15  C   UNL     1      14.811  24.299  -1.097  1.00  0.00     0.020 A 
ATOM     16  C   UNL     1      13.364  23.434  -3.326  1.00  0.00     0.093 A 
ATOM     17  C   UNL     1      14.125  25.224  -1.887  1.00  0.00     0.047 A 
ATOM     18  C   UNL     1      13.403  24.793  -3.006  1.00  0.00     0.119 A 
BRANCH  14  19
ATOM     19  O   UNL     1      13.964  21.139  -2.842  1.00  0.00    -0.507 OA
ATOM     20  H   UNL     1      14.779  20.607  -3.123  1.00  0.00     0.293 HD
ENDBRANCH  14  19
BRANCH  18  21
ATOM     21  O   UNL     1      12.718  25.708  -3.805  1.00  0.00    -0.508 OA
ATOM     22  H   UNL     1      13.195  26.484  -4.249  1.00  0.00     0.293 HD
ENDBRANCH  18  21
ENDBRANCH  11  13
ENDBRANCH   2  11
TORSDOF 6
ENDMDL
MODEL 3
REMARK VINA RESULT:     5.615      1.659      2.856
REMARK INTER + INTRA:           6.460
REMARK INTER:                   6.975
REMARK INTRA:                  -0.515
REMARK UNBOUND:                -0.633
REMARK SMILES O=C(C=Cc1ccc(O)cc1)c1ccc(O)cc1O
REMARK SMILES IDX 4 1 3 2 5 3 6 4 7 5 8 6 11 7 10 8 9 9 2 11 1 12 12 13 18 14
REMARK SMILES IDX 13 15 17 16 14 17 15 18 19 19 16 21
REMARK H PARENT 9 10 19 20 16 22
REMARK Flexibility Score: inf
ROOT
ATOM      1  C   UNL     1      12.729  21.332   2.228  1.00  0.00     0.012 C 
ATOM      2  C   UNL     1      13.618  21.189   1.232  1.00  0.00     0.053 C 
ENDROOT
BRANCH   1   3
ATOM      3  C   UNL     1      13.103  21.468   3.657  1.00  0.00    -0.025 A 
ATOM      4  C   UNL     1      13.554  22.684   4.213  1.00  0.00     0.012 A 
ATOM      5  C   UNL     1      13.902  22.756   5.565  1.00  0.00     0.047 A 
ATOM      6  C   UNL     1      13.816  21.619   6.378  1.00  0.00     0.115 A 
ATOM      7  C   UNL     1      13.034  20.331   4.480  1.00  0.00     0.012 A 
ATOM      8  C   UNL     1      13.383  20.409   5.831  1.00  0.00     0.047 A 
BRANCH   6   9
ATOM      9  O   UNL     1      14.160  21.683   7.727  1.00  0.00    -0.508 OA
ATOM     10  H   UNL     1      15.065  21.372   8.058  1.00  0.00     0.293 HD
ENDBRANCH   6   9
ENDBRANCH   1   3
BRANCH   2  11
ATOM     11  C   UNL     1      13.217  21.055  -0.184  1.00  0.00     0.189 C 
ATOM     12  O   UNL     1      12.684  19.973  -0.552  1.00  0.00    -0.289 OA
BRANCH  11  13
ATOM     13  C   UNL     1      13.407  22.131  -1.183  1.00  0.00     0.064 A 
ATOM     14  C   UNL     1      13.460  21.852  -2.565  1.00  0.00     0.130 A 
ATOM     15  C   UNL     1      13.497  23.463  -0.748  1.00  0.00     0.020 A 
ATOM     16  C   UNL     1      13.643  22.898  -3.481  1.00  0.00     0.093 A 
ATOM     17  C   UNL     1      13.674  24.499  -1.667  1.00  0.00     0.047 A 
ATOM     18  C   UNL     1      13.752  24.218  -3.036  1.00  0.00     0.119 A 
BRANCH  14  19
ATOM     19  O   UNL     1      13.311  20.544  -3.027  1.00  0.00    -0.507 OA
ATOM     20  H   UNL     1      14.080  20.040  -3.453  1.00  0.00     0.293 HD
ENDBRANCH  14  19
BRANCH  18  21
ATOM     21  O   UNL     1      13.933  25.243  -3.962  1.00  0.00    -0.508 OA
ATOM     22  H   UNL     1      13.812  25.086  -4.957  1.00  0.00     0.293 HD
ENDBRANCH  18  21
ENDBRANCH  11  13
ENDBRANCH   2  11
TORSDOF 6
ENDMDL
MODEL 4
REMARK VINA RESULT:     6.484      1.303      2.115
REMARK INTER + INTRA:           7.556
REMARK INTER:                   7.617
REMARK INTRA:                  -0.061
REMARK UNBOUND:                -0.633
REMARK SMILES O=C(C=Cc1ccc(O)cc1)c1ccc(O)cc1O
REMARK SMILES IDX 4 1 3 2 5 3 6 4 7 5 8 6 11 7 10 8 9 9 2 11 1 12 12 13 18 14
REMARK SMILES IDX 13 15 17 16 14 17 15 18 19 19 16 21
REMARK H PARENT 9 10 19 20 16 22
REMARK Flexibility Score: inf
ROOT
ATOM      1  C   UNL     1      12.581  22.582   3.232  1.00  0.00     0.012 C 
ATOM      2  C   UNL     1      13.279  22.924   2.138  1.00  0.00     0.053 C 
ENDROOT
BRANCH   1   3
ATOM      3  C   UNL     1      13.202  22.236   4.535  1.00  0.00    -0.025 A 
ATOM      4  C   UNL     1      14.000  23.144   5.261  1.00  0.00     0.012 A 
ATOM      5  C   UNL     1      14.569  22.765   6.481  1.00  0.00     0.047 A 
ATOM      6  C   UNL     1      14.359  21.477   6.987  1.00  0.00     0.115 A 
ATOM      7  C   UNL     1      13.010  20.942   5.046  1.00  0.00     0.012 A 
ATOM      8  C   UNL     1      13.581  20.568   6.266  1.00  0.00     0.047 A 
BRANCH   6   9
ATOM      9  O   UNL     1      14.921  21.091   8.203  1.00  0.00    -0.508 OA
ATOM     10  H   UNL     1      14.802  20.154   8.568  1.00  0.00     0.293 HD
ENDBRANCH   6   9
ENDBRANCH   1   3
BRANCH   2  11
ATOM     11  C   UNL     1      12.635  23.263   0.852  1.00  0.00     0.189 C 
ATOM     12  O   UNL     1      11.721  24.131   0.855  1.00  0.00    -0.289 OA
BRANCH  11  13
ATOM     13  C   UNL     1      13.017  22.635  -0.434  1.00  0.00     0.064 A 
ATOM     14  C   UNL     1      13.241  21.247  -0.538  1.00  0.00     0.130 A 
ATOM     15  C   UNL     1      13.118  23.435  -1.584  1.00  0.00     0.020 A 
ATOM     16  C   UNL     1      13.604  20.689  -1.773  1.00  0.00     0.093 A 
ATOM     17  C   UNL     1      13.474  22.871  -2.811  1.00  0.00     0.047 A 
ATOM     18  C   UNL     1      13.722  21.497  -2.907  1.00  0.00     0.119 A 
BRANCH  14  19
ATOM     19  O   UNL     1      13.087  20.422   0.577  1.00  0.00    -0.507 OA
ATOM     20  H   UNL     1      13.018  19.415   0.488  1.00  0.00     0.293 HD
ENDBRANCH  14  19
BRANCH  18  21
ATOM     21  O   UNL     1      14.082  20.924  -4.125  1.00  0.00    -0.508 OA
ATOM     22  H   UNL     1      13.388  20.690  -4.826  1.00  0.00     0.293 HD
ENDBRANCH  18  21
ENDBRANCH  11  13
ENDBRANCH   2  11
TORSDOF 6
ENDMDL
