MODEL 1
REMARK VINA RESULT:    -5.268      0.000      0.000
REMARK INTER + INTRA:          -5.915
REMARK INTER:                  -5.730
REMARK INTRA:                  -0.185
REMARK UNBOUND:                -0.185
REMARK SMILES O=C([O-])c1ccccc1O
REMARK SMILES IDX 4 1 9 2 5 3 8 4 6 5 7 6 2 7 1 8 3 9 10 10
REMARK H PARENT 10 11
REMARK Flexibility Score: inf
ROOT
ATOM      1  C   UNL     1      47.046  43.766  79.186  1.00  0.00     0.039 A 
ATOM      2  C   UNL     1      45.792  44.302  78.808  1.00  0.00     0.124 A 
ATOM      3  C   UNL     1      47.279  43.480  80.546  1.00  0.00     0.014 A 
ATOM      4  C   UNL     1      44.810  44.539  79.782  1.00  0.00     0.047 A 
ATOM      5  C   UNL     1      46.293  43.722  81.505  1.00  0.00     0.001 A 
ATOM      6  C   UNL     1      45.060  44.249  81.124  1.00  0.00     0.004 A 
ENDROOT
BRANCH   1   7
ATOM      7  C   UNL     1      48.114  43.500  78.188  1.00  0.00     0.075 C 
ATOM      8  O   UNL     1      48.004  42.540  77.379  1.00  0.00    -0.545 OA
ATOM      9  O   UNL     1      49.251  44.295  78.124  1.00  0.00    -0.545 OA
ENDBRANCH   1   7
BRANCH   2  10
ATOM     10  O   UNL     1      45.516  44.601  77.474  1.00  0.00    -0.507 OA
ATOM     11  H   UNL     1      44.572  44.569  77.105  1.00  0.00     0.293 HD
ENDBRANCH   2  10
TORSDOF 2
ENDMDL
MODEL 2
REMARK VINA RESULT:    -5.206     10.642     11.489
REMARK INTER + INTRA:          -5.848
REMARK INTER:                  -5.622
REMARK INTRA:                  -0.226
REMARK UNBOUND:                -0.185
REMARK SMILES O=C([O-])c1ccccc1O
REMARK SMILES IDX 4 1 9 2 5 3 8 4 6 5 7 6 2 7 1 8 3 9 10 10
REMARK H PARENT 10 11
REMARK Flexibility Score: inf
ROOT
ATOM      1  C   UNL     1      38.097  37.842  75.606  1.00  0.00     0.039 A 
ATOM      2  C   UNL     1      37.243  38.647  74.816  1.00  0.00     0.124 A 
ATOM      3  C   UNL     1      37.543  36.756  76.314  1.00  0.00     0.014 A 
ATOM      4  C   UNL     1      35.872  38.356  74.749  1.00  0.00     0.047 A 
ATOM      5  C   UNL     1      36.176  36.479  76.238  1.00  0.00     0.001 A 
ATOM      6  C   UNL     1      35.342  37.276  75.457  1.00  0.00     0.004 A 
ENDROOT
BRANCH   1   7
ATOM      7  C   UNL     1      39.554  38.113  75.707  1.00  0.00     0.075 C 
ATOM      8  O   UNL     1      40.193  37.786  76.743  1.00  0.00    -0.545 OA
ATOM      9  O   UNL     1      40.243  38.730  74.669  1.00  0.00    -0.545 OA
ENDBRANCH   1   7
BRANCH   2  10
ATOM     10  O   UNL     1      37.747  39.732  74.099  1.00  0.00    -0.507 OA
ATOM     11  H   UNL     1      37.161  40.518  73.840  1.00  0.00     0.293 HD
ENDBRANCH   2  10
TORSDOF 2
ENDMDL
MODEL 3
REMARK VINA RESULT:    -5.148      1.876      3.658
REMARK INTER + INTRA:          -5.785
REMARK INTER:                  -5.535
REMARK INTRA:                  -0.250
REMARK UNBOUND:                -0.185
REMARK SMILES O=C([O-])c1ccccc1O
REMARK SMILES IDX 4 1 9 2 5 3 8 4 6 5 7 6 2 7 1 8 3 9 10 10
REMARK H PARENT 10 11
REMARK Flexibility Score: inf
ROOT
ATOM      1  C   UNL     1      47.241  44.141  78.801  1.00  0.00     0.039 A 
ATOM      2  C   UNL     1      47.133  43.661  77.474  1.00  0.00     0.124 A 
ATOM      3  C   UNL     1      48.484  44.636  79.244  1.00  0.00     0.014 A 
ATOM      4  C   UNL     1      48.252  43.684  76.629  1.00  0.00     0.047 A 
ATOM      5  C   UNL     1      49.590  44.653  78.392  1.00  0.00     0.001 A 
ATOM      6  C   UNL     1      49.474  44.178  77.086  1.00  0.00     0.004 A 
ENDROOT
BRANCH   1   7
ATOM      7  C   UNL     1      46.081  44.136  79.731  1.00  0.00     0.075 C 
ATOM      8  O   UNL     1      44.988  44.661  79.388  1.00  0.00    -0.545 OA
ATOM      9  O   UNL     1      46.174  43.557  80.990  1.00  0.00    -0.545 OA
ENDBRANCH   1   7
BRANCH   2  10
ATOM     10  O   UNL     1      45.923  43.162  76.992  1.00  0.00    -0.507 OA
ATOM     11  H   UNL     1      45.417  43.622  76.245  1.00  0.00     0.293 HD
ENDBRANCH   2  10
TORSDOF 2
ENDMDL
MODEL 4
REMARK VINA RESULT:    -5.129      1.261      2.195
REMARK INTER + INTRA:          -5.764
REMARK INTER:                  -5.509
REMARK INTRA:                  -0.255
REMARK UNBOUND:                -0.185
REMARK SMILES O=C([O-])c1ccccc1O
REMARK SMILES IDX 4 1 9 2 5 3 8 4 6 5 7 6 2 7 1 8 3 9 10 10
REMARK H PARENT 10 11
REMARK Flexibility Score: inf
ROOT
ATOM      1  C   UNL     1      46.407  43.874  79.144  1.00  0.00     0.039 A 
ATOM      2  C   UNL     1      46.806  43.414  80.421  1.00  0.00     0.124 A 
ATOM      3  C   UNL     1      45.194  44.582  79.027  1.00  0.00     0.014 A 
ATOM      4  C   UNL     1      45.997  43.665  81.540  1.00  0.00     0.047 A 
ATOM      5  C   UNL     1      44.399  44.825  80.149  1.00  0.00     0.001 A 
ATOM      6  C   UNL     1      44.800  44.368  81.403  1.00  0.00     0.004 A 
ENDROOT
BRANCH   1   7
ATOM      7  C   UNL     1      47.232  43.630  77.932  1.00  0.00     0.075 C 
ATOM      8  O   UNL     1      46.693  43.229  76.866  1.00  0.00    -0.545 OA
ATOM      9  O   UNL     1      48.605  43.835  77.946  1.00  0.00    -0.545 OA
ENDBRANCH   1   7
BRANCH   2  10
ATOM     10  O   UNL     1      47.998  42.709  80.585  1.00  0.00    -0.507 OA
ATOM     11  H   UNL     1      48.027  41.696  80.552  1.00  0.00     0.293 HD
ENDBRANCH   2  10
TORSDOF 2
ENDMDL
MODEL 5
REMARK VINA RESULT:    -4.872      2.052      4.033
REMARK INTER + INTRA:          -5.484
REMARK INTER:                  -5.249
REMARK INTRA:                  -0.235
REMARK UNBOUND:                -0.185
REMARK SMILES O=C([O-])c1ccccc1O
REMARK SMILES IDX 4 1 9 2 5 3 8 4 6 5 7 6 2 7 1 8 3 9 10 10
REMARK H PARENT 10 11
REMARK Flexibility Score: inf
ROOT
ATOM      1  C   UNL     1      46.632  44.080  78.969  1.00  0.00     0.039 A 
ATOM      2  C   UNL     1      48.043  44.175  78.928  1.00  0.00     0.124 A 
ATOM      3  C   UNL     1      45.930  43.887  77.762  1.00  0.00     0.014 A 
ATOM      4  C   UNL     1      48.716  44.077  77.700  1.00  0.00     0.047 A 
ATOM      5  C   UNL     1      46.613  43.792  76.547  1.00  0.00     0.001 A 
ATOM      6  C   UNL     1      48.003  43.886  76.516  1.00  0.00     0.004 A 
ENDROOT
BRANCH   1   7
ATOM      7  C   UNL     1      45.879  44.178  80.246  1.00  0.00     0.075 C 
ATOM      8  O   UNL     1      46.353  43.683  81.304  1.00  0.00    -0.545 OA
ATOM      9  O   UNL     1      44.644  44.811  80.304  1.00  0.00    -0.545 OA
ENDBRANCH   1   7
BRANCH   2  10
ATOM     10  O   UNL     1      48.780  44.366  80.097  1.00  0.00    -0.507 OA
ATOM     11  H   UNL     1      48.611  43.812  80.929  1.00  0.00     0.293 HD
ENDBRANCH   2  10
TORSDOF 2
ENDMDL
MODEL 6
REMARK VINA RESULT:    -4.859      2.073      4.005
REMARK INTER + INTRA:          -5.470
REMARK INTER:                  -5.225
REMARK INTRA:                  -0.245
REMARK UNBOUND:                -0.185
REMARK SMILES O=C([O-])c1ccccc1O
REMARK SMILES IDX 4 1 9 2 5 3 8 4 6 5 7 6 2 7 1 8 3 9 10 10
REMARK H PARENT 10 11
REMARK Flexibility Score: inf
ROOT
ATOM      1  C   UNL     1      46.658  44.060  78.983  1.00  0.00     0.039 A 
ATOM      2  C   UNL     1      48.069  44.160  78.950  1.00  0.00     0.124 A 
ATOM      3  C   UNL     1      45.962  43.878  77.771  1.00  0.00     0.014 A 
ATOM      4  C   UNL     1      48.747  44.079  77.724  1.00  0.00     0.047 A 
ATOM      5  C   UNL     1      46.650  43.799  76.559  1.00  0.00     0.001 A 
ATOM      6  C   UNL     1      48.040  43.898  76.535  1.00  0.00     0.004 A 
ENDROOT
BRANCH   1   7
ATOM      7  C   UNL     1      45.899  44.141  80.258  1.00  0.00     0.075 C 
ATOM      8  O   UNL     1      44.778  44.716  80.296  1.00  0.00    -0.545 OA
ATOM      9  O   UNL     1      46.402  43.591  81.430  1.00  0.00    -0.545 OA
ENDBRANCH   1   7
BRANCH   2  10
ATOM     10  O   UNL     1      48.800  44.341  80.124  1.00  0.00    -0.507 OA
ATOM     11  H   UNL     1      48.524  43.902  80.995  1.00  0.00     0.293 HD
ENDBRANCH   2  10
TORSDOF 2
ENDMDL
MODEL 7
REMARK VINA RESULT:    -4.852      2.480      3.571
REMARK INTER + INTRA:          -5.463
REMARK INTER:                  -5.242
REMARK INTRA:                  -0.221
REMARK UNBOUND:                -0.185
REMARK SMILES O=C([O-])c1ccccc1O
REMARK SMILES IDX 4 1 9 2 5 3 8 4 6 5 7 6 2 7 1 8 3 9 10 10
REMARK H PARENT 10 11
REMARK Flexibility Score: inf
ROOT
ATOM      1  C   UNL     1      48.258  43.060  77.101  1.00  0.00     0.039 A 
ATOM      2  C   UNL     1      47.521  43.429  78.251  1.00  0.00     0.124 A 
ATOM      3  C   UNL     1      49.536  43.622  76.905  1.00  0.00     0.014 A 
ATOM      4  C   UNL     1      48.066  44.339  79.169  1.00  0.00     0.047 A 
ATOM      5  C   UNL     1      50.065  44.527  77.827  1.00  0.00     0.001 A 
ATOM      6  C   UNL     1      49.333  44.884  78.957  1.00  0.00     0.004 A 
ENDROOT
BRANCH   1   7
ATOM      7  C   UNL     1      47.720  42.100  76.102  1.00  0.00     0.075 C 
ATOM      8  O   UNL     1      48.109  42.142  74.904  1.00  0.00    -0.545 OA
ATOM      9  O   UNL     1      46.782  41.140  76.462  1.00  0.00    -0.545 OA
ENDBRANCH   1   7
BRANCH   2  10
ATOM     10  O   UNL     1      46.252  42.898  78.486  1.00  0.00    -0.507 OA
ATOM     11  H   UNL     1      45.409  43.402  78.234  1.00  0.00     0.293 HD
ENDBRANCH   2  10
TORSDOF 2
ENDMDL
MODEL 8
REMARK VINA RESULT:    -4.814     12.587     13.664
REMARK INTER + INTRA:          -5.421
REMARK INTER:                  -5.197
REMARK INTRA:                  -0.224
REMARK UNBOUND:                -0.185
REMARK SMILES O=C([O-])c1ccccc1O
REMARK SMILES IDX 4 1 9 2 5 3 8 4 6 5 7 6 2 7 1 8 3 9 10 10
REMARK H PARENT 10 11
REMARK Flexibility Score: inf
ROOT
ATOM      1  C   UNL     1      36.635  37.207  73.925  1.00  0.00     0.039 A 
ATOM      2  C   UNL     1      36.495  38.473  73.307  1.00  0.00     0.124 A 
ATOM      3  C   UNL     1      36.687  36.057  73.112  1.00  0.00     0.014 A 
ATOM      4  C   UNL     1      36.409  38.563  71.909  1.00  0.00     0.047 A 
ATOM      5  C   UNL     1      36.601  36.162  71.722  1.00  0.00     0.001 A 
ATOM      6  C   UNL     1      36.463  37.412  71.121  1.00  0.00     0.004 A 
ENDROOT
BRANCH   1   7
ATOM      7  C   UNL     1      36.729  37.065  75.401  1.00  0.00     0.075 C 
ATOM      8  O   UNL     1      37.711  37.548  76.026  1.00  0.00    -0.545 OA
ATOM      9  O   UNL     1      35.745  36.401  76.122  1.00  0.00    -0.545 OA
ENDBRANCH   1   7
BRANCH   2  10
ATOM     10  O   UNL     1      36.438  39.638  74.071  1.00  0.00    -0.507 OA
ATOM     11  H   UNL     1      35.617  39.880  74.613  1.00  0.00     0.293 HD
ENDBRANCH   2  10
TORSDOF 2
ENDMDL
MODEL 9
REMARK VINA RESULT:    -4.776     11.813     12.863
REMARK INTER + INTRA:          -5.380
REMARK INTER:                  -5.129
REMARK INTRA:                  -0.251
REMARK UNBOUND:                -0.185
REMARK SMILES O=C([O-])c1ccccc1O
REMARK SMILES IDX 4 1 9 2 5 3 8 4 6 5 7 6 2 7 1 8 3 9 10 10
REMARK H PARENT 10 11
REMARK Flexibility Score: inf
ROOT
ATOM      1  C   UNL     1      36.820  37.574  73.879  1.00  0.00     0.039 A 
ATOM      2  C   UNL     1      37.638  38.306  74.772  1.00  0.00     0.124 A 
ATOM      3  C   UNL     1      36.267  36.352  74.313  1.00  0.00     0.014 A 
ATOM      4  C   UNL     1      37.884  37.811  76.061  1.00  0.00     0.047 A 
ATOM      5  C   UNL     1      36.522  35.871  75.599  1.00  0.00     0.001 A 
ATOM      6  C   UNL     1      37.328  36.599  76.472  1.00  0.00     0.004 A 
ENDROOT
BRANCH   1   7
ATOM      7  C   UNL     1      36.532  38.060  72.504  1.00  0.00     0.075 C 
ATOM      8  O   UNL     1      36.109  39.233  72.320  1.00  0.00    -0.545 OA
ATOM      9  O   UNL     1      36.720  37.240  71.399  1.00  0.00    -0.545 OA
ENDBRANCH   1   7
BRANCH   2  10
ATOM     10  O   UNL     1      38.206  39.521  74.386  1.00  0.00    -0.507 OA
ATOM     11  H   UNL     1      37.875  40.029  73.573  1.00  0.00     0.293 HD
ENDBRANCH   2  10
TORSDOF 2
ENDMDL
