MODEL 1
REMARK VINA RESULT:    -3.761      0.000      0.000
REMARK INTER + INTRA:          -5.314
REMARK INTER:                  -5.081
REMARK INTRA:                  -0.234
REMARK UNBOUND:                -0.234
REMARK SMILES CCCCCCCC(=O)[O-]
REMARK SMILES IDX 5 1 6 2 7 3 8 4 9 5 10 6 4 7 3 8 2 9 1 10
REMARK H PARENT
REMARK Flexibility Score: inf
ROOT
ATOM      1  C   UNL     1     -15.437   3.347  31.950  1.00  0.00     0.000 C 
ENDROOT
BRANCH   1   2
ATOM      2  C   UNL     1     -16.460   3.242  33.090  1.00  0.00     0.006 C 
BRANCH   2   3
ATOM      3  C   UNL     1     -15.785   2.808  34.395  1.00  0.00     0.053 C 
BRANCH   3   4
ATOM      4  C   UNL     1     -16.229   1.433  34.782  1.00  0.00     0.041 C 
ATOM      5  O   UNL     1     -15.802   0.904  35.842  1.00  0.00    -0.550 OA
ATOM      6  O   UNL     1     -17.075   0.714  33.947  1.00  0.00    -0.550 OA
ENDBRANCH   3   4
ENDBRANCH   2   3
ENDBRANCH   1   2
BRANCH   1   7
ATOM      7  C   UNL     1     -15.178   4.800  31.517  1.00  0.00     0.000 C 
BRANCH   7   8
ATOM      8  C   UNL     1     -16.475   5.576  31.243  1.00  0.00    -0.000 C 
BRANCH   8   9
ATOM      9  C   UNL     1     -16.175   6.927  30.584  1.00  0.00    -0.003 C 
ATOM     10  C   UNL     1     -15.080   6.794  29.529  1.00  0.00     0.004 C 
ENDBRANCH   8   9
ENDBRANCH   7   8
ENDBRANCH   1   7
TORSDOF 6
ENDMDL
MODEL 2
REMARK VINA RESULT:    -3.667      0.730      1.491
REMARK INTER + INTRA:          -5.188
REMARK INTER:                  -4.950
REMARK INTRA:                  -0.238
REMARK UNBOUND:                -0.234
REMARK SMILES CCCCCCCC(=O)[O-]
REMARK SMILES IDX 5 1 6 2 7 3 8 4 9 5 10 6 4 7 3 8 2 9 1 10
REMARK H PARENT
REMARK Flexibility Score: inf
ROOT
ATOM      1  C   UNL     1     -15.089   4.497  31.910  1.00  0.00     0.000 C 
ENDROOT
BRANCH   1   2
ATOM      2  C   UNL     1     -15.195   3.076  32.484  1.00  0.00     0.006 C 
BRANCH   2   3
ATOM      3  C   UNL     1     -16.521   2.881  33.225  1.00  0.00     0.053 C 
BRANCH   3   4
ATOM      4  C   UNL     1     -16.492   1.619  34.026  1.00  0.00     0.041 C 
ATOM      5  O   UNL     1     -17.125   0.603  33.633  1.00  0.00    -0.550 OA
ATOM      6  O   UNL     1     -15.808   1.577  35.235  1.00  0.00    -0.550 OA
ENDBRANCH   3   4
ENDBRANCH   2   3
ENDBRANCH   1   2
BRANCH   1   7
ATOM      7  C   UNL     1     -16.464   5.125  31.626  1.00  0.00     0.000 C 
BRANCH   7   8
ATOM      8  C   UNL     1     -16.360   6.453  30.860  1.00  0.00    -0.000 C 
BRANCH   8   9
ATOM      9  C   UNL     1     -15.335   6.351  29.725  1.00  0.00    -0.003 C 
ATOM     10  C   UNL     1     -14.813   7.729  29.328  1.00  0.00     0.004 C 
ENDBRANCH   8   9
ENDBRANCH   7   8
ENDBRANCH   1   7
TORSDOF 6
ENDMDL
MODEL 3
REMARK VINA RESULT:    -3.663      1.955      3.226
REMARK INTER + INTRA:          -5.181
REMARK INTER:                  -5.010
REMARK INTRA:                  -0.171
REMARK UNBOUND:                -0.234
REMARK SMILES CCCCCCCC(=O)[O-]
REMARK SMILES IDX 5 1 6 2 7 3 8 4 9 5 10 6 4 7 3 8 2 9 1 10
REMARK H PARENT
REMARK Flexibility Score: inf
ROOT
ATOM      1  C   UNL     1     -16.414   6.497  30.828  1.00  0.00     0.000 C 
ENDROOT
BRANCH   1   2
ATOM      2  C   UNL     1     -16.467   5.173  31.605  1.00  0.00     0.006 C 
BRANCH   2   3
ATOM      3  C   UNL     1     -15.082   4.523  31.674  1.00  0.00     0.053 C 
BRANCH   3   4
ATOM      4  C   UNL     1     -15.121   3.295  32.527  1.00  0.00     0.041 C 
ATOM      5  O   UNL     1     -14.530   2.246  32.157  1.00  0.00    -0.550 OA
ATOM      6  O   UNL     1     -15.853   3.291  33.708  1.00  0.00    -0.550 OA
ENDBRANCH   3   4
ENDBRANCH   2   3
ENDBRANCH   1   2
BRANCH   1   7
ATOM      7  C   UNL     1     -15.260   6.543  29.812  1.00  0.00     0.000 C 
BRANCH   7   8
ATOM      8  C   UNL     1     -14.895   7.976  29.395  1.00  0.00    -0.000 C 
BRANCH   8   9
ATOM      9  C   UNL     1     -13.908   7.969  28.223  1.00  0.00    -0.003 C 
ATOM     10  C   UNL     1     -14.381   8.887  27.098  1.00  0.00     0.004 C 
ENDBRANCH   8   9
ENDBRANCH   7   8
ENDBRANCH   1   7
TORSDOF 6
ENDMDL
MODEL 4
REMARK VINA RESULT:    -3.658      3.773      5.859
REMARK INTER + INTRA:          -5.174
REMARK INTER:                  -4.923
REMARK INTRA:                  -0.251
REMARK UNBOUND:                -0.234
REMARK SMILES CCCCCCCC(=O)[O-]
REMARK SMILES IDX 5 1 6 2 7 3 8 4 9 5 10 6 4 7 3 8 2 9 1 10
REMARK H PARENT
REMARK Flexibility Score: inf
ROOT
ATOM      1  C   UNL     1     -15.041   4.208  32.020  1.00  0.00     0.000 C 
ENDROOT
BRANCH   1   2
ATOM      2  C   UNL     1     -16.312   4.996  31.671  1.00  0.00     0.006 C 
BRANCH   2   3
ATOM      3  C   UNL     1     -16.357   5.332  30.177  1.00  0.00     0.053 C 
BRANCH   3   4
ATOM      4  C   UNL     1     -15.437   6.469  29.869  1.00  0.00     0.041 C 
ATOM      5  O   UNL     1     -15.745   7.644  30.204  1.00  0.00    -0.550 OA
ATOM      6  O   UNL     1     -14.259   6.242  29.167  1.00  0.00    -0.550 OA
ENDBRANCH   3   4
ENDBRANCH   2   3
ENDBRANCH   1   2
BRANCH   1   7
ATOM      7  C   UNL     1     -15.330   2.968  32.883  1.00  0.00     0.000 C 
BRANCH   7   8
ATOM      8  C   UNL     1     -16.583   3.134  33.755  1.00  0.00    -0.000 C 
BRANCH   8   9
ATOM      9  C   UNL     1     -17.099   1.772  34.234  1.00  0.00    -0.003 C 
ATOM     10  C   UNL     1     -16.154   1.154  35.261  1.00  0.00     0.004 C 
ENDBRANCH   8   9
ENDBRANCH   7   8
ENDBRANCH   1   7
TORSDOF 6
ENDMDL
MODEL 5
REMARK VINA RESULT:    -3.602      3.758      5.828
REMARK INTER + INTRA:          -5.099
REMARK INTER:                  -4.882
REMARK INTRA:                  -0.218
REMARK UNBOUND:                -0.234
REMARK SMILES CCCCCCCC(=O)[O-]
REMARK SMILES IDX 5 1 6 2 7 3 8 4 9 5 10 6 4 7 3 8 2 9 1 10
REMARK H PARENT
REMARK Flexibility Score: inf
ROOT
ATOM      1  C   UNL     1     -14.566   8.622  28.997  1.00  0.00     0.000 C 
ENDROOT
BRANCH   1   2
ATOM      2  C   UNL     1     -14.895   7.167  29.366  1.00  0.00     0.006 C 
BRANCH   2   3
ATOM      3  C   UNL     1     -16.004   7.107  30.421  1.00  0.00     0.053 C 
BRANCH   3   4
ATOM      4  C   UNL     1     -16.395   5.689  30.689  1.00  0.00     0.041 C 
ATOM      5  O   UNL     1     -16.401   4.845  29.754  1.00  0.00    -0.550 OA
ATOM      6  O   UNL     1     -16.801   5.308  31.962  1.00  0.00    -0.550 OA
ENDBRANCH   3   4
ENDBRANCH   2   3
ENDBRANCH   1   2
BRANCH   1   7
ATOM      7  C   UNL     1     -13.557   8.727  27.842  1.00  0.00     0.000 C 
BRANCH   7   8
ATOM      8  C   UNL     1     -12.179   8.152  28.205  1.00  0.00    -0.000 C 
BRANCH   8   9
ATOM      9  C   UNL     1     -11.399   9.125  29.096  1.00  0.00    -0.003 C 
ATOM     10  C   UNL     1     -10.110   8.489  29.610  1.00  0.00     0.004 C 
ENDBRANCH   8   9
ENDBRANCH   7   8
ENDBRANCH   1   7
TORSDOF 6
ENDMDL
MODEL 6
REMARK VINA RESULT:    -3.495      4.935      7.080
REMARK INTER + INTRA:          -4.955
REMARK INTER:                  -4.735
REMARK INTRA:                  -0.220
REMARK UNBOUND:                -0.234
REMARK SMILES CCCCCCCC(=O)[O-]
REMARK SMILES IDX 5 1 6 2 7 3 8 4 9 5 10 6 4 7 3 8 2 9 1 10
REMARK H PARENT
REMARK Flexibility Score: inf
ROOT
ATOM      1  C   UNL     1     -16.308   6.721  30.673  1.00  0.00     0.000 C 
ENDROOT
BRANCH   1   2
ATOM      2  C   UNL     1     -15.164   7.010  29.689  1.00  0.00     0.006 C 
BRANCH   2   3
ATOM      3  C   UNL     1     -15.088   8.504  29.361  1.00  0.00     0.053 C 
BRANCH   3   4
ATOM      4  C   UNL     1     -14.067   8.756  28.298  1.00  0.00     0.041 C 
ATOM      5  O   UNL     1     -14.428   8.989  27.114  1.00  0.00    -0.550 OA
ATOM      6  O   UNL     1     -12.713   8.685  28.603  1.00  0.00    -0.550 OA
ENDBRANCH   3   4
ENDBRANCH   2   3
ENDBRANCH   1   2
BRANCH   1   7
ATOM      7  C   UNL     1     -16.295   5.273  31.189  1.00  0.00     0.000 C 
BRANCH   7   8
ATOM      8  C   UNL     1     -14.872   4.728  31.387  1.00  0.00    -0.000 C 
BRANCH   8   9
ATOM      9  C   UNL     1     -14.887   3.460  32.248  1.00  0.00    -0.003 C 
ATOM     10  C   UNL     1     -16.136   3.403  33.124  1.00  0.00     0.004 C 
ENDBRANCH   8   9
ENDBRANCH   7   8
ENDBRANCH   1   7
TORSDOF 6
ENDMDL
MODEL 7
REMARK VINA RESULT:    -3.450     24.636     25.578
REMARK INTER + INTRA:          -4.894
REMARK INTER:                  -4.295
REMARK INTRA:                  -0.598
REMARK UNBOUND:                -0.234
REMARK SMILES CCCCCCCC(=O)[O-]
REMARK SMILES IDX 5 1 6 2 7 3 8 4 9 5 10 6 4 7 3 8 2 9 1 10
REMARK H PARENT
REMARK Flexibility Score: inf
ROOT
ATOM      1  C   UNL     1       1.452  -8.350  20.624  1.00  0.00     0.000 C 
ENDROOT
BRANCH   1   2
ATOM      2  C   UNL     1       1.549  -6.975  19.946  1.00  0.00     0.006 C 
BRANCH   2   3
ATOM      3  C   UNL     1       0.234  -6.614  19.249  1.00  0.00     0.053 C 
BRANCH   3   4
ATOM      4  C   UNL     1       0.042  -7.453  18.026  1.00  0.00     0.041 C 
ATOM      5  O   UNL     1       0.882  -7.409  17.089  1.00  0.00    -0.550 OA
ATOM      6  O   UNL     1      -1.091  -8.248  17.898  1.00  0.00    -0.550 OA
ENDBRANCH   3   4
ENDBRANCH   2   3
ENDBRANCH   1   2
BRANCH   1   7
ATOM      7  C   UNL     1       2.765  -9.147  20.538  1.00  0.00     0.000 C 
BRANCH   7   8
ATOM      8  C   UNL     1       2.947  -9.842  19.181  1.00  0.00    -0.000 C 
BRANCH   8   9
ATOM      9  C   UNL     1       1.675 -10.597  18.778  1.00  0.00    -0.003 C 
ATOM     10  C   UNL     1       1.585 -10.756  17.262  1.00  0.00     0.004 C 
ENDBRANCH   8   9
ENDBRANCH   7   8
ENDBRANCH   1   7
TORSDOF 6
ENDMDL
MODEL 8
REMARK VINA RESULT:    -3.384      4.135      5.955
REMARK INTER + INTRA:          -4.805
REMARK INTER:                  -4.354
REMARK INTRA:                  -0.450
REMARK UNBOUND:                -0.234
REMARK SMILES CCCCCCCC(=O)[O-]
REMARK SMILES IDX 5 1 6 2 7 3 8 4 9 5 10 6 4 7 3 8 2 9 1 10
REMARK H PARENT
REMARK Flexibility Score: inf
ROOT
ATOM      1  C   UNL     1     -16.312   6.885  30.537  1.00  0.00     0.000 C 
ENDROOT
BRANCH   1   2
ATOM      2  C   UNL     1     -15.128   7.388  29.697  1.00  0.00     0.006 C 
BRANCH   2   3
ATOM      3  C   UNL     1     -14.326   6.216  29.123  1.00  0.00     0.053 C 
BRANCH   3   4
ATOM      4  C   UNL     1     -12.860   6.446  29.304  1.00  0.00     0.041 C 
ATOM      5  O   UNL     1     -12.138   5.557  29.828  1.00  0.00    -0.550 OA
ATOM      6  O   UNL     1     -12.296   7.662  28.939  1.00  0.00    -0.550 OA
ENDBRANCH   3   4
ENDBRANCH   2   3
ENDBRANCH   1   2
BRANCH   1   7
ATOM      7  C   UNL     1     -16.375   5.351  30.614  1.00  0.00     0.000 C 
BRANCH   7   8
ATOM      8  C   UNL     1     -16.795   4.845  32.002  1.00  0.00    -0.000 C 
BRANCH   8   9
ATOM      9  C   UNL     1     -15.943   3.644  32.427  1.00  0.00    -0.003 C 
ATOM     10  C   UNL     1     -14.476   3.850  32.059  1.00  0.00     0.004 C 
ENDBRANCH   8   9
ENDBRANCH   7   8
ENDBRANCH   1   7
TORSDOF 6
ENDMDL
MODEL 9
REMARK VINA RESULT:    -3.340     24.411     25.387
REMARK INTER + INTRA:          -4.746
REMARK INTER:                  -4.238
REMARK INTRA:                  -0.508
REMARK UNBOUND:                -0.234
REMARK SMILES CCCCCCCC(=O)[O-]
REMARK SMILES IDX 5 1 6 2 7 3 8 4 9 5 10 6 4 7 3 8 2 9 1 10
REMARK H PARENT
REMARK Flexibility Score: inf
ROOT
ATOM      1  C   UNL     1       0.879  -9.886  18.427  1.00  0.00     0.000 C 
ENDROOT
BRANCH   1   2
ATOM      2  C   UNL     1       0.677  -8.910  17.259  1.00  0.00     0.006 C 
BRANCH   2   3
ATOM      3  C   UNL     1       0.759  -7.457  17.739  1.00  0.00     0.053 C 
BRANCH   3   4
ATOM      4  C   UNL     1      -0.597  -6.952  18.115  1.00  0.00     0.041 C 
ATOM      5  O   UNL     1      -1.585  -7.170  17.365  1.00  0.00    -0.550 OA
ATOM      6  O   UNL     1      -0.764  -6.199  19.270  1.00  0.00    -0.550 OA
ENDBRANCH   3   4
ENDBRANCH   2   3
ENDBRANCH   1   2
BRANCH   1   7
ATOM      7  C   UNL     1       2.327 -10.394  18.533  1.00  0.00     0.000 C 
BRANCH   7   8
ATOM      8  C   UNL     1       3.125  -9.682  19.636  1.00  0.00    -0.000 C 
BRANCH   8   9
ATOM      9  C   UNL     1       2.206  -9.254  20.785  1.00  0.00    -0.003 C 
ATOM     10  C   UNL     1       2.402  -7.779  21.129  1.00  0.00     0.004 C 
ENDBRANCH   8   9
ENDBRANCH   7   8
ENDBRANCH   1   7
TORSDOF 6
ENDMDL
