MODEL 1
REMARK VINA RESULT:    -2.936      0.000      0.000
REMARK INTER + INTRA:          -7.799
REMARK INTER:                  -5.339
REMARK INTRA:                  -2.460
REMARK UNBOUND:                -2.460
REMARK SMILES CCCCCCCCCCCCCC[C@@H](C)C(=O)[O-]
REMARK SMILES IDX 9 1 10 2 11 3 12 4 13 5 14 6 15 7 16 8 17 9 18 10 19 11 8 12
REMARK SMILES IDX 7 13 6 14 5 15 4 16 3 17 2 18 1 19
REMARK H PARENT
REMARK Flexibility Score: inf
ROOT
ATOM      1  C   UNL     1     147.242 166.204 153.063  1.00  0.00     0.000 C 
ENDROOT
BRANCH   1   2
ATOM      2  C   UNL     1     147.250 165.879 154.568  1.00  0.00     0.000 C 
BRANCH   2   3
ATOM      3  C   UNL     1     145.875 165.420 155.081  1.00  0.00     0.000 C 
BRANCH   3   4
ATOM      4  C   UNL     1     145.943 164.073 155.821  1.00  0.00     0.000 C 
BRANCH   4   5
ATOM      5  C   UNL     1     146.596 162.967 154.977  1.00  0.00     0.001 C 
BRANCH   5   6
ATOM      6  C   UNL     1     147.762 162.272 155.709  1.00  0.00     0.009 C 
BRANCH   6   7
ATOM      7  C   UNL     1     147.932 160.778 155.356  1.00  0.00     0.032 C 
ATOM      8  C   UNL     1     149.126 160.521 154.425  1.00  0.00     0.014 C 
BRANCH   7   9
ATOM      9  C   UNL     1     147.984 159.917 156.590  1.00  0.00     0.044 C 
ATOM     10  O   UNL     1     146.966 159.763 157.318  1.00  0.00    -0.550 OA
ATOM     11  O   UNL     1     149.156 159.242 156.908  1.00  0.00    -0.550 OA
ENDBRANCH   7   9
ENDBRANCH   6   7
ENDBRANCH   5   6
ENDBRANCH   4   5
ENDBRANCH   3   4
ENDBRANCH   2   3
ENDBRANCH   1   2
BRANCH   1  12
ATOM     12  C   UNL     1     146.098 165.506 152.311  1.00  0.00     0.000 C 
BRANCH  12  13
ATOM     13  C   UNL     1     146.300 165.522 150.786  1.00  0.00    -0.000 C 
BRANCH  13  14
ATOM     14  C   UNL     1     146.608 164.128 150.213  1.00  0.00    -0.000 C 
BRANCH  14  15
ATOM     15  C   UNL     1     146.574 163.024 151.285  1.00  0.00    -0.000 C 
BRANCH  15  16
ATOM     16  C   UNL     1     147.979 162.505 151.635  1.00  0.00    -0.000 C 
BRANCH  16  17
ATOM     17  C   UNL     1     149.065 163.086 150.714  1.00  0.00    -0.000 C 
BRANCH  17  18
ATOM     18  C   UNL     1     150.088 163.943 151.478  1.00  0.00    -0.003 C 
ATOM     19  C   UNL     1     149.956 163.813 152.994  1.00  0.00     0.004 C 
ENDBRANCH  17  18
ENDBRANCH  16  17
ENDBRANCH  15  16
ENDBRANCH  14  15
ENDBRANCH  13  14
ENDBRANCH  12  13
ENDBRANCH   1  12
TORSDOF 14
ENDMDL
MODEL 2
REMARK VINA RESULT:    -2.889      3.224      5.330
REMARK INTER + INTRA:          -7.713
REMARK INTER:                  -4.734
REMARK INTRA:                  -2.979
REMARK UNBOUND:                -2.460
REMARK SMILES CCCCCCCCCCCCCC[C@@H](C)C(=O)[O-]
REMARK SMILES IDX 9 1 10 2 11 3 12 4 13 5 14 6 15 7 16 8 17 9 18 10 19 11 8 12
REMARK SMILES IDX 7 13 6 14 5 15 4 16 3 17 2 18 1 19
REMARK H PARENT
REMARK Flexibility Score: inf
ROOT
ATOM      1  C   UNL     1     147.331 163.163 155.688  1.00  0.00     0.000 C 
ENDROOT
BRANCH   1   2
ATOM      2  C   UNL     1     147.327 161.695 155.223  1.00  0.00     0.000 C 
BRANCH   2   3
ATOM      3  C   UNL     1     147.879 161.524 153.799  1.00  0.00     0.000 C 
BRANCH   3   4
ATOM      4  C   UNL     1     146.806 161.751 152.720  1.00  0.00     0.000 C 
BRANCH   4   5
ATOM      5  C   UNL     1     147.341 162.534 151.509  1.00  0.00     0.001 C 
BRANCH   5   6
ATOM      6  C   UNL     1     148.850 162.316 151.281  1.00  0.00     0.009 C 
BRANCH   6   7
ATOM      7  C   UNL     1     149.690 163.612 151.323  1.00  0.00     0.032 C 
ATOM      8  C   UNL     1     150.825 163.549 152.356  1.00  0.00     0.014 C 
BRANCH   7   9
ATOM      9  C   UNL     1     150.194 163.994 149.956  1.00  0.00     0.044 C 
ATOM     10  O   UNL     1     150.035 163.227 148.968  1.00  0.00    -0.550 OA
ATOM     11  O   UNL     1     150.801 165.229 149.768  1.00  0.00    -0.550 OA
ENDBRANCH   7   9
ENDBRANCH   6   7
ENDBRANCH   5   6
ENDBRANCH   4   5
ENDBRANCH   3   4
ENDBRANCH   2   3
ENDBRANCH   1   2
BRANCH   1  12
ATOM     12  C   UNL     1     148.626 163.900 155.312  1.00  0.00     0.000 C 
BRANCH  12  13
ATOM     13  C   UNL     1     148.357 165.252 154.627  1.00  0.00    -0.000 C 
BRANCH  13  14
ATOM     14  C   UNL     1     146.875 165.452 154.269  1.00  0.00    -0.000 C 
BRANCH  14  15
ATOM     15  C   UNL     1     146.666 165.835 152.793  1.00  0.00    -0.000 C 
BRANCH  15  16
ATOM     16  C   UNL     1     147.897 166.531 152.189  1.00  0.00    -0.000 C 
BRANCH  16  17
ATOM     17  C   UNL     1     147.665 166.973 150.734  1.00  0.00    -0.000 C 
BRANCH  17  18
ATOM     18  C   UNL     1     146.512 166.207 150.063  1.00  0.00    -0.003 C 
ATOM     19  C   UNL     1     146.995 165.212 149.009  1.00  0.00     0.004 C 
ENDBRANCH  17  18
ENDBRANCH  16  17
ENDBRANCH  15  16
ENDBRANCH  14  15
ENDBRANCH  13  14
ENDBRANCH  12  13
ENDBRANCH   1  12
TORSDOF 14
ENDMDL
MODEL 3
REMARK VINA RESULT:    -2.870      1.698      2.253
REMARK INTER + INTRA:          -7.679
REMARK INTER:                  -4.902
REMARK INTRA:                  -2.778
REMARK UNBOUND:                -2.460
REMARK SMILES CCCCCCCCCCCCCC[C@@H](C)C(=O)[O-]
REMARK SMILES IDX 9 1 10 2 11 3 12 4 13 5 14 6 15 7 16 8 17 9 18 10 19 11 8 12
REMARK SMILES IDX 7 13 6 14 5 15 4 16 3 17 2 18 1 19
REMARK H PARENT
REMARK Flexibility Score: inf
ROOT
ATOM      1  C   UNL     1     147.029 166.184 153.264  1.00  0.00     0.000 C 
ENDROOT
BRANCH   1   2
ATOM      2  C   UNL     1     146.645 165.979 154.740  1.00  0.00     0.000 C 
BRANCH   2   3
ATOM      3  C   UNL     1     147.820 165.474 155.594  1.00  0.00     0.000 C 
BRANCH   3   4
ATOM      4  C   UNL     1     149.055 165.123 154.746  1.00  0.00     0.000 C 
BRANCH   4   5
ATOM      5  C   UNL     1     149.522 163.673 154.955  1.00  0.00     0.001 C 
BRANCH   5   6
ATOM      6  C   UNL     1     148.999 162.718 153.864  1.00  0.00     0.009 C 
BRANCH   6   7
ATOM      7  C   UNL     1     147.511 162.333 154.019  1.00  0.00     0.032 C 
ATOM      8  C   UNL     1     146.990 161.493 152.843  1.00  0.00     0.014 C 
BRANCH   7   9
ATOM      9  C   UNL     1     147.242 161.672 155.345  1.00  0.00     0.044 C 
ATOM     10  O   UNL     1     146.469 162.202 156.189  1.00  0.00    -0.550 OA
ATOM     11  O   UNL     1     147.815 160.439 155.627  1.00  0.00    -0.550 OA
ENDBRANCH   7   9
ENDBRANCH   6   7
ENDBRANCH   5   6
ENDBRANCH   4   5
ENDBRANCH   3   4
ENDBRANCH   2   3
ENDBRANCH   1   2
BRANCH   1  12
ATOM     12  C   UNL     1     146.174 165.338 152.306  1.00  0.00     0.000 C 
BRANCH  12  13
ATOM     13  C   UNL     1     146.238 165.847 150.855  1.00  0.00    -0.000 C 
BRANCH  13  14
ATOM     14  C   UNL     1     146.612 164.742 149.853  1.00  0.00    -0.000 C 
BRANCH  14  15
ATOM     15  C   UNL     1     147.732 163.823 150.373  1.00  0.00    -0.000 C 
BRANCH  15  16
ATOM     16  C   UNL     1     149.130 164.310 149.957  1.00  0.00    -0.000 C 
BRANCH  16  17
ATOM     17  C   UNL     1     149.876 165.002 151.110  1.00  0.00    -0.000 C 
BRANCH  17  18
ATOM     18  C   UNL     1     150.264 166.452 150.774  1.00  0.00    -0.003 C 
ATOM     19  C   UNL     1     150.303 167.356 152.005  1.00  0.00     0.004 C 
ENDBRANCH  17  18
ENDBRANCH  16  17
ENDBRANCH  15  16
ENDBRANCH  14  15
ENDBRANCH  13  14
ENDBRANCH  12  13
ENDBRANCH   1  12
TORSDOF 14
ENDMDL
MODEL 4
REMARK VINA RESULT:    -2.862      3.934      6.159
REMARK INTER + INTRA:          -7.664
REMARK INTER:                  -4.925
REMARK INTRA:                  -2.739
REMARK UNBOUND:                -2.460
REMARK SMILES CCCCCCCCCCCCCC[C@@H](C)C(=O)[O-]
REMARK SMILES IDX 9 1 10 2 11 3 12 4 13 5 14 6 15 7 16 8 17 9 18 10 19 11 8 12
REMARK SMILES IDX 7 13 6 14 5 15 4 16 3 17 2 18 1 19
REMARK H PARENT
REMARK Flexibility Score: inf
ROOT
ATOM      1  C   UNL     1     147.190 163.275 155.631  1.00  0.00     0.000 C 
ENDROOT
BRANCH   1   2
ATOM      2  C   UNL     1     148.470 164.130 155.644  1.00  0.00     0.000 C 
BRANCH   2   3
ATOM      3  C   UNL     1     148.472 165.211 154.551  1.00  0.00     0.000 C 
BRANCH   3   4
ATOM      4  C   UNL     1     147.151 165.256 153.765  1.00  0.00     0.000 C 
BRANCH   4   5
ATOM      5  C   UNL     1     147.150 166.336 152.670  1.00  0.00     0.001 C 
BRANCH   5   6
ATOM      6  C   UNL     1     146.628 165.810 151.318  1.00  0.00     0.009 C 
BRANCH   6   7
ATOM      7  C   UNL     1     147.649 165.908 150.163  1.00  0.00     0.032 C 
ATOM      8  C   UNL     1     147.444 164.821 149.097  1.00  0.00     0.014 C 
BRANCH   7   9
ATOM      9  C   UNL     1     147.678 167.288 149.561  1.00  0.00     0.044 C 
ATOM     10  O   UNL     1     146.687 167.741 148.927  1.00  0.00    -0.550 OA
ATOM     11  O   UNL     1     148.794 168.094 149.746  1.00  0.00    -0.550 OA
ENDBRANCH   7   9
ENDBRANCH   6   7
ENDBRANCH   5   6
ENDBRANCH   4   5
ENDBRANCH   3   4
ENDBRANCH   2   3
ENDBRANCH   1   2
BRANCH   1  12
ATOM     12  C   UNL     1     147.480 161.776 155.455  1.00  0.00     0.000 C 
BRANCH  12  13
ATOM     13  C   UNL     1     148.986 161.474 155.372  1.00  0.00    -0.000 C 
BRANCH  13  14
ATOM     14  C   UNL     1     149.295 160.215 154.545  1.00  0.00    -0.000 C 
BRANCH  14  15
ATOM     15  C   UNL     1     149.524 160.524 153.054  1.00  0.00    -0.000 C 
BRANCH  15  16
ATOM     16  C   UNL     1     149.762 162.022 152.796  1.00  0.00    -0.000 C 
BRANCH  16  17
ATOM     17  C   UNL     1     148.761 162.609 151.787  1.00  0.00    -0.000 C 
BRANCH  17  18
ATOM     18  C   UNL     1     147.591 161.654 151.495  1.00  0.00    -0.003 C 
ATOM     19  C   UNL     1     146.252 162.184 152.005  1.00  0.00     0.004 C 
ENDBRANCH  17  18
ENDBRANCH  16  17
ENDBRANCH  15  16
ENDBRANCH  14  15
ENDBRANCH  13  14
ENDBRANCH  12  13
ENDBRANCH   1  12
TORSDOF 14
ENDMDL
MODEL 5
REMARK VINA RESULT:    -2.828      1.679      3.011
REMARK INTER + INTRA:          -7.603
REMARK INTER:                  -4.921
REMARK INTRA:                  -2.682
REMARK UNBOUND:                -2.460
REMARK SMILES CCCCCCCCCCCCCC[C@@H](C)C(=O)[O-]
REMARK SMILES IDX 9 1 10 2 11 3 12 4 13 5 14 6 15 7 16 8 17 9 18 10 19 11 8 12
REMARK SMILES IDX 7 13 6 14 5 15 4 16 3 17 2 18 1 19
REMARK H PARENT
REMARK Flexibility Score: inf
ROOT
ATOM      1  C   UNL     1     146.012 164.762 151.268  1.00  0.00     0.000 C 
ENDROOT
BRANCH   1   2
ATOM      2  C   UNL     1     146.211 163.242 151.128  1.00  0.00     0.000 C 
BRANCH   2   3
ATOM      3  C   UNL     1     145.924 162.484 152.434  1.00  0.00     0.000 C 
BRANCH   3   4
ATOM      4  C   UNL     1     147.157 161.729 152.960  1.00  0.00     0.000 C 
BRANCH   4   5
ATOM      5  C   UNL     1     147.333 161.869 154.481  1.00  0.00     0.001 C 
BRANCH   5   6
ATOM      6  C   UNL     1     148.805 161.745 154.923  1.00  0.00     0.009 C 
BRANCH   6   7
ATOM      7  C   UNL     1     149.107 160.493 155.776  1.00  0.00     0.032 C 
ATOM      8  C   UNL     1     147.838 159.849 156.354  1.00  0.00     0.014 C 
BRANCH   7   9
ATOM      9  C   UNL     1     149.951 159.498 155.024  1.00  0.00     0.044 C 
ATOM     10  O   UNL     1     150.091 159.578 153.774  1.00  0.00    -0.550 OA
ATOM     11  O   UNL     1     150.626 158.504 155.722  1.00  0.00    -0.550 OA
ENDBRANCH   7   9
ENDBRANCH   6   7
ENDBRANCH   5   6
ENDBRANCH   4   5
ENDBRANCH   3   4
ENDBRANCH   2   3
ENDBRANCH   1   2
BRANCH   1  12
ATOM     12  C   UNL     1     145.922 165.215 152.733  1.00  0.00     0.000 C 
BRANCH  12  13
ATOM     13  C   UNL     1     147.083 166.143 153.134  1.00  0.00    -0.000 C 
BRANCH  13  14
ATOM     14  C   UNL     1     148.323 165.371 153.614  1.00  0.00    -0.000 C 
BRANCH  14  15
ATOM     15  C   UNL     1     149.475 165.403 152.594  1.00  0.00    -0.000 C 
BRANCH  15  16
ATOM     16  C   UNL     1     150.045 164.003 152.310  1.00  0.00    -0.000 C 
BRANCH  16  17
ATOM     17  C   UNL     1     149.851 163.578 150.844  1.00  0.00    -0.000 C 
BRANCH  17  18
ATOM     18  C   UNL     1     149.519 164.766 149.926  1.00  0.00    -0.003 C 
ATOM     19  C   UNL     1     148.789 164.344 148.652  1.00  0.00     0.004 C 
ENDBRANCH  17  18
ENDBRANCH  16  17
ENDBRANCH  15  16
ENDBRANCH  14  15
ENDBRANCH  13  14
ENDBRANCH  12  13
ENDBRANCH   1  12
TORSDOF 14
ENDMDL
MODEL 6
REMARK VINA RESULT:    -2.817      3.560      5.785
REMARK INTER + INTRA:          -7.583
REMARK INTER:                  -4.617
REMARK INTRA:                  -2.966
REMARK UNBOUND:                -2.460
REMARK SMILES CCCCCCCCCCCCCC[C@@H](C)C(=O)[O-]
REMARK SMILES IDX 9 1 10 2 11 3 12 4 13 5 14 6 15 7 16 8 17 9 18 10 19 11 8 12
REMARK SMILES IDX 7 13 6 14 5 15 4 16 3 17 2 18 1 19
REMARK H PARENT
REMARK Flexibility Score: inf
ROOT
ATOM      1  C   UNL     1     146.238 163.077 151.229  1.00  0.00     0.000 C 
ENDROOT
BRANCH   1   2
ATOM      2  C   UNL     1     146.497 161.995 152.294  1.00  0.00     0.000 C 
BRANCH   2   3
ATOM      3  C   UNL     1     147.676 161.078 151.931  1.00  0.00     0.000 C 
BRANCH   3   4
ATOM      4  C   UNL     1     148.892 161.291 152.850  1.00  0.00     0.000 C 
BRANCH   4   5
ATOM      5  C   UNL     1     150.147 161.730 152.078  1.00  0.00     0.001 C 
BRANCH   5   6
ATOM      6  C   UNL     1     149.869 161.973 150.581  1.00  0.00     0.009 C 
BRANCH   6   7
ATOM      7  C   UNL     1     150.773 163.046 149.935  1.00  0.00     0.032 C 
ATOM      8  C   UNL     1     151.505 163.908 150.974  1.00  0.00     0.014 C 
BRANCH   7   9
ATOM      9  C   UNL     1     151.722 162.446 148.932  1.00  0.00     0.044 C 
ATOM     10  O   UNL     1     152.905 162.867 148.824  1.00  0.00    -0.550 OA
ATOM     11  O   UNL     1     151.305 161.379 148.145  1.00  0.00    -0.550 OA
ENDBRANCH   7   9
ENDBRANCH   6   7
ENDBRANCH   5   6
ENDBRANCH   4   5
ENDBRANCH   3   4
ENDBRANCH   2   3
ENDBRANCH   1   2
BRANCH   1  12
ATOM     12  C   UNL     1     146.473 164.500 151.761  1.00  0.00     0.000 C 
BRANCH  12  13
ATOM     13  C   UNL     1     147.945 164.935 151.647  1.00  0.00    -0.000 C 
BRANCH  13  14
ATOM     14  C   UNL     1     148.431 165.716 152.878  1.00  0.00    -0.000 C 
BRANCH  14  15
ATOM     15  C   UNL     1     149.202 164.833 153.876  1.00  0.00    -0.000 C 
BRANCH  15  16
ATOM     16  C   UNL     1     148.540 164.801 155.264  1.00  0.00    -0.000 C 
BRANCH  16  17
ATOM     17  C   UNL     1     147.572 163.617 155.424  1.00  0.00    -0.000 C 
BRANCH  17  18
ATOM     18  C   UNL     1     146.099 164.060 155.450  1.00  0.00    -0.003 C 
ATOM     19  C   UNL     1     145.936 165.563 155.664  1.00  0.00     0.004 C 
ENDBRANCH  17  18
ENDBRANCH  16  17
ENDBRANCH  15  16
ENDBRANCH  14  15
ENDBRANCH  13  14
ENDBRANCH  12  13
ENDBRANCH   1  12
TORSDOF 14
ENDMDL
MODEL 7
REMARK VINA RESULT:    -2.807      2.073      3.939
REMARK INTER + INTRA:          -7.565
REMARK INTER:                  -4.728
REMARK INTRA:                  -2.837
REMARK UNBOUND:                -2.460
REMARK SMILES CCCCCCCCCCCCCC[C@@H](C)C(=O)[O-]
REMARK SMILES IDX 9 1 10 2 11 3 12 4 13 5 14 6 15 7 16 8 17 9 18 10 19 11 8 12
REMARK SMILES IDX 7 13 6 14 5 15 4 16 3 17 2 18 1 19
REMARK H PARENT
REMARK Flexibility Score: inf
ROOT
ATOM      1  C   UNL     1     145.889 165.057 153.640  1.00  0.00     0.000 C 
ENDROOT
BRANCH   1   2
ATOM      2  C   UNL     1     146.666 165.919 152.628  1.00  0.00     0.000 C 
BRANCH   2   3
ATOM      3  C   UNL     1     147.610 165.088 151.744  1.00  0.00     0.000 C 
BRANCH   3   4
ATOM      4  C   UNL     1     147.249 163.592 151.740  1.00  0.00     0.000 C 
BRANCH   4   5
ATOM      5  C   UNL     1     148.404 162.706 151.244  1.00  0.00     0.001 C 
BRANCH   5   6
ATOM      6  C   UNL     1     148.534 161.397 152.047  1.00  0.00     0.009 C 
BRANCH   6   7
ATOM      7  C   UNL     1     149.725 160.508 151.622  1.00  0.00     0.032 C 
ATOM      8  C   UNL     1     150.775 161.276 150.806  1.00  0.00     0.014 C 
BRANCH   7   9
ATOM      9  C   UNL     1     150.336 159.796 152.799  1.00  0.00     0.044 C 
ATOM     10  O   UNL     1     149.813 159.866 153.944  1.00  0.00    -0.550 OA
ATOM     11  O   UNL     1     151.467 159.009 152.614  1.00  0.00    -0.550 OA
ENDBRANCH   7   9
ENDBRANCH   6   7
ENDBRANCH   5   6
ENDBRANCH   4   5
ENDBRANCH   3   4
ENDBRANCH   2   3
ENDBRANCH   1   2
BRANCH   1  12
ATOM     12  C   UNL     1     146.260 165.375 155.097  1.00  0.00     0.000 C 
BRANCH  12  13
ATOM     13  C   UNL     1     147.698 164.952 155.444  1.00  0.00    -0.000 C 
BRANCH  13  14
ATOM     14  C   UNL     1     147.901 163.429 155.381  1.00  0.00    -0.000 C 
BRANCH  14  15
ATOM     15  C   UNL     1     149.384 163.031 155.275  1.00  0.00    -0.000 C 
BRANCH  15  16
ATOM     16  C   UNL     1     150.267 164.187 154.778  1.00  0.00    -0.000 C 
BRANCH  16  17
ATOM     17  C   UNL     1     151.125 163.790 153.564  1.00  0.00    -0.000 C 
BRANCH  17  18
ATOM     18  C   UNL     1     151.162 164.885 152.485  1.00  0.00    -0.003 C 
ATOM     19  C   UNL     1     150.927 166.284 153.053  1.00  0.00     0.004 C 
ENDBRANCH  17  18
ENDBRANCH  16  17
ENDBRANCH  15  16
ENDBRANCH  14  15
ENDBRANCH  13  14
ENDBRANCH  12  13
ENDBRANCH   1  12
TORSDOF 14
ENDMDL
MODEL 8
REMARK VINA RESULT:    -2.796      2.922      4.596
REMARK INTER + INTRA:          -7.545
REMARK INTER:                  -4.758
REMARK INTRA:                  -2.787
REMARK UNBOUND:                -2.460
REMARK SMILES CCCCCCCCCCCCCC[C@@H](C)C(=O)[O-]
REMARK SMILES IDX 9 1 10 2 11 3 12 4 13 5 14 6 15 7 16 8 17 9 18 10 19 11 8 12
REMARK SMILES IDX 7 13 6 14 5 15 4 16 3 17 2 18 1 19
REMARK H PARENT
REMARK Flexibility Score: inf
ROOT
ATOM      1  C   UNL     1     147.223 165.459 151.223  1.00  0.00     0.000 C 
ENDROOT
BRANCH   1   2
ATOM      2  C   UNL     1     146.100 164.581 151.805  1.00  0.00     0.000 C 
BRANCH   2   3
ATOM      3  C   UNL     1     146.255 163.097 151.433  1.00  0.00     0.000 C 
BRANCH   3   4
ATOM      4  C   UNL     1     146.044 162.163 152.637  1.00  0.00     0.000 C 
BRANCH   4   5
ATOM      5  C   UNL     1     147.356 161.536 153.136  1.00  0.00     0.001 C 
BRANCH   5   6
ATOM      6  C   UNL     1     148.333 161.211 151.988  1.00  0.00     0.009 C 
BRANCH   6   7
ATOM      7  C   UNL     1     149.823 161.236 152.398  1.00  0.00     0.032 C 
ATOM      8  C   UNL     1     150.283 159.920 153.042  1.00  0.00     0.014 C 
BRANCH   7   9
ATOM      9  C   UNL     1     150.709 161.642 151.250  1.00  0.00     0.044 C 
ATOM     10  O   UNL     1     150.290 161.608 150.062  1.00  0.00    -0.550 OA
ATOM     11  O   UNL     1     151.993 162.107 151.506  1.00  0.00    -0.550 OA
ENDBRANCH   7   9
ENDBRANCH   6   7
ENDBRANCH   5   6
ENDBRANCH   4   5
ENDBRANCH   3   4
ENDBRANCH   2   3
ENDBRANCH   1   2
BRANCH   1  12
ATOM     12  C   UNL     1     148.505 164.664 150.931  1.00  0.00     0.000 C 
BRANCH  12  13
ATOM     13  C   UNL     1     149.745 165.278 151.606  1.00  0.00    -0.000 C 
BRANCH  13  14
ATOM     14  C   UNL     1     149.436 165.868 152.992  1.00  0.00    -0.000 C 
BRANCH  14  15
ATOM     15  C   UNL     1     149.718 164.877 154.136  1.00  0.00    -0.000 C 
BRANCH  15  16
ATOM     16  C   UNL     1     148.431 164.416 154.841  1.00  0.00    -0.000 C 
BRANCH  16  17
ATOM     17  C   UNL     1     147.555 165.596 155.294  1.00  0.00    -0.000 C 
BRANCH  17  18
ATOM     18  C   UNL     1     146.074 165.209 155.438  1.00  0.00    -0.003 C 
ATOM     19  C   UNL     1     145.875 163.903 156.205  1.00  0.00     0.004 C 
ENDBRANCH  17  18
ENDBRANCH  16  17
ENDBRANCH  15  16
ENDBRANCH  14  15
ENDBRANCH  13  14
ENDBRANCH  12  13
ENDBRANCH   1  12
TORSDOF 14
ENDMDL
