MODEL 1
REMARK VINA RESULT:    -5.498      0.000      0.000
REMARK INTER + INTRA:          -9.532
REMARK INTER:                  -8.552
REMARK INTRA:                  -0.980
REMARK UNBOUND:                -0.980
REMARK SMILES C[C@]12C[C@]3(O)O[C@H](O1)[C@@]1(COC(=O)c4ccccc4)[C@@H]3C[C@]12O[C@H]1O[C@H](CO)[C@@H](O)[C@@H](O)[C@H]1O
REMARK SMILES IDX 1 1 2 2 3 3 4 4 20 5 21 6 22 7 9 8 7 9 8 10 6 11 23 12 24 13
REMARK SMILES IDX 33 14 25 15 31 16 26 17 29 18 34 19 32 21 27 23 28 24 30 26
REMARK SMILES IDX 5 28 10 30 11 31 12 32 13 33 14 34 15 35 19 36 16 37 18 38
REMARK SMILES IDX 17 39
REMARK H PARENT 34 20 32 22 28 25 30 27 5 29
REMARK Flexibility Score: inf
ROOT
ATOM      1  C   UNL     1      42.228  -1.451 -47.359  1.00  0.00     0.046 C 
ATOM      2  C   UNL     1      43.575  -2.058 -47.783  1.00  0.00     0.104 C 
ATOM      3  C   UNL     1      43.455  -2.755 -49.197  1.00  0.00     0.104 C 
ATOM      4  C   UNL     1      44.919  -3.214 -49.509  1.00  0.00     0.175 C 
ATOM      5  C   UNL     1      45.909  -2.034 -49.281  1.00  0.00     0.070 C 
ATOM      6  C   UNL     1      45.210  -0.663 -49.215  1.00  0.00     0.050 C 
ATOM      7  C   UNL     1      44.786  -1.046 -47.786  1.00  0.00     0.115 C 
ATOM      8  C   UNL     1      45.942  -2.054 -47.753  1.00  0.00     0.096 C 
ATOM      9  C   UNL     1      45.323  -3.382 -47.330  1.00  0.00     0.267 C 
ATOM     10  O   UNL     1      43.995  -3.086 -46.903  1.00  0.00    -0.342 OA
ATOM     11  O   UNL     1      45.257  -4.164 -48.515  1.00  0.00    -0.320 OA
ENDROOT
BRANCH   7  12
ATOM     12  O   UNL     1      44.754   0.072 -46.896  1.00  0.00    -0.339 OA
BRANCH  12  13
ATOM     13  C   UNL     1      44.490   1.321 -47.521  1.00  0.00     0.282 C 
ATOM     14  C   UNL     1      45.716   2.286 -47.411  1.00  0.00     0.202 C 
ATOM     15  O   UNL     1      43.315   1.875 -46.955  1.00  0.00    -0.341 OA
ATOM     16  C   UNL     1      45.235   3.736 -47.164  1.00  0.00     0.179 C 
ATOM     17  C   UNL     1      43.568   2.493 -45.706  1.00  0.00     0.178 C 
ATOM     18  C   UNL     1      44.304   3.829 -45.922  1.00  0.00     0.177 C 
BRANCH  14  19
ATOM     19  O   UNL     1      46.587   1.878 -46.382  1.00  0.00    -0.385 OA
ATOM     20  H   UNL     1      46.906   0.972 -46.625  1.00  0.00     0.211 HD
ENDBRANCH  14  19
BRANCH  16  21
ATOM     21  O   UNL     1      46.326   4.613 -47.034  1.00  0.00    -0.387 OA
ATOM     22  H   UNL     1      46.881   4.279 -46.273  1.00  0.00     0.211 HD
ENDBRANCH  16  21
BRANCH  17  23
ATOM     23  C   UNL     1      42.244   2.663 -44.954  1.00  0.00     0.191 C 
BRANCH  23  24
ATOM     24  O   UNL     1      42.257   1.960 -43.736  1.00  0.00    -0.394 OA
ATOM     25  H   UNL     1      42.589   1.045 -43.946  1.00  0.00     0.210 HD
ENDBRANCH  23  24
ENDBRANCH  17  23
BRANCH  18  26
ATOM     26  O   UNL     1      45.046   4.137 -44.766  1.00  0.00    -0.387 OA
ATOM     27  H   UNL     1      45.957   3.762 -44.884  1.00  0.00     0.211 HD
ENDBRANCH  18  26
ENDBRANCH  12  13
ENDBRANCH   7  12
BRANCH   4  28
ATOM     28  O   UNL     1      45.042  -3.753 -50.801  1.00  0.00    -0.365 OA
ATOM     29  H   UNL     1      44.171  -4.184 -51.007  1.00  0.00     0.214 HD
ENDBRANCH   4  28
BRANCH   8  30
ATOM     30  C   UNL     1      47.322  -1.679 -47.176  1.00  0.00     0.249 C 
BRANCH  30  31
ATOM     31  O   UNL     1      47.536  -2.349 -45.932  1.00  0.00    -0.461 OA
BRANCH  31  32
ATOM     32  C   UNL     1      47.286  -1.758 -44.682  1.00  0.00     0.338 C 
ATOM     33  O   UNL     1      47.080  -0.511 -44.598  1.00  0.00    -0.246 OA
BRANCH  32  34
ATOM     34  C   UNL     1      47.286  -2.580 -43.452  1.00  0.00     0.060 A 
ATOM     35  C   UNL     1      47.058  -3.966 -43.519  1.00  0.00     0.015 A 
ATOM     36  C   UNL     1      47.521  -1.993 -42.196  1.00  0.00     0.015 A 
ATOM     37  C   UNL     1      47.054  -4.747 -42.359  1.00  0.00     0.001 A 
ATOM     38  C   UNL     1      47.533  -2.780 -41.037  1.00  0.00     0.001 A 
ATOM     39  C   UNL     1      47.305  -4.157 -41.117  1.00  0.00     0.000 A 
ENDBRANCH  32  34
ENDBRANCH  31  32
ENDBRANCH  30  31
ENDBRANCH   8  30
TORSDOF 12
ENDMDL
MODEL 2
REMARK VINA RESULT:    -5.398      3.207      6.220
REMARK INTER + INTRA:          -9.377
REMARK INTER:                  -8.477
REMARK INTRA:                  -0.900
REMARK UNBOUND:                -0.980
REMARK SMILES C[C@]12C[C@]3(O)O[C@H](O1)[C@@]1(COC(=O)c4ccccc4)[C@@H]3C[C@]12O[C@H]1O[C@H](CO)[C@@H](O)[C@@H](O)[C@H]1O
REMARK SMILES IDX 1 1 2 2 3 3 4 4 20 5 21 6 22 7 9 8 7 9 8 10 6 11 23 12 24 13
REMARK SMILES IDX 33 14 25 15 31 16 26 17 29 18 34 19 32 21 27 23 28 24 30 26
REMARK SMILES IDX 5 28 10 30 11 31 12 32 13 33 14 34 15 35 19 36 16 37 18 38
REMARK SMILES IDX 17 39
REMARK H PARENT 34 20 32 22 28 25 30 27 5 29
REMARK Flexibility Score: inf
ROOT
ATOM      1  C   UNL     1      48.623   2.797 -47.037  1.00  0.00     0.046 C 
ATOM      2  C   UNL     1      49.006   3.110 -45.581  1.00  0.00     0.104 C 
ATOM      3  C   UNL     1      49.794   4.477 -45.491  1.00  0.00     0.104 C 
ATOM      4  C   UNL     1      50.005   4.683 -43.953  1.00  0.00     0.175 C 
ATOM      5  C   UNL     1      48.656   4.485 -43.199  1.00  0.00     0.070 C 
ATOM      6  C   UNL     1      47.430   4.548 -44.127  1.00  0.00     0.050 C 
ATOM      7  C   UNL     1      47.798   3.120 -44.567  1.00  0.00     0.115 C 
ATOM      8  C   UNL     1      48.582   2.960 -43.258  1.00  0.00     0.096 C 
ATOM      9  C   UNL     1      49.972   2.480 -43.662  1.00  0.00     0.267 C 
ATOM     10  O   UNL     1      49.891   2.142 -45.045  1.00  0.00    -0.342 OA
ATOM     11  O   UNL     1      50.820   3.611 -43.518  1.00  0.00    -0.320 OA
ENDROOT
BRANCH   7  12
ATOM     12  O   UNL     1      46.654   2.311 -44.847  1.00  0.00    -0.339 OA
BRANCH  12  13
ATOM     13  C   UNL     1      45.475   3.039 -45.163  1.00  0.00     0.282 C 
ATOM     14  C   UNL     1      44.304   2.683 -44.190  1.00  0.00     0.202 C 
ATOM     15  O   UNL     1      45.141   2.800 -46.520  1.00  0.00    -0.341 OA
ATOM     16  C   UNL     1      42.963   2.627 -44.962  1.00  0.00     0.179 C 
ATOM     17  C   UNL     1      44.484   1.557 -46.693  1.00  0.00     0.178 C 
ATOM     18  C   UNL     1      43.037   1.651 -46.171  1.00  0.00     0.177 C 
BRANCH  14  19
ATOM     19  O   UNL     1      44.545   1.456 -43.541  1.00  0.00    -0.385 OA
ATOM     20  H   UNL     1      45.329   1.048 -43.989  1.00  0.00     0.211 HD
ENDBRANCH  14  19
BRANCH  16  21
ATOM     21  O   UNL     1      41.903   2.279 -44.107  1.00  0.00    -0.387 OA
ATOM     22  H   UNL     1      42.296   1.754 -43.352  1.00  0.00     0.211 HD
ENDBRANCH  16  21
BRANCH  17  23
ATOM     23  C   UNL     1      44.554   1.155 -48.170  1.00  0.00     0.191 C 
BRANCH  23  24
ATOM     24  O   UNL     1      43.286   0.793 -48.659  1.00  0.00    -0.394 OA
ATOM     25  H   UNL     1      43.231  -0.198 -48.586  1.00  0.00     0.210 HD
ENDBRANCH  23  24
ENDBRANCH  17  23
BRANCH  18  26
ATOM     26  O   UNL     1      42.597   0.366 -45.801  1.00  0.00    -0.387 OA
ATOM     27  H   UNL     1      42.366  -0.123 -46.633  1.00  0.00     0.211 HD
ENDBRANCH  18  26
ENDBRANCH  12  13
ENDBRANCH   7  12
BRANCH   4  28
ATOM     28  O   UNL     1      50.587   5.927 -43.658  1.00  0.00    -0.365 OA
ATOM     29  H   UNL     1      50.496   6.051 -42.676  1.00  0.00     0.214 HD
ENDBRANCH   4  28
BRANCH   8  30
ATOM     30  C   UNL     1      47.936   2.340 -42.002  1.00  0.00     0.249 C 
BRANCH  30  31
ATOM     31  O   UNL     1      48.420   1.009 -41.803  1.00  0.00    -0.461 OA
BRANCH  31  32
ATOM     32  C   UNL     1      47.708   0.026 -41.095  1.00  0.00     0.338 C 
ATOM     33  O   UNL     1      47.219   0.290 -39.957  1.00  0.00    -0.246 OA
BRANCH  32  34
ATOM     34  C   UNL     1      47.547  -1.331 -41.660  1.00  0.00     0.060 A 
ATOM     35  C   UNL     1      47.504  -2.456 -40.816  1.00  0.00     0.015 A 
ATOM     36  C   UNL     1      47.425  -1.523 -43.048  1.00  0.00     0.015 A 
ATOM     37  C   UNL     1      47.354  -3.742 -41.346  1.00  0.00     0.001 A 
ATOM     38  C   UNL     1      47.258  -2.810 -43.575  1.00  0.00     0.001 A 
ATOM     39  C   UNL     1      47.217  -3.919 -42.725  1.00  0.00     0.000 A 
ENDBRANCH  32  34
ENDBRANCH  31  32
ENDBRANCH  30  31
ENDBRANCH   8  30
TORSDOF 12
ENDMDL
MODEL 3
REMARK VINA RESULT:    -5.375     10.793     13.910
REMARK INTER + INTRA:          -9.341
REMARK INTER:                  -8.279
REMARK INTRA:                  -1.062
REMARK UNBOUND:                -0.980
REMARK SMILES C[C@]12C[C@]3(O)O[C@H](O1)[C@@]1(COC(=O)c4ccccc4)[C@@H]3C[C@]12O[C@H]1O[C@H](CO)[C@@H](O)[C@@H](O)[C@H]1O
REMARK SMILES IDX 1 1 2 2 3 3 4 4 20 5 21 6 22 7 9 8 7 9 8 10 6 11 23 12 24 13
REMARK SMILES IDX 33 14 25 15 31 16 26 17 29 18 34 19 32 21 27 23 28 24 30 26
REMARK SMILES IDX 5 28 10 30 11 31 12 32 13 33 14 34 15 35 19 36 16 37 18 38
REMARK SMILES IDX 17 39
REMARK H PARENT 34 20 32 22 28 25 30 27 5 29
REMARK Flexibility Score: inf
ROOT
ATOM      1  C   UNL     1      57.510   0.647 -46.502  1.00  0.00     0.046 C 
ATOM      2  C   UNL     1      56.840   0.884 -47.867  1.00  0.00     0.104 C 
ATOM      3  C   UNL     1      56.877   2.417 -48.250  1.00  0.00     0.104 C 
ATOM      4  C   UNL     1      56.260   2.455 -49.688  1.00  0.00     0.175 C 
ATOM      5  C   UNL     1      56.947   1.388 -50.591  1.00  0.00     0.070 C 
ATOM      6  C   UNL     1      58.277   0.872 -50.013  1.00  0.00     0.050 C 
ATOM      7  C   UNL     1      57.428   0.022 -49.051  1.00  0.00     0.115 C 
ATOM      8  C   UNL     1      56.259   0.141 -50.037  1.00  0.00     0.096 C 
ATOM      9  C   UNL     1      55.072   0.637 -49.217  1.00  0.00     0.267 C 
ATOM     10  O   UNL     1      55.466   0.544 -47.850  1.00  0.00    -0.342 OA
ATOM     11  O   UNL     1      54.923   2.008 -49.557  1.00  0.00    -0.320 OA
ENDROOT
BRANCH   7  12
ATOM     12  O   UNL     1      58.020  -1.244 -48.756  1.00  0.00    -0.339 OA
BRANCH  12  13
ATOM     13  C   UNL     1      59.374  -1.377 -49.167  1.00  0.00     0.282 C 
ATOM     14  C   UNL     1      59.538  -2.498 -50.245  1.00  0.00     0.202 C 
ATOM     15  O   UNL     1      60.179  -1.606 -48.023  1.00  0.00    -0.341 OA
ATOM     16  C   UNL     1      60.851  -3.283 -50.007  1.00  0.00     0.179 C 
ATOM     17  C   UNL     1      60.121  -2.955 -47.596  1.00  0.00     0.178 C 
ATOM     18  C   UNL     1      60.930  -3.846 -48.559  1.00  0.00     0.177 C 
BRANCH  14  19
ATOM     19  O   UNL     1      58.436  -3.375 -50.229  1.00  0.00    -0.385 OA
ATOM     20  H   UNL     1      58.746  -4.225 -50.633  1.00  0.00     0.211 HD
ENDBRANCH  14  19
BRANCH  16  21
ATOM     21  O   UNL     1      61.000  -4.314 -50.950  1.00  0.00    -0.387 OA
ATOM     22  H   UNL     1      60.248  -4.957 -50.802  1.00  0.00     0.211 HD
ENDBRANCH  16  21
BRANCH  17  23
ATOM     23  C   UNL     1      60.619  -3.045 -46.150  1.00  0.00     0.191 C 
BRANCH  23  24
ATOM     24  O   UNL     1      60.962  -4.366 -45.811  1.00  0.00    -0.394 OA
ATOM     25  H   UNL     1      61.483  -4.311 -44.964  1.00  0.00     0.210 HD
ENDBRANCH  23  24
ENDBRANCH  17  23
BRANCH  18  26
ATOM     26  O   UNL     1      60.423  -5.158 -48.508  1.00  0.00    -0.387 OA
ATOM     27  H   UNL     1      60.869  -5.623 -47.752  1.00  0.00     0.211 HD
ENDBRANCH  18  26
ENDBRANCH  12  13
ENDBRANCH   7  12
BRANCH   4  28
ATOM     28  O   UNL     1      56.322   3.737 -50.260  1.00  0.00    -0.365 OA
ATOM     29  H   UNL     1      57.239   4.076 -50.082  1.00  0.00     0.214 HD
ENDBRANCH   4  28
BRANCH   8  30
ATOM     30  C   UNL     1      56.001  -0.933 -51.114  1.00  0.00     0.249 C 
BRANCH  30  31
ATOM     31  O   UNL     1      54.842  -1.700 -50.779  1.00  0.00    -0.461 OA
BRANCH  31  32
ATOM     32  C   UNL     1      54.898  -3.037 -50.351  1.00  0.00     0.338 C 
ATOM     33  O   UNL     1      55.688  -3.374 -49.419  1.00  0.00    -0.246 OA
BRANCH  32  34
ATOM     34  C   UNL     1      54.057  -4.066 -51.000  1.00  0.00     0.060 A 
ATOM     35  C   UNL     1      53.772  -3.992 -52.376  1.00  0.00     0.015 A 
ATOM     36  C   UNL     1      53.534  -5.140 -50.258  1.00  0.00     0.015 A 
ATOM     37  C   UNL     1      52.975  -4.961 -52.993  1.00  0.00     0.001 A 
ATOM     38  C   UNL     1      52.749  -6.118 -50.882  1.00  0.00     0.001 A 
ATOM     39  C   UNL     1      52.473  -6.033 -52.250  1.00  0.00     0.000 A 
ENDBRANCH  32  34
ENDBRANCH  31  32
ENDBRANCH  30  31
ENDBRANCH   8  30
TORSDOF 12
ENDMDL
MODEL 4
REMARK VINA RESULT:    -5.245     11.179     13.759
REMARK INTER + INTRA:          -9.138
REMARK INTER:                  -8.049
REMARK INTRA:                  -1.089
REMARK UNBOUND:                -0.980
REMARK SMILES C[C@]12C[C@]3(O)O[C@H](O1)[C@@]1(COC(=O)c4ccccc4)[C@@H]3C[C@]12O[C@H]1O[C@H](CO)[C@@H](O)[C@@H](O)[C@H]1O
REMARK SMILES IDX 1 1 2 2 3 3 4 4 20 5 21 6 22 7 9 8 7 9 8 10 6 11 23 12 24 13
REMARK SMILES IDX 33 14 25 15 31 16 26 17 29 18 34 19 32 21 27 23 28 24 30 26
REMARK SMILES IDX 5 28 10 30 11 31 12 32 13 33 14 34 15 35 19 36 16 37 18 38
REMARK SMILES IDX 17 39
REMARK H PARENT 34 20 32 22 28 25 30 27 5 29
REMARK Flexibility Score: inf
ROOT
ATOM      1  C   UNL     1      61.769  -3.960 -47.585  1.00  0.00     0.046 C 
ATOM      2  C   UNL     1      60.723  -4.708 -46.740  1.00  0.00     0.104 C 
ATOM      3  C   UNL     1      61.427  -5.617 -45.655  1.00  0.00     0.104 C 
ATOM      4  C   UNL     1      60.231  -6.207 -44.835  1.00  0.00     0.175 C 
ATOM      5  C   UNL     1      59.259  -5.066 -44.413  1.00  0.00     0.070 C 
ATOM      6  C   UNL     1      59.883  -3.664 -44.532  1.00  0.00     0.050 C 
ATOM      7  C   UNL     1      59.648  -3.783 -46.049  1.00  0.00     0.115 C 
ATOM      8  C   UNL     1      58.573  -4.839 -45.760  1.00  0.00     0.096 C 
ATOM      9  C   UNL     1      58.930  -6.042 -46.628  1.00  0.00     0.267 C 
ATOM     10  O   UNL     1      59.951  -5.602 -47.520  1.00  0.00    -0.342 OA
ATOM     11  O   UNL     1      59.484  -7.001 -45.738  1.00  0.00    -0.320 OA
ENDROOT
BRANCH   7  12
ATOM     12  O   UNL     1      59.313  -2.536 -46.660  1.00  0.00    -0.339 OA
BRANCH  12  13
ATOM     13  C   UNL     1      59.466  -2.508 -48.073  1.00  0.00     0.282 C 
ATOM     14  C   UNL     1      59.854  -1.080 -48.579  1.00  0.00     0.202 C 
ATOM     15  O   UNL     1      58.274  -2.987 -48.672  1.00  0.00    -0.341 OA
ATOM     16  C   UNL     1      59.134  -0.770 -49.913  1.00  0.00     0.179 C 
ATOM     17  C   UNL     1      57.264  -1.996 -48.708  1.00  0.00     0.178 C 
ATOM     18  C   UNL     1      57.594  -0.950 -49.791  1.00  0.00     0.177 C 
BRANCH  14  19
ATOM     19  O   UNL     1      59.537  -0.102 -47.615  1.00  0.00    -0.385 OA
ATOM     20  H   UNL     1      58.552  -0.003 -47.626  1.00  0.00     0.211 HD
ENDBRANCH  14  19
BRANCH  16  21
ATOM     21  O   UNL     1      59.448   0.522 -50.368  1.00  0.00    -0.387 OA
ATOM     22  H   UNL     1      59.314   1.145 -49.597  1.00  0.00     0.211 HD
ENDBRANCH  16  21
BRANCH  17  23
ATOM     23  C   UNL     1      55.907  -2.671 -48.934  1.00  0.00     0.191 C 
BRANCH  23  24
ATOM     24  O   UNL     1      56.012  -4.070 -48.838  1.00  0.00    -0.394 OA
ATOM     25  H   UNL     1      56.439  -4.258 -47.958  1.00  0.00     0.210 HD
ENDBRANCH  23  24
ENDBRANCH  17  23
BRANCH  18  26
ATOM     26  O   UNL     1      56.975   0.269 -49.456  1.00  0.00    -0.387 OA
ATOM     27  H   UNL     1      57.236   0.937 -50.142  1.00  0.00     0.211 HD
ENDBRANCH  18  26
ENDBRANCH  12  13
ENDBRANCH   7  12
BRANCH   4  28
ATOM     28  O   UNL     1      60.665  -6.955 -43.726  1.00  0.00    -0.365 OA
ATOM     29  H   UNL     1      60.565  -7.910 -43.980  1.00  0.00     0.214 HD
ENDBRANCH   4  28
BRANCH   8  30
ATOM     30  C   UNL     1      57.085  -4.458 -45.622  1.00  0.00     0.249 C 
BRANCH  30  31
ATOM     31  O   UNL     1      56.257  -5.511 -46.122  1.00  0.00    -0.461 OA
BRANCH  31  32
ATOM     32  C   UNL     1      54.862  -5.539 -45.961  1.00  0.00     0.338 C 
ATOM     33  O   UNL     1      54.125  -4.774 -46.652  1.00  0.00    -0.246 OA
BRANCH  32  34
ATOM     34  C   UNL     1      54.243  -6.441 -44.966  1.00  0.00     0.060 A 
ATOM     35  C   UNL     1      53.751  -7.702 -45.352  1.00  0.00     0.015 A 
ATOM     36  C   UNL     1      54.140  -6.061 -43.615  1.00  0.00     0.015 A 
ATOM     37  C   UNL     1      53.162  -8.557 -44.415  1.00  0.00     0.001 A 
ATOM     38  C   UNL     1      53.565  -6.926 -42.676  1.00  0.00     0.001 A 
ATOM     39  C   UNL     1      53.081  -8.176 -43.073  1.00  0.00     0.000 A 
ENDBRANCH  32  34
ENDBRANCH  31  32
ENDBRANCH  30  31
ENDBRANCH   8  30
TORSDOF 12
ENDMDL
MODEL 5
REMARK VINA RESULT:    -5.232     10.064     13.366
REMARK INTER + INTRA:          -9.118
REMARK INTER:                  -8.036
REMARK INTRA:                  -1.081
REMARK UNBOUND:                -0.980
REMARK SMILES C[C@]12C[C@]3(O)O[C@H](O1)[C@@]1(COC(=O)c4ccccc4)[C@@H]3C[C@]12O[C@H]1O[C@H](CO)[C@@H](O)[C@@H](O)[C@H]1O
REMARK SMILES IDX 1 1 2 2 3 3 4 4 20 5 21 6 22 7 9 8 7 9 8 10 6 11 23 12 24 13
REMARK SMILES IDX 33 14 25 15 31 16 26 17 29 18 34 19 32 21 27 23 28 24 30 26
REMARK SMILES IDX 5 28 10 30 11 31 12 32 13 33 14 34 15 35 19 36 16 37 18 38
REMARK SMILES IDX 17 39
REMARK H PARENT 34 20 32 22 28 25 30 27 5 29
REMARK Flexibility Score: inf
ROOT
ATOM      1  C   UNL     1      56.522  -7.924 -47.319  1.00  0.00     0.046 C 
ATOM      2  C   UNL     1      55.319  -6.975 -47.184  1.00  0.00     0.104 C 
ATOM      3  C   UNL     1      54.257  -7.561 -46.170  1.00  0.00     0.104 C 
ATOM      4  C   UNL     1      53.173  -6.435 -46.078  1.00  0.00     0.175 C 
ATOM      5  C   UNL     1      53.854  -5.059 -45.816  1.00  0.00     0.070 C 
ATOM      6  C   UNL     1      55.305  -5.188 -45.320  1.00  0.00     0.050 C 
ATOM      7  C   UNL     1      55.686  -5.495 -46.779  1.00  0.00     0.115 C 
ATOM      8  C   UNL     1      54.392  -4.798 -47.222  1.00  0.00     0.096 C 
ATOM      9  C   UNL     1      53.682  -5.787 -48.142  1.00  0.00     0.267 C 
ATOM     10  O   UNL     1      54.618  -6.830 -48.405  1.00  0.00    -0.342 OA
ATOM     11  O   UNL     1      52.612  -6.318 -47.372  1.00  0.00    -0.320 OA
ENDROOT
BRANCH   7  12
ATOM     12  O   UNL     1      56.966  -4.976 -47.143  1.00  0.00    -0.339 OA
BRANCH  12  13
ATOM     13  C   UNL     1      57.699  -4.400 -46.070  1.00  0.00     0.282 C 
ATOM     14  C   UNL     1      58.131  -2.932 -46.396  1.00  0.00     0.202 C 
ATOM     15  O   UNL     1      58.806  -5.234 -45.772  1.00  0.00    -0.341 OA
ATOM     16  C   UNL     1      59.554  -2.659 -45.852  1.00  0.00     0.179 C 
ATOM     17  C   UNL     1      59.876  -5.039 -46.678  1.00  0.00     0.178 C 
ATOM     18  C   UNL     1      60.581  -3.702 -46.379  1.00  0.00     0.177 C 
BRANCH  14  19
ATOM     19  O   UNL     1      58.084  -2.690 -47.783  1.00  0.00    -0.385 OA
ATOM     20  H   UNL     1      57.936  -1.717 -47.895  1.00  0.00     0.211 HD
ENDBRANCH  14  19
BRANCH  16  21
ATOM     21  O   UNL     1      59.970  -1.353 -46.162  1.00  0.00    -0.387 OA
ATOM     22  H   UNL     1      59.215  -0.912 -46.647  1.00  0.00     0.211 HD
ENDBRANCH  16  21
BRANCH  17  23
ATOM     23  C   UNL     1      60.826  -6.238 -46.597  1.00  0.00     0.191 C 
BRANCH  23  24
ATOM     24  O   UNL     1      61.834  -6.156 -47.574  1.00  0.00    -0.394 OA
ATOM     25  H   UNL     1      62.469  -6.899 -47.383  1.00  0.00     0.210 HD
ENDBRANCH  23  24
ENDBRANCH  17  23
BRANCH  18  26
ATOM     26  O   UNL     1      61.204  -3.238 -47.552  1.00  0.00    -0.387 OA
ATOM     27  H   UNL     1      61.775  -3.972 -47.900  1.00  0.00     0.211 HD
ENDBRANCH  18  26
ENDBRANCH  12  13
ENDBRANCH   7  12
BRANCH   4  28
ATOM     28  O   UNL     1      52.191  -6.720 -45.114  1.00  0.00    -0.365 OA
ATOM     29  H   UNL     1      52.316  -7.674 -44.863  1.00  0.00     0.214 HD
ENDBRANCH   4  28
BRANCH   8  30
ATOM     30  C   UNL     1      54.373  -3.305 -47.607  1.00  0.00     0.249 C 
BRANCH  30  31
ATOM     31  O   UNL     1      54.063  -3.156 -48.995  1.00  0.00    -0.461 OA
BRANCH  31  32
ATOM     32  C   UNL     1      55.028  -3.217 -50.013  1.00  0.00     0.338 C 
ATOM     33  O   UNL     1      56.247  -3.000 -49.747  1.00  0.00    -0.246 OA
BRANCH  32  34
ATOM     34  C   UNL     1      54.628  -3.509 -51.407  1.00  0.00     0.060 A 
ATOM     35  C   UNL     1      53.660  -4.492 -51.681  1.00  0.00     0.015 A 
ATOM     36  C   UNL     1      55.201  -2.806 -52.482  1.00  0.00     0.015 A 
ATOM     37  C   UNL     1      53.280  -4.774 -52.997  1.00  0.00     0.001 A 
ATOM     38  C   UNL     1      54.807  -3.079 -53.798  1.00  0.00     0.001 A 
ATOM     39  C   UNL     1      53.843  -4.058 -54.057  1.00  0.00     0.000 A 
ENDBRANCH  32  34
ENDBRANCH  31  32
ENDBRANCH  30  31
ENDBRANCH   8  30
TORSDOF 12
ENDMDL
MODEL 6
REMARK VINA RESULT:    -5.204      5.106      8.804
REMARK INTER + INTRA:          -9.075
REMARK INTER:                  -8.451
REMARK INTRA:                  -0.625
REMARK UNBOUND:                -0.980
REMARK SMILES C[C@]12C[C@]3(O)O[C@H](O1)[C@@]1(COC(=O)c4ccccc4)[C@@H]3C[C@]12O[C@H]1O[C@H](CO)[C@@H](O)[C@@H](O)[C@H]1O
REMARK SMILES IDX 1 1 2 2 3 3 4 4 20 5 21 6 22 7 9 8 7 9 8 10 6 11 23 12 24 13
REMARK SMILES IDX 33 14 25 15 31 16 26 17 29 18 34 19 32 21 27 23 28 24 30 26
REMARK SMILES IDX 5 28 10 30 11 31 12 32 13 33 14 34 15 35 19 36 16 37 18 38
REMARK SMILES IDX 17 39
REMARK H PARENT 34 20 32 22 28 25 30 27 5 29
REMARK Flexibility Score: inf
ROOT
ATOM      1  C   UNL     1      49.507  -5.261 -48.967  1.00  0.00     0.046 C 
ATOM      2  C   UNL     1      48.424  -5.576 -47.922  1.00  0.00     0.104 C 
ATOM      3  C   UNL     1      47.226  -6.370 -48.580  1.00  0.00     0.104 C 
ATOM      4  C   UNL     1      46.286  -6.692 -47.371  1.00  0.00     0.175 C 
ATOM      5  C   UNL     1      47.111  -7.312 -46.204  1.00  0.00     0.070 C 
ATOM      6  C   UNL     1      48.495  -7.821 -46.646  1.00  0.00     0.050 C 
ATOM      7  C   UNL     1      48.940  -6.347 -46.646  1.00  0.00     0.115 C 
ATOM      8  C   UNL     1      47.779  -6.037 -45.692  1.00  0.00     0.096 C 
ATOM      9  C   UNL     1      47.020  -4.874 -46.325  1.00  0.00     0.267 C 
ATOM     10  O   UNL     1      47.837  -4.401 -47.394  1.00  0.00    -0.342 OA
ATOM     11  O   UNL     1      45.840  -5.445 -46.872  1.00  0.00    -0.320 OA
ENDROOT
BRANCH   7  12
ATOM     12  O   UNL     1      50.298  -6.175 -46.237  1.00  0.00    -0.339 OA
BRANCH  12  13
ATOM     13  C   UNL     1      51.032  -7.384 -46.092  1.00  0.00     0.282 C 
ATOM     14  C   UNL     1      51.619  -7.526 -44.649  1.00  0.00     0.202 C 
ATOM     15  O   UNL     1      52.036  -7.431 -47.091  1.00  0.00    -0.341 OA
ATOM     16  C   UNL     1      53.035  -8.150 -44.707  1.00  0.00     0.179 C 
ATOM     17  C   UNL     1      53.162  -6.644 -46.749  1.00  0.00     0.178 C 
ATOM     18  C   UNL     1      53.979  -7.347 -45.647  1.00  0.00     0.177 C 
BRANCH  14  19
ATOM     19  O   UNL     1      51.662  -6.278 -43.998  1.00  0.00    -0.385 OA
ATOM     20  H   UNL     1      52.523  -5.858 -44.249  1.00  0.00     0.211 HD
ENDBRANCH  14  19
BRANCH  16  21
ATOM     21  O   UNL     1      53.591  -8.259 -43.421  1.00  0.00    -0.387 OA
ATOM     22  H   UNL     1      54.300  -7.558 -43.347  1.00  0.00     0.211 HD
ENDBRANCH  16  21
BRANCH  17  23
ATOM     23  C   UNL     1      53.986  -6.372 -48.012  1.00  0.00     0.191 C 
BRANCH  23  24
ATOM     24  O   UNL     1      55.315  -6.802 -47.855  1.00  0.00    -0.394 OA
ATOM     25  H   UNL     1      55.852  -5.986 -47.661  1.00  0.00     0.210 HD
ENDBRANCH  23  24
ENDBRANCH  17  23
BRANCH  18  26
ATOM     26  O   UNL     1      54.700  -6.381 -44.921  1.00  0.00    -0.387 OA
ATOM     27  H   UNL     1      55.232  -6.857 -44.232  1.00  0.00     0.211 HD
ENDBRANCH  18  26
ENDBRANCH  12  13
ENDBRANCH   7  12
BRANCH   4  28
ATOM     28  O   UNL     1      45.208  -7.516 -47.739  1.00  0.00    -0.365 OA
ATOM     29  H   UNL     1      44.685  -7.677 -46.910  1.00  0.00     0.214 HD
ENDBRANCH   4  28
BRANCH   8  30
ATOM     30  C   UNL     1      47.972  -6.031 -44.162  1.00  0.00     0.249 C 
BRANCH  30  31
ATOM     31  O   UNL     1      47.044  -5.132 -43.550  1.00  0.00    -0.461 OA
BRANCH  31  32
ATOM     32  C   UNL     1      47.169  -4.674 -42.228  1.00  0.00     0.338 C 
ATOM     33  O   UNL     1      47.094  -5.490 -41.262  1.00  0.00    -0.246 OA
BRANCH  32  34
ATOM     34  C   UNL     1      47.364  -3.234 -41.951  1.00  0.00     0.060 A 
ATOM     35  C   UNL     1      47.329  -2.294 -42.997  1.00  0.00     0.015 A 
ATOM     36  C   UNL     1      47.580  -2.777 -40.639  1.00  0.00     0.015 A 
ATOM     37  C   UNL     1      47.515  -0.932 -42.741  1.00  0.00     0.001 A 
ATOM     38  C   UNL     1      47.750  -1.411 -40.382  1.00  0.00     0.001 A 
ATOM     39  C   UNL     1      47.713  -0.487 -41.431  1.00  0.00     0.000 A 
ENDBRANCH  32  34
ENDBRANCH  31  32
ENDBRANCH  30  31
ENDBRANCH   8  30
TORSDOF 12
ENDMDL
MODEL 7
REMARK VINA RESULT:    -5.204      4.992      8.379
REMARK INTER + INTRA:          -9.075
REMARK INTER:                  -7.813
REMARK INTRA:                  -1.262
REMARK UNBOUND:                -0.980
REMARK SMILES C[C@]12C[C@]3(O)O[C@H](O1)[C@@]1(COC(=O)c4ccccc4)[C@@H]3C[C@]12O[C@H]1O[C@H](CO)[C@@H](O)[C@@H](O)[C@H]1O
REMARK SMILES IDX 1 1 2 2 3 3 4 4 20 5 21 6 22 7 9 8 7 9 8 10 6 11 23 12 24 13
REMARK SMILES IDX 33 14 25 15 31 16 26 17 29 18 34 19 32 21 27 23 28 24 30 26
REMARK SMILES IDX 5 28 10 30 11 31 12 32 13 33 14 34 15 35 19 36 16 37 18 38
REMARK SMILES IDX 17 39
REMARK H PARENT 34 20 32 22 28 25 30 27 5 29
REMARK Flexibility Score: inf
ROOT
ATOM      1  C   UNL     1      47.546  -4.435 -50.400  1.00  0.00     0.046 C 
ATOM      2  C   UNL     1      47.239  -4.807 -48.939  1.00  0.00     0.104 C 
ATOM      3  C   UNL     1      45.782  -4.340 -48.538  1.00  0.00     0.104 C 
ATOM      4  C   UNL     1      45.607  -4.885 -47.081  1.00  0.00     0.175 C 
ATOM      5  C   UNL     1      46.009  -6.389 -47.023  1.00  0.00     0.070 C 
ATOM      6  C   UNL     1      46.076  -7.051 -48.411  1.00  0.00     0.050 C 
ATOM      7  C   UNL     1      47.426  -6.334 -48.592  1.00  0.00     0.115 C 
ATOM      8  C   UNL     1      47.528  -6.222 -47.065  1.00  0.00     0.096 C 
ATOM      9  C   UNL     1      47.804  -4.750 -46.774  1.00  0.00     0.267 C 
ATOM     10  O   UNL     1      48.098  -4.144 -48.031  1.00  0.00    -0.342 OA
ATOM     11  O   UNL     1      46.576  -4.223 -46.290  1.00  0.00    -0.320 OA
ENDROOT
BRANCH   7  12
ATOM     12  O   UNL     1      48.369  -7.103 -49.341  1.00  0.00    -0.339 OA
BRANCH  12  13
ATOM     13  C   UNL     1      49.460  -6.357 -49.864  1.00  0.00     0.282 C 
ATOM     14  C   UNL     1      50.029  -7.011 -51.166  1.00  0.00     0.202 C 
ATOM     15  O   UNL     1      50.445  -6.218 -48.855  1.00  0.00    -0.341 OA
ATOM     16  C   UNL     1      51.572  -6.896 -51.193  1.00  0.00     0.179 C 
ATOM     17  C   UNL     1      51.237  -7.385 -48.723  1.00  0.00     0.178 C 
ATOM     18  C   UNL     1      52.216  -7.491 -49.909  1.00  0.00     0.177 C 
BRANCH  14  19
ATOM     19  O   UNL     1      49.639  -8.362 -51.261  1.00  0.00    -0.385 OA
ATOM     20  H   UNL     1      50.460  -8.879 -51.460  1.00  0.00     0.211 HD
ENDBRANCH  14  19
BRANCH  16  21
ATOM     21  O   UNL     1      52.103  -7.505 -52.343  1.00  0.00    -0.387 OA
ATOM     22  H   UNL     1      51.590  -7.152 -53.125  1.00  0.00     0.211 HD
ENDBRANCH  16  21
BRANCH  17  23
ATOM     23  C   UNL     1      51.951  -7.355 -47.368  1.00  0.00     0.191 C 
BRANCH  23  24
ATOM     24  O   UNL     1      51.708  -6.147 -46.691  1.00  0.00    -0.394 OA
ATOM     25  H   UNL     1      52.442  -5.527 -46.954  1.00  0.00     0.210 HD
ENDBRANCH  23  24
ENDBRANCH  17  23
BRANCH  18  26
ATOM     26  O   UNL     1      52.557  -8.842 -50.103  1.00  0.00    -0.387 OA
ATOM     27  H   UNL     1      52.292  -9.090 -51.027  1.00  0.00     0.211 HD
ENDBRANCH  18  26
ENDBRANCH  12  13
ENDBRANCH   7  12
BRANCH   4  28
ATOM     28  O   UNL     1      44.308  -4.676 -46.588  1.00  0.00    -0.365 OA
ATOM     29  H   UNL     1      44.180  -5.332 -45.853  1.00  0.00     0.214 HD
ENDBRANCH   4  28
BRANCH   8  30
ATOM     30  C   UNL     1      48.273  -7.281 -46.227  1.00  0.00     0.249 C 
BRANCH  30  31
ATOM     31  O   UNL     1      49.240  -6.652 -45.383  1.00  0.00    -0.461 OA
BRANCH  31  32
ATOM     32  C   UNL     1      49.445  -7.012 -44.041  1.00  0.00     0.338 C 
ATOM     33  O   UNL     1      50.406  -7.776 -43.727  1.00  0.00    -0.246 OA
BRANCH  32  34
ATOM     34  C   UNL     1      48.528  -6.526 -42.987  1.00  0.00     0.060 A 
ATOM     35  C   UNL     1      47.990  -5.228 -43.052  1.00  0.00     0.015 A 
ATOM     36  C   UNL     1      48.171  -7.353 -41.907  1.00  0.00     0.015 A 
ATOM     37  C   UNL     1      47.124  -4.763 -42.057  1.00  0.00     0.001 A 
ATOM     38  C   UNL     1      47.291  -6.891 -40.920  1.00  0.00     0.001 A 
ATOM     39  C   UNL     1      46.763  -5.598 -40.997  1.00  0.00     0.000 A 
ENDBRANCH  32  34
ENDBRANCH  31  32
ENDBRANCH  30  31
ENDBRANCH   8  30
TORSDOF 12
ENDMDL
MODEL 8
REMARK VINA RESULT:    -5.064      7.545     11.320
REMARK INTER + INTRA:          -8.857
REMARK INTER:                  -7.549
REMARK INTRA:                  -1.308
REMARK UNBOUND:                -0.980
REMARK SMILES C[C@]12C[C@]3(O)O[C@H](O1)[C@@]1(COC(=O)c4ccccc4)[C@@H]3C[C@]12O[C@H]1O[C@H](CO)[C@@H](O)[C@@H](O)[C@H]1O
REMARK SMILES IDX 1 1 2 2 3 3 4 4 20 5 21 6 22 7 9 8 7 9 8 10 6 11 23 12 24 13
REMARK SMILES IDX 33 14 25 15 31 16 26 17 29 18 34 19 32 21 27 23 28 24 30 26
REMARK SMILES IDX 5 28 10 30 11 31 12 32 13 33 14 34 15 35 19 36 16 37 18 38
REMARK SMILES IDX 17 39
REMARK H PARENT 34 20 32 22 28 25 30 27 5 29
REMARK Flexibility Score: inf
ROOT
ATOM      1  C   UNL     1      53.454  -5.144 -44.224  1.00  0.00     0.046 C 
ATOM      2  C   UNL     1      54.107  -5.435 -45.586  1.00  0.00     0.104 C 
ATOM      3  C   UNL     1      55.682  -5.474 -45.454  1.00  0.00     0.104 C 
ATOM      4  C   UNL     1      56.163  -5.881 -46.887  1.00  0.00     0.175 C 
ATOM      5  C   UNL     1      55.371  -7.128 -47.382  1.00  0.00     0.070 C 
ATOM      6  C   UNL     1      54.647  -7.873 -46.246  1.00  0.00     0.050 C 
ATOM      7  C   UNL     1      53.597  -6.749 -46.296  1.00  0.00     0.115 C 
ATOM      8  C   UNL     1      54.052  -6.439 -47.728  1.00  0.00     0.096 C 
ATOM      9  C   UNL     1      54.346  -4.942 -47.756  1.00  0.00     0.267 C 
ATOM     10  O   UNL     1      53.844  -4.414 -46.531  1.00  0.00    -0.342 OA
ATOM     11  O   UNL     1      55.763  -4.835 -47.752  1.00  0.00    -0.320 OA
ENDROOT
BRANCH   7  12
ATOM     12  O   UNL     1      52.272  -7.211 -46.026  1.00  0.00    -0.339 OA
BRANCH  12  13
ATOM     13  C   UNL     1      51.296  -6.183 -45.917  1.00  0.00     0.282 C 
ATOM     14  C   UNL     1      50.243  -6.509 -44.807  1.00  0.00     0.202 C 
ATOM     15  O   UNL     1      50.698  -5.985 -47.187  1.00  0.00    -0.341 OA
ATOM     16  C   UNL     1      48.831  -6.066 -45.262  1.00  0.00     0.179 C 
ATOM     17  C   UNL     1      49.714  -6.964 -47.468  1.00  0.00     0.178 C 
ATOM     18  C   UNL     1      48.447  -6.689 -46.634  1.00  0.00     0.177 C 
BRANCH  14  19
ATOM     19  O   UNL     1      50.247  -7.883 -44.498  1.00  0.00    -0.385 OA
ATOM     20  H   UNL     1      50.915  -8.007 -43.776  1.00  0.00     0.211 HD
ENDBRANCH  14  19
BRANCH  16  21
ATOM     21  O   UNL     1      47.867  -6.377 -44.288  1.00  0.00    -0.387 OA
ATOM     22  H   UNL     1      47.175  -6.947 -44.732  1.00  0.00     0.211 HD
ENDBRANCH  16  21
BRANCH  17  23
ATOM     23  C   UNL     1      49.437  -6.979 -48.975  1.00  0.00     0.191 C 
BRANCH  23  24
ATOM     24  O   UNL     1      50.212  -7.956 -49.625  1.00  0.00    -0.394 OA
ATOM     25  H   UNL     1      50.802  -7.467 -50.260  1.00  0.00     0.210 HD
ENDBRANCH  23  24
ENDBRANCH  17  23
BRANCH  18  26
ATOM     26  O   UNL     1      47.744  -7.895 -46.454  1.00  0.00    -0.387 OA
ATOM     27  H   UNL     1      46.952  -7.874 -47.051  1.00  0.00     0.211 HD
ENDBRANCH  18  26
ENDBRANCH  12  13
ENDBRANCH   7  12
BRANCH   4  28
ATOM     28  O   UNL     1      57.551  -6.093 -46.941  1.00  0.00    -0.365 OA
ATOM     29  H   UNL     1      57.975  -5.229 -46.694  1.00  0.00     0.214 HD
ENDBRANCH   4  28
BRANCH   8  30
ATOM     30  C   UNL     1      53.349  -7.065 -48.950  1.00  0.00     0.249 C 
BRANCH  30  31
ATOM     31  O   UNL     1      52.729  -6.046 -49.739  1.00  0.00    -0.461 OA
BRANCH  31  32
ATOM     32  C   UNL     1      52.738  -6.043 -51.143  1.00  0.00     0.338 C 
ATOM     33  O   UNL     1      52.199  -6.993 -51.785  1.00  0.00    -0.246 OA
BRANCH  32  34
ATOM     34  C   UNL     1      53.397  -4.946 -51.885  1.00  0.00     0.060 A 
ATOM     35  C   UNL     1      53.205  -4.804 -53.271  1.00  0.00     0.015 A 
ATOM     36  C   UNL     1      54.221  -4.022 -51.218  1.00  0.00     0.015 A 
ATOM     37  C   UNL     1      53.828  -3.770 -53.976  1.00  0.00     0.001 A 
ATOM     38  C   UNL     1      54.832  -2.977 -51.924  1.00  0.00     0.001 A 
ATOM     39  C   UNL     1      54.632  -2.847 -53.301  1.00  0.00     0.000 A 
ENDBRANCH  32  34
ENDBRANCH  31  32
ENDBRANCH  30  31
ENDBRANCH   8  30
TORSDOF 12
ENDMDL
MODEL 9
REMARK VINA RESULT:    -5.047     12.094     15.019
REMARK INTER + INTRA:          -8.830
REMARK INTER:                  -7.581
REMARK INTRA:                  -1.249
REMARK UNBOUND:                -0.980
REMARK SMILES C[C@]12C[C@]3(O)O[C@H](O1)[C@@]1(COC(=O)c4ccccc4)[C@@H]3C[C@]12O[C@H]1O[C@H](CO)[C@@H](O)[C@@H](O)[C@H]1O
REMARK SMILES IDX 1 1 2 2 3 3 4 4 20 5 21 6 22 7 9 8 7 9 8 10 6 11 23 12 24 13
REMARK SMILES IDX 33 14 25 15 31 16 26 17 29 18 34 19 32 21 27 23 28 24 30 26
REMARK SMILES IDX 5 28 10 30 11 31 12 32 13 33 14 34 15 35 19 36 16 37 18 38
REMARK SMILES IDX 17 39
REMARK H PARENT 34 20 32 22 28 25 30 27 5 29
REMARK Flexibility Score: inf
ROOT
ATOM      1  C   UNL     1      61.681  -5.492 -46.564  1.00  0.00     0.046 C 
ATOM      2  C   UNL     1      61.027  -4.971 -45.273  1.00  0.00     0.104 C 
ATOM      3  C   UNL     1      62.124  -4.640 -44.184  1.00  0.00     0.104 C 
ATOM      4  C   UNL     1      61.299  -4.033 -43.000  1.00  0.00     0.175 C 
ATOM      5  C   UNL     1      60.340  -2.927 -43.530  1.00  0.00     0.070 C 
ATOM      6  C   UNL     1      60.710  -2.430 -44.938  1.00  0.00     0.050 C 
ATOM      7  C   UNL     1      60.075  -3.728 -45.469  1.00  0.00     0.115 C 
ATOM      8  C   UNL     1      59.278  -3.827 -44.161  1.00  0.00     0.096 C 
ATOM      9  C   UNL     1      59.535  -5.232 -43.624  1.00  0.00     0.267 C 
ATOM     10  O   UNL     1      60.194  -5.944 -44.669  1.00  0.00    -0.342 OA
ATOM     11  O   UNL     1      60.443  -5.064 -42.544  1.00  0.00    -0.320 OA
ENDROOT
BRANCH   7  12
ATOM     12  O   UNL     1      59.415  -3.553 -46.724  1.00  0.00    -0.339 OA
BRANCH  12  13
ATOM     13  C   UNL     1      59.852  -2.426 -47.472  1.00  0.00     0.282 C 
ATOM     14  C   UNL     1      58.651  -1.507 -47.873  1.00  0.00     0.202 C 
ATOM     15  O   UNL     1      60.583  -2.880 -48.598  1.00  0.00    -0.341 OA
ATOM     16  C   UNL     1      58.856  -0.952 -49.304  1.00  0.00     0.179 C 
ATOM     17  C   UNL     1      59.732  -3.312 -49.644  1.00  0.00     0.178 C 
ATOM     18  C   UNL     1      59.089  -2.093 -50.334  1.00  0.00     0.177 C 
BRANCH  14  19
ATOM     19  O   UNL     1      57.432  -2.206 -47.790  1.00  0.00    -0.385 OA
ATOM     20  H   UNL     1      57.334  -2.705 -48.641  1.00  0.00     0.211 HD
ENDBRANCH  14  19
BRANCH  16  21
ATOM     21  O   UNL     1      57.772  -0.146 -49.692  1.00  0.00    -0.387 OA
ATOM     22  H   UNL     1      57.320  -0.610 -50.454  1.00  0.00     0.211 HD
ENDBRANCH  16  21
BRANCH  17  23
ATOM     23  C   UNL     1      60.535  -4.185 -50.615  1.00  0.00     0.191 C 
BRANCH  23  24
ATOM     24  O   UNL     1      61.706  -4.674 -50.009  1.00  0.00    -0.394 OA
ATOM     25  H   UNL     1      61.521  -4.712 -49.032  1.00  0.00     0.210 HD
ENDBRANCH  23  24
ENDBRANCH  17  23
BRANCH  18  26
ATOM     26  O   UNL     1      57.873  -2.488 -50.923  1.00  0.00    -0.387 OA
ATOM     27  H   UNL     1      57.351  -1.665 -51.116  1.00  0.00     0.211 HD
ENDBRANCH  18  26
ENDBRANCH  12  13
ENDBRANCH   7  12
BRANCH   4  28
ATOM     28  O   UNL     1      62.125  -3.554 -41.968  1.00  0.00    -0.365 OA
ATOM     29  H   UNL     1      61.522  -3.116 -41.310  1.00  0.00     0.214 HD
ENDBRANCH   4  28
BRANCH   8  30
ATOM     30  C   UNL     1      57.852  -3.253 -44.041  1.00  0.00     0.249 C 
BRANCH  30  31
ATOM     31  O   UNL     1      56.884  -4.278 -44.276  1.00  0.00    -0.461 OA
BRANCH  31  32
ATOM     32  C   UNL     1      56.018  -4.284 -45.382  1.00  0.00     0.338 C 
ATOM     33  O   UNL     1      55.456  -3.212 -45.755  1.00  0.00    -0.246 OA
BRANCH  32  34
ATOM     34  C   UNL     1      55.735  -5.543 -46.104  1.00  0.00     0.060 A 
ATOM     35  C   UNL     1      54.412  -5.996 -46.258  1.00  0.00     0.015 A 
ATOM     36  C   UNL     1      56.779  -6.307 -46.655  1.00  0.00     0.015 A 
ATOM     37  C   UNL     1      54.139  -7.188 -46.937  1.00  0.00     0.001 A 
ATOM     38  C   UNL     1      56.503  -7.492 -47.349  1.00  0.00     0.001 A 
ATOM     39  C   UNL     1      55.183  -7.931 -47.496  1.00  0.00     0.000 A 
ENDBRANCH  32  34
ENDBRANCH  31  32
ENDBRANCH  30  31
ENDBRANCH   8  30
TORSDOF 12
ENDMDL
