MODEL 1
REMARK VINA RESULT:    -4.940      0.000      0.000
REMARK INTER + INTRA:          -8.488
REMARK INTER:                  -7.973
REMARK INTRA:                  -0.516
REMARK UNBOUND:                -0.516
REMARK SMILES CCCCCCCCCCCCO
REMARK SMILES IDX 7 1 6 2 5 3 4 4 3 5 2 6 1 7 8 8 9 9 10 10 11 11 12 12 13 13
REMARK H PARENT 13 14
REMARK Flexibility Score: inf
ROOT
ATOM      1  C   UNL     1     -34.256  50.286 -53.542  1.00  0.00     0.000 C 
ENDROOT
BRANCH   1   2
ATOM      2  C   UNL     1     -34.961  49.432 -52.473  1.00  0.00    -0.000 C 
BRANCH   2   3
ATOM      3  C   UNL     1     -36.483  49.649 -52.456  1.00  0.00    -0.000 C 
BRANCH   3   4
ATOM      4  C   UNL     1     -37.277  48.332 -52.525  1.00  0.00    -0.000 C 
BRANCH   4   5
ATOM      5  C   UNL     1     -38.531  48.370 -53.418  1.00  0.00    -0.000 C 
BRANCH   5   6
ATOM      6  C   UNL     1     -38.519  49.535 -54.419  1.00  0.00    -0.003 C 
ATOM      7  C   UNL     1     -39.934  50.030 -54.702  1.00  0.00     0.004 C 
ENDBRANCH   5   6
ENDBRANCH   4   5
ENDBRANCH   3   4
ENDBRANCH   2   3
ENDBRANCH   1   2
BRANCH   1   8
ATOM      8  C   UNL     1     -33.428  51.432 -52.935  1.00  0.00     0.000 C 
BRANCH   8   9
ATOM      9  C   UNL     1     -33.470  51.438 -51.398  1.00  0.00     0.000 C 
BRANCH   9  10
ATOM     10  C   UNL     1     -32.314  52.245 -50.781  1.00  0.00     0.002 C 
BRANCH  10  11
ATOM     11  C   UNL     1     -31.546  53.069 -51.826  1.00  0.00     0.028 C 
BRANCH  11  12
ATOM     12  C   UNL     1     -30.961  54.363 -51.247  1.00  0.00     0.156 C 
BRANCH  12  13
ATOM     13  O   UNL     1     -31.946  55.061 -50.535  1.00  0.00    -0.396 OA
ATOM     14  H   UNL     1     -32.591  55.407 -51.206  1.00  0.00     0.210 HD
ENDBRANCH  12  13
ENDBRANCH  11  12
ENDBRANCH  10  11
ENDBRANCH   9  10
ENDBRANCH   8   9
ENDBRANCH   1   8
TORSDOF 11
ENDMDL
MODEL 2
REMARK VINA RESULT:    -4.835      0.990      1.103
REMARK INTER + INTRA:          -8.319
REMARK INTER:                  -7.993
REMARK INTRA:                  -0.325
REMARK UNBOUND:                -0.516
REMARK SMILES CCCCCCCCCCCCO
REMARK SMILES IDX 7 1 6 2 5 3 4 4 3 5 2 6 1 7 8 8 9 9 10 10 11 11 12 12 13 13
REMARK H PARENT 13 14
REMARK Flexibility Score: inf
ROOT
ATOM      1  C   UNL     1     -35.019  50.294 -52.126  1.00  0.00     0.000 C 
ENDROOT
BRANCH   1   2
ATOM      2  C   UNL     1     -35.365  48.953 -52.793  1.00  0.00    -0.000 C 
BRANCH   2   3
ATOM      3  C   UNL     1     -36.589  48.275 -52.154  1.00  0.00    -0.000 C 
BRANCH   3   4
ATOM      4  C   UNL     1     -37.921  48.919 -52.578  1.00  0.00    -0.000 C 
BRANCH   4   5
ATOM      5  C   UNL     1     -38.016  49.308 -54.064  1.00  0.00    -0.000 C 
BRANCH   5   6
ATOM      6  C   UNL     1     -39.405  49.045 -54.665  1.00  0.00    -0.003 C 
ATOM      7  C   UNL     1     -40.182  50.345 -54.843  1.00  0.00     0.004 C 
ENDBRANCH   5   6
ENDBRANCH   4   5
ENDBRANCH   3   4
ENDBRANCH   2   3
ENDBRANCH   1   2
BRANCH   1   8
ATOM      8  C   UNL     1     -33.516  50.438 -51.826  1.00  0.00     0.000 C 
BRANCH   8   9
ATOM      9  C   UNL     1     -33.069  51.907 -51.753  1.00  0.00     0.000 C 
BRANCH   9  10
ATOM     10  C   UNL     1     -31.706  52.143 -52.426  1.00  0.00     0.002 C 
BRANCH  10  11
ATOM     11  C   UNL     1     -31.076  53.487 -52.027  1.00  0.00     0.028 C 
BRANCH  11  12
ATOM     12  C   UNL     1     -31.466  53.926 -50.610  1.00  0.00     0.156 C 
BRANCH  12  13
ATOM     13  O   UNL     1     -31.982  55.229 -50.634  1.00  0.00    -0.396 OA
ATOM     14  H   UNL     1     -32.690  55.242 -51.330  1.00  0.00     0.210 HD
ENDBRANCH  12  13
ENDBRANCH  11  12
ENDBRANCH  10  11
ENDBRANCH   9  10
ENDBRANCH   8   9
ENDBRANCH   1   8
TORSDOF 11
ENDMDL
MODEL 3
REMARK VINA RESULT:    -4.708      3.320      7.300
REMARK INTER + INTRA:          -8.114
REMARK INTER:                  -7.620
REMARK INTRA:                  -0.494
REMARK UNBOUND:                -0.516
REMARK SMILES CCCCCCCCCCCCO
REMARK SMILES IDX 7 1 6 2 5 3 4 4 3 5 2 6 1 7 8 8 9 9 10 10 11 11 12 12 13 13
REMARK H PARENT 13 14
REMARK Flexibility Score: inf
ROOT
ATOM      1  C   UNL     1     -34.465  50.555 -52.580  1.00  0.00     0.000 C 
ENDROOT
BRANCH   1   2
ATOM      2  C   UNL     1     -33.128  49.936 -52.139  1.00  0.00    -0.000 C 
BRANCH   2   3
ATOM      3  C   UNL     1     -32.502  50.674 -50.944  1.00  0.00    -0.000 C 
BRANCH   3   4
ATOM      4  C   UNL     1     -32.420  52.197 -51.155  1.00  0.00    -0.000 C 
BRANCH   4   5
ATOM      5  C   UNL     1     -31.530  52.647 -52.328  1.00  0.00    -0.000 C 
BRANCH   5   6
ATOM      6  C   UNL     1     -30.731  53.922 -52.019  1.00  0.00    -0.003 C 
ATOM      7  C   UNL     1     -31.133  54.509 -50.670  1.00  0.00     0.004 C 
ENDBRANCH   5   6
ENDBRANCH   4   5
ENDBRANCH   3   4
ENDBRANCH   2   3
ENDBRANCH   1   2
BRANCH   1   8
ATOM      8  C   UNL     1     -35.354  49.562 -53.350  1.00  0.00     0.000 C 
BRANCH   8   9
ATOM      9  C   UNL     1     -35.765  48.354 -52.493  1.00  0.00     0.000 C 
BRANCH   9  10
ATOM     10  C   UNL     1     -37.229  48.433 -52.027  1.00  0.00     0.002 C 
BRANCH  10  11
ATOM     11  C   UNL     1     -38.141  49.112 -53.061  1.00  0.00     0.028 C 
BRANCH  11  12
ATOM     12  C   UNL     1     -38.944  48.104 -53.894  1.00  0.00     0.156 C 
BRANCH  12  13
ATOM     13  O   UNL     1     -39.477  47.109 -53.063  1.00  0.00    -0.396 OA
ATOM     14  H   UNL     1     -39.696  46.337 -53.648  1.00  0.00     0.210 HD
ENDBRANCH  12  13
ENDBRANCH  11  12
ENDBRANCH  10  11
ENDBRANCH   9  10
ENDBRANCH   8   9
ENDBRANCH   1   8
TORSDOF 11
ENDMDL
MODEL 4
REMARK VINA RESULT:    -4.692      9.919     12.864
REMARK INTER + INTRA:          -8.088
REMARK INTER:                  -7.083
REMARK INTRA:                  -1.006
REMARK UNBOUND:                -0.516
REMARK SMILES CCCCCCCCCCCCO
REMARK SMILES IDX 7 1 6 2 5 3 4 4 3 5 2 6 1 7 8 8 9 9 10 10 11 11 12 12 13 13
REMARK H PARENT 13 14
REMARK Flexibility Score: inf
ROOT
ATOM      1  C   UNL     1     -40.899  39.711 -49.816  1.00  0.00     0.000 C 
ENDROOT
BRANCH   1   2
ATOM      2  C   UNL     1     -40.610  39.117 -51.205  1.00  0.00    -0.000 C 
BRANCH   2   3
ATOM      3  C   UNL     1     -41.163  37.690 -51.362  1.00  0.00    -0.000 C 
BRANCH   3   4
ATOM      4  C   UNL     1     -42.295  37.373 -50.369  1.00  0.00    -0.000 C 
BRANCH   4   5
ATOM      5  C   UNL     1     -43.634  36.968 -51.012  1.00  0.00    -0.000 C 
BRANCH   5   6
ATOM      6  C   UNL     1     -44.145  37.996 -52.033  1.00  0.00    -0.003 C 
ATOM      7  C   UNL     1     -44.819  39.174 -51.337  1.00  0.00     0.004 C 
ENDBRANCH   5   6
ENDBRANCH   4   5
ENDBRANCH   3   4
ENDBRANCH   2   3
ENDBRANCH   1   2
BRANCH   1   8
ATOM      8  C   UNL     1     -41.774  40.975 -49.881  1.00  0.00     0.000 C 
BRANCH   8   9
ATOM      9  C   UNL     1     -41.777  41.617 -51.278  1.00  0.00     0.000 C 
BRANCH   9  10
ATOM     10  C   UNL     1     -40.849  42.842 -51.366  1.00  0.00     0.002 C 
BRANCH  10  11
ATOM     11  C   UNL     1     -41.166  43.736 -52.576  1.00  0.00     0.028 C 
BRANCH  11  12
ATOM     12  C   UNL     1     -40.007  44.672 -52.940  1.00  0.00     0.156 C 
BRANCH  12  13
ATOM     13  O   UNL     1     -38.862  44.329 -52.208  1.00  0.00    -0.396 OA
ATOM     14  H   UNL     1     -38.448  43.556 -52.673  1.00  0.00     0.210 HD
ENDBRANCH  12  13
ENDBRANCH  11  12
ENDBRANCH  10  11
ENDBRANCH   9  10
ENDBRANCH   8   9
ENDBRANCH   1   8
TORSDOF 11
ENDMDL
MODEL 5
REMARK VINA RESULT:    -4.646     10.335     13.241
REMARK INTER + INTRA:          -8.014
REMARK INTER:                  -6.962
REMARK INTRA:                  -1.052
REMARK UNBOUND:                -0.516
REMARK SMILES CCCCCCCCCCCCO
REMARK SMILES IDX 7 1 6 2 5 3 4 4 3 5 2 6 1 7 8 8 9 9 10 10 11 11 12 12 13 13
REMARK H PARENT 13 14
REMARK Flexibility Score: inf
ROOT
ATOM      1  C   UNL     1     -40.368  39.566 -50.781  1.00  0.00     0.000 C 
ENDROOT
BRANCH   1   2
ATOM      2  C   UNL     1     -41.046  38.217 -51.076  1.00  0.00    -0.000 C 
BRANCH   2   3
ATOM      3  C   UNL     1     -42.183  37.901 -50.090  1.00  0.00    -0.000 C 
BRANCH   3   4
ATOM      4  C   UNL     1     -43.239  36.948 -50.679  1.00  0.00    -0.000 C 
BRANCH   4   5
ATOM      5  C   UNL     1     -44.136  37.559 -51.770  1.00  0.00    -0.000 C 
BRANCH   5   6
ATOM      6  C   UNL     1     -44.641  38.965 -51.413  1.00  0.00    -0.003 C 
ATOM      7  C   UNL     1     -44.244  39.980 -52.482  1.00  0.00     0.004 C 
ENDBRANCH   5   6
ENDBRANCH   4   5
ENDBRANCH   3   4
ENDBRANCH   2   3
ENDBRANCH   1   2
BRANCH   1   8
ATOM      8  C   UNL     1     -41.045  40.331 -49.630  1.00  0.00     0.000 C 
BRANCH   8   9
ATOM      9  C   UNL     1     -41.119  41.844 -49.893  1.00  0.00     0.000 C 
BRANCH   9  10
ATOM     10  C   UNL     1     -41.526  42.171 -51.341  1.00  0.00     0.002 C 
BRANCH  10  11
ATOM     11  C   UNL     1     -40.771  43.385 -51.906  1.00  0.00     0.028 C 
BRANCH  11  12
ATOM     12  C   UNL     1     -41.707  44.421 -52.540  1.00  0.00     0.156 C 
BRANCH  12  13
ATOM     13  O   UNL     1     -43.034  43.974 -52.479  1.00  0.00    -0.396 OA
ATOM     14  H   UNL     1     -43.081  43.147 -53.026  1.00  0.00     0.210 HD
ENDBRANCH  12  13
ENDBRANCH  11  12
ENDBRANCH  10  11
ENDBRANCH   9  10
ENDBRANCH   8   9
ENDBRANCH   1   8
TORSDOF 11
ENDMDL
MODEL 6
REMARK VINA RESULT:    -4.571      9.795     12.848
REMARK INTER + INTRA:          -7.893
REMARK INTER:                  -6.524
REMARK INTRA:                  -1.370
REMARK UNBOUND:                -0.516
REMARK SMILES CCCCCCCCCCCCO
REMARK SMILES IDX 7 1 6 2 5 3 4 4 3 5 2 6 1 7 8 8 9 9 10 10 11 11 12 12 13 13
REMARK H PARENT 13 14
REMARK Flexibility Score: inf
ROOT
ATOM      1  C   UNL     1     -40.575  39.224 -50.561  1.00  0.00     0.000 C 
ENDROOT
BRANCH   1   2
ATOM      2  C   UNL     1     -41.357  37.902 -50.650  1.00  0.00    -0.000 C 
BRANCH   2   3
ATOM      3  C   UNL     1     -41.666  37.497 -52.100  1.00  0.00    -0.000 C 
BRANCH   3   4
ATOM      4  C   UNL     1     -41.836  38.706 -53.037  1.00  0.00    -0.000 C 
BRANCH   4   5
ATOM      5  C   UNL     1     -43.293  39.119 -53.316  1.00  0.00    -0.000 C 
BRANCH   5   6
ATOM      6  C   UNL     1     -43.887  40.004 -52.211  1.00  0.00    -0.003 C 
ATOM      7  C   UNL     1     -44.886  39.224 -51.360  1.00  0.00     0.004 C 
ENDBRANCH   5   6
ENDBRANCH   4   5
ENDBRANCH   3   4
ENDBRANCH   2   3
ENDBRANCH   1   2
BRANCH   1   8
ATOM      8  C   UNL     1     -41.015  40.095 -49.371  1.00  0.00     0.000 C 
BRANCH   8   9
ATOM      9  C   UNL     1     -41.282  41.553 -49.777  1.00  0.00     0.000 C 
BRANCH   9  10
ATOM     10  C   UNL     1     -40.803  41.864 -51.206  1.00  0.00     0.002 C 
BRANCH  10  11
ATOM     11  C   UNL     1     -41.576  43.027 -51.847  1.00  0.00     0.028 C 
BRANCH  11  12
ATOM     12  C   UNL     1     -40.656  44.044 -52.532  1.00  0.00     0.156 C 
BRANCH  12  13
ATOM     13  O   UNL     1     -39.368  43.975 -51.983  1.00  0.00    -0.396 OA
ATOM     14  H   UNL     1     -39.019  43.069 -52.190  1.00  0.00     0.210 HD
ENDBRANCH  12  13
ENDBRANCH  11  12
ENDBRANCH  10  11
ENDBRANCH   9  10
ENDBRANCH   8   9
ENDBRANCH   1   8
TORSDOF 11
ENDMDL
MODEL 7
REMARK VINA RESULT:    -4.568     11.768     14.424
REMARK INTER + INTRA:          -7.888
REMARK INTER:                  -6.553
REMARK INTRA:                  -1.335
REMARK UNBOUND:                -0.516
REMARK SMILES CCCCCCCCCCCCO
REMARK SMILES IDX 7 1 6 2 5 3 4 4 3 5 2 6 1 7 8 8 9 9 10 10 11 11 12 12 13 13
REMARK H PARENT 13 14
REMARK Flexibility Score: inf
ROOT
ATOM      1  C   UNL     1     -43.451  37.197 -50.934  1.00  0.00     0.000 C 
ENDROOT
BRANCH   1   2
ATOM      2  C   UNL     1     -44.404  38.309 -51.407  1.00  0.00    -0.000 C 
BRANCH   2   3
ATOM      3  C   UNL     1     -44.438  38.443 -52.939  1.00  0.00    -0.000 C 
BRANCH   3   4
ATOM      4  C   UNL     1     -43.415  39.462 -53.474  1.00  0.00    -0.000 C 
BRANCH   4   5
ATOM      5  C   UNL     1     -42.548  38.964 -54.645  1.00  0.00    -0.000 C 
BRANCH   5   6
ATOM      6  C   UNL     1     -42.076  37.513 -54.467  1.00  0.00    -0.003 C 
ATOM      7  C   UNL     1     -40.559  37.441 -54.329  1.00  0.00     0.004 C 
ENDBRANCH   5   6
ENDBRANCH   4   5
ENDBRANCH   3   4
ENDBRANCH   2   3
ENDBRANCH   1   2
BRANCH   1   8
ATOM      8  C   UNL     1     -42.327  37.726 -50.026  1.00  0.00     0.000 C 
BRANCH   8   9
ATOM      9  C   UNL     1     -41.097  38.189 -50.823  1.00  0.00     0.000 C 
BRANCH   9  10
ATOM     10  C   UNL     1     -40.624  39.595 -50.412  1.00  0.00     0.002 C 
BRANCH  10  11
ATOM     11  C   UNL     1     -41.778  40.607 -50.338  1.00  0.00     0.028 C 
BRANCH  11  12
ATOM     12  C   UNL     1     -41.383  41.994 -50.860  1.00  0.00     0.156 C 
BRANCH  12  13
ATOM     13  O   UNL     1     -41.368  42.919 -49.807  1.00  0.00    -0.396 OA
ATOM     14  H   UNL     1     -42.052  42.619 -49.154  1.00  0.00     0.210 HD
ENDBRANCH  12  13
ENDBRANCH  11  12
ENDBRANCH  10  11
ENDBRANCH   9  10
ENDBRANCH   8   9
ENDBRANCH   1   8
TORSDOF 11
ENDMDL
MODEL 8
REMARK VINA RESULT:    -4.566      2.261      2.634
REMARK INTER + INTRA:          -7.884
REMARK INTER:                  -7.374
REMARK INTRA:                  -0.509
REMARK UNBOUND:                -0.516
REMARK SMILES CCCCCCCCCCCCO
REMARK SMILES IDX 7 1 6 2 5 3 4 4 3 5 2 6 1 7 8 8 9 9 10 10 11 11 12 12 13 13
REMARK H PARENT 13 14
REMARK Flexibility Score: inf
ROOT
ATOM      1  C   UNL     1     -34.693  49.604 -52.158  1.00  0.00     0.000 C 
ENDROOT
BRANCH   1   2
ATOM      2  C   UNL     1     -35.918  49.245 -53.017  1.00  0.00    -0.000 C 
BRANCH   2   3
ATOM      3  C   UNL     1     -37.039  48.585 -52.197  1.00  0.00    -0.000 C 
BRANCH   3   4
ATOM      4  C   UNL     1     -38.446  48.943 -52.708  1.00  0.00    -0.000 C 
BRANCH   4   5
ATOM      5  C   UNL     1     -38.633  48.845 -54.233  1.00  0.00    -0.000 C 
BRANCH   5   6
ATOM      6  C   UNL     1     -39.062  50.175 -54.871  1.00  0.00    -0.003 C 
ATOM      7  C   UNL     1     -40.581  50.319 -54.875  1.00  0.00     0.004 C 
ENDBRANCH   5   6
ENDBRANCH   4   5
ENDBRANCH   3   4
ENDBRANCH   2   3
ENDBRANCH   1   2
BRANCH   1   8
ATOM      8  C   UNL     1     -34.365  51.107 -52.191  1.00  0.00     0.000 C 
BRANCH   8   9
ATOM      9  C   UNL     1     -33.167  51.467 -51.298  1.00  0.00     0.000 C 
BRANCH   9  10
ATOM     10  C   UNL     1     -31.863  51.630 -52.099  1.00  0.00     0.002 C 
BRANCH  10  11
ATOM     11  C   UNL     1     -32.081  51.492 -53.614  1.00  0.00     0.028 C 
BRANCH  11  12
ATOM     12  C   UNL     1     -31.169  50.435 -54.250  1.00  0.00     0.156 C 
BRANCH  12  13
ATOM     13  O   UNL     1     -31.596  49.150 -53.887  1.00  0.00    -0.396 OA
ATOM     14  H   UNL     1     -31.710  48.640 -54.731  1.00  0.00     0.210 HD
ENDBRANCH  12  13
ENDBRANCH  11  12
ENDBRANCH  10  11
ENDBRANCH   9  10
ENDBRANCH   8   9
ENDBRANCH   1   8
TORSDOF 11
ENDMDL
MODEL 9
REMARK VINA RESULT:    -4.520     10.724     13.044
REMARK INTER + INTRA:          -7.809
REMARK INTER:                  -7.007
REMARK INTRA:                  -0.803
REMARK UNBOUND:                -0.516
REMARK SMILES CCCCCCCCCCCCO
REMARK SMILES IDX 7 1 6 2 5 3 4 4 3 5 2 6 1 7 8 8 9 9 10 10 11 11 12 12 13 13
REMARK H PARENT 13 14
REMARK Flexibility Score: inf
ROOT
ATOM      1  C   UNL     1     -41.763  41.312 -50.258  1.00  0.00     0.000 C 
ENDROOT
BRANCH   1   2
ATOM      2  C   UNL     1     -41.205  39.994 -49.696  1.00  0.00    -0.000 C 
BRANCH   2   3
ATOM      3  C   UNL     1     -40.561  39.116 -50.782  1.00  0.00    -0.000 C 
BRANCH   3   4
ATOM      4  C   UNL     1     -41.263  37.756 -50.948  1.00  0.00    -0.000 C 
BRANCH   4   5
ATOM      5  C   UNL     1     -42.599  37.613 -50.196  1.00  0.00    -0.000 C 
BRANCH   5   6
ATOM      6  C   UNL     1     -43.807  37.500 -51.138  1.00  0.00    -0.003 C 
ATOM      7  C   UNL     1     -44.474  38.857 -51.341  1.00  0.00     0.004 C 
ENDBRANCH   5   6
ENDBRANCH   4   5
ENDBRANCH   3   4
ENDBRANCH   2   3
ENDBRANCH   1   2
BRANCH   1   8
ATOM      8  C   UNL     1     -40.675  42.192 -50.899  1.00  0.00     0.000 C 
BRANCH   8   9
ATOM      9  C   UNL     1     -41.261  43.266 -51.829  1.00  0.00     0.000 C 
BRANCH   9  10
ATOM     10  C   UNL     1     -42.468  42.754 -52.635  1.00  0.00     0.002 C 
BRANCH  10  11
ATOM     11  C   UNL     1     -42.815  43.668 -53.821  1.00  0.00     0.028 C 
BRANCH  11  12
ATOM     12  C   UNL     1     -43.189  45.089 -53.383  1.00  0.00     0.156 C 
BRANCH  12  13
ATOM     13  O   UNL     1     -44.387  45.071 -52.656  1.00  0.00    -0.396 OA
ATOM     14  H   UNL     1     -44.338  44.288 -52.047  1.00  0.00     0.210 HD
ENDBRANCH  12  13
ENDBRANCH  11  12
ENDBRANCH  10  11
ENDBRANCH   9  10
ENDBRANCH   8   9
ENDBRANCH   1   8
TORSDOF 11
ENDMDL
