MODEL 1
REMARK VINA RESULT:    -3.948      0.000      0.000
REMARK INTER + INTRA:          -7.167
REMARK INTER:                  -6.025
REMARK INTRA:                  -1.142
REMARK UNBOUND:                -1.142
REMARK SMILES CCCCCCCCCCC(=O)[O-]
REMARK SMILES IDX 7 1 8 2 9 3 10 4 11 5 12 6 13 7 6 8 5 9 4 10 3 11 2 12 1 13
REMARK H PARENT
REMARK Flexibility Score: inf
ROOT
ATOM      1  C   UNL     1      11.231 -16.671 -23.699  1.00  0.00     0.000 C 
ENDROOT
BRANCH   1   2
ATOM      2  C   UNL     1      10.186 -16.943 -22.602  1.00  0.00     0.000 C 
BRANCH   2   3
ATOM      3  C   UNL     1      10.601 -16.506 -21.186  1.00  0.00     0.006 C 
BRANCH   3   4
ATOM      4  C   UNL     1       9.939 -15.193 -20.748  1.00  0.00     0.053 C 
BRANCH   4   5
ATOM      5  C   UNL     1      10.620 -14.645 -19.534  1.00  0.00     0.041 C 
ATOM      6  O   UNL     1      10.668 -13.401 -19.342  1.00  0.00    -0.550 OA
ATOM      7  O   UNL     1      11.243 -15.505 -18.639  1.00  0.00    -0.550 OA
ENDBRANCH   4   5
ENDBRANCH   3   4
ENDBRANCH   2   3
ENDBRANCH   1   2
BRANCH   1   8
ATOM      8  C   UNL     1      10.618 -16.086 -24.980  1.00  0.00     0.000 C 
BRANCH   8   9
ATOM      9  C   UNL     1       9.121 -15.808 -24.797  1.00  0.00    -0.000 C 
BRANCH   9  10
ATOM     10  C   UNL     1       8.783 -14.354 -25.148  1.00  0.00    -0.000 C 
BRANCH  10  11
ATOM     11  C   UNL     1       8.533 -13.525 -23.879  1.00  0.00    -0.000 C 
BRANCH  11  12
ATOM     12  C   UNL     1       9.520 -12.357 -23.733  1.00  0.00    -0.003 C 
ATOM     13  C   UNL     1      10.864 -12.790 -23.146  1.00  0.00     0.004 C 
ENDBRANCH  11  12
ENDBRANCH  10  11
ENDBRANCH   9  10
ENDBRANCH   8   9
ENDBRANCH   1   8
TORSDOF 9
ENDMDL
MODEL 2
REMARK VINA RESULT:    -3.937      2.342      3.493
REMARK INTER + INTRA:          -7.151
REMARK INTER:                  -6.778
REMARK INTRA:                  -0.373
REMARK UNBOUND:                -1.142
REMARK SMILES CCCCCCCCCCC(=O)[O-]
REMARK SMILES IDX 7 1 8 2 9 3 10 4 11 5 12 6 13 7 6 8 5 9 4 10 3 11 2 12 1 13
REMARK H PARENT
REMARK Flexibility Score: inf
ROOT
ATOM      1  C   UNL     1       9.919 -13.779 -24.212  1.00  0.00     0.000 C 
ENDROOT
BRANCH   1   2
ATOM      2  C   UNL     1      10.180 -15.024 -23.347  1.00  0.00     0.000 C 
BRANCH   2   3
ATOM      3  C   UNL     1      10.904 -14.752 -22.016  1.00  0.00     0.006 C 
BRANCH   3   4
ATOM      4  C   UNL     1      10.116 -15.242 -20.795  1.00  0.00     0.053 C 
BRANCH   4   5
ATOM      5  C   UNL     1      10.723 -14.715 -19.534  1.00  0.00     0.041 C 
ATOM      6  O   UNL     1      11.211 -15.507 -18.686  1.00  0.00    -0.550 OA
ATOM      7  O   UNL     1      10.707 -13.350 -19.273  1.00  0.00    -0.550 OA
ENDBRANCH   4   5
ENDBRANCH   3   4
ENDBRANCH   2   3
ENDBRANCH   1   2
BRANCH   1   8
ATOM      8  C   UNL     1      10.075 -12.464 -23.435  1.00  0.00     0.000 C 
BRANCH   8   9
ATOM      9  C   UNL     1       9.129 -11.387 -23.980  1.00  0.00    -0.000 C 
BRANCH   9  10
ATOM     10  C   UNL     1       9.855 -10.461 -24.963  1.00  0.00    -0.000 C 
BRANCH  10  11
ATOM     11  C   UNL     1       9.505  -8.990 -24.695  1.00  0.00    -0.000 C 
BRANCH  11  12
ATOM     12  C   UNL     1       8.979  -8.271 -25.946  1.00  0.00    -0.003 C 
ATOM     13  C   UNL     1       8.546  -9.240 -27.046  1.00  0.00     0.004 C 
ENDBRANCH  11  12
ENDBRANCH  10  11
ENDBRANCH   9  10
ENDBRANCH   8   9
ENDBRANCH   1   8
TORSDOF 9
ENDMDL
MODEL 3
REMARK VINA RESULT:    -3.898      1.272      3.123
REMARK INTER + INTRA:          -7.092
REMARK INTER:                  -6.058
REMARK INTRA:                  -1.034
REMARK UNBOUND:                -1.142
REMARK SMILES CCCCCCCCCCC(=O)[O-]
REMARK SMILES IDX 7 1 8 2 9 3 10 4 11 5 12 6 13 7 6 8 5 9 4 10 3 11 2 12 1 13
REMARK H PARENT
REMARK Flexibility Score: inf
ROOT
ATOM      1  C   UNL     1      10.732 -14.815 -23.769  1.00  0.00     0.000 C 
ENDROOT
BRANCH   1   2
ATOM      2  C   UNL     1      10.861 -13.473 -23.026  1.00  0.00     0.000 C 
BRANCH   2   3
ATOM      3  C   UNL     1       9.979 -13.337 -21.772  1.00  0.00     0.006 C 
BRANCH   3   4
ATOM      4  C   UNL     1       9.960 -14.607 -20.913  1.00  0.00     0.053 C 
BRANCH   4   5
ATOM      5  C   UNL     1      10.609 -14.353 -19.590  1.00  0.00     0.041 C 
ATOM      6  O   UNL     1      10.770 -13.174 -19.179  1.00  0.00    -0.550 OA
ATOM      7  O   UNL     1      11.080 -15.417 -18.831  1.00  0.00    -0.550 OA
ENDBRANCH   4   5
ENDBRANCH   3   4
ENDBRANCH   2   3
ENDBRANCH   1   2
BRANCH   1   8
ATOM      8  C   UNL     1       9.595 -14.822 -24.802  1.00  0.00     0.000 C 
BRANCH   8   9
ATOM      9  C   UNL     1       8.474 -15.780 -24.381  1.00  0.00    -0.000 C 
BRANCH   9  10
ATOM     10  C   UNL     1       8.994 -17.217 -24.260  1.00  0.00    -0.000 C 
BRANCH  10  11
ATOM     11  C   UNL     1       8.863 -17.730 -22.818  1.00  0.00    -0.000 C 
BRANCH  11  12
ATOM     12  C   UNL     1      10.222 -18.075 -22.189  1.00  0.00    -0.003 C 
ATOM     13  C   UNL     1      11.277 -18.448 -23.230  1.00  0.00     0.004 C 
ENDBRANCH  11  12
ENDBRANCH  10  11
ENDBRANCH   9  10
ENDBRANCH   8   9
ENDBRANCH   1   8
TORSDOF 9
ENDMDL
MODEL 4
REMARK VINA RESULT:    -3.896      1.284      3.465
REMARK INTER + INTRA:          -7.087
REMARK INTER:                  -6.084
REMARK INTRA:                  -1.003
REMARK UNBOUND:                -1.142
REMARK SMILES CCCCCCCCCCC(=O)[O-]
REMARK SMILES IDX 7 1 8 2 9 3 10 4 11 5 12 6 13 7 6 8 5 9 4 10 3 11 2 12 1 13
REMARK H PARENT
REMARK Flexibility Score: inf
ROOT
ATOM      1  C   UNL     1      10.077 -14.197 -24.078  1.00  0.00     0.000 C 
ENDROOT
BRANCH   1   2
ATOM      2  C   UNL     1      10.915 -14.276 -22.790  1.00  0.00     0.000 C 
BRANCH   2   3
ATOM      3  C   UNL     1      10.496 -15.384 -21.807  1.00  0.00     0.006 C 
BRANCH   3   4
ATOM      4  C   UNL     1       9.725 -14.847 -20.595  1.00  0.00     0.053 C 
BRANCH   4   5
ATOM      5  C   UNL     1      10.664 -14.541 -19.472  1.00  0.00     0.041 C 
ATOM      6  O   UNL     1      11.210 -15.475 -18.829  1.00  0.00    -0.550 OA
ATOM      7  O   UNL     1      10.898 -13.222 -19.102  1.00  0.00    -0.550 OA
ENDBRANCH   4   5
ENDBRANCH   3   4
ENDBRANCH   2   3
ENDBRANCH   1   2
BRANCH   1   8
ATOM      8  C   UNL     1       9.457 -15.546 -24.474  1.00  0.00     0.000 C 
BRANCH   8   9
ATOM      9  C   UNL     1      10.080 -16.079 -25.770  1.00  0.00    -0.000 C 
BRANCH   9  10
ATOM     10  C   UNL     1      10.585 -17.515 -25.589  1.00  0.00    -0.000 C 
BRANCH  10  11
ATOM     11  C   UNL     1      11.614 -17.597 -24.452  1.00  0.00    -0.000 C 
BRANCH  11  12
ATOM     12  C   UNL     1      11.414 -18.834 -23.563  1.00  0.00    -0.003 C 
ATOM     13  C   UNL     1       9.971 -18.991 -23.084  1.00  0.00     0.004 C 
ENDBRANCH  11  12
ENDBRANCH  10  11
ENDBRANCH   9  10
ENDBRANCH   8   9
ENDBRANCH   1   8
TORSDOF 9
ENDMDL
MODEL 5
REMARK VINA RESULT:    -3.861      1.240      3.412
REMARK INTER + INTRA:          -7.034
REMARK INTER:                  -6.186
REMARK INTRA:                  -0.848
REMARK UNBOUND:                -1.142
REMARK SMILES CCCCCCCCCCC(=O)[O-]
REMARK SMILES IDX 7 1 8 2 9 3 10 4 11 5 12 6 13 7 6 8 5 9 4 10 3 11 2 12 1 13
REMARK H PARENT
REMARK Flexibility Score: inf
ROOT
ATOM      1  C   UNL     1      10.127 -14.562 -24.389  1.00  0.00     0.000 C 
ENDROOT
BRANCH   1   2
ATOM      2  C   UNL     1       9.281 -14.317 -23.127  1.00  0.00     0.000 C 
BRANCH   2   3
ATOM      3  C   UNL     1      10.087 -13.971 -21.862  1.00  0.00     0.006 C 
BRANCH   3   4
ATOM      4  C   UNL     1       9.807 -14.926 -20.694  1.00  0.00     0.053 C 
BRANCH   4   5
ATOM      5  C   UNL     1      10.594 -14.522 -19.488  1.00  0.00     0.041 C 
ATOM      6  O   UNL     1      10.748 -13.304 -19.211  1.00  0.00    -0.550 OA
ATOM      7  O   UNL     1      11.199 -15.490 -18.697  1.00  0.00    -0.550 OA
ENDBRANCH   4   5
ENDBRANCH   3   4
ENDBRANCH   2   3
ENDBRANCH   1   2
BRANCH   1   8
ATOM      8  C   UNL     1       9.635 -15.757 -25.219  1.00  0.00     0.000 C 
BRANCH   8   9
ATOM      9  C   UNL     1      10.605 -16.940 -25.109  1.00  0.00    -0.000 C 
BRANCH   9  10
ATOM     10  C   UNL     1      11.470 -16.828 -23.847  1.00  0.00    -0.000 C 
BRANCH  10  11
ATOM     11  C   UNL     1      11.584 -18.185 -23.137  1.00  0.00    -0.000 C 
BRANCH  11  12
ATOM     12  C   UNL     1      10.237 -18.918 -23.045  1.00  0.00    -0.003 C 
ATOM     13  C   UNL     1       9.321 -18.339 -21.968  1.00  0.00     0.004 C 
ENDBRANCH  11  12
ENDBRANCH  10  11
ENDBRANCH   9  10
ENDBRANCH   8   9
ENDBRANCH   1   8
TORSDOF 9
ENDMDL
MODEL 6
REMARK VINA RESULT:    -3.820      1.765      2.441
REMARK INTER + INTRA:          -6.972
REMARK INTER:                  -6.286
REMARK INTRA:                  -0.686
REMARK UNBOUND:                -1.142
REMARK SMILES CCCCCCCCCCC(=O)[O-]
REMARK SMILES IDX 7 1 8 2 9 3 10 4 11 5 12 6 13 7 6 8 5 9 4 10 3 11 2 12 1 13
REMARK H PARENT
REMARK Flexibility Score: inf
ROOT
ATOM      1  C   UNL     1      10.128 -15.272 -24.465  1.00  0.00     0.000 C 
ENDROOT
BRANCH   1   2
ATOM      2  C   UNL     1      10.125 -16.023 -23.122  1.00  0.00     0.000 C 
BRANCH   2   3
ATOM      3  C   UNL     1      10.798 -15.277 -21.957  1.00  0.00     0.006 C 
BRANCH   3   4
ATOM      4  C   UNL     1       9.813 -14.886 -20.848  1.00  0.00     0.053 C 
BRANCH   4   5
ATOM      5  C   UNL     1      10.185 -13.562 -20.261  1.00  0.00     0.041 C 
ATOM      6  O   UNL     1       9.965 -12.500 -20.901  1.00  0.00    -0.550 OA
ATOM      7  O   UNL     1      10.821 -13.503 -19.026  1.00  0.00    -0.550 OA
ENDBRANCH   4   5
ENDBRANCH   3   4
ENDBRANCH   2   3
ENDBRANCH   1   2
BRANCH   1   8
ATOM      8  C   UNL     1      10.059 -13.746 -24.300  1.00  0.00     0.000 C 
BRANCH   8   9
ATOM      9  C   UNL     1       8.604 -13.270 -24.200  1.00  0.00    -0.000 C 
BRANCH   9  10
ATOM     10  C   UNL     1       8.523 -11.739 -24.230  1.00  0.00    -0.000 C 
BRANCH  10  11
ATOM     11  C   UNL     1       9.771 -11.135 -24.892  1.00  0.00    -0.000 C 
BRANCH  11  12
ATOM     12  C   UNL     1      10.076  -9.715 -24.390  1.00  0.00    -0.003 C 
ATOM     13  C   UNL     1       9.107  -8.672 -24.946  1.00  0.00     0.004 C 
ENDBRANCH  11  12
ENDBRANCH  10  11
ENDBRANCH   9  10
ENDBRANCH   8   9
ENDBRANCH   1   8
TORSDOF 9
ENDMDL
MODEL 7
REMARK VINA RESULT:    -3.800      3.245      4.603
REMARK INTER + INTRA:          -6.942
REMARK INTER:                  -6.110
REMARK INTRA:                  -0.832
REMARK UNBOUND:                -1.142
REMARK SMILES CCCCCCCCCCC(=O)[O-]
REMARK SMILES IDX 7 1 8 2 9 3 10 4 11 5 12 6 13 7 6 8 5 9 4 10 3 11 2 12 1 13
REMARK H PARENT
REMARK Flexibility Score: inf
ROOT
ATOM      1  C   UNL     1      10.825 -16.058 -23.016  1.00  0.00     0.000 C 
ENDROOT
BRANCH   1   2
ATOM      2  C   UNL     1       9.571 -16.945 -22.913  1.00  0.00     0.000 C 
BRANCH   2   3
ATOM      3  C   UNL     1       9.801 -18.324 -22.269  1.00  0.00     0.006 C 
BRANCH   3   4
ATOM      4  C   UNL     1       9.553 -19.486 -23.240  1.00  0.00     0.053 C 
BRANCH   4   5
ATOM      5  C   UNL     1      10.850 -19.998 -23.784  1.00  0.00     0.041 C 
ATOM      6  O   UNL     1      10.900 -21.122 -24.348  1.00  0.00    -0.550 OA
ATOM      7  O   UNL     1      12.012 -19.254 -23.624  1.00  0.00    -0.550 OA
ENDBRANCH   4   5
ENDBRANCH   3   4
ENDBRANCH   2   3
ENDBRANCH   1   2
BRANCH   1   8
ATOM      8  C   UNL     1      10.627 -14.843 -23.935  1.00  0.00     0.000 C 
BRANCH   8   9
ATOM      9  C   UNL     1      10.921 -13.536 -23.189  1.00  0.00    -0.000 C 
BRANCH   9  10
ATOM     10  C   UNL     1       9.751 -13.146 -22.278  1.00  0.00    -0.000 C 
BRANCH  10  11
ATOM     11  C   UNL     1      10.202 -13.054 -20.813  1.00  0.00    -0.000 C 
BRANCH  11  12
ATOM     12  C   UNL     1       9.763 -14.269 -19.982  1.00  0.00    -0.003 C 
ATOM     13  C   UNL     1      10.942 -15.131 -19.529  1.00  0.00     0.004 C 
ENDBRANCH  11  12
ENDBRANCH  10  11
ENDBRANCH   9  10
ENDBRANCH   8   9
ENDBRANCH   1   8
TORSDOF 9
ENDMDL
MODEL 8
REMARK VINA RESULT:    -3.706      1.147      3.084
REMARK INTER + INTRA:          -6.799
REMARK INTER:                  -5.724
REMARK INTRA:                  -1.075
REMARK UNBOUND:                -1.142
REMARK SMILES CCCCCCCCCCC(=O)[O-]
REMARK SMILES IDX 7 1 8 2 9 3 10 4 11 5 12 6 13 7 6 8 5 9 4 10 3 11 2 12 1 13
REMARK H PARENT
REMARK Flexibility Score: inf
ROOT
ATOM      1  C   UNL     1      10.135 -12.258 -24.015  1.00  0.00     0.000 C 
ENDROOT
BRANCH   1   2
ATOM      2  C   UNL     1      10.548 -12.364 -22.536  1.00  0.00     0.000 C 
BRANCH   2   3
ATOM      3  C   UNL     1       9.765 -13.404 -21.715  1.00  0.00     0.006 C 
BRANCH   3   4
ATOM      4  C   UNL     1      10.216 -13.472 -20.250  1.00  0.00     0.053 C 
BRANCH   4   5
ATOM      5  C   UNL     1      10.318 -14.895 -19.800  1.00  0.00     0.041 C 
ATOM      6  O   UNL     1      11.043 -15.197 -18.816  1.00  0.00    -0.550 OA
ATOM      7  O   UNL     1       9.651 -15.894 -20.498  1.00  0.00    -0.550 OA
ENDBRANCH   4   5
ENDBRANCH   3   4
ENDBRANCH   2   3
ENDBRANCH   1   2
BRANCH   1   8
ATOM      8  C   UNL     1       8.645 -12.552 -24.245  1.00  0.00     0.000 C 
BRANCH   8   9
ATOM      9  C   UNL     1       8.458 -13.698 -25.246  1.00  0.00    -0.000 C 
BRANCH   9  10
ATOM     10  C   UNL     1       7.987 -14.975 -24.539  1.00  0.00    -0.000 C 
BRANCH  10  11
ATOM     11  C   UNL     1       8.827 -16.186 -24.976  1.00  0.00    -0.000 C 
BRANCH  11  12
ATOM     12  C   UNL     1      10.324 -15.858 -25.080  1.00  0.00    -0.003 C 
ATOM     13  C   UNL     1      11.075 -16.103 -23.772  1.00  0.00     0.004 C 
ENDBRANCH  11  12
ENDBRANCH  10  11
ENDBRANCH   9  10
ENDBRANCH   8   9
ENDBRANCH   1   8
TORSDOF 9
ENDMDL
MODEL 9
REMARK VINA RESULT:    -3.669      2.923      4.721
REMARK INTER + INTRA:          -6.742
REMARK INTER:                  -5.793
REMARK INTRA:                  -0.949
REMARK UNBOUND:                -1.142
REMARK SMILES CCCCCCCCCCC(=O)[O-]
REMARK SMILES IDX 7 1 8 2 9 3 10 4 11 5 12 6 13 7 6 8 5 9 4 10 3 11 2 12 1 13
REMARK H PARENT
REMARK Flexibility Score: inf
ROOT
ATOM      1  C   UNL     1      10.125 -14.884 -24.726  1.00  0.00     0.000 C 
ENDROOT
BRANCH   1   2
ATOM      2  C   UNL     1       8.941 -13.941 -24.448  1.00  0.00     0.000 C 
BRANCH   2   3
ATOM      3  C   UNL     1       9.135 -12.987 -23.257  1.00  0.00     0.006 C 
BRANCH   3   4
ATOM      4  C   UNL     1      10.206 -11.919 -23.514  1.00  0.00     0.053 C 
BRANCH   4   5
ATOM      5  C   UNL     1       9.667 -10.842 -24.402  1.00  0.00     0.041 C 
ATOM      6  O   UNL     1      10.195 -10.622 -25.523  1.00  0.00    -0.550 OA
ATOM      7  O   UNL     1       8.612 -10.049 -23.970  1.00  0.00    -0.550 OA
ENDBRANCH   4   5
ENDBRANCH   3   4
ENDBRANCH   2   3
ENDBRANCH   1   2
BRANCH   1   8
ATOM      8  C   UNL     1       9.975 -16.254 -24.048  1.00  0.00     0.000 C 
BRANCH   8   9
ATOM      9  C   UNL     1      11.165 -16.545 -23.125  1.00  0.00    -0.000 C 
BRANCH   9  10
ATOM     10  C   UNL     1      10.690 -16.981 -21.734  1.00  0.00    -0.000 C 
BRANCH  10  11
ATOM     11  C   UNL     1       9.918 -15.850 -21.037  1.00  0.00    -0.000 C 
BRANCH  11  12
ATOM     12  C   UNL     1      10.732 -15.183 -19.918  1.00  0.00    -0.003 C 
ATOM     13  C   UNL     1      10.439 -13.689 -19.784  1.00  0.00     0.004 C 
ENDBRANCH  11  12
ENDBRANCH  10  11
ENDBRANCH   9  10
ENDBRANCH   8   9
ENDBRANCH   1   8
TORSDOF 9
ENDMDL
