MODEL 1
REMARK VINA RESULT:    -6.163      0.000      0.000
REMARK INTER + INTRA:         -12.322
REMARK INTER:                 -11.207
REMARK INTRA:                  -1.115
REMARK UNBOUND:                -1.115
REMARK SMILES CCCCCCCCCCCCCC[C@@H](C)C(=O)[O-]
REMARK SMILES IDX 9 1 10 2 11 3 12 4 13 5 14 6 15 7 16 8 17 9 18 10 19 11 8 12
REMARK SMILES IDX 7 13 6 14 5 15 4 16 3 17 2 18 1 19
REMARK H PARENT
REMARK Flexibility Score: inf
ROOT
ATOM      1  C   UNL     1      -0.491 -28.758   6.157  1.00  0.00     0.000 C 
ENDROOT
BRANCH   1   2
ATOM      2  C   UNL     1       0.364 -29.432   5.069  1.00  0.00     0.000 C 
BRANCH   2   3
ATOM      3  C   UNL     1       0.831 -28.452   3.982  1.00  0.00     0.000 C 
BRANCH   3   4
ATOM      4  C   UNL     1       0.486 -28.980   2.582  1.00  0.00     0.000 C 
BRANCH   4   5
ATOM      5  C   UNL     1      -0.153 -27.911   1.678  1.00  0.00     0.001 C 
BRANCH   5   6
ATOM      6  C   UNL     1      -1.695 -27.884   1.683  1.00  0.00     0.009 C 
BRANCH   6   7
ATOM      7  C   UNL     1      -2.309 -26.505   2.011  1.00  0.00     0.032 C 
ATOM      8  C   UNL     1      -1.639 -25.902   3.249  1.00  0.00     0.014 C 
BRANCH   7   9
ATOM      9  C   UNL     1      -2.178 -25.555   0.851  1.00  0.00     0.044 C 
ATOM     10  O   UNL     1      -2.444 -25.942  -0.317  1.00  0.00    -0.550 OA
ATOM     11  O   UNL     1      -1.765 -24.244   1.061  1.00  0.00    -0.550 OA
ENDBRANCH   7   9
ENDBRANCH   6   7
ENDBRANCH   5   6
ENDBRANCH   4   5
ENDBRANCH   3   4
ENDBRANCH   2   3
ENDBRANCH   1   2
BRANCH   1  12
ATOM     12  C   UNL     1      -0.184 -27.269   6.394  1.00  0.00     0.000 C 
BRANCH  12  13
ATOM     13  C   UNL     1       0.110 -26.948   7.870  1.00  0.00    -0.000 C 
BRANCH  13  14
ATOM     14  C   UNL     1      -1.163 -26.889   8.727  1.00  0.00    -0.000 C 
BRANCH  14  15
ATOM     15  C   UNL     1      -0.859 -26.758  10.228  1.00  0.00    -0.000 C 
BRANCH  15  16
ATOM     16  C   UNL     1      -1.957 -25.955  10.942  1.00  0.00    -0.000 C 
BRANCH  16  17
ATOM     17  C   UNL     1      -3.371 -26.278  10.422  1.00  0.00    -0.000 C 
BRANCH  17  18
ATOM     18  C   UNL     1      -4.215 -25.049  10.042  1.00  0.00    -0.003 C 
ATOM     19  C   UNL     1      -4.251 -23.986  11.140  1.00  0.00     0.004 C 
ENDBRANCH  17  18
ENDBRANCH  16  17
ENDBRANCH  15  16
ENDBRANCH  14  15
ENDBRANCH  13  14
ENDBRANCH  12  13
ENDBRANCH   1  12
TORSDOF 14
ENDMDL
MODEL 2
REMARK VINA RESULT:    -6.086      1.156      1.565
REMARK INTER + INTRA:         -12.182
REMARK INTER:                 -10.706
REMARK INTRA:                  -1.476
REMARK UNBOUND:                -1.115
REMARK SMILES CCCCCCCCCCCCCC[C@@H](C)C(=O)[O-]
REMARK SMILES IDX 9 1 10 2 11 3 12 4 13 5 14 6 15 7 16 8 17 9 18 10 19 11 8 12
REMARK SMILES IDX 7 13 6 14 5 15 4 16 3 17 2 18 1 19
REMARK H PARENT
REMARK Flexibility Score: inf
ROOT
ATOM      1  C   UNL     1      -0.516 -27.844   6.625  1.00  0.00     0.000 C 
ENDROOT
BRANCH   1   2
ATOM      2  C   UNL     1      -0.196 -29.239   6.058  1.00  0.00     0.000 C 
BRANCH   2   3
ATOM      3  C   UNL     1       1.127 -29.281   5.278  1.00  0.00     0.000 C 
BRANCH   3   4
ATOM      4  C   UNL     1       0.891 -29.680   3.815  1.00  0.00     0.000 C 
BRANCH   4   5
ATOM      5  C   UNL     1       1.274 -28.570   2.821  1.00  0.00     0.001 C 
BRANCH   5   6
ATOM      6  C   UNL     1       0.746 -27.163   3.172  1.00  0.00     0.009 C 
BRANCH   6   7
ATOM      7  C   UNL     1      -0.792 -27.033   3.144  1.00  0.00     0.032 C 
ATOM      8  C   UNL     1      -1.221 -25.647   3.637  1.00  0.00     0.014 C 
BRANCH   7   9
ATOM      9  C   UNL     1      -1.340 -27.270   1.763  1.00  0.00     0.044 C 
ATOM     10  O   UNL     1      -2.277 -28.093   1.587  1.00  0.00    -0.550 OA
ATOM     11  O   UNL     1      -0.818 -26.583   0.673  1.00  0.00    -0.550 OA
ENDBRANCH   7   9
ENDBRANCH   6   7
ENDBRANCH   5   6
ENDBRANCH   4   5
ENDBRANCH   3   4
ENDBRANCH   2   3
ENDBRANCH   1   2
BRANCH   1  12
ATOM     12  C   UNL     1       0.711 -27.028   7.070  1.00  0.00     0.000 C 
BRANCH  12  13
ATOM     13  C   UNL     1       0.655 -26.627   8.555  1.00  0.00    -0.000 C 
BRANCH  13  14
ATOM     14  C   UNL     1      -0.708 -26.925   9.196  1.00  0.00    -0.000 C 
BRANCH  14  15
ATOM     15  C   UNL     1      -0.728 -26.629  10.704  1.00  0.00    -0.000 C 
BRANCH  15  16
ATOM     16  C   UNL     1      -2.034 -25.929  11.109  1.00  0.00    -0.000 C 
BRANCH  16  17
ATOM     17  C   UNL     1      -3.145 -26.075  10.052  1.00  0.00    -0.000 C 
BRANCH  17  18
ATOM     18  C   UNL     1      -4.478 -25.398  10.420  1.00  0.00    -0.003 C 
ATOM     19  C   UNL     1      -4.298 -23.988  10.980  1.00  0.00     0.004 C 
ENDBRANCH  17  18
ENDBRANCH  16  17
ENDBRANCH  15  16
ENDBRANCH  14  15
ENDBRANCH  13  14
ENDBRANCH  12  13
ENDBRANCH   1  12
TORSDOF 14
ENDMDL
MODEL 3
REMARK VINA RESULT:    -5.879      1.243      1.644
REMARK INTER + INTRA:         -11.805
REMARK INTER:                 -10.607
REMARK INTRA:                  -1.198
REMARK UNBOUND:                -1.115
REMARK SMILES CCCCCCCCCCCCCC[C@@H](C)C(=O)[O-]
REMARK SMILES IDX 9 1 10 2 11 3 12 4 13 5 14 6 15 7 16 8 17 9 18 10 19 11 8 12
REMARK SMILES IDX 7 13 6 14 5 15 4 16 3 17 2 18 1 19
REMARK H PARENT
REMARK Flexibility Score: inf
ROOT
ATOM      1  C   UNL     1       0.968 -28.554   5.293  1.00  0.00     0.000 C 
ENDROOT
BRANCH   1   2
ATOM      2  C   UNL     1       0.887 -29.542   4.116  1.00  0.00     0.000 C 
BRANCH   2   3
ATOM      3  C   UNL     1       1.132 -28.874   2.754  1.00  0.00     0.000 C 
BRANCH   3   4
ATOM      4  C   UNL     1      -0.066 -29.078   1.817  1.00  0.00     0.000 C 
BRANCH   4   5
ATOM      5  C   UNL     1      -1.262 -28.175   2.165  1.00  0.00     0.001 C 
BRANCH   5   6
ATOM      6  C   UNL     1      -1.338 -26.853   1.373  1.00  0.00     0.009 C 
BRANCH   6   7
ATOM      7  C   UNL     1      -1.333 -25.582   2.250  1.00  0.00     0.032 C 
ATOM      8  C   UNL     1      -1.271 -25.957   3.735  1.00  0.00     0.014 C 
BRANCH   7   9
ATOM      9  C   UNL     1      -0.179 -24.680   1.907  1.00  0.00     0.044 C 
ATOM     10  O   UNL     1      -0.274 -23.869   0.949  1.00  0.00    -0.550 OA
ATOM     11  O   UNL     1       0.999 -24.736   2.644  1.00  0.00    -0.550 OA
ENDBRANCH   7   9
ENDBRANCH   6   7
ENDBRANCH   5   6
ENDBRANCH   4   5
ENDBRANCH   3   4
ENDBRANCH   2   3
ENDBRANCH   1   2
BRANCH   1  12
ATOM     12  C   UNL     1       0.034 -28.875   6.473  1.00  0.00     0.000 C 
BRANCH  12  13
ATOM     13  C   UNL     1      -0.631 -27.620   7.068  1.00  0.00    -0.000 C 
BRANCH  13  14
ATOM     14  C   UNL     1       0.301 -26.852   8.018  1.00  0.00    -0.000 C 
BRANCH  14  15
ATOM     15  C   UNL     1      -0.211 -26.844   9.466  1.00  0.00    -0.000 C 
BRANCH  15  16
ATOM     16  C   UNL     1      -1.745 -26.900   9.507  1.00  0.00    -0.000 C 
BRANCH  16  17
ATOM     17  C   UNL     1      -2.355 -25.926  10.534  1.00  0.00    -0.000 C 
BRANCH  17  18
ATOM     18  C   UNL     1      -3.821 -25.542  10.268  1.00  0.00    -0.003 C 
ATOM     19  C   UNL     1      -4.249 -24.271  11.001  1.00  0.00     0.004 C 
ENDBRANCH  17  18
ENDBRANCH  16  17
ENDBRANCH  15  16
ENDBRANCH  14  15
ENDBRANCH  13  14
ENDBRANCH  12  13
ENDBRANCH   1  12
TORSDOF 14
ENDMDL
MODEL 4
REMARK VINA RESULT:    -5.850      1.423      1.969
REMARK INTER + INTRA:         -11.752
REMARK INTER:                 -10.864
REMARK INTRA:                  -0.888
REMARK UNBOUND:                -1.115
REMARK SMILES CCCCCCCCCCCCCC[C@@H](C)C(=O)[O-]
REMARK SMILES IDX 9 1 10 2 11 3 12 4 13 5 14 6 15 7 16 8 17 9 18 10 19 11 8 12
REMARK SMILES IDX 7 13 6 14 5 15 4 16 3 17 2 18 1 19
REMARK H PARENT
REMARK Flexibility Score: inf
ROOT
ATOM      1  C   UNL     1      -0.440 -26.897   5.616  1.00  0.00     0.000 C 
ENDROOT
BRANCH   1   2
ATOM      2  C   UNL     1      -0.864 -26.728   4.146  1.00  0.00     0.000 C 
BRANCH   2   3
ATOM      3  C   UNL     1      -0.376 -27.873   3.245  1.00  0.00     0.000 C 
BRANCH   3   4
ATOM      4  C   UNL     1      -1.201 -27.945   1.952  1.00  0.00     0.000 C 
BRANCH   4   5
ATOM      5  C   UNL     1      -2.139 -26.739   1.771  1.00  0.00     0.001 C 
BRANCH   5   6
ATOM      6  C   UNL     1      -2.138 -26.113   0.361  1.00  0.00     0.009 C 
BRANCH   6   7
ATOM      7  C   UNL     1      -2.019 -24.574   0.345  1.00  0.00     0.032 C 
ATOM      8  C   UNL     1      -1.059 -24.100   1.441  1.00  0.00     0.014 C 
BRANCH   7   9
ATOM      9  C   UNL     1      -1.547 -24.071  -0.993  1.00  0.00     0.044 C 
ATOM     10  O   UNL     1      -2.360 -23.528  -1.786  1.00  0.00    -0.550 OA
ATOM     11  O   UNL     1      -0.213 -24.202  -1.361  1.00  0.00    -0.550 OA
ENDBRANCH   7   9
ENDBRANCH   6   7
ENDBRANCH   5   6
ENDBRANCH   4   5
ENDBRANCH   3   4
ENDBRANCH   2   3
ENDBRANCH   1   2
BRANCH   1  12
ATOM     12  C   UNL     1      -0.408 -28.352   6.118  1.00  0.00     0.000 C 
BRANCH  12  13
ATOM     13  C   UNL     1       0.068 -28.470   7.577  1.00  0.00    -0.000 C 
BRANCH  13  14
ATOM     14  C   UNL     1      -0.323 -27.251   8.426  1.00  0.00    -0.000 C 
BRANCH  14  15
ATOM     15  C   UNL     1      -1.561 -27.513   9.298  1.00  0.00    -0.000 C 
BRANCH  15  16
ATOM     16  C   UNL     1      -1.972 -26.245  10.062  1.00  0.00    -0.000 C 
BRANCH  16  17
ATOM     17  C   UNL     1      -3.470 -26.219  10.418  1.00  0.00    -0.000 C 
BRANCH  17  18
ATOM     18  C   UNL     1      -4.181 -24.887  10.119  1.00  0.00    -0.003 C 
ATOM     19  C   UNL     1      -4.214 -23.943  11.321  1.00  0.00     0.004 C 
ENDBRANCH  17  18
ENDBRANCH  16  17
ENDBRANCH  15  16
ENDBRANCH  14  15
ENDBRANCH  13  14
ENDBRANCH  12  13
ENDBRANCH   1  12
TORSDOF 14
ENDMDL
MODEL 5
REMARK VINA RESULT:    -5.821      1.392      2.922
REMARK INTER + INTRA:         -11.699
REMARK INTER:                 -10.236
REMARK INTRA:                  -1.464
REMARK UNBOUND:                -1.115
REMARK SMILES CCCCCCCCCCCCCC[C@@H](C)C(=O)[O-]
REMARK SMILES IDX 9 1 10 2 11 3 12 4 13 5 14 6 15 7 16 8 17 9 18 10 19 11 8 12
REMARK SMILES IDX 7 13 6 14 5 15 4 16 3 17 2 18 1 19
REMARK H PARENT
REMARK Flexibility Score: inf
ROOT
ATOM      1  C   UNL     1       1.710 -29.349   3.604  1.00  0.00     0.000 C 
ENDROOT
BRANCH   1   2
ATOM      2  C   UNL     1       0.750 -30.208   2.762  1.00  0.00     0.000 C 
BRANCH   2   3
ATOM      3  C   UNL     1       0.245 -29.486   1.504  1.00  0.00     0.000 C 
BRANCH   3   4
ATOM      4  C   UNL     1      -0.214 -28.059   1.835  1.00  0.00     0.000 C 
BRANCH   4   5
ATOM      5  C   UNL     1      -1.739 -27.943   2.004  1.00  0.00     0.001 C 
BRANCH   5   6
ATOM      6  C   UNL     1      -2.335 -26.565   1.649  1.00  0.00     0.009 C 
BRANCH   6   7
ATOM      7  C   UNL     1      -1.620 -25.840   0.487  1.00  0.00     0.032 C 
ATOM      8  C   UNL     1      -2.616 -25.508  -0.629  1.00  0.00     0.014 C 
BRANCH   7   9
ATOM      9  C   UNL     1      -0.947 -24.578   0.957  1.00  0.00     0.044 C 
ATOM     10  O   UNL     1      -0.429 -23.790   0.123  1.00  0.00    -0.550 OA
ATOM     11  O   UNL     1      -0.894 -24.275   2.313  1.00  0.00    -0.550 OA
ENDBRANCH   7   9
ENDBRANCH   6   7
ENDBRANCH   5   6
ENDBRANCH   4   5
ENDBRANCH   3   4
ENDBRANCH   2   3
ENDBRANCH   1   2
BRANCH   1  12
ATOM     12  C   UNL     1       1.388 -29.303   5.109  1.00  0.00     0.000 C 
BRANCH  12  13
ATOM     13  C   UNL     1      -0.114 -29.123   5.393  1.00  0.00    -0.000 C 
BRANCH  13  14
ATOM     14  C   UNL     1      -0.484 -27.667   5.712  1.00  0.00    -0.000 C 
BRANCH  14  15
ATOM     15  C   UNL     1       0.682 -26.884   6.334  1.00  0.00    -0.000 C 
BRANCH  15  16
ATOM     16  C   UNL     1       0.607 -26.915   7.868  1.00  0.00    -0.000 C 
BRANCH  16  17
ATOM     17  C   UNL     1      -0.838 -26.986   8.397  1.00  0.00    -0.000 C 
BRANCH  17  18
ATOM     18  C   UNL     1      -0.986 -26.721   9.905  1.00  0.00    -0.003 C 
ATOM     19  C   UNL     1      -2.359 -26.167  10.283  1.00  0.00     0.004 C 
ENDBRANCH  17  18
ENDBRANCH  16  17
ENDBRANCH  15  16
ENDBRANCH  14  15
ENDBRANCH  13  14
ENDBRANCH  12  13
ENDBRANCH   1  12
TORSDOF 14
ENDMDL
MODEL 6
REMARK VINA RESULT:    -5.812      3.415      7.731
REMARK INTER + INTRA:         -11.684
REMARK INTER:                 -10.232
REMARK INTRA:                  -1.452
REMARK UNBOUND:                -1.115
REMARK SMILES CCCCCCCCCCCCCC[C@@H](C)C(=O)[O-]
REMARK SMILES IDX 9 1 10 2 11 3 12 4 13 5 14 6 15 7 16 8 17 9 18 10 19 11 8 12
REMARK SMILES IDX 7 13 6 14 5 15 4 16 3 17 2 18 1 19
REMARK H PARENT
REMARK Flexibility Score: inf
ROOT
ATOM      1  C   UNL     1       0.005 -29.125   5.291  1.00  0.00     0.000 C 
ENDROOT
BRANCH   1   2
ATOM      2  C   UNL     1      -0.474 -28.679   6.684  1.00  0.00     0.000 C 
BRANCH   2   3
ATOM      3  C   UNL     1      -0.169 -27.203   6.980  1.00  0.00     0.000 C 
BRANCH   3   4
ATOM      4  C   UNL     1       0.057 -26.978   8.482  1.00  0.00     0.000 C 
BRANCH   4   5
ATOM      5  C   UNL     1      -1.126 -27.451   9.344  1.00  0.00     0.001 C 
BRANCH   5   6
ATOM      6  C   UNL     1      -2.302 -26.457   9.447  1.00  0.00     0.009 C 
BRANCH   6   7
ATOM      7  C   UNL     1      -2.684 -26.067  10.892  1.00  0.00     0.032 C 
ATOM      8  C   UNL     1      -1.430 -25.716  11.700  1.00  0.00     0.014 C 
BRANCH   7   9
ATOM      9  C   UNL     1      -3.641 -24.906  10.914  1.00  0.00     0.044 C 
ATOM     10  O   UNL     1      -4.567 -24.834  10.063  1.00  0.00    -0.550 OA
ATOM     11  O   UNL     1      -3.512 -23.908  11.872  1.00  0.00    -0.550 OA
ENDBRANCH   7   9
ENDBRANCH   6   7
ENDBRANCH   5   6
ENDBRANCH   4   5
ENDBRANCH   3   4
ENDBRANCH   2   3
ENDBRANCH   1   2
BRANCH   1  12
ATOM     12  C   UNL     1       1.289 -28.435   4.796  1.00  0.00     0.000 C 
BRANCH  12  13
ATOM     13  C   UNL     1       1.648 -28.810   3.347  1.00  0.00    -0.000 C 
BRANCH  13  14
ATOM     14  C   UNL     1       0.847 -30.016   2.833  1.00  0.00    -0.000 C 
BRANCH  14  15
ATOM     15  C   UNL     1      -0.079 -29.653   1.663  1.00  0.00    -0.000 C 
BRANCH  15  16
ATOM     16  C   UNL     1      -0.293 -28.134   1.583  1.00  0.00    -0.000 C 
BRANCH  16  17
ATOM     17  C   UNL     1      -1.737 -27.713   1.915  1.00  0.00    -0.000 C 
BRANCH  17  18
ATOM     18  C   UNL     1      -1.901 -26.239   2.326  1.00  0.00    -0.003 C 
ATOM     19  C   UNL     1      -1.319 -25.935   3.706  1.00  0.00     0.004 C 
ENDBRANCH  17  18
ENDBRANCH  16  17
ENDBRANCH  15  16
ENDBRANCH  14  15
ENDBRANCH  13  14
ENDBRANCH  12  13
ENDBRANCH   1  12
TORSDOF 14
ENDMDL
MODEL 7
REMARK VINA RESULT:    -5.765      1.862      2.674
REMARK INTER + INTRA:         -11.598
REMARK INTER:                  -9.784
REMARK INTRA:                  -1.814
REMARK UNBOUND:                -1.115
REMARK SMILES CCCCCCCCCCCCCC[C@@H](C)C(=O)[O-]
REMARK SMILES IDX 9 1 10 2 11 3 12 4 13 5 14 6 15 7 16 8 17 9 18 10 19 11 8 12
REMARK SMILES IDX 7 13 6 14 5 15 4 16 3 17 2 18 1 19
REMARK H PARENT
REMARK Flexibility Score: inf
ROOT
ATOM      1  C   UNL     1       0.446 -29.214   5.136  1.00  0.00     0.000 C 
ENDROOT
BRANCH   1   2
ATOM      2  C   UNL     1       1.119 -29.194   3.753  1.00  0.00     0.000 C 
BRANCH   2   3
ATOM      3  C   UNL     1       0.529 -30.229   2.783  1.00  0.00     0.000 C 
BRANCH   3   4
ATOM      4  C   UNL     1       0.034 -29.556   1.495  1.00  0.00     0.000 C 
BRANCH   4   5
ATOM      5  C   UNL     1      -0.248 -28.054   1.672  1.00  0.00     0.001 C 
BRANCH   5   6
ATOM      6  C   UNL     1      -1.739 -27.659   1.653  1.00  0.00     0.009 C 
BRANCH   6   7
ATOM      7  C   UNL     1      -2.008 -26.164   1.928  1.00  0.00     0.032 C 
ATOM      8  C   UNL     1      -0.845 -25.546   2.710  1.00  0.00     0.014 C 
BRANCH   7   9
ATOM      9  C   UNL     1      -2.222 -25.398   0.650  1.00  0.00     0.044 C 
ATOM     10  O   UNL     1      -2.637 -25.991  -0.380  1.00  0.00    -0.550 OA
ATOM     11  O   UNL     1      -1.965 -24.033   0.599  1.00  0.00    -0.550 OA
ENDBRANCH   7   9
ENDBRANCH   6   7
ENDBRANCH   5   6
ENDBRANCH   4   5
ENDBRANCH   3   4
ENDBRANCH   2   3
ENDBRANCH   1   2
BRANCH   1  12
ATOM     12  C   UNL     1      -0.673 -28.174   5.327  1.00  0.00     0.000 C 
BRANCH  12  13
ATOM     13  C   UNL     1      -0.205 -26.927   6.098  1.00  0.00    -0.000 C 
BRANCH  13  14
ATOM     14  C   UNL     1       1.041 -27.196   6.955  1.00  0.00    -0.000 C 
BRANCH  14  15
ATOM     15  C   UNL     1       0.841 -26.801   8.427  1.00  0.00    -0.000 C 
BRANCH  15  16
ATOM     16  C   UNL     1      -0.652 -26.708   8.772  1.00  0.00    -0.000 C 
BRANCH  16  17
ATOM     17  C   UNL     1      -1.154 -27.909   9.596  1.00  0.00    -0.000 C 
BRANCH  17  18
ATOM     18  C   UNL     1      -0.728 -29.286   9.055  1.00  0.00    -0.003 C 
ATOM     19  C   UNL     1       0.045 -30.118  10.077  1.00  0.00     0.004 C 
ENDBRANCH  17  18
ENDBRANCH  16  17
ENDBRANCH  15  16
ENDBRANCH  14  15
ENDBRANCH  13  14
ENDBRANCH  12  13
ENDBRANCH   1  12
TORSDOF 14
ENDMDL
MODEL 8
REMARK VINA RESULT:    -5.680      3.445      7.970
REMARK INTER + INTRA:         -11.443
REMARK INTER:                  -9.898
REMARK INTRA:                  -1.545
REMARK UNBOUND:                -1.115
REMARK SMILES CCCCCCCCCCCCCC[C@@H](C)C(=O)[O-]
REMARK SMILES IDX 9 1 10 2 11 3 12 4 13 5 14 6 15 7 16 8 17 9 18 10 19 11 8 12
REMARK SMILES IDX 7 13 6 14 5 15 4 16 3 17 2 18 1 19
REMARK H PARENT
REMARK Flexibility Score: inf
ROOT
ATOM      1  C   UNL     1       0.862 -26.742   4.609  1.00  0.00     0.000 C 
ENDROOT
BRANCH   1   2
ATOM      2  C   UNL     1      -0.441 -26.887   5.416  1.00  0.00     0.000 C 
BRANCH   2   3
ATOM      3  C   UNL     1      -0.251 -27.662   6.729  1.00  0.00     0.000 C 
BRANCH   3   4
ATOM      4  C   UNL     1       0.503 -26.815   7.764  1.00  0.00     0.000 C 
BRANCH   4   5
ATOM      5  C   UNL     1      -0.127 -26.879   9.166  1.00  0.00     0.001 C 
BRANCH   5   6
ATOM      6  C   UNL     1      -1.655 -26.668   9.209  1.00  0.00     0.009 C 
BRANCH   6   7
ATOM      7  C   UNL     1      -2.238 -26.504  10.629  1.00  0.00     0.032 C 
ATOM      8  C   UNL     1      -1.145 -26.062  11.608  1.00  0.00     0.014 C 
BRANCH   7   9
ATOM      9  C   UNL     1      -3.368 -25.510  10.650  1.00  0.00     0.044 C 
ATOM     10  O   UNL     1      -4.423 -25.738  10.001  1.00  0.00    -0.550 OA
ATOM     11  O   UNL     1      -3.256 -24.335  11.384  1.00  0.00    -0.550 OA
ENDBRANCH   7   9
ENDBRANCH   6   7
ENDBRANCH   5   6
ENDBRANCH   4   5
ENDBRANCH   3   4
ENDBRANCH   2   3
ENDBRANCH   1   2
BRANCH   1  12
ATOM     12  C   UNL     1       0.880 -25.570   3.612  1.00  0.00     0.000 C 
BRANCH  12  13
ATOM     13  C   UNL     1      -0.484 -24.869   3.489  1.00  0.00    -0.000 C 
BRANCH  13  14
ATOM     14  C   UNL     1      -1.109 -25.032   2.096  1.00  0.00    -0.000 C 
BRANCH  14  15
ATOM     15  C   UNL     1      -2.150 -26.161   2.045  1.00  0.00    -0.000 C 
BRANCH  15  16
ATOM     16  C   UNL     1      -1.692 -27.289   1.109  1.00  0.00    -0.000 C 
BRANCH  16  17
ATOM     17  C   UNL     1      -1.213 -28.541   1.868  1.00  0.00    -0.000 C 
BRANCH  17  18
ATOM     18  C   UNL     1       0.291 -28.837   1.740  1.00  0.00    -0.003 C 
ATOM     19  C   UNL     1       0.717 -30.105   2.478  1.00  0.00     0.004 C 
ENDBRANCH  17  18
ENDBRANCH  16  17
ENDBRANCH  15  16
ENDBRANCH  14  15
ENDBRANCH  13  14
ENDBRANCH  12  13
ENDBRANCH   1  12
TORSDOF 14
ENDMDL
MODEL 9
REMARK VINA RESULT:    -5.590      3.480      7.362
REMARK INTER + INTRA:         -11.280
REMARK INTER:                  -9.713
REMARK INTRA:                  -1.567
REMARK UNBOUND:                -1.115
REMARK SMILES CCCCCCCCCCCCCC[C@@H](C)C(=O)[O-]
REMARK SMILES IDX 9 1 10 2 11 3 12 4 13 5 14 6 15 7 16 8 17 9 18 10 19 11 8 12
REMARK SMILES IDX 7 13 6 14 5 15 4 16 3 17 2 18 1 19
REMARK H PARENT
REMARK Flexibility Score: inf
ROOT
ATOM      1  C   UNL     1       0.744 -29.211   3.973  1.00  0.00     0.000 C 
ENDROOT
BRANCH   1   2
ATOM      2  C   UNL     1       1.646 -29.519   5.180  1.00  0.00     0.000 C 
BRANCH   2   3
ATOM      3  C   UNL     1       0.985 -29.183   6.526  1.00  0.00     0.000 C 
BRANCH   3   4
ATOM      4  C   UNL     1      -0.357 -28.466   6.315  1.00  0.00     0.000 C 
BRANCH   4   5
ATOM      5  C   UNL     1      -0.360 -27.027   6.859  1.00  0.00     0.001 C 
BRANCH   5   6
ATOM      6  C   UNL     1      -0.224 -26.904   8.391  1.00  0.00     0.009 C 
BRANCH   6   7
ATOM      7  C   UNL     1      -1.352 -27.594   9.189  1.00  0.00     0.032 C 
ATOM      8  C   UNL     1      -0.803 -28.801   9.956  1.00  0.00     0.014 C 
BRANCH   7   9
ATOM      9  C   UNL     1      -2.010 -26.640  10.150  1.00  0.00     0.044 C 
ATOM     10  O   UNL     1      -3.238 -26.383  10.044  1.00  0.00    -0.550 OA
ATOM     11  O   UNL     1      -1.267 -26.038  11.159  1.00  0.00    -0.550 OA
ENDBRANCH   7   9
ENDBRANCH   6   7
ENDBRANCH   5   6
ENDBRANCH   4   5
ENDBRANCH   3   4
ENDBRANCH   2   3
ENDBRANCH   1   2
BRANCH   1  12
ATOM     12  C   UNL     1       1.056 -30.026   2.705  1.00  0.00     0.000 C 
BRANCH  12  13
ATOM     13  C   UNL     1       0.050 -29.773   1.569  1.00  0.00    -0.000 C 
BRANCH  13  14
ATOM     14  C   UNL     1      -0.297 -28.285   1.408  1.00  0.00    -0.000 C 
BRANCH  14  15
ATOM     15  C   UNL     1      -1.768 -27.984   1.737  1.00  0.00    -0.000 C 
BRANCH  15  16
ATOM     16  C   UNL     1      -2.018 -26.470   1.794  1.00  0.00    -0.000 C 
BRANCH  16  17
ATOM     17  C   UNL     1      -0.716 -25.647   1.824  1.00  0.00    -0.000 C 
BRANCH  17  18
ATOM     18  C   UNL     1      -0.321 -25.114   3.213  1.00  0.00    -0.003 C 
ATOM     19  C   UNL     1       1.063 -25.583   3.661  1.00  0.00     0.004 C 
ENDBRANCH  17  18
ENDBRANCH  16  17
ENDBRANCH  15  16
ENDBRANCH  14  15
ENDBRANCH  13  14
ENDBRANCH  12  13
ENDBRANCH   1  12
TORSDOF 14
ENDMDL
