MODEL 1
REMARK VINA RESULT:    10.585      0.000      0.000
REMARK INTER + INTRA:          25.442
REMARK INTER:                  24.198
REMARK INTRA:                   1.243
REMARK UNBOUND:                 1.243
REMARK SMILES CCCCCCCCCCCCCCCCCCCCCCCC(=O)[O-]
REMARK SMILES IDX 13 1 14 2 15 3 16 4 17 5 18 6 19 7 20 8 21 9 22 10 23 11
REMARK SMILES IDX 24 12 25 13 26 14 12 15 11 16 10 17 9 18 8 19 7 20 6 21 5 22
REMARK SMILES IDX 4 23 3 24 2 25 1 26
REMARK H PARENT
REMARK Flexibility Score: inf
ROOT
ATOM      1  C   UNL     1     -17.352  18.675  21.058  1.00  0.00     0.000 C 
ENDROOT
BRANCH   1   2
ATOM      2  C   UNL     1     -17.236  19.191  22.504  1.00  0.00     0.000 C 
BRANCH   2   3
ATOM      3  C   UNL     1     -17.764  20.623  22.731  1.00  0.00     0.000 C 
BRANCH   3   4
ATOM      4  C   UNL     1     -19.125  20.925  22.078  1.00  0.00     0.000 C 
BRANCH   4   5
ATOM      5  C   UNL     1     -19.030  21.083  20.551  1.00  0.00     0.000 C 
BRANCH   5   6
ATOM      6  C   UNL     1     -18.556  22.488  20.133  1.00  0.00     0.000 C 
BRANCH   6   7
ATOM      7  C   UNL     1     -18.384  22.648  18.610  1.00  0.00     0.000 C 
BRANCH   7   8
ATOM      8  C   UNL     1     -18.813  24.044  18.116  1.00  0.00     0.000 C 
BRANCH   8   9
ATOM      9  C   UNL     1     -17.688  24.774  17.357  1.00  0.00     0.000 C 
BRANCH   9  10
ATOM     10  C   UNL     1     -18.024  26.232  16.981  1.00  0.00     0.006 C 
BRANCH  10  11
ATOM     11  C   UNL     1     -17.044  26.826  15.961  1.00  0.00     0.053 C 
BRANCH  11  12
ATOM     12  C   UNL     1     -16.369  25.734  15.192  1.00  0.00     0.041 C 
ATOM     13  O   UNL     1     -16.996  25.106  14.298  1.00  0.00    -0.550 OA
ATOM     14  O   UNL     1     -15.060  25.381  15.496  1.00  0.00    -0.550 OA
ENDBRANCH  11  12
ENDBRANCH  10  11
ENDBRANCH   9  10
ENDBRANCH   8   9
ENDBRANCH   7   8
ENDBRANCH   6   7
ENDBRANCH   5   6
ENDBRANCH   4   5
ENDBRANCH   3   4
ENDBRANCH   2   3
ENDBRANCH   1   2
BRANCH   1  15
ATOM     15  C   UNL     1     -18.758  18.154  20.721  1.00  0.00     0.000 C 
BRANCH  15  16
ATOM     16  C   UNL     1     -18.827  17.665  19.266  1.00  0.00     0.000 C 
BRANCH  16  17
ATOM     17  C   UNL     1     -18.869  16.131  19.158  1.00  0.00     0.000 C 
BRANCH  17  18
ATOM     18  C   UNL     1     -19.125  15.649  17.719  1.00  0.00    -0.000 C 
BRANCH  18  19
ATOM     19  C   UNL     1     -18.967  16.768  16.672  1.00  0.00    -0.000 C 
BRANCH  19  20
ATOM     20  C   UNL     1     -19.020  16.307  15.203  1.00  0.00    -0.000 C 
BRANCH  20  21
ATOM     21  C   UNL     1     -19.016  17.481  14.206  1.00  0.00    -0.000 C 
BRANCH  21  22
ATOM     22  C   UNL     1     -18.634  17.045  12.782  1.00  0.00    -0.000 C 
BRANCH  22  23
ATOM     23  C   UNL     1     -19.009  18.091  11.718  1.00  0.00    -0.000 C 
BRANCH  23  24
ATOM     24  C   UNL     1     -18.192  17.938  10.425  1.00  0.00    -0.000 C 
BRANCH  24  25
ATOM     25  C   UNL     1     -17.121  16.842  10.531  1.00  0.00    -0.003 C 
ATOM     26  C   UNL     1     -17.754  15.453  10.513  1.00  0.00     0.004 C 
ENDBRANCH  24  25
ENDBRANCH  23  24
ENDBRANCH  22  23
ENDBRANCH  21  22
ENDBRANCH  20  21
ENDBRANCH  19  20
ENDBRANCH  18  19
ENDBRANCH  17  18
ENDBRANCH  16  17
ENDBRANCH  15  16
ENDBRANCH   1  15
TORSDOF 22
ENDMDL
