MODEL 1
REMARK VINA RESULT:    -5.826      0.000      0.000
REMARK INTER + INTRA:          -6.543
REMARK INTER:                  -6.507
REMARK INTRA:                  -0.036
REMARK UNBOUND:                -0.036
REMARK SMILES COc1cc2ccc(=O)oc2cc1OC
REMARK SMILES IDX 3 1 13 2 12 3 11 4 5 5 4 6 6 7 7 8 8 9 9 10 10 11 2 12 1 13
REMARK SMILES IDX 14 14 15 15
REMARK H PARENT
REMARK Flexibility Score: inf
ROOT
ATOM      1  C   UNL     1      19.550  30.743  36.912  1.00  0.00     0.161 A 
ATOM      2  C   UNL     1      20.782  30.178  36.537  1.00  0.00     0.164 A 
ATOM      3  C   UNL     1      20.876  28.791  36.316  1.00  0.00     0.098 A 
ATOM      4  C   UNL     1      19.755  27.973  36.467  1.00  0.00     0.142 A 
ATOM      5  C   UNL     1      18.519  28.538  36.843  1.00  0.00     0.022 A 
ATOM      6  C   UNL     1      18.419  29.917  37.064  1.00  0.00     0.062 A 
ATOM      7  C   UNL     1      17.414  27.692  36.986  1.00  0.00     0.019 A 
ATOM      8  C   UNL     1      17.564  26.325  36.755  1.00  0.00     0.094 A 
ATOM      9  C   UNL     1      18.821  25.834  36.385  1.00  0.00     0.336 A 
ATOM     10  O   UNL     1      18.977  24.604  36.172  1.00  0.00    -0.246 OA
ATOM     11  O   UNL     1      19.855  26.661  36.256  1.00  0.00    -0.423 OA
ENDROOT
BRANCH   1  12
ATOM     12  O   UNL     1      19.493  32.130  37.124  1.00  0.00    -0.493 OA
ATOM     13  C   UNL     1      18.315  32.919  36.987  1.00  0.00     0.278 C 
ENDBRANCH   1  12
BRANCH   2  14
ATOM     14  O   UNL     1      21.888  31.031  36.395  1.00  0.00    -0.493 OA
ATOM     15  C   UNL     1      22.165  31.807  35.233  1.00  0.00     0.278 C 
ENDBRANCH   2  14
TORSDOF 2
ENDMDL
MODEL 2
REMARK VINA RESULT:    -4.474     16.755     18.379
REMARK INTER + INTRA:          -5.033
REMARK INTER:                  -4.936
REMARK INTRA:                  -0.096
REMARK UNBOUND:                -0.036
REMARK SMILES COc1cc2ccc(=O)oc2cc1OC
REMARK SMILES IDX 3 1 13 2 12 3 11 4 5 5 4 6 6 7 7 8 8 9 9 10 10 11 2 12 1 13
REMARK SMILES IDX 14 14 15 15
REMARK H PARENT
REMARK Flexibility Score: inf
ROOT
ATOM      1  C   UNL     1      18.057  21.858  21.443  1.00  0.00     0.161 A 
ATOM      2  C   UNL     1      18.303  20.825  20.521  1.00  0.00     0.164 A 
ATOM      3  C   UNL     1      19.121  21.070  19.400  1.00  0.00     0.098 A 
ATOM      4  C   UNL     1      19.689  22.330  19.201  1.00  0.00     0.142 A 
ATOM      5  C   UNL     1      19.443  23.365  20.125  1.00  0.00     0.022 A 
ATOM      6  C   UNL     1      18.631  23.128  21.241  1.00  0.00     0.062 A 
ATOM      7  C   UNL     1      20.027  24.616  19.897  1.00  0.00     0.019 A 
ATOM      8  C   UNL     1      20.828  24.803  18.771  1.00  0.00     0.094 A 
ATOM      9  C   UNL     1      21.028  23.729  17.897  1.00  0.00     0.336 A 
ATOM     10  O   UNL     1      21.748  23.876  16.875  1.00  0.00    -0.246 OA
ATOM     11  O   UNL     1      20.461  22.550  18.138  1.00  0.00    -0.423 OA
ENDROOT
BRANCH   1  12
ATOM     12  O   UNL     1      17.237  21.579  22.548  1.00  0.00    -0.493 OA
ATOM     13  C   UNL     1      17.212  22.345  23.748  1.00  0.00     0.278 C 
ENDBRANCH   1  12
BRANCH   2  14
ATOM     14  O   UNL     1      17.716  19.572  20.754  1.00  0.00    -0.493 OA
ATOM     15  C   UNL     1      18.343  18.505  21.459  1.00  0.00     0.278 C 
ENDBRANCH   2  14
TORSDOF 2
ENDMDL
MODEL 3
REMARK VINA RESULT:    -4.448     18.915     20.797
REMARK INTER + INTRA:          -5.004
REMARK INTER:                  -4.885
REMARK INTRA:                  -0.119
REMARK UNBOUND:                -0.036
REMARK SMILES COc1cc2ccc(=O)oc2cc1OC
REMARK SMILES IDX 3 1 13 2 12 3 11 4 5 5 4 6 6 7 7 8 8 9 9 10 10 11 2 12 1 13
REMARK SMILES IDX 14 14 15 15
REMARK H PARENT
REMARK Flexibility Score: inf
ROOT
ATOM      1  C   UNL     1      22.201  17.636  21.252  1.00  0.00     0.161 A 
ATOM      2  C   UNL     1      23.143  18.679  21.192  1.00  0.00     0.164 A 
ATOM      3  C   UNL     1      24.320  18.515  20.437  1.00  0.00     0.098 A 
ATOM      4  C   UNL     1      24.558  17.324  19.748  1.00  0.00     0.142 A 
ATOM      5  C   UNL     1      23.615  16.279  19.806  1.00  0.00     0.022 A 
ATOM      6  C   UNL     1      22.442  16.436  20.555  1.00  0.00     0.062 A 
ATOM      7  C   UNL     1      23.882  15.098  19.104  1.00  0.00     0.019 A 
ATOM      8  C   UNL     1      25.064  14.989  18.373  1.00  0.00     0.094 A 
ATOM      9  C   UNL     1      25.955  16.068  18.360  1.00  0.00     0.336 A 
ATOM     10  O   UNL     1      27.027  15.990  17.707  1.00  0.00    -0.246 OA
ATOM     11  O   UNL     1      25.675  17.179  19.037  1.00  0.00    -0.423 OA
ENDROOT
BRANCH   1  12
ATOM     12  O   UNL     1      21.038  17.835  22.013  1.00  0.00    -0.493 OA
ATOM     13  C   UNL     1      20.209  16.788  22.508  1.00  0.00     0.278 C 
ENDBRANCH   1  12
BRANCH   2  14
ATOM     14  O   UNL     1      22.870  19.861  21.898  1.00  0.00    -0.493 OA
ATOM     15  C   UNL     1      22.457  21.084  21.295  1.00  0.00     0.278 C 
ENDBRANCH   2  14
TORSDOF 2
ENDMDL
MODEL 4
REMARK VINA RESULT:    -4.390     17.195     18.668
REMARK INTER + INTRA:          -4.939
REMARK INTER:                  -4.815
REMARK INTRA:                  -0.124
REMARK UNBOUND:                -0.036
REMARK SMILES COc1cc2ccc(=O)oc2cc1OC
REMARK SMILES IDX 3 1 13 2 12 3 11 4 5 5 4 6 6 7 7 8 8 9 9 10 10 11 2 12 1 13
REMARK SMILES IDX 14 14 15 15
REMARK H PARENT
REMARK Flexibility Score: inf
ROOT
ATOM      1  C   UNL     1      22.639  18.846  21.452  1.00  0.00     0.161 A 
ATOM      2  C   UNL     1      21.336  18.347  21.274  1.00  0.00     0.164 A 
ATOM      3  C   UNL     1      20.276  19.236  21.011  1.00  0.00     0.098 A 
ATOM      4  C   UNL     1      20.511  20.610  20.924  1.00  0.00     0.142 A 
ATOM      5  C   UNL     1      21.816  21.112  21.101  1.00  0.00     0.022 A 
ATOM      6  C   UNL     1      22.874  20.233  21.363  1.00  0.00     0.062 A 
ATOM      7  C   UNL     1      22.018  22.493  21.007  1.00  0.00     0.019 A 
ATOM      8  C   UNL     1      20.933  23.328  20.745  1.00  0.00     0.094 A 
ATOM      9  C   UNL     1      19.665  22.759  20.580  1.00  0.00     0.336 A 
ATOM     10  O   UNL     1      18.673  23.495  20.343  1.00  0.00    -0.246 OA
ATOM     11  O   UNL     1      19.501  21.442  20.675  1.00  0.00    -0.423 OA
ENDROOT
BRANCH   1  12
ATOM     12  O   UNL     1      23.671  17.931  21.712  1.00  0.00    -0.493 OA
ATOM     13  C   UNL     1      24.972  17.997  21.137  1.00  0.00     0.278 C 
ENDBRANCH   1  12
BRANCH   2  14
ATOM     14  O   UNL     1      21.138  16.961  21.369  1.00  0.00    -0.493 OA
ATOM     15  C   UNL     1      20.457  16.314  22.439  1.00  0.00     0.278 C 
ENDBRANCH   2  14
TORSDOF 2
ENDMDL
MODEL 5
REMARK VINA RESULT:    -4.350     17.038     18.281
REMARK INTER + INTRA:          -4.895
REMARK INTER:                  -4.761
REMARK INTRA:                  -0.134
REMARK UNBOUND:                -0.036
REMARK SMILES COc1cc2ccc(=O)oc2cc1OC
REMARK SMILES IDX 3 1 13 2 12 3 11 4 5 5 4 6 6 7 7 8 8 9 9 10 10 11 2 12 1 13
REMARK SMILES IDX 14 14 15 15
REMARK H PARENT
REMARK Flexibility Score: inf
ROOT
ATOM      1  C   UNL     1      20.861  19.235  21.069  1.00  0.00     0.161 A 
ATOM      2  C   UNL     1      22.081  19.895  21.302  1.00  0.00     0.164 A 
ATOM      3  C   UNL     1      22.151  21.297  21.188  1.00  0.00     0.098 A 
ATOM      4  C   UNL     1      21.016  22.036  20.845  1.00  0.00     0.142 A 
ATOM      5  C   UNL     1      19.793  21.376  20.612  1.00  0.00     0.022 A 
ATOM      6  C   UNL     1      19.717  19.982  20.724  1.00  0.00     0.062 A 
ATOM      7  C   UNL     1      18.675  22.145  20.270  1.00  0.00     0.019 A 
ATOM      8  C   UNL     1      18.800  23.530  20.171  1.00  0.00     0.094 A 
ATOM      9  C   UNL     1      20.046  24.116  20.418  1.00  0.00     0.336 A 
ATOM     10  O   UNL     1      20.181  25.364  20.333  1.00  0.00    -0.246 OA
ATOM     11  O   UNL     1      21.094  23.361  20.740  1.00  0.00    -0.423 OA
ENDROOT
BRANCH   1  12
ATOM     12  O   UNL     1      20.828  17.837  21.192  1.00  0.00    -0.493 OA
ATOM     13  C   UNL     1      20.291  17.138  22.310  1.00  0.00     0.278 C 
ENDBRANCH   1  12
BRANCH   2  14
ATOM     14  O   UNL     1      23.200  19.119  21.645  1.00  0.00    -0.493 OA
ATOM     15  C   UNL     1      24.212  18.714  20.728  1.00  0.00     0.278 C 
ENDBRANCH   2  14
TORSDOF 2
ENDMDL
MODEL 6
REMARK VINA RESULT:    -4.106     17.783     19.634
REMARK INTER + INTRA:          -4.622
REMARK INTER:                  -4.455
REMARK INTRA:                  -0.167
REMARK UNBOUND:                -0.036
REMARK SMILES COc1cc2ccc(=O)oc2cc1OC
REMARK SMILES IDX 3 1 13 2 12 3 11 4 5 5 4 6 6 7 7 8 8 9 9 10 10 11 2 12 1 13
REMARK SMILES IDX 14 14 15 15
REMARK H PARENT
REMARK Flexibility Score: inf
ROOT
ATOM      1  C   UNL     1      18.501  19.744  18.897  1.00  0.00     0.161 A 
ATOM      2  C   UNL     1      19.091  19.850  20.169  1.00  0.00     0.164 A 
ATOM      3  C   UNL     1      19.621  21.084  20.593  1.00  0.00     0.098 A 
ATOM      4  C   UNL     1      19.564  22.203  19.759  1.00  0.00     0.142 A 
ATOM      5  C   UNL     1      18.972  22.098  18.484  1.00  0.00     0.022 A 
ATOM      6  C   UNL     1      18.443  20.874  18.057  1.00  0.00     0.062 A 
ATOM      7  C   UNL     1      18.930  23.237  17.673  1.00  0.00     0.019 A 
ATOM      8  C   UNL     1      19.470  24.433  18.143  1.00  0.00     0.094 A 
ATOM      9  C   UNL     1      20.042  24.463  19.419  1.00  0.00     0.336 A 
ATOM     10  O   UNL     1      20.535  25.532  19.862  1.00  0.00    -0.246 OA
ATOM     11  O   UNL     1      20.069  23.364  20.170  1.00  0.00    -0.423 OA
ENDROOT
BRANCH   1  12
ATOM     12  O   UNL     1      17.982  18.500  18.507  1.00  0.00    -0.493 OA
ATOM     13  C   UNL     1      18.626  17.603  17.607  1.00  0.00     0.278 C 
ENDBRANCH   1  12
BRANCH   2  14
ATOM     14  O   UNL     1      19.131  18.705  20.980  1.00  0.00    -0.493 OA
ATOM     15  C   UNL     1      20.286  17.896  21.178  1.00  0.00     0.278 C 
ENDBRANCH   2  14
TORSDOF 2
ENDMDL
MODEL 7
REMARK VINA RESULT:    -4.053     18.889     21.101
REMARK INTER + INTRA:          -4.563
REMARK INTER:                  -4.464
REMARK INTRA:                  -0.099
REMARK UNBOUND:                -0.036
REMARK SMILES COc1cc2ccc(=O)oc2cc1OC
REMARK SMILES IDX 3 1 13 2 12 3 11 4 5 5 4 6 6 7 7 8 8 9 9 10 10 11 2 12 1 13
REMARK SMILES IDX 14 14 15 15
REMARK H PARENT
REMARK Flexibility Score: inf
ROOT
ATOM      1  C   UNL     1      21.341  17.099  21.241  1.00  0.00     0.161 A 
ATOM      2  C   UNL     1      21.306  16.032  20.326  1.00  0.00     0.164 A 
ATOM      3  C   UNL     1      22.449  15.728  19.562  1.00  0.00     0.098 A 
ATOM      4  C   UNL     1      23.617  16.479  19.708  1.00  0.00     0.142 A 
ATOM      5  C   UNL     1      23.654  17.549  20.626  1.00  0.00     0.022 A 
ATOM      6  C   UNL     1      22.520  17.856  21.388  1.00  0.00     0.062 A 
ATOM      7  C   UNL     1      24.840  18.282  20.748  1.00  0.00     0.019 A 
ATOM      8  C   UNL     1      25.942  17.938  19.967  1.00  0.00     0.094 A 
ATOM      9  C   UNL     1      25.833  16.863  19.078  1.00  0.00     0.336 A 
ATOM     10  O   UNL     1      26.815  16.536  18.364  1.00  0.00    -0.246 OA
ATOM     11  O   UNL     1      24.693  16.183  18.981  1.00  0.00    -0.423 OA
ENDROOT
BRANCH   1  12
ATOM     12  O   UNL     1      20.183  17.374  21.986  1.00  0.00    -0.493 OA
ATOM     13  C   UNL     1      19.871  16.779  23.242  1.00  0.00     0.278 C 
ENDBRANCH   1  12
BRANCH   2  14
ATOM     14  O   UNL     1      20.114  15.300  20.206  1.00  0.00    -0.493 OA
ATOM     15  C   UNL     1      19.169  15.463  19.154  1.00  0.00     0.278 C 
ENDBRANCH   2  14
TORSDOF 2
ENDMDL
MODEL 8
REMARK VINA RESULT:    -4.024     18.027     19.265
REMARK INTER + INTRA:          -4.531
REMARK INTER:                  -4.364
REMARK INTRA:                  -0.167
REMARK UNBOUND:                -0.036
REMARK SMILES COc1cc2ccc(=O)oc2cc1OC
REMARK SMILES IDX 3 1 13 2 12 3 11 4 5 5 4 6 6 7 7 8 8 9 9 10 10 11 2 12 1 13
REMARK SMILES IDX 14 14 15 15
REMARK H PARENT
REMARK Flexibility Score: inf
ROOT
ATOM      1  C   UNL     1      19.457  23.034  19.310  1.00  0.00     0.161 A 
ATOM      2  C   UNL     1      19.836  22.110  20.300  1.00  0.00     0.164 A 
ATOM      3  C   UNL     1      19.427  20.766  20.196  1.00  0.00     0.098 A 
ATOM      4  C   UNL     1      18.647  20.346  19.116  1.00  0.00     0.142 A 
ATOM      5  C   UNL     1      18.268  21.271  18.123  1.00  0.00     0.022 A 
ATOM      6  C   UNL     1      18.672  22.609  18.221  1.00  0.00     0.062 A 
ATOM      7  C   UNL     1      17.487  20.819  17.054  1.00  0.00     0.019 A 
ATOM      8  C   UNL     1      17.109  19.478  17.000  1.00  0.00     0.094 A 
ATOM      9  C   UNL     1      17.524  18.617  18.022  1.00  0.00     0.336 A 
ATOM     10  O   UNL     1      17.193  17.403  17.993  1.00  0.00    -0.246 OA
ATOM     11  O   UNL     1      18.266  19.073  19.028  1.00  0.00    -0.423 OA
ENDROOT
BRANCH   1  12
ATOM     12  O   UNL     1      19.884  24.364  19.446  1.00  0.00    -0.493 OA
ATOM     13  C   UNL     1      20.961  24.945  18.717  1.00  0.00     0.278 C 
ENDBRANCH   1  12
BRANCH   2  14
ATOM     14  O   UNL     1      20.620  22.568  21.371  1.00  0.00    -0.493 OA
ATOM     15  C   UNL     1      22.025  22.371  21.485  1.00  0.00     0.278 C 
ENDBRANCH   2  14
TORSDOF 2
ENDMDL
MODEL 9
REMARK VINA RESULT:    -3.964     18.061     19.741
REMARK INTER + INTRA:          -4.463
REMARK INTER:                  -4.300
REMARK INTRA:                  -0.163
REMARK UNBOUND:                -0.036
REMARK SMILES COc1cc2ccc(=O)oc2cc1OC
REMARK SMILES IDX 3 1 13 2 12 3 11 4 5 5 4 6 6 7 7 8 8 9 9 10 10 11 2 12 1 13
REMARK SMILES IDX 14 14 15 15
REMARK H PARENT
REMARK Flexibility Score: inf
ROOT
ATOM      1  C   UNL     1      19.378  19.982  20.438  1.00  0.00     0.161 A 
ATOM      2  C   UNL     1      18.514  19.925  19.330  1.00  0.00     0.164 A 
ATOM      3  C   UNL     1      18.514  20.973  18.388  1.00  0.00     0.098 A 
ATOM      4  C   UNL     1      19.366  22.067  18.548  1.00  0.00     0.142 A 
ATOM      5  C   UNL     1      20.233  22.125  19.658  1.00  0.00     0.022 A 
ATOM      6  C   UNL     1      20.238  21.087  20.598  1.00  0.00     0.062 A 
ATOM      7  C   UNL     1      21.074  23.235  19.790  1.00  0.00     0.019 A 
ATOM      8  C   UNL     1      21.033  24.245  18.829  1.00  0.00     0.094 A 
ATOM      9  C   UNL     1      20.147  24.119  17.753  1.00  0.00     0.336 A 
ATOM     10  O   UNL     1      20.094  25.018  16.875  1.00  0.00    -0.246 OA
ATOM     11  O   UNL     1      19.357  23.053  17.652  1.00  0.00    -0.423 OA
ENDROOT
BRANCH   1  12
ATOM     12  O   UNL     1      19.352  18.920  21.355  1.00  0.00    -0.493 OA
ATOM     13  C   UNL     1      20.275  17.836  21.361  1.00  0.00     0.278 C 
ENDBRANCH   1  12
BRANCH   2  14
ATOM     14  O   UNL     1      17.671  18.809  19.202  1.00  0.00    -0.493 OA
ATOM     15  C   UNL     1      17.906  17.718  18.317  1.00  0.00     0.278 C 
ENDBRANCH   2  14
TORSDOF 2
ENDMDL
