MODEL 1
REMARK VINA RESULT:    -3.675      0.000      0.000
REMARK INTER + INTRA:          -5.558
REMARK INTER:                  -4.964
REMARK INTRA:                  -0.594
REMARK UNBOUND:                -0.594
REMARK SMILES O=C[C@H](O)[C@H](O)[C@@H](O)CO
REMARK SMILES IDX 7 1 9 2 10 3 5 5 3 6 2 7 1 8 4 9 6 11 8 13
REMARK H PARENT 10 4 4 10 6 12 8 14
REMARK Flexibility Score: inf
ROOT
ATOM      1  C   UNL     1      21.402  -8.660 -21.305  1.00  0.00     0.171 C 
ENDROOT
BRANCH   1   2
ATOM      2  C   UNL     1      20.769  -7.479 -22.059  1.00  0.00     0.190 C 
BRANCH   2   3
ATOM      3  O   UNL     1      19.783  -7.941 -22.941  1.00  0.00    -0.394 OA
ATOM      4  H   UNL     1      19.140  -7.193 -23.050  1.00  0.00     0.210 HD
ENDBRANCH   2   3
ENDBRANCH   1   2
BRANCH   1   5
ATOM      5  C   UNL     1      20.894  -8.747 -19.842  1.00  0.00     0.181 C 
BRANCH   5   6
ATOM      6  C   UNL     1      21.504  -9.951 -19.086  1.00  0.00     0.209 C 
BRANCH   6   7
ATOM      7  C   UNL     1      20.478 -11.035 -18.890  1.00  0.00     0.258 C 
ATOM      8  O   UNL     1      20.186 -11.788 -19.807  1.00  0.00    -0.300 OA
ENDBRANCH   6   7
BRANCH   6   9
ATOM      9  O   UNL     1      21.983  -9.533 -17.834  1.00  0.00    -0.383 OA
ATOM     10  H   UNL     1      21.691  -8.592 -17.713  1.00  0.00     0.211 HD
ENDBRANCH   6   9
ENDBRANCH   5   6
BRANCH   5  11
ATOM     11  O   UNL     1      19.486  -8.790 -19.802  1.00  0.00    -0.387 OA
ATOM     12  H   UNL     1      19.144  -8.161 -20.490  1.00  0.00     0.211 HD
ENDBRANCH   5  11
ENDBRANCH   1   5
BRANCH   1  13
ATOM     13  O   UNL     1      21.111  -9.857 -21.983  1.00  0.00    -0.388 OA
ATOM     14  H   UNL     1      21.950 -10.149 -22.427  1.00  0.00     0.211 HD
ENDBRANCH   1  13
TORSDOF 8
ENDMDL
MODEL 2
REMARK VINA RESULT:    -3.475     17.314     18.463
REMARK INTER + INTRA:          -5.287
REMARK INTER:                  -4.523
REMARK INTRA:                  -0.764
REMARK UNBOUND:                -0.594
REMARK SMILES O=C[C@H](O)[C@H](O)[C@@H](O)CO
REMARK SMILES IDX 7 1 9 2 10 3 5 5 3 6 2 7 1 8 4 9 6 11 8 13
REMARK H PARENT 10 4 4 10 6 12 8 14
REMARK Flexibility Score: inf
ROOT
ATOM      1  C   UNL     1       9.378  -5.650  -6.474  1.00  0.00     0.171 C 
ENDROOT
BRANCH   1   2
ATOM      2  C   UNL     1       7.994  -5.271  -7.023  1.00  0.00     0.190 C 
BRANCH   2   3
ATOM      3  O   UNL     1       7.040  -5.309  -5.996  1.00  0.00    -0.394 OA
ATOM      4  H   UNL     1       6.727  -4.374  -5.878  1.00  0.00     0.210 HD
ENDBRANCH   2   3
ENDBRANCH   1   2
BRANCH   1   5
ATOM      5  C   UNL     1       9.470  -7.162  -6.139  1.00  0.00     0.181 C 
BRANCH   5   6
ATOM      6  C   UNL     1       9.001  -8.048  -7.317  1.00  0.00     0.209 C 
BRANCH   6   7
ATOM      7  C   UNL     1       8.473  -9.367  -6.818  1.00  0.00     0.258 C 
ATOM      8  O   UNL     1       7.336  -9.458  -6.382  1.00  0.00    -0.300 OA
ENDBRANCH   6   7
BRANCH   6   9
ATOM      9  O   UNL     1      10.071  -8.278  -8.196  1.00  0.00    -0.383 OA
ATOM     10  H   UNL     1      10.377  -9.209  -8.039  1.00  0.00     0.211 HD
ENDBRANCH   6   9
ENDBRANCH   5   6
BRANCH   5  11
ATOM     11  O   UNL     1       8.744  -7.460  -4.968  1.00  0.00    -0.387 OA
ATOM     12  H   UNL     1       8.977  -6.776  -4.286  1.00  0.00     0.211 HD
ENDBRANCH   5  11
ENDBRANCH   1   5
BRANCH   1  13
ATOM     13  O   UNL     1      10.365  -5.310  -7.416  1.00  0.00    -0.388 OA
ATOM     14  H   UNL     1       9.899  -4.881  -8.181  1.00  0.00     0.211 HD
ENDBRANCH   1  13
TORSDOF 8
ENDMDL
MODEL 3
REMARK VINA RESULT:    -3.412     16.898     18.027
REMARK INTER + INTRA:          -5.203
REMARK INTER:                  -4.921
REMARK INTRA:                  -0.282
REMARK UNBOUND:                -0.594
REMARK SMILES O=C[C@H](O)[C@H](O)[C@@H](O)CO
REMARK SMILES IDX 7 1 9 2 10 3 5 5 3 6 2 7 1 8 4 9 6 11 8 13
REMARK H PARENT 10 4 4 10 6 12 8 14
REMARK Flexibility Score: inf
ROOT
ATOM      1  C   UNL     1       9.578  -5.865  -8.565  1.00  0.00     0.171 C 
ENDROOT
BRANCH   1   2
ATOM      2  C   UNL     1       9.935  -7.139  -9.347  1.00  0.00     0.190 C 
BRANCH   2   3
ATOM      3  O   UNL     1      10.440  -8.115  -8.476  1.00  0.00    -0.394 OA
ATOM      4  H   UNL     1      11.428  -8.059  -8.544  1.00  0.00     0.210 HD
ENDBRANCH   2   3
ENDBRANCH   1   2
BRANCH   1   5
ATOM      5  C   UNL     1       8.151  -5.941  -7.963  1.00  0.00     0.181 C 
BRANCH   5   6
ATOM      6  C   UNL     1       8.168  -5.896  -6.417  1.00  0.00     0.209 C 
BRANCH   6   7
ATOM      7  C   UNL     1       8.304  -7.282  -5.843  1.00  0.00     0.258 C 
ATOM      8  O   UNL     1       9.020  -7.487  -4.875  1.00  0.00    -0.300 OA
ENDBRANCH   6   7
BRANCH   6   9
ATOM      9  O   UNL     1       6.983  -5.311  -5.944  1.00  0.00    -0.383 OA
ATOM     10  H   UNL     1       7.046  -5.294  -4.953  1.00  0.00     0.211 HD
ENDBRANCH   6   9
ENDBRANCH   5   6
BRANCH   5  11
ATOM     11  O   UNL     1       7.473  -7.087  -8.424  1.00  0.00    -0.387 OA
ATOM     12  H   UNL     1       8.019  -7.880  -8.180  1.00  0.00     0.211 HD
ENDBRANCH   5  11
ENDBRANCH   1   5
BRANCH   1  13
ATOM     13  O   UNL     1      10.518  -5.665  -7.539  1.00  0.00    -0.388 OA
ATOM     14  H   UNL     1      11.248  -6.323  -7.684  1.00  0.00     0.211 HD
ENDBRANCH   1  13
TORSDOF 8
ENDMDL
MODEL 4
REMARK VINA RESULT:    -3.368     17.618     18.972
REMARK INTER + INTRA:          -5.143
REMARK INTER:                  -4.657
REMARK INTRA:                  -0.486
REMARK UNBOUND:                -0.594
REMARK SMILES O=C[C@H](O)[C@H](O)[C@@H](O)CO
REMARK SMILES IDX 7 1 9 2 10 3 5 5 3 6 2 7 1 8 4 9 6 11 8 13
REMARK H PARENT 10 4 4 10 6 12 8 14
REMARK Flexibility Score: inf
ROOT
ATOM      1  C   UNL     1       8.750  -8.285  -6.263  1.00  0.00     0.171 C 
ENDROOT
BRANCH   1   2
ATOM      2  C   UNL     1       7.411  -9.000  -6.503  1.00  0.00     0.190 C 
BRANCH   2   3
ATOM      3  O   UNL     1       7.254 -10.052  -5.590  1.00  0.00    -0.394 OA
ATOM      4  H   UNL     1       7.682 -10.844  -6.008  1.00  0.00     0.210 HD
ENDBRANCH   2   3
ENDBRANCH   1   2
BRANCH   1   5
ATOM      5  C   UNL     1       9.021  -7.197  -7.334  1.00  0.00     0.181 C 
BRANCH   5   6
ATOM      6  C   UNL     1       9.471  -5.858  -6.701  1.00  0.00     0.209 C 
BRANCH   6   7
ATOM      7  C   UNL     1       8.330  -4.876  -6.662  1.00  0.00     0.258 C 
ATOM      8  O   UNL     1       7.348  -5.091  -5.968  1.00  0.00    -0.300 OA
ENDBRANCH   6   7
BRANCH   6   9
ATOM      9  O   UNL     1      10.529  -5.312  -7.445  1.00  0.00    -0.383 OA
ATOM     10  H   UNL     1      11.370  -5.653  -7.042  1.00  0.00     0.211 HD
ENDBRANCH   6   9
ENDBRANCH   5   6
BRANCH   5  11
ATOM     11  O   UNL     1       7.892  -7.009  -8.155  1.00  0.00    -0.387 OA
ATOM     12  H   UNL     1       7.915  -6.075  -8.493  1.00  0.00     0.211 HD
ENDBRANCH   5  11
ENDBRANCH   1   5
BRANCH   1  13
ATOM     13  O   UNL     1       8.749  -7.705  -4.982  1.00  0.00    -0.388 OA
ATOM     14  H   UNL     1       7.951  -7.116  -4.932  1.00  0.00     0.211 HD
ENDBRANCH   1  13
TORSDOF 8
ENDMDL
MODEL 5
REMARK VINA RESULT:    -3.359     17.407     18.575
REMARK INTER + INTRA:          -5.130
REMARK INTER:                  -4.540
REMARK INTRA:                  -0.590
REMARK UNBOUND:                -0.594
REMARK SMILES O=C[C@H](O)[C@H](O)[C@@H](O)CO
REMARK SMILES IDX 7 1 9 2 10 3 5 5 3 6 2 7 1 8 4 9 6 11 8 13
REMARK H PARENT 10 4 4 10 6 12 8 14
REMARK Flexibility Score: inf
ROOT
ATOM      1  C   UNL     1       9.353  -6.097  -6.663  1.00  0.00     0.171 C 
ENDROOT
BRANCH   1   2
ATOM      2  C   UNL     1       8.169  -5.129  -6.814  1.00  0.00     0.190 C 
BRANCH   2   3
ATOM      3  O   UNL     1       7.146  -5.473  -5.919  1.00  0.00    -0.394 OA
ATOM      4  H   UNL     1       7.589  -5.935  -5.160  1.00  0.00     0.210 HD
ENDBRANCH   2   3
ENDBRANCH   1   2
BRANCH   1   5
ATOM      5  C   UNL     1       9.094  -7.441  -7.392  1.00  0.00     0.181 C 
BRANCH   5   6
ATOM      6  C   UNL     1       8.569  -8.533  -6.430  1.00  0.00     0.209 C 
BRANCH   6   7
ATOM      7  C   UNL     1       7.173  -8.953  -6.808  1.00  0.00     0.258 C 
ATOM      8  O   UNL     1       6.389  -8.147  -7.285  1.00  0.00    -0.300 OA
ENDBRANCH   6   7
BRANCH   6   9
ATOM      9  O   UNL     1       8.568  -8.047  -5.113  1.00  0.00    -0.383 OA
ATOM     10  H   UNL     1       8.974  -8.753  -4.545  1.00  0.00     0.211 HD
ENDBRANCH   6   9
ENDBRANCH   5   6
BRANCH   5  11
ATOM     11  O   UNL     1      10.254  -7.880  -8.062  1.00  0.00    -0.387 OA
ATOM     12  H   UNL     1      10.019  -8.009  -9.019  1.00  0.00     0.211 HD
ENDBRANCH   5  11
ENDBRANCH   1   5
BRANCH   1  13
ATOM     13  O   UNL     1      10.518  -5.496  -7.171  1.00  0.00    -0.388 OA
ATOM     14  H   UNL     1      10.966  -6.171  -7.744  1.00  0.00     0.211 HD
ENDBRANCH   1  13
TORSDOF 8
ENDMDL
MODEL 6
REMARK VINA RESULT:    -3.357     17.492     18.578
REMARK INTER + INTRA:          -5.128
REMARK INTER:                  -4.803
REMARK INTRA:                  -0.325
REMARK UNBOUND:                -0.594
REMARK SMILES O=C[C@H](O)[C@H](O)[C@@H](O)CO
REMARK SMILES IDX 7 1 9 2 10 3 5 5 3 6 2 7 1 8 4 9 6 11 8 13
REMARK H PARENT 10 4 4 10 6 12 8 14
REMARK Flexibility Score: inf
ROOT
ATOM      1  C   UNL     1       8.212  -6.449  -6.941  1.00  0.00     0.171 C 
ENDROOT
BRANCH   1   2
ATOM      2  C   UNL     1       9.191  -5.422  -7.533  1.00  0.00     0.190 C 
BRANCH   2   3
ATOM      3  O   UNL     1      10.500  -5.712  -7.127  1.00  0.00    -0.394 OA
ATOM      4  H   UNL     1      10.478  -5.751  -6.135  1.00  0.00     0.210 HD
ENDBRANCH   2   3
ENDBRANCH   1   2
BRANCH   1   5
ATOM      5  C   UNL     1       8.957  -7.635  -6.275  1.00  0.00     0.181 C 
BRANCH   5   6
ATOM      6  C   UNL     1       8.342  -9.000  -6.664  1.00  0.00     0.209 C 
BRANCH   6   7
ATOM      7  C   UNL     1       7.528  -8.880  -7.926  1.00  0.00     0.258 C 
ATOM      8  O   UNL     1       7.914  -9.390  -8.966  1.00  0.00    -0.300 OA
ENDBRANCH   6   7
BRANCH   6   9
ATOM      9  O   UNL     1       7.522  -9.467  -5.624  1.00  0.00    -0.383 OA
ATOM     10  H   UNL     1       8.122  -9.874  -4.946  1.00  0.00     0.211 HD
ENDBRANCH   6   9
ENDBRANCH   5   6
BRANCH   5  11
ATOM     11  O   UNL     1       8.993  -7.482  -4.875  1.00  0.00    -0.387 OA
ATOM     12  H   UNL     1       9.656  -6.773  -4.665  1.00  0.00     0.211 HD
ENDBRANCH   5  11
ENDBRANCH   1   5
BRANCH   1  13
ATOM     13  O   UNL     1       7.383  -5.817  -5.998  1.00  0.00    -0.388 OA
ATOM     14  H   UNL     1       7.678  -6.124  -5.101  1.00  0.00     0.211 HD
ENDBRANCH   1  13
TORSDOF 8
ENDMDL
MODEL 7
REMARK VINA RESULT:    -3.314      2.085      3.235
REMARK INTER + INTRA:          -5.071
REMARK INTER:                  -4.388
REMARK INTRA:                  -0.683
REMARK UNBOUND:                -0.594
REMARK SMILES O=C[C@H](O)[C@H](O)[C@@H](O)CO
REMARK SMILES IDX 7 1 9 2 10 3 5 5 3 6 2 7 1 8 4 9 6 11 8 13
REMARK H PARENT 10 4 4 10 6 12 8 14
REMARK Flexibility Score: inf
ROOT
ATOM      1  C   UNL     1      21.122 -10.251 -19.146  1.00  0.00     0.171 C 
ENDROOT
BRANCH   1   2
ATOM      2  C   UNL     1      21.539  -8.778 -19.017  1.00  0.00     0.190 C 
BRANCH   2   3
ATOM      3  O   UNL     1      21.075  -8.248 -17.805  1.00  0.00    -0.394 OA
ATOM      4  H   UNL     1      21.837  -8.304 -17.171  1.00  0.00     0.210 HD
ENDBRANCH   2   3
ENDBRANCH   1   2
BRANCH   1   5
ATOM      5  C   UNL     1      19.843 -10.561 -18.325  1.00  0.00     0.181 C 
BRANCH   5   6
ATOM      6  C   UNL     1      19.482 -12.065 -18.355  1.00  0.00     0.209 C 
BRANCH   6   7
ATOM      7  C   UNL     1      18.640 -12.437 -17.163  1.00  0.00     0.258 C 
ATOM      8  O   UNL     1      17.953 -11.598 -16.601  1.00  0.00    -0.300 OA
ENDBRANCH   6   7
BRANCH   6   9
ATOM      9  O   UNL     1      20.656 -12.836 -18.354  1.00  0.00    -0.383 OA
ATOM     10  H   UNL     1      21.406 -12.219 -18.149  1.00  0.00     0.211 HD
ENDBRANCH   6   9
ENDBRANCH   5   6
BRANCH   5  11
ATOM     11  O   UNL     1      18.760  -9.777 -18.769  1.00  0.00    -0.387 OA
ATOM     12  H   UNL     1      18.074 -10.392 -19.141  1.00  0.00     0.211 HD
ENDBRANCH   5  11
ENDBRANCH   1   5
BRANCH   1  13
ATOM     13  O   UNL     1      20.906 -10.560 -20.500  1.00  0.00    -0.388 OA
ATOM     14  H   UNL     1      20.059 -11.076 -20.548  1.00  0.00     0.211 HD
ENDBRANCH   1  13
TORSDOF 8
ENDMDL
MODEL 8
REMARK VINA RESULT:    -3.293     17.092     18.431
REMARK INTER + INTRA:          -5.041
REMARK INTER:                  -4.787
REMARK INTRA:                  -0.255
REMARK UNBOUND:                -0.594
REMARK SMILES O=C[C@H](O)[C@H](O)[C@@H](O)CO
REMARK SMILES IDX 7 1 9 2 10 3 5 5 3 6 2 7 1 8 4 9 6 11 8 13
REMARK H PARENT 10 4 4 10 6 12 8 14
REMARK Flexibility Score: inf
ROOT
ATOM      1  C   UNL     1       8.660  -7.798  -6.207  1.00  0.00     0.171 C 
ENDROOT
BRANCH   1   2
ATOM      2  C   UNL     1       7.577  -8.889  -6.232  1.00  0.00     0.190 C 
BRANCH   2   3
ATOM      3  O   UNL     1       8.152 -10.147  -6.005  1.00  0.00    -0.394 OA
ATOM      4  H   UNL     1       8.945  -9.986  -5.430  1.00  0.00     0.210 HD
ENDBRANCH   2   3
ENDBRANCH   1   2
BRANCH   1   5
ATOM      5  C   UNL     1       8.195  -6.510  -6.934  1.00  0.00     0.181 C 
BRANCH   5   6
ATOM      6  C   UNL     1       9.302  -5.924  -7.843  1.00  0.00     0.209 C 
BRANCH   6   7
ATOM      7  C   UNL     1       9.596  -6.850  -8.993  1.00  0.00     0.258 C 
ATOM      8  O   UNL     1       8.901  -6.836  -9.997  1.00  0.00    -0.300 OA
ENDBRANCH   6   7
BRANCH   6   9
ATOM      9  O   UNL     1      10.474  -5.722  -7.097  1.00  0.00    -0.383 OA
ATOM     10  H   UNL     1      10.979  -4.995  -7.546  1.00  0.00     0.211 HD
ENDBRANCH   6   9
ENDBRANCH   5   6
BRANCH   5  11
ATOM     11  O   UNL     1       7.745  -5.547  -6.009  1.00  0.00    -0.387 OA
ATOM     12  H   UNL     1       6.907  -5.890  -5.600  1.00  0.00     0.211 HD
ENDBRANCH   5  11
ENDBRANCH   1   5
BRANCH   1  13
ATOM     13  O   UNL     1       8.995  -7.500  -4.875  1.00  0.00    -0.388 OA
ATOM     14  H   UNL     1       9.224  -8.361  -4.435  1.00  0.00     0.211 HD
ENDBRANCH   1  13
TORSDOF 8
ENDMDL
MODEL 9
REMARK VINA RESULT:    -3.275     17.194     18.442
REMARK INTER + INTRA:          -5.018
REMARK INTER:                  -4.214
REMARK INTRA:                  -0.803
REMARK UNBOUND:                -0.594
REMARK SMILES O=C[C@H](O)[C@H](O)[C@@H](O)CO
REMARK SMILES IDX 7 1 9 2 10 3 5 5 3 6 2 7 1 8 4 9 6 11 8 13
REMARK H PARENT 10 4 4 10 6 12 8 14
REMARK Flexibility Score: inf
ROOT
ATOM      1  C   UNL     1       8.639  -8.648  -6.610  1.00  0.00     0.171 C 
ENDROOT
BRANCH   1   2
ATOM      2  C   UNL     1       8.048  -8.940  -7.998  1.00  0.00     0.190 C 
BRANCH   2   3
ATOM      3  O   UNL     1       9.008  -8.703  -8.992  1.00  0.00    -0.394 OA
ATOM      4  H   UNL     1       9.890  -8.752  -8.539  1.00  0.00     0.210 HD
ENDBRANCH   2   3
ENDBRANCH   1   2
BRANCH   1   5
ATOM      5  C   UNL     1       8.891  -7.132  -6.399  1.00  0.00     0.181 C 
BRANCH   5   6
ATOM      6  C   UNL     1       7.734  -6.268  -6.955  1.00  0.00     0.209 C 
BRANCH   6   7
ATOM      7  C   UNL     1       8.242  -5.292  -7.984  1.00  0.00     0.258 C 
ATOM      8  O   UNL     1       8.519  -5.667  -9.113  1.00  0.00    -0.300 OA
ENDBRANCH   6   7
BRANCH   6   9
ATOM      9  O   UNL     1       7.122  -5.562  -5.908  1.00  0.00    -0.383 OA
ATOM     10  H   UNL     1       7.841  -5.309  -5.272  1.00  0.00     0.211 HD
ENDBRANCH   6   9
ENDBRANCH   5   6
BRANCH   5  11
ATOM     11  O   UNL     1      10.122  -6.746  -6.965  1.00  0.00    -0.387 OA
ATOM     12  H   UNL     1      10.335  -5.835  -6.632  1.00  0.00     0.211 HD
ENDBRANCH   5  11
ENDBRANCH   1   5
BRANCH   1  13
ATOM     13  O   UNL     1       7.766  -9.129  -5.619  1.00  0.00    -0.388 OA
ATOM     14  H   UNL     1       8.228  -9.883  -5.167  1.00  0.00     0.211 HD
ENDBRANCH   1  13
TORSDOF 8
ENDMDL
