MODEL 1
REMARK VINA RESULT:    -5.579      0.000      0.000
REMARK INTER + INTRA:          -5.980
REMARK INTER:                  -5.906
REMARK INTRA:                  -0.075
REMARK UNBOUND:                -0.075
REMARK SMILES CC(C)[C@H]1CC[C@@H](C)CC1=O
REMARK SMILES IDX 8 1 7 2 6 3 5 4 4 5 10 6 11 7 9 8 2 9 1 10 3 11
REMARK H PARENT
REMARK Flexibility Score: inf
ROOT
ATOM      1  C   UNL     1     -30.027  19.865  54.703  1.00  0.00     0.008 C 
ATOM      2  C   UNL     1     -29.773  20.679  55.982  1.00  0.00    -0.007 C 
ATOM      3  C   UNL     1     -28.262  20.893  56.238  1.00  0.00     0.004 C 
ATOM      4  C   UNL     1     -27.538  19.609  56.693  1.00  0.00     0.012 C 
ATOM      5  C   UNL     1     -28.203  18.981  57.942  1.00  0.00     0.058 C 
ATOM      6  C   UNL     1     -29.683  18.820  57.639  1.00  0.00     0.136 C 
ATOM      7  O   UNL     1     -30.232  17.728  57.653  1.00  0.00    -0.299 OA
ATOM      8  C   UNL     1     -30.452  20.035  57.205  1.00  0.00     0.079 C 
ENDROOT
BRANCH   5   9
ATOM      9  C   UNL     1     -27.526  17.646  58.396  1.00  0.00    -0.007 C 
ATOM     10  C   UNL     1     -27.155  16.733  57.213  1.00  0.00     0.008 C 
ATOM     11  C   UNL     1     -26.251  17.929  59.214  1.00  0.00     0.008 C 
ENDBRANCH   5   9
TORSDOF 1
ENDMDL
MODEL 2
REMARK VINA RESULT:    -5.573      7.190      8.084
REMARK INTER + INTRA:          -5.973
REMARK INTER:                  -5.870
REMARK INTRA:                  -0.104
REMARK UNBOUND:                -0.075
REMARK SMILES CC(C)[C@H]1CC[C@@H](C)CC1=O
REMARK SMILES IDX 8 1 7 2 6 3 5 4 4 5 10 6 11 7 9 8 2 9 1 10 3 11
REMARK H PARENT
REMARK Flexibility Score: inf
ROOT
ATOM      1  C   UNL     1     -35.705  12.408  54.748  1.00  0.00     0.008 C 
ATOM      2  C   UNL     1     -36.282  13.721  55.300  1.00  0.00    -0.007 C 
ATOM      3  C   UNL     1     -35.297  14.901  55.127  1.00  0.00     0.004 C 
ATOM      4  C   UNL     1     -34.086  14.822  56.079  1.00  0.00     0.012 C 
ATOM      5  C   UNL     1     -34.520  14.707  57.560  1.00  0.00     0.058 C 
ATOM      6  C   UNL     1     -35.502  13.552  57.660  1.00  0.00     0.136 C 
ATOM      7  O   UNL     1     -35.288  12.579  58.369  1.00  0.00    -0.299 OA
ATOM      8  C   UNL     1     -36.713  13.575  56.772  1.00  0.00     0.079 C 
ENDROOT
BRANCH   5   9
ATOM      9  C   UNL     1     -33.315  14.569  58.548  1.00  0.00    -0.007 C 
ATOM     10  C   UNL     1     -32.053  15.298  58.053  1.00  0.00     0.008 C 
ATOM     11  C   UNL     1     -33.681  15.118  59.940  1.00  0.00     0.008 C 
ENDBRANCH   5   9
TORSDOF 1
ENDMDL
MODEL 3
REMARK VINA RESULT:    -5.550      7.580      8.664
REMARK INTER + INTRA:          -5.950
REMARK INTER:                  -5.790
REMARK INTRA:                  -0.159
REMARK UNBOUND:                -0.075
REMARK SMILES CC(C)[C@H]1CC[C@@H](C)CC1=O
REMARK SMILES IDX 8 1 7 2 6 3 5 4 4 5 10 6 11 7 9 8 2 9 1 10 3 11
REMARK H PARENT
REMARK Flexibility Score: inf
ROOT
ATOM      1  C   UNL     1     -36.980  13.449  57.522  1.00  0.00     0.008 C 
ATOM      2  C   UNL     1     -36.015  12.561  58.323  1.00  0.00    -0.007 C 
ATOM      3  C   UNL     1     -34.864  13.383  58.951  1.00  0.00     0.004 C 
ATOM      4  C   UNL     1     -33.836  13.876  57.912  1.00  0.00     0.012 C 
ATOM      5  C   UNL     1     -33.258  12.712  57.071  1.00  0.00     0.058 C 
ATOM      6  C   UNL     1     -34.432  11.930  56.506  1.00  0.00     0.136 C 
ATOM      7  O   UNL     1     -34.601  11.797  55.302  1.00  0.00    -0.299 OA
ATOM      8  C   UNL     1     -35.462  11.408  57.465  1.00  0.00     0.079 C 
ENDROOT
BRANCH   5   9
ATOM      9  C   UNL     1     -32.253  13.185  55.969  1.00  0.00    -0.007 C 
ATOM     10  C   UNL     1     -31.796  14.641  56.167  1.00  0.00     0.008 C 
ATOM     11  C   UNL     1     -31.006  12.281  55.941  1.00  0.00     0.008 C 
ENDBRANCH   5   9
TORSDOF 1
ENDMDL
MODEL 4
REMARK VINA RESULT:    -5.505      7.367      8.694
REMARK INTER + INTRA:          -5.901
REMARK INTER:                  -5.726
REMARK INTRA:                  -0.176
REMARK UNBOUND:                -0.075
REMARK SMILES CC(C)[C@H]1CC[C@@H](C)CC1=O
REMARK SMILES IDX 8 1 7 2 6 3 5 4 4 5 10 6 11 7 9 8 2 9 1 10 3 11
REMARK H PARENT
REMARK Flexibility Score: inf
ROOT
ATOM      1  C   UNL     1     -32.307  13.717  55.492  1.00  0.00     0.008 C 
ATOM      2  C   UNL     1     -32.053  13.012  56.834  1.00  0.00    -0.007 C 
ATOM      3  C   UNL     1     -32.941  11.757  57.002  1.00  0.00     0.004 C 
ATOM      4  C   UNL     1     -34.424  12.094  57.253  1.00  0.00     0.012 C 
ATOM      5  C   UNL     1     -34.606  13.038  58.467  1.00  0.00     0.058 C 
ATOM      6  C   UNL     1     -33.694  14.234  58.256  1.00  0.00     0.136 C 
ATOM      7  O   UNL     1     -34.127  15.375  58.185  1.00  0.00    -0.299 OA
ATOM      8  C   UNL     1     -32.233  13.976  58.022  1.00  0.00     0.079 C 
ENDROOT
BRANCH   5   9
ATOM      9  C   UNL     1     -36.097  13.445  58.715  1.00  0.00    -0.007 C 
ATOM     10  C   UNL     1     -37.004  13.144  57.509  1.00  0.00     0.008 C 
ATOM     11  C   UNL     1     -36.665  12.717  59.948  1.00  0.00     0.008 C 
ENDBRANCH   5   9
TORSDOF 1
ENDMDL
MODEL 5
REMARK VINA RESULT:    -5.496      1.831      4.104
REMARK INTER + INTRA:          -5.892
REMARK INTER:                  -5.717
REMARK INTRA:                  -0.175
REMARK UNBOUND:                -0.075
REMARK SMILES CC(C)[C@H]1CC[C@@H](C)CC1=O
REMARK SMILES IDX 8 1 7 2 6 3 5 4 4 5 10 6 11 7 9 8 2 9 1 10 3 11
REMARK H PARENT
REMARK Flexibility Score: inf
ROOT
ATOM      1  C   UNL     1     -26.253  17.982  58.881  1.00  0.00     0.008 C 
ATOM      2  C   UNL     1     -27.776  18.153  58.987  1.00  0.00    -0.007 C 
ATOM      3  C   UNL     1     -28.530  17.237  57.993  1.00  0.00     0.004 C 
ATOM      4  C   UNL     1     -28.398  17.698  56.528  1.00  0.00     0.012 C 
ATOM      5  C   UNL     1     -28.847  19.167  56.340  1.00  0.00     0.058 C 
ATOM      6  C   UNL     1     -28.096  20.009  57.356  1.00  0.00     0.136 C 
ATOM      7  O   UNL     1     -27.354  20.921  57.020  1.00  0.00    -0.299 OA
ATOM      8  C   UNL     1     -28.195  19.624  58.804  1.00  0.00     0.079 C 
ENDROOT
BRANCH   5   9
ATOM      9  C   UNL     1     -28.673  19.684  54.873  1.00  0.00    -0.007 C 
ATOM     10  C   UNL     1     -27.801  18.752  54.013  1.00  0.00     0.008 C 
ATOM     11  C   UNL     1     -30.042  19.846  54.183  1.00  0.00     0.008 C 
ENDBRANCH   5   9
TORSDOF 1
ENDMDL
MODEL 6
REMARK VINA RESULT:    -5.460      1.470      3.603
REMARK INTER + INTRA:          -5.854
REMARK INTER:                  -5.821
REMARK INTRA:                  -0.033
REMARK UNBOUND:                -0.075
REMARK SMILES CC(C)[C@H]1CC[C@@H](C)CC1=O
REMARK SMILES IDX 8 1 7 2 6 3 5 4 4 5 10 6 11 7 9 8 2 9 1 10 3 11
REMARK H PARENT
REMARK Flexibility Score: inf
ROOT
ATOM      1  C   UNL     1     -29.468  19.854  59.202  1.00  0.00     0.008 C 
ATOM      2  C   UNL     1     -28.113  19.276  58.766  1.00  0.00    -0.007 C 
ATOM      3  C   UNL     1     -27.350  20.240  57.826  1.00  0.00     0.004 C 
ATOM      4  C   UNL     1     -27.971  20.329  56.418  1.00  0.00     0.012 C 
ATOM      5  C   UNL     1     -28.103  18.938  55.754  1.00  0.00     0.058 C 
ATOM      6  C   UNL     1     -28.834  18.032  56.730  1.00  0.00     0.136 C 
ATOM      7  O   UNL     1     -29.897  17.499  56.448  1.00  0.00    -0.299 OA
ATOM      8  C   UNL     1     -28.273  17.888  58.116  1.00  0.00     0.079 C 
ENDROOT
BRANCH   5   9
ATOM      9  C   UNL     1     -28.782  18.987  54.344  1.00  0.00    -0.007 C 
ATOM     10  C   UNL     1     -30.034  19.882  54.318  1.00  0.00     0.008 C 
ATOM     11  C   UNL     1     -27.793  19.497  53.278  1.00  0.00     0.008 C 
ENDBRANCH   5   9
TORSDOF 1
ENDMDL
MODEL 7
REMARK VINA RESULT:    -5.446      1.643      2.582
REMARK INTER + INTRA:          -5.839
REMARK INTER:                  -5.692
REMARK INTRA:                  -0.147
REMARK UNBOUND:                -0.075
REMARK SMILES CC(C)[C@H]1CC[C@@H](C)CC1=O
REMARK SMILES IDX 8 1 7 2 6 3 5 4 4 5 10 6 11 7 9 8 2 9 1 10 3 11
REMARK H PARENT
REMARK Flexibility Score: inf
ROOT
ATOM      1  C   UNL     1     -30.028  22.245  58.128  1.00  0.00     0.008 C 
ATOM      2  C   UNL     1     -30.705  20.867  58.076  1.00  0.00    -0.007 C 
ATOM      3  C   UNL     1     -30.333  19.997  59.300  1.00  0.00     0.004 C 
ATOM      4  C   UNL     1     -28.879  19.486  59.260  1.00  0.00     0.012 C 
ATOM      5  C   UNL     1     -28.570  18.719  57.952  1.00  0.00     0.058 C 
ATOM      6  C   UNL     1     -28.978  19.610  56.792  1.00  0.00     0.136 C 
ATOM      7  O   UNL     1     -28.177  19.981  55.946  1.00  0.00    -0.299 OA
ATOM      8  C   UNL     1     -30.387  20.130  56.761  1.00  0.00     0.079 C 
ENDROOT
BRANCH   5   9
ATOM      9  C   UNL     1     -27.085  18.235  57.855  1.00  0.00    -0.007 C 
ATOM     10  C   UNL     1     -26.411  18.102  59.233  1.00  0.00     0.008 C 
ATOM     11  C   UNL     1     -26.997  16.875  57.135  1.00  0.00     0.008 C 
ENDBRANCH   5   9
TORSDOF 1
ENDMDL
MODEL 8
REMARK VINA RESULT:    -5.424      1.511      3.504
REMARK INTER + INTRA:          -5.816
REMARK INTER:                  -5.733
REMARK INTRA:                  -0.083
REMARK UNBOUND:                -0.075
REMARK SMILES CC(C)[C@H]1CC[C@@H](C)CC1=O
REMARK SMILES IDX 8 1 7 2 6 3 5 4 4 5 10 6 11 7 9 8 2 9 1 10 3 11
REMARK H PARENT
REMARK Flexibility Score: inf
ROOT
ATOM      1  C   UNL     1     -27.396  17.070  57.010  1.00  0.00     0.008 C 
ATOM      2  C   UNL     1     -27.512  18.223  56.001  1.00  0.00    -0.007 C 
ATOM      3  C   UNL     1     -27.056  19.570  56.611  1.00  0.00     0.004 C 
ATOM      4  C   UNL     1     -28.051  20.134  57.645  1.00  0.00     0.012 C 
ATOM      5  C   UNL     1     -29.478  20.273  57.060  1.00  0.00     0.058 C 
ATOM      6  C   UNL     1     -29.857  18.932  56.456  1.00  0.00     0.136 C 
ATOM      7  O   UNL     1     -30.828  18.298  56.845  1.00  0.00    -0.299 OA
ATOM      8  C   UNL     1     -28.938  18.333  55.430  1.00  0.00     0.079 C 
ENDROOT
BRANCH   5   9
ATOM      9  C   UNL     1     -30.525  20.790  58.102  1.00  0.00    -0.007 C 
ATOM     10  C   UNL     1     -30.341  20.160  59.494  1.00  0.00     0.008 C 
ATOM     11  C   UNL     1     -30.445  22.322  58.244  1.00  0.00     0.008 C 
ENDBRANCH   5   9
TORSDOF 1
ENDMDL
MODEL 9
REMARK VINA RESULT:    -5.363      6.728      7.818
REMARK INTER + INTRA:          -5.752
REMARK INTER:                  -5.591
REMARK INTRA:                  -0.161
REMARK UNBOUND:                -0.075
REMARK SMILES CC(C)[C@H]1CC[C@@H](C)CC1=O
REMARK SMILES IDX 8 1 7 2 6 3 5 4 4 5 10 6 11 7 9 8 2 9 1 10 3 11
REMARK H PARENT
REMARK Flexibility Score: inf
ROOT
ATOM      1  C   UNL     1     -31.787  15.228  56.232  1.00  0.00     0.008 C 
ATOM      2  C   UNL     1     -32.840  16.053  56.989  1.00  0.00    -0.007 C 
ATOM      3  C   UNL     1     -32.903  15.670  58.487  1.00  0.00     0.004 C 
ATOM      4  C   UNL     1     -33.545  14.289  58.732  1.00  0.00     0.012 C 
ATOM      5  C   UNL     1     -34.953  14.184  58.098  1.00  0.00     0.058 C 
ATOM      6  C   UNL     1     -34.831  14.596  56.641  1.00  0.00     0.136 C 
ATOM      7  O   UNL     1     -35.123  13.837  55.728  1.00  0.00    -0.299 OA
ATOM      8  C   UNL     1     -34.229  15.936  56.333  1.00  0.00     0.079 C 
ENDROOT
BRANCH   5   9
ATOM      9  C   UNL     1     -35.609  12.776  58.281  1.00  0.00    -0.007 C 
ATOM     10  C   UNL     1     -34.573  11.639  58.338  1.00  0.00     0.008 C 
ATOM     11  C   UNL     1     -36.457  12.729  59.567  1.00  0.00     0.008 C 
ENDBRANCH   5   9
TORSDOF 1
ENDMDL
