MODEL 1
REMARK VINA RESULT:    -4.703      0.000      0.000
REMARK INTER + INTRA:          -8.013
REMARK INTER:                  -7.453
REMARK INTRA:                  -0.560
REMARK UNBOUND:                -0.560
REMARK SMILES CCCCCCCCCCCC(=O)[O-]
REMARK SMILES IDX 7 1 8 2 9 3 10 4 11 5 12 6 13 7 14 8 6 9 5 10 4 11 3 12 2 13
REMARK SMILES IDX 1 14
REMARK H PARENT
REMARK Flexibility Score: inf
ROOT
ATOM      1  C   UNL     1       3.190 -37.386  19.511  1.00  0.00     0.000 C 
ENDROOT
BRANCH   1   2
ATOM      2  C   UNL     1       4.541 -36.659  19.566  1.00  0.00     0.000 C 
BRANCH   2   3
ATOM      3  C   UNL     1       4.590 -35.579  20.658  1.00  0.00     0.000 C 
BRANCH   3   4
ATOM      4  C   UNL     1       5.953 -35.509  21.362  1.00  0.00     0.006 C 
BRANCH   4   5
ATOM      5  C   UNL     1       5.936 -36.310  22.668  1.00  0.00     0.053 C 
BRANCH   5   6
ATOM      6  C   UNL     1       5.674 -35.409  23.833  1.00  0.00     0.041 C 
ATOM      7  O   UNL     1       5.456 -35.896  24.973  1.00  0.00    -0.550 OA
ATOM      8  O   UNL     1       5.721 -34.030  23.671  1.00  0.00    -0.550 OA
ENDBRANCH   5   6
ENDBRANCH   4   5
ENDBRANCH   3   4
ENDBRANCH   2   3
ENDBRANCH   1   2
BRANCH   1   9
ATOM      9  C   UNL     1       2.687 -37.500  18.067  1.00  0.00     0.000 C 
BRANCH   9  10
ATOM     10  C   UNL     1       3.322 -36.427  17.175  1.00  0.00    -0.000 C 
BRANCH  10  11
ATOM     11  C   UNL     1       2.321 -35.912  16.130  1.00  0.00    -0.000 C 
BRANCH  11  12
ATOM     12  C   UNL     1       2.438 -36.663  14.788  1.00  0.00    -0.000 C 
BRANCH  12  13
ATOM     13  C   UNL     1       3.891 -36.914  14.348  1.00  0.00    -0.003 C 
ATOM     14  C   UNL     1       4.221 -38.397  14.191  1.00  0.00     0.004 C 
ENDBRANCH  12  13
ENDBRANCH  11  12
ENDBRANCH  10  11
ENDBRANCH   9  10
ENDBRANCH   1   9
TORSDOF 10
ENDMDL
MODEL 2
REMARK VINA RESULT:    -4.475      0.868      1.433
REMARK INTER + INTRA:          -7.651
REMARK INTER:                  -7.087
REMARK INTRA:                  -0.565
REMARK UNBOUND:                -0.560
REMARK SMILES CCCCCCCCCCCC(=O)[O-]
REMARK SMILES IDX 7 1 8 2 9 3 10 4 11 5 12 6 13 7 14 8 6 9 5 10 4 11 3 12 2 13
REMARK SMILES IDX 1 14
REMARK H PARENT
REMARK Flexibility Score: inf
ROOT
ATOM      1  C   UNL     1       3.380 -36.353  20.411  1.00  0.00     0.000 C 
ENDROOT
BRANCH   1   2
ATOM      2  C   UNL     1       4.569 -35.602  19.793  1.00  0.00     0.000 C 
BRANCH   2   3
ATOM      3  C   UNL     1       5.851 -35.730  20.631  1.00  0.00     0.000 C 
BRANCH   3   4
ATOM      4  C   UNL     1       5.661 -35.255  22.079  1.00  0.00     0.006 C 
BRANCH   4   5
ATOM      5  C   UNL     1       6.109 -36.333  23.072  1.00  0.00     0.053 C 
BRANCH   5   6
ATOM      6  C   UNL     1       5.908 -35.867  24.478  1.00  0.00     0.041 C 
ATOM      7  O   UNL     1       6.125 -34.665  24.784  1.00  0.00    -0.550 OA
ATOM      8  O   UNL     1       5.433 -36.747  25.442  1.00  0.00    -0.550 OA
ENDBRANCH   5   6
ENDBRANCH   4   5
ENDBRANCH   3   4
ENDBRANCH   2   3
ENDBRANCH   1   2
BRANCH   1   9
ATOM      9  C   UNL     1       2.928 -37.505  19.507  1.00  0.00     0.000 C 
BRANCH   9  10
ATOM     10  C   UNL     1       3.498 -37.352  18.091  1.00  0.00    -0.000 C 
BRANCH  10  11
ATOM     11  C   UNL     1       2.431 -36.828  17.120  1.00  0.00    -0.000 C 
BRANCH  11  12
ATOM     12  C   UNL     1       3.039 -35.966  15.993  1.00  0.00    -0.000 C 
BRANCH  12  13
ATOM     13  C   UNL     1       2.870 -36.577  14.591  1.00  0.00    -0.003 C 
ATOM     14  C   UNL     1       3.941 -37.613  14.258  1.00  0.00     0.004 C 
ENDBRANCH  12  13
ENDBRANCH  11  12
ENDBRANCH  10  11
ENDBRANCH   9  10
ENDBRANCH   1   9
TORSDOF 10
ENDMDL
MODEL 3
REMARK VINA RESULT:    -4.333      4.133      7.733
REMARK INTER + INTRA:          -7.427
REMARK INTER:                  -6.900
REMARK INTRA:                  -0.526
REMARK UNBOUND:                -0.560
REMARK SMILES CCCCCCCCCCCC(=O)[O-]
REMARK SMILES IDX 7 1 8 2 9 3 10 4 11 5 12 6 13 7 14 8 6 9 5 10 4 11 3 12 2 13
REMARK SMILES IDX 1 14
REMARK H PARENT
REMARK Flexibility Score: inf
ROOT
ATOM      1  C   UNL     1       3.709 -36.051  20.392  1.00  0.00     0.000 C 
ENDROOT
BRANCH   1   2
ATOM      2  C   UNL     1       2.838 -37.187  19.835  1.00  0.00     0.000 C 
BRANCH   2   3
ATOM      3  C   UNL     1       3.296 -37.658  18.446  1.00  0.00     0.000 C 
BRANCH   3   4
ATOM      4  C   UNL     1       2.542 -36.959  17.305  1.00  0.00     0.006 C 
BRANCH   4   5
ATOM      5  C   UNL     1       3.520 -36.332  16.306  1.00  0.00     0.053 C 
BRANCH   5   6
ATOM      6  C   UNL     1       3.125 -36.670  14.903  1.00  0.00     0.041 C 
ATOM      7  O   UNL     1       2.008 -36.302  14.454  1.00  0.00    -0.550 OA
ATOM      8  O   UNL     1       4.010 -37.347  14.074  1.00  0.00    -0.550 OA
ENDBRANCH   5   6
ENDBRANCH   4   5
ENDBRANCH   3   4
ENDBRANCH   2   3
ENDBRANCH   1   2
BRANCH   1   9
ATOM      9  C   UNL     1       5.197 -36.330  20.149  1.00  0.00     0.000 C 
BRANCH   9  10
ATOM     10  C   UNL     1       6.077 -35.390  20.981  1.00  0.00    -0.000 C 
BRANCH  10  11
ATOM     11  C   UNL     1       6.124 -35.834  22.451  1.00  0.00    -0.000 C 
BRANCH  11  12
ATOM     12  C   UNL     1       5.895 -34.658  23.423  1.00  0.00    -0.000 C 
BRANCH  12  13
ATOM     13  C   UNL     1       6.125 -35.026  24.899  1.00  0.00    -0.003 C 
ATOM     14  C   UNL     1       5.956 -36.518  25.177  1.00  0.00     0.004 C 
ENDBRANCH  12  13
ENDBRANCH  11  12
ENDBRANCH  10  11
ENDBRANCH   9  10
ENDBRANCH   1   9
TORSDOF 10
ENDMDL
MODEL 4
REMARK VINA RESULT:    -4.232      4.174      7.540
REMARK INTER + INTRA:          -7.266
REMARK INTER:                  -6.724
REMARK INTRA:                  -0.542
REMARK UNBOUND:                -0.560
REMARK SMILES CCCCCCCCCCCC(=O)[O-]
REMARK SMILES IDX 7 1 8 2 9 3 10 4 11 5 12 6 13 7 14 8 6 9 5 10 4 11 3 12 2 13
REMARK SMILES IDX 1 14
REMARK H PARENT
REMARK Flexibility Score: inf
ROOT
ATOM      1  C   UNL     1       2.986 -36.968  19.802  1.00  0.00     0.000 C 
ENDROOT
BRANCH   1   2
ATOM      2  C   UNL     1       2.481 -37.856  18.655  1.00  0.00     0.000 C 
BRANCH   2   3
ATOM      3  C   UNL     1       1.486 -37.130  17.737  1.00  0.00     0.000 C 
BRANCH   3   4
ATOM      4  C   UNL     1       2.162 -36.497  16.512  1.00  0.00     0.006 C 
BRANCH   4   5
ATOM      5  C   UNL     1       3.478 -37.210  16.184  1.00  0.00     0.053 C 
BRANCH   5   6
ATOM      6  C   UNL     1       3.572 -37.488  14.718  1.00  0.00     0.041 C 
ATOM      7  O   UNL     1       3.090 -36.674  13.887  1.00  0.00    -0.550 OA
ATOM      8  O   UNL     1       4.237 -38.620  14.265  1.00  0.00    -0.550 OA
ENDBRANCH   5   6
ENDBRANCH   4   5
ENDBRANCH   3   4
ENDBRANCH   2   3
ENDBRANCH   1   2
BRANCH   1   9
ATOM      9  C   UNL     1       4.502 -37.117  19.984  1.00  0.00     0.000 C 
BRANCH   9  10
ATOM     10  C   UNL     1       5.184 -35.746  20.068  1.00  0.00    -0.000 C 
BRANCH  10  11
ATOM     11  C   UNL     1       6.005 -35.615  21.359  1.00  0.00    -0.000 C 
BRANCH  11  12
ATOM     12  C   UNL     1       5.169 -35.062  22.531  1.00  0.00    -0.000 C 
BRANCH  12  13
ATOM     13  C   UNL     1       5.990 -34.805  23.806  1.00  0.00    -0.003 C 
ATOM     14  C   UNL     1       6.125 -36.043  24.690  1.00  0.00     0.004 C 
ENDBRANCH  12  13
ENDBRANCH  11  12
ENDBRANCH  10  11
ENDBRANCH   9  10
ENDBRANCH   1   9
TORSDOF 10
ENDMDL
MODEL 5
REMARK VINA RESULT:    -4.222      3.954      7.660
REMARK INTER + INTRA:          -7.251
REMARK INTER:                  -6.741
REMARK INTRA:                  -0.510
REMARK UNBOUND:                -0.560
REMARK SMILES CCCCCCCCCCCC(=O)[O-]
REMARK SMILES IDX 7 1 8 2 9 3 10 4 11 5 12 6 13 7 14 8 6 9 5 10 4 11 3 12 2 13
REMARK SMILES IDX 1 14
REMARK H PARENT
REMARK Flexibility Score: inf
ROOT
ATOM      1  C   UNL     1       5.013 -37.161  19.705  1.00  0.00     0.000 C 
ENDROOT
BRANCH   1   2
ATOM      2  C   UNL     1       3.508 -37.268  19.992  1.00  0.00     0.000 C 
BRANCH   2   3
ATOM      3  C   UNL     1       2.659 -37.268  18.710  1.00  0.00     0.000 C 
BRANCH   3   4
ATOM      4  C   UNL     1       3.513 -37.285  17.434  1.00  0.00     0.006 C 
BRANCH   4   5
ATOM      5  C   UNL     1       2.948 -36.322  16.384  1.00  0.00     0.053 C 
BRANCH   5   6
ATOM      6  C   UNL     1       3.125 -36.884  15.010  1.00  0.00     0.041 C 
ATOM      7  O   UNL     1       3.880 -37.873  14.822  1.00  0.00    -0.550 OA
ATOM      8  O   UNL     1       2.417 -36.347  13.942  1.00  0.00    -0.550 OA
ENDBRANCH   5   6
ENDBRANCH   4   5
ENDBRANCH   3   4
ENDBRANCH   2   3
ENDBRANCH   1   2
BRANCH   1   9
ATOM      9  C   UNL     1       5.516 -35.731  19.937  1.00  0.00     0.000 C 
BRANCH   9  10
ATOM     10  C   UNL     1       4.967 -35.160  21.250  1.00  0.00    -0.000 C 
BRANCH  10  11
ATOM     11  C   UNL     1       5.869 -35.535  22.435  1.00  0.00    -0.000 C 
BRANCH  11  12
ATOM     12  C   UNL     1       5.816 -34.486  23.565  1.00  0.00    -0.000 C 
BRANCH  12  13
ATOM     13  C   UNL     1       6.125 -35.064  24.957  1.00  0.00    -0.003 C 
ATOM     14  C   UNL     1       5.846 -36.562  25.059  1.00  0.00     0.004 C 
ENDBRANCH  12  13
ENDBRANCH  11  12
ENDBRANCH  10  11
ENDBRANCH   9  10
ENDBRANCH   1   9
TORSDOF 10
ENDMDL
MODEL 6
REMARK VINA RESULT:    -3.324      1.447      2.860
REMARK INTER + INTRA:          -5.828
REMARK INTER:                  -4.935
REMARK INTRA:                  -0.893
REMARK UNBOUND:                -0.560
REMARK SMILES CCCCCCCCCCCC(=O)[O-]
REMARK SMILES IDX 7 1 8 2 9 3 10 4 11 5 12 6 13 7 14 8 6 9 5 10 4 11 3 12 2 13
REMARK SMILES IDX 1 14
REMARK H PARENT
REMARK Flexibility Score: inf
ROOT
ATOM      1  C   UNL     1       4.612 -34.579  18.024  1.00  0.00     0.000 C 
ENDROOT
BRANCH   1   2
ATOM      2  C   UNL     1       5.691 -34.786  19.097  1.00  0.00     0.000 C 
BRANCH   2   3
ATOM      3  C   UNL     1       5.400 -35.991  20.005  1.00  0.00     0.000 C 
BRANCH   3   4
ATOM      4  C   UNL     1       4.952 -35.575  21.414  1.00  0.00     0.006 C 
BRANCH   4   5
ATOM      5  C   UNL     1       5.937 -36.080  22.473  1.00  0.00     0.053 C 
BRANCH   5   6
ATOM      6  C   UNL     1       5.840 -35.254  23.716  1.00  0.00     0.041 C 
ATOM      7  O   UNL     1       5.556 -34.029  23.641  1.00  0.00    -0.550 OA
ATOM      8  O   UNL     1       6.013 -35.846  24.961  1.00  0.00    -0.550 OA
ENDBRANCH   5   6
ENDBRANCH   4   5
ENDBRANCH   3   4
ENDBRANCH   2   3
ENDBRANCH   1   2
BRANCH   1   9
ATOM      9  C   UNL     1       4.254 -35.904  17.342  1.00  0.00     0.000 C 
BRANCH   9  10
ATOM     10  C   UNL     1       3.192 -35.696  16.256  1.00  0.00    -0.000 C 
BRANCH  10  11
ATOM     11  C   UNL     1       1.997 -36.639  16.464  1.00  0.00    -0.000 C 
BRANCH  11  12
ATOM     12  C   UNL     1       2.258 -37.675  17.576  1.00  0.00    -0.000 C 
BRANCH  12  13
ATOM     13  C   UNL     1       1.226 -37.628  18.717  1.00  0.00    -0.003 C 
ATOM     14  C   UNL     1       1.853 -37.341  20.079  1.00  0.00     0.004 C 
ENDBRANCH  12  13
ENDBRANCH  11  12
ENDBRANCH  10  11
ENDBRANCH   9  10
ENDBRANCH   1   9
TORSDOF 10
ENDMDL
MODEL 7
REMARK VINA RESULT:    -3.261      2.382      2.806
REMARK INTER + INTRA:          -5.727
REMARK INTER:                  -5.258
REMARK INTRA:                  -0.469
REMARK UNBOUND:                -0.560
REMARK SMILES CCCCCCCCCCCC(=O)[O-]
REMARK SMILES IDX 7 1 8 2 9 3 10 4 11 5 12 6 13 7 14 8 6 9 5 10 4 11 3 12 2 13
REMARK SMILES IDX 1 14
REMARK H PARENT
REMARK Flexibility Score: inf
ROOT
ATOM      1  C   UNL     1       2.789 -36.928  19.757  1.00  0.00     0.000 C 
ENDROOT
BRANCH   1   2
ATOM      2  C   UNL     1       4.302 -37.194  19.730  1.00  0.00     0.000 C 
BRANCH   2   3
ATOM      3  C   UNL     1       5.054 -36.448  20.844  1.00  0.00     0.000 C 
BRANCH   3   4
ATOM      4  C   UNL     1       5.728 -37.400  21.843  1.00  0.00     0.006 C 
BRANCH   4   5
ATOM      5  C   UNL     1       5.752 -38.834  21.303  1.00  0.00     0.053 C 
BRANCH   5   6
ATOM      6  C   UNL     1       5.639 -39.818  22.424  1.00  0.00     0.041 C 
ATOM      7  O   UNL     1       5.286 -39.434  23.570  1.00  0.00    -0.550 OA
ATOM      8  O   UNL     1       5.873 -41.167  22.192  1.00  0.00    -0.550 OA
ENDBRANCH   5   6
ENDBRANCH   4   5
ENDBRANCH   3   4
ENDBRANCH   2   3
ENDBRANCH   1   2
BRANCH   1   9
ATOM      9  C   UNL     1       2.060 -37.804  18.732  1.00  0.00     0.000 C 
BRANCH   9  10
ATOM     10  C   UNL     1       1.877 -37.062  17.403  1.00  0.00    -0.000 C 
BRANCH  10  11
ATOM     11  C   UNL     1       3.021 -37.383  16.429  1.00  0.00    -0.000 C 
BRANCH  11  12
ATOM     12  C   UNL     1       3.100 -36.372  15.266  1.00  0.00    -0.000 C 
BRANCH  12  13
ATOM     13  C   UNL     1       3.623 -36.982  13.954  1.00  0.00    -0.003 C 
ATOM     14  C   UNL     1       4.268 -38.353  14.147  1.00  0.00     0.004 C 
ENDBRANCH  12  13
ENDBRANCH  11  12
ENDBRANCH  10  11
ENDBRANCH   9  10
ENDBRANCH   1   9
TORSDOF 10
ENDMDL
MODEL 8
REMARK VINA RESULT:    -2.983      2.330      2.724
REMARK INTER + INTRA:          -5.288
REMARK INTER:                  -4.702
REMARK INTRA:                  -0.586
REMARK UNBOUND:                -0.560
REMARK SMILES CCCCCCCCCCCC(=O)[O-]
REMARK SMILES IDX 7 1 8 2 9 3 10 4 11 5 12 6 13 7 14 8 6 9 5 10 4 11 3 12 2 13
REMARK SMILES IDX 1 14
REMARK H PARENT
REMARK Flexibility Score: inf
ROOT
ATOM      1  C   UNL     1       4.742 -34.661  18.807  1.00  0.00     0.000 C 
ENDROOT
BRANCH   1   2
ATOM      2  C   UNL     1       6.084 -35.156  19.366  1.00  0.00     0.000 C 
BRANCH   2   3
ATOM      3  C   UNL     1       6.125 -35.150  20.902  1.00  0.00     0.000 C 
BRANCH   3   4
ATOM      4  C   UNL     1       5.086 -36.094  21.527  1.00  0.00     0.006 C 
BRANCH   4   5
ATOM      5  C   UNL     1       5.770 -37.250  22.263  1.00  0.00     0.053 C 
BRANCH   5   6
ATOM      6  C   UNL     1       5.656 -38.515  21.474  1.00  0.00     0.041 C 
ATOM      7  O   UNL     1       5.523 -39.619  22.065  1.00  0.00    -0.550 OA
ATOM      8  O   UNL     1       5.644 -38.471  20.086  1.00  0.00    -0.550 OA
ENDBRANCH   5   6
ENDBRANCH   4   5
ENDBRANCH   3   4
ENDBRANCH   2   3
ENDBRANCH   1   2
BRANCH   1   9
ATOM      9  C   UNL     1       4.286 -35.526  17.627  1.00  0.00     0.000 C 
BRANCH   9  10
ATOM     10  C   UNL     1       3.567 -36.790  18.114  1.00  0.00    -0.000 C 
BRANCH  10  11
ATOM     11  C   UNL     1       2.869 -37.512  16.952  1.00  0.00    -0.000 C 
BRANCH  11  12
ATOM     12  C   UNL     1       2.303 -36.527  15.908  1.00  0.00    -0.000 C 
BRANCH  12  13
ATOM     13  C   UNL     1       3.120 -36.475  14.605  1.00  0.00    -0.003 C 
ATOM     14  C   UNL     1       3.950 -37.734  14.369  1.00  0.00     0.004 C 
ENDBRANCH  12  13
ENDBRANCH  11  12
ENDBRANCH  10  11
ENDBRANCH   9  10
ENDBRANCH   1   9
TORSDOF 10
ENDMDL
MODEL 9
REMARK VINA RESULT:    -2.975      3.132      7.098
REMARK INTER + INTRA:          -5.274
REMARK INTER:                  -4.919
REMARK INTRA:                  -0.356
REMARK UNBOUND:                -0.560
REMARK SMILES CCCCCCCCCCCC(=O)[O-]
REMARK SMILES IDX 7 1 8 2 9 3 10 4 11 5 12 6 13 7 14 8 6 9 5 10 4 11 3 12 2 13
REMARK SMILES IDX 1 14
REMARK H PARENT
REMARK Flexibility Score: inf
ROOT
ATOM      1  C   UNL     1       4.641 -36.802  20.210  1.00  0.00     0.000 C 
ENDROOT
BRANCH   1   2
ATOM      2  C   UNL     1       4.594 -35.581  19.280  1.00  0.00     0.000 C 
BRANCH   2   3
ATOM      3  C   UNL     1       4.352 -35.963  17.811  1.00  0.00     0.000 C 
BRANCH   3   4
ATOM      4  C   UNL     1       3.495 -37.228  17.662  1.00  0.00     0.006 C 
BRANCH   4   5
ATOM      5  C   UNL     1       2.009 -36.872  17.542  1.00  0.00     0.053 C 
BRANCH   5   6
ATOM      6  C   UNL     1       1.221 -37.540  18.623  1.00  0.00     0.041 C 
ATOM      7  O   UNL     1       0.038 -37.911  18.406  1.00  0.00    -0.550 OA
ATOM      8  O   UNL     1       1.808 -37.798  19.855  1.00  0.00    -0.550 OA
ENDBRANCH   5   6
ENDBRANCH   4   5
ENDBRANCH   3   4
ENDBRANCH   2   3
ENDBRANCH   1   2
BRANCH   1   9
ATOM      9  C   UNL     1       5.791 -36.680  21.217  1.00  0.00     0.000 C 
BRANCH   9  10
ATOM     10  C   UNL     1       6.025 -35.217  21.613  1.00  0.00    -0.000 C 
BRANCH  10  11
ATOM     11  C   UNL     1       5.251 -34.861  22.892  1.00  0.00    -0.000 C 
BRANCH  11  12
ATOM     12  C   UNL     1       6.106 -35.050  24.162  1.00  0.00    -0.000 C 
BRANCH  12  13
ATOM     13  C   UNL     1       6.124 -36.498  24.683  1.00  0.00    -0.003 C 
ATOM     14  C   UNL     1       5.028 -36.779  25.708  1.00  0.00     0.004 C 
ENDBRANCH  12  13
ENDBRANCH  11  12
ENDBRANCH  10  11
ENDBRANCH   9  10
ENDBRANCH   1   9
TORSDOF 10
ENDMDL
