MODEL 1
REMARK VINA RESULT:    -4.587      0.000      0.000
REMARK INTER + INTRA:          -9.142
REMARK INTER:                  -8.074
REMARK INTRA:                  -1.068
REMARK UNBOUND:                -1.068
REMARK SMILES CCCCCCCCCCCCCCC(=O)[O-]
REMARK SMILES IDX 9 1 10 2 11 3 12 4 13 5 14 6 15 7 16 8 17 9 8 10 7 11 6 12
REMARK SMILES IDX 5 13 4 14 3 15 2 16 1 17
REMARK H PARENT
REMARK Flexibility Score: inf
ROOT
ATOM      1  C   UNL     1     -10.252  -2.042   2.562  1.00  0.00     0.000 C 
ENDROOT
BRANCH   1   2
ATOM      2  C   UNL     1      -8.959  -1.295   2.195  1.00  0.00     0.000 C 
BRANCH   2   3
ATOM      3  C   UNL     1      -9.024   0.202   2.536  1.00  0.00     0.000 C 
BRANCH   3   4
ATOM      4  C   UNL     1      -9.944   0.500   3.730  1.00  0.00     0.000 C 
BRANCH   4   5
ATOM      5  C   UNL     1     -10.635   1.862   3.564  1.00  0.00     0.006 C 
BRANCH   5   6
ATOM      6  C   UNL     1     -11.569   1.897   2.348  1.00  0.00     0.053 C 
BRANCH   6   7
ATOM      7  C   UNL     1     -12.941   1.400   2.686  1.00  0.00     0.041 C 
ATOM      8  O   UNL     1     -13.907   2.203   2.754  1.00  0.00    -0.550 OA
ATOM      9  O   UNL     1     -13.159   0.043   2.891  1.00  0.00    -0.550 OA
ENDBRANCH   6   7
ENDBRANCH   5   6
ENDBRANCH   4   5
ENDBRANCH   3   4
ENDBRANCH   2   3
ENDBRANCH   1   2
BRANCH   1  10
ATOM     10  C   UNL     1     -10.009  -3.189   3.557  1.00  0.00     0.000 C 
BRANCH  10  11
ATOM     11  C   UNL     1      -8.579  -3.187   4.126  1.00  0.00    -0.000 C 
BRANCH  11  12
ATOM     12  C   UNL     1      -8.521  -3.687   5.578  1.00  0.00    -0.000 C 
BRANCH  12  13
ATOM     13  C   UNL     1      -9.718  -4.583   5.944  1.00  0.00    -0.000 C 
BRANCH  13  14
ATOM     14  C   UNL     1      -9.314  -6.066   6.089  1.00  0.00    -0.000 C 
BRANCH  14  15
ATOM     15  C   UNL     1      -9.755  -6.945   4.903  1.00  0.00    -0.000 C 
BRANCH  15  16
ATOM     16  C   UNL     1      -9.107  -8.338   4.860  1.00  0.00    -0.003 C 
ATOM     17  C   UNL     1      -8.034  -8.525   5.931  1.00  0.00     0.004 C 
ENDBRANCH  15  16
ENDBRANCH  14  15
ENDBRANCH  13  14
ENDBRANCH  12  13
ENDBRANCH  11  12
ENDBRANCH  10  11
ENDBRANCH   1  10
TORSDOF 13
ENDMDL
MODEL 2
REMARK VINA RESULT:    -4.549      2.356      6.754
REMARK INTER + INTRA:          -9.075
REMARK INTER:                  -7.299
REMARK INTRA:                  -1.776
REMARK UNBOUND:                -1.068
REMARK SMILES CCCCCCCCCCCCCCC(=O)[O-]
REMARK SMILES IDX 9 1 10 2 11 3 12 4 13 5 14 6 15 7 16 8 17 9 8 10 7 11 6 12
REMARK SMILES IDX 5 13 4 14 3 15 2 16 1 17
REMARK H PARENT
REMARK Flexibility Score: inf
ROOT
ATOM      1  C   UNL     1      -9.275  -3.479   5.643  1.00  0.00     0.000 C 
ENDROOT
BRANCH   1   2
ATOM      2  C   UNL     1      -8.440  -4.510   6.423  1.00  0.00     0.000 C 
BRANCH   2   3
ATOM      3  C   UNL     1      -9.271  -5.721   6.877  1.00  0.00     0.000 C 
BRANCH   3   4
ATOM      4  C   UNL     1      -9.178  -6.904   5.901  1.00  0.00     0.000 C 
BRANCH   4   5
ATOM      5  C   UNL     1     -10.381  -6.922   4.945  1.00  0.00     0.006 C 
BRANCH   5   6
ATOM      6  C   UNL     1     -11.661  -6.403   5.610  1.00  0.00     0.053 C 
BRANCH   6   7
ATOM      7  C   UNL     1     -12.496  -5.600   4.660  1.00  0.00     0.041 C 
ATOM      8  O   UNL     1     -13.101  -6.166   3.714  1.00  0.00    -0.550 OA
ATOM      9  O   UNL     1     -12.633  -4.229   4.842  1.00  0.00    -0.550 OA
ENDBRANCH   6   7
ENDBRANCH   5   6
ENDBRANCH   4   5
ENDBRANCH   3   4
ENDBRANCH   2   3
ENDBRANCH   1   2
BRANCH   1  10
ATOM     10  C   UNL     1      -8.701  -3.192   4.246  1.00  0.00     0.000 C 
BRANCH  10  11
ATOM     11  C   UNL     1      -9.739  -3.384   3.127  1.00  0.00    -0.000 C 
BRANCH  11  12
ATOM     12  C   UNL     1      -9.855  -2.155   2.212  1.00  0.00    -0.000 C 
BRANCH  12  13
ATOM     13  C   UNL     1      -8.657  -1.199   2.350  1.00  0.00    -0.000 C 
BRANCH  13  14
ATOM     14  C   UNL     1      -9.100   0.272   2.513  1.00  0.00    -0.000 C 
BRANCH  14  15
ATOM     15  C   UNL     1     -10.563   0.429   2.968  1.00  0.00    -0.000 C 
BRANCH  15  16
ATOM     16  C   UNL     1     -10.763   0.451   4.492  1.00  0.00    -0.003 C 
ATOM     17  C   UNL     1     -11.746  -0.614   4.977  1.00  0.00     0.004 C 
ENDBRANCH  15  16
ENDBRANCH  14  15
ENDBRANCH  13  14
ENDBRANCH  12  13
ENDBRANCH  11  12
ENDBRANCH  10  11
ENDBRANCH   1  10
TORSDOF 13
ENDMDL
MODEL 3
REMARK VINA RESULT:    -4.509      2.156      4.318
REMARK INTER + INTRA:          -9.003
REMARK INTER:                  -6.999
REMARK INTRA:                  -2.004
REMARK UNBOUND:                -1.068
REMARK SMILES CCCCCCCCCCCCCCC(=O)[O-]
REMARK SMILES IDX 9 1 10 2 11 3 12 4 13 5 14 6 15 7 16 8 17 9 8 10 7 11 6 12
REMARK SMILES IDX 5 13 4 14 3 15 2 16 1 17
REMARK H PARENT
REMARK Flexibility Score: inf
ROOT
ATOM      1  C   UNL     1      -8.949  -3.867   5.974  1.00  0.00     0.000 C 
ENDROOT
BRANCH   1   2
ATOM      2  C   UNL     1      -8.500  -3.306   4.614  1.00  0.00     0.000 C 
BRANCH   2   3
ATOM      3  C   UNL     1      -9.483  -3.646   3.482  1.00  0.00     0.000 C 
BRANCH   3   4
ATOM      4  C   UNL     1      -9.759  -2.451   2.557  1.00  0.00     0.000 C 
BRANCH   4   5
ATOM      5  C   UNL     1      -8.990  -1.206   3.024  1.00  0.00     0.006 C 
BRANCH   5   6
ATOM      6  C   UNL     1      -9.418   0.060   2.271  1.00  0.00     0.053 C 
BRANCH   6   7
ATOM      7  C   UNL     1     -10.257   0.960   3.125  1.00  0.00     0.041 C 
ATOM      8  O   UNL     1     -10.845   1.949   2.617  1.00  0.00    -0.550 OA
ATOM      9  O   UNL     1     -10.416   0.685   4.479  1.00  0.00    -0.550 OA
ENDBRANCH   6   7
ENDBRANCH   5   6
ENDBRANCH   4   5
ENDBRANCH   3   4
ENDBRANCH   2   3
ENDBRANCH   1   2
BRANCH   1  10
ATOM     10  C   UNL     1      -9.003  -5.403   5.990  1.00  0.00     0.000 C 
BRANCH  10  11
ATOM     11  C   UNL     1     -10.397  -5.945   6.355  1.00  0.00    -0.000 C 
BRANCH  11  12
ATOM     12  C   UNL     1     -11.265  -6.223   5.119  1.00  0.00    -0.000 C 
BRANCH  12  13
ATOM     13  C   UNL     1     -12.535  -5.353   5.079  1.00  0.00    -0.000 C 
BRANCH  13  14
ATOM     14  C   UNL     1     -12.710  -4.518   6.367  1.00  0.00    -0.000 C 
BRANCH  14  15
ATOM     15  C   UNL     1     -13.228  -3.090   6.110  1.00  0.00    -0.000 C 
BRANCH  15  16
ATOM     16  C   UNL     1     -12.312  -2.225   5.228  1.00  0.00    -0.003 C 
ATOM     17  C   UNL     1     -13.011  -1.717   3.968  1.00  0.00     0.004 C 
ENDBRANCH  15  16
ENDBRANCH  14  15
ENDBRANCH  13  14
ENDBRANCH  12  13
ENDBRANCH  11  12
ENDBRANCH  10  11
ENDBRANCH   1  10
TORSDOF 13
ENDMDL
MODEL 4
REMARK VINA RESULT:    -4.478      3.221      6.673
REMARK INTER + INTRA:          -8.949
REMARK INTER:                  -7.193
REMARK INTRA:                  -1.756
REMARK UNBOUND:                -1.068
REMARK SMILES CCCCCCCCCCCCCCC(=O)[O-]
REMARK SMILES IDX 9 1 10 2 11 3 12 4 13 5 14 6 15 7 16 8 17 9 8 10 7 11 6 12
REMARK SMILES IDX 5 13 4 14 3 15 2 16 1 17
REMARK H PARENT
REMARK Flexibility Score: inf
ROOT
ATOM      1  C   UNL     1      -9.732  -2.188   2.336  1.00  0.00     0.000 C 
ENDROOT
BRANCH   1   2
ATOM      2  C   UNL     1      -9.775  -3.445   3.222  1.00  0.00     0.000 C 
BRANCH   2   3
ATOM      3  C   UNL     1      -8.747  -3.399   4.363  1.00  0.00     0.000 C 
BRANCH   3   4
ATOM      4  C   UNL     1      -9.356  -3.761   5.726  1.00  0.00     0.000 C 
BRANCH   4   5
ATOM      5  C   UNL     1      -8.559  -4.888   6.401  1.00  0.00     0.006 C 
BRANCH   5   6
ATOM      6  C   UNL     1      -9.456  -6.049   6.848  1.00  0.00     0.053 C 
BRANCH   6   7
ATOM      7  C   UNL     1     -10.212  -6.643   5.699  1.00  0.00     0.041 C 
ATOM      8  O   UNL     1     -11.470  -6.665   5.712  1.00  0.00    -0.550 OA
ATOM      9  O   UNL     1      -9.527  -7.140   4.597  1.00  0.00    -0.550 OA
ENDBRANCH   6   7
ENDBRANCH   5   6
ENDBRANCH   4   5
ENDBRANCH   3   4
ENDBRANCH   2   3
ENDBRANCH   1   2
BRANCH   1  10
ATOM     10  C   UNL     1      -8.620  -1.210   2.753  1.00  0.00     0.000 C 
BRANCH  10  11
ATOM     11  C   UNL     1      -8.865   0.220   2.243  1.00  0.00    -0.000 C 
BRANCH  11  12
ATOM     12  C   UNL     1     -10.295   0.710   2.524  1.00  0.00    -0.000 C 
BRANCH  12  13
ATOM     13  C   UNL     1     -10.424   1.410   3.889  1.00  0.00    -0.000 C 
BRANCH  13  14
ATOM     14  C   UNL     1     -11.741   1.045   4.609  1.00  0.00    -0.000 C 
BRANCH  14  15
ATOM     15  C   UNL     1     -12.357  -0.284   4.132  1.00  0.00    -0.000 C 
BRANCH  15  16
ATOM     16  C   UNL     1     -12.265  -1.435   5.146  1.00  0.00    -0.003 C 
ATOM     17  C   UNL     1     -13.075  -2.661   4.727  1.00  0.00     0.004 C 
ENDBRANCH  15  16
ENDBRANCH  14  15
ENDBRANCH  13  14
ENDBRANCH  12  13
ENDBRANCH  11  12
ENDBRANCH  10  11
ENDBRANCH   1  10
TORSDOF 13
ENDMDL
MODEL 5
REMARK VINA RESULT:    -4.475      3.896      6.232
REMARK INTER + INTRA:          -8.945
REMARK INTER:                  -6.798
REMARK INTRA:                  -2.146
REMARK UNBOUND:                -1.068
REMARK SMILES CCCCCCCCCCCCCCC(=O)[O-]
REMARK SMILES IDX 9 1 10 2 11 3 12 4 13 5 14 6 15 7 16 8 17 9 8 10 7 11 6 12
REMARK SMILES IDX 5 13 4 14 3 15 2 16 1 17
REMARK H PARENT
REMARK Flexibility Score: inf
ROOT
ATOM      1  C   UNL     1      -9.648  -1.975   2.289  1.00  0.00     0.000 C 
ENDROOT
BRANCH   1   2
ATOM      2  C   UNL     1      -9.216  -2.170   3.752  1.00  0.00     0.000 C 
BRANCH   2   3
ATOM      3  C   UNL     1      -9.036  -3.651   4.122  1.00  0.00     0.000 C 
BRANCH   3   4
ATOM      4  C   UNL     1      -8.849  -3.867   5.631  1.00  0.00     0.000 C 
BRANCH   4   5
ATOM      5  C   UNL     1      -9.424  -5.224   6.067  1.00  0.00     0.006 C 
BRANCH   5   6
ATOM      6  C   UNL     1      -9.478  -6.231   4.911  1.00  0.00     0.053 C 
BRANCH   6   7
ATOM      7  C   UNL     1     -10.247  -7.462   5.280  1.00  0.00     0.041 C 
ATOM      8  O   UNL     1     -11.338  -7.366   5.900  1.00  0.00    -0.550 OA
ATOM      9  O   UNL     1      -9.775  -8.715   4.908  1.00  0.00    -0.550 OA
ENDBRANCH   6   7
ENDBRANCH   5   6
ENDBRANCH   4   5
ENDBRANCH   3   4
ENDBRANCH   2   3
ENDBRANCH   1   2
BRANCH   1  10
ATOM     10  C   UNL     1     -11.169  -1.800   2.141  1.00  0.00     0.000 C 
BRANCH  10  11
ATOM     11  C   UNL     1     -11.810  -1.122   3.365  1.00  0.00    -0.000 C 
BRANCH  11  12
ATOM     12  C   UNL     1     -12.960  -1.948   3.962  1.00  0.00    -0.000 C 
BRANCH  12  13
ATOM     13  C   UNL     1     -12.550  -2.696   5.243  1.00  0.00    -0.000 C 
BRANCH  13  14
ATOM     14  C   UNL     1     -12.871  -4.205   5.166  1.00  0.00    -0.000 C 
BRANCH  14  15
ATOM     15  C   UNL     1     -12.597  -4.824   3.782  1.00  0.00    -0.000 C 
BRANCH  15  16
ATOM     16  C   UNL     1     -13.765  -5.636   3.200  1.00  0.00    -0.003 C 
ATOM     17  C   UNL     1     -15.129  -5.137   3.676  1.00  0.00     0.004 C 
ENDBRANCH  15  16
ENDBRANCH  14  15
ENDBRANCH  13  14
ENDBRANCH  12  13
ENDBRANCH  11  12
ENDBRANCH  10  11
ENDBRANCH   1  10
TORSDOF 13
ENDMDL
MODEL 6
REMARK VINA RESULT:    -4.448      2.532      3.893
REMARK INTER + INTRA:          -8.897
REMARK INTER:                  -7.078
REMARK INTRA:                  -1.819
REMARK UNBOUND:                -1.068
REMARK SMILES CCCCCCCCCCCCCCC(=O)[O-]
REMARK SMILES IDX 9 1 10 2 11 3 12 4 13 5 14 6 15 7 16 8 17 9 8 10 7 11 6 12
REMARK SMILES IDX 5 13 4 14 3 15 2 16 1 17
REMARK H PARENT
REMARK Flexibility Score: inf
ROOT
ATOM      1  C   UNL     1      -9.354  -3.246   5.157  1.00  0.00     0.000 C 
ENDROOT
BRANCH   1   2
ATOM      2  C   UNL     1      -9.346  -3.631   3.667  1.00  0.00     0.000 C 
BRANCH   2   3
ATOM      3  C   UNL     1     -10.691  -3.351   2.978  1.00  0.00     0.000 C 
BRANCH   3   4
ATOM      4  C   UNL     1     -11.547  -2.328   3.740  1.00  0.00     0.000 C 
BRANCH   4   5
ATOM      5  C   UNL     1     -11.827  -1.091   2.871  1.00  0.00     0.006 C 
BRANCH   5   6
ATOM      6  C   UNL     1     -10.694  -0.811   1.876  1.00  0.00     0.053 C 
BRANCH   6   7
ATOM      7  C   UNL     1      -9.631   0.060   2.473  1.00  0.00     0.041 C 
ATOM      8  O   UNL     1      -8.425  -0.102   2.152  1.00  0.00    -0.550 OA
ATOM      9  O   UNL     1      -9.978   1.074   3.357  1.00  0.00    -0.550 OA
ENDBRANCH   6   7
ENDBRANCH   5   6
ENDBRANCH   4   5
ENDBRANCH   3   4
ENDBRANCH   2   3
ENDBRANCH   1   2
BRANCH   1  10
ATOM     10  C   UNL     1      -8.453  -4.157   6.006  1.00  0.00     0.000 C 
BRANCH  10  11
ATOM     11  C   UNL     1      -9.229  -5.307   6.671  1.00  0.00    -0.000 C 
BRANCH  11  12
ATOM     12  C   UNL     1      -9.392  -6.523   5.746  1.00  0.00    -0.000 C 
BRANCH  12  13
ATOM     13  C   UNL     1     -10.833  -6.686   5.229  1.00  0.00    -0.000 C 
BRANCH  13  14
ATOM     14  C   UNL     1     -11.838  -5.822   6.023  1.00  0.00    -0.000 C 
BRANCH  14  15
ATOM     15  C   UNL     1     -13.158  -5.564   5.271  1.00  0.00    -0.000 C 
BRANCH  15  16
ATOM     16  C   UNL     1     -13.127  -5.925   3.777  1.00  0.00    -0.003 C 
ATOM     17  C   UNL     1     -14.505  -5.851   3.121  1.00  0.00     0.004 C 
ENDBRANCH  15  16
ENDBRANCH  14  15
ENDBRANCH  13  14
ENDBRANCH  12  13
ENDBRANCH  11  12
ENDBRANCH  10  11
ENDBRANCH   1  10
TORSDOF 13
ENDMDL
MODEL 7
REMARK VINA RESULT:    -4.444      1.479      2.158
REMARK INTER + INTRA:          -8.889
REMARK INTER:                  -7.209
REMARK INTRA:                  -1.680
REMARK UNBOUND:                -1.068
REMARK SMILES CCCCCCCCCCCCCCC(=O)[O-]
REMARK SMILES IDX 9 1 10 2 11 3 12 4 13 5 14 6 15 7 16 8 17 9 8 10 7 11 6 12
REMARK SMILES IDX 5 13 4 14 3 15 2 16 1 17
REMARK H PARENT
REMARK Flexibility Score: inf
ROOT
ATOM      1  C   UNL     1      -9.709  -2.155   2.237  1.00  0.00     0.000 C 
ENDROOT
BRANCH   1   2
ATOM      2  C   UNL     1      -8.587  -1.159   2.582  1.00  0.00     0.000 C 
BRANCH   2   3
ATOM      3  C   UNL     1      -8.978   0.297   2.282  1.00  0.00     0.000 C 
BRANCH   3   4
ATOM      4  C   UNL     1     -10.421   0.622   2.697  1.00  0.00     0.000 C 
BRANCH   4   5
ATOM      5  C   UNL     1     -10.534   0.766   4.223  1.00  0.00     0.006 C 
BRANCH   5   6
ATOM      6  C   UNL     1     -11.474  -0.278   4.838  1.00  0.00     0.053 C 
BRANCH   6   7
ATOM      7  C   UNL     1     -12.735  -0.428   4.043  1.00  0.00     0.041 C 
ATOM      8  O   UNL     1     -13.009  -1.525   3.490  1.00  0.00    -0.550 OA
ATOM      9  O   UNL     1     -13.626   0.634   3.943  1.00  0.00    -0.550 OA
ENDBRANCH   6   7
ENDBRANCH   5   6
ENDBRANCH   4   5
ENDBRANCH   3   4
ENDBRANCH   2   3
ENDBRANCH   1   2
BRANCH   1  10
ATOM     10  C   UNL     1      -9.853  -3.268   3.288  1.00  0.00     0.000 C 
BRANCH  10  11
ATOM     11  C   UNL     1      -8.819  -3.151   4.422  1.00  0.00    -0.000 C 
BRANCH  11  12
ATOM     12  C   UNL     1      -9.379  -3.599   5.781  1.00  0.00    -0.000 C 
BRANCH  12  13
ATOM     13  C   UNL     1      -8.512  -4.680   6.451  1.00  0.00    -0.000 C 
BRANCH  13  14
ATOM     14  C   UNL     1      -9.149  -6.084   6.353  1.00  0.00    -0.000 C 
BRANCH  14  15
ATOM     15  C   UNL     1     -10.678  -6.082   6.541  1.00  0.00    -0.000 C 
BRANCH  15  16
ATOM     16  C   UNL     1     -11.463  -6.780   5.418  1.00  0.00    -0.003 C 
ATOM     17  C   UNL     1     -12.221  -5.798   4.526  1.00  0.00     0.004 C 
ENDBRANCH  15  16
ENDBRANCH  14  15
ENDBRANCH  13  14
ENDBRANCH  12  13
ENDBRANCH  11  12
ENDBRANCH  10  11
ENDBRANCH   1  10
TORSDOF 13
ENDMDL
MODEL 8
REMARK VINA RESULT:    -4.443      2.814      4.706
REMARK INTER + INTRA:          -8.888
REMARK INTER:                  -6.911
REMARK INTRA:                  -1.976
REMARK UNBOUND:                -1.068
REMARK SMILES CCCCCCCCCCCCCCC(=O)[O-]
REMARK SMILES IDX 9 1 10 2 11 3 12 4 13 5 14 6 15 7 16 8 17 9 8 10 7 11 6 12
REMARK SMILES IDX 5 13 4 14 3 15 2 16 1 17
REMARK H PARENT
REMARK Flexibility Score: inf
ROOT
ATOM      1  C   UNL     1     -11.028   0.164   4.305  1.00  0.00     0.000 C 
ENDROOT
BRANCH   1   2
ATOM      2  C   UNL     1     -12.416   0.104   3.644  1.00  0.00     0.000 C 
BRANCH   2   3
ATOM      3  C   UNL     1     -13.126  -1.238   3.883  1.00  0.00     0.000 C 
BRANCH   3   4
ATOM      4  C   UNL     1     -12.501  -2.045   5.030  1.00  0.00     0.000 C 
BRANCH   4   5
ATOM      5  C   UNL     1     -13.232  -3.382   5.223  1.00  0.00     0.006 C 
BRANCH   5   6
ATOM      6  C   UNL     1     -12.916  -4.385   4.106  1.00  0.00     0.053 C 
BRANCH   6   7
ATOM      7  C   UNL     1     -14.157  -5.026   3.566  1.00  0.00     0.041 C 
ATOM      8  O   UNL     1     -14.088  -6.120   2.948  1.00  0.00    -0.550 OA
ATOM      9  O   UNL     1     -15.396  -4.433   3.777  1.00  0.00    -0.550 OA
ENDBRANCH   6   7
ENDBRANCH   5   6
ENDBRANCH   4   5
ENDBRANCH   3   4
ENDBRANCH   2   3
ENDBRANCH   1   2
BRANCH   1  10
ATOM     10  C   UNL     1      -9.921   0.564   3.315  1.00  0.00     0.000 C 
BRANCH  10  11
ATOM     11  C   UNL     1      -8.932  -0.581   3.035  1.00  0.00    -0.000 C 
BRANCH  11  12
ATOM     12  C   UNL     1      -9.570  -1.730   2.239  1.00  0.00    -0.000 C 
BRANCH  12  13
ATOM     13  C   UNL     1      -9.632  -3.043   3.039  1.00  0.00    -0.000 C 
BRANCH  13  14
ATOM     14  C   UNL     1      -8.568  -3.095   4.158  1.00  0.00    -0.000 C 
BRANCH  14  15
ATOM     15  C   UNL     1      -9.134  -3.506   5.530  1.00  0.00    -0.000 C 
BRANCH  15  16
ATOM     16  C   UNL     1      -9.616  -4.964   5.615  1.00  0.00    -0.003 C 
ATOM     17  C   UNL     1      -8.962  -5.738   6.759  1.00  0.00     0.004 C 
ENDBRANCH  15  16
ENDBRANCH  14  15
ENDBRANCH  13  14
ENDBRANCH  12  13
ENDBRANCH  11  12
ENDBRANCH  10  11
ENDBRANCH   1  10
TORSDOF 13
ENDMDL
MODEL 9
REMARK VINA RESULT:    -4.441      3.456      6.560
REMARK INTER + INTRA:          -8.884
REMARK INTER:                  -6.983
REMARK INTRA:                  -1.902
REMARK UNBOUND:                -1.068
REMARK SMILES CCCCCCCCCCCCCCC(=O)[O-]
REMARK SMILES IDX 9 1 10 2 11 3 12 4 13 5 14 6 15 7 16 8 17 9 8 10 7 11 6 12
REMARK SMILES IDX 5 13 4 14 3 15 2 16 1 17
REMARK H PARENT
REMARK Flexibility Score: inf
ROOT
ATOM      1  C   UNL     1      -8.684  -1.241   2.537  1.00  0.00     0.000 C 
ENDROOT
BRANCH   1   2
ATOM      2  C   UNL     1      -9.773  -2.320   2.410  1.00  0.00     0.000 C 
BRANCH   2   3
ATOM      3  C   UNL     1      -9.595  -3.461   3.423  1.00  0.00     0.000 C 
BRANCH   3   4
ATOM      4  C   UNL     1      -8.552  -3.138   4.504  1.00  0.00     0.000 C 
BRANCH   4   5
ATOM      5  C   UNL     1      -8.688  -4.093   5.700  1.00  0.00     0.006 C 
BRANCH   5   6
ATOM      6  C   UNL     1      -9.864  -5.065   5.538  1.00  0.00     0.053 C 
BRANCH   6   7
ATOM      7  C   UNL     1      -9.425  -6.493   5.651  1.00  0.00     0.041 C 
ATOM      8  O   UNL     1      -8.968  -6.931   6.739  1.00  0.00    -0.550 OA
ATOM      9  O   UNL     1      -9.554  -7.350   4.564  1.00  0.00    -0.550 OA
ENDBRANCH   6   7
ENDBRANCH   5   6
ENDBRANCH   4   5
ENDBRANCH   3   4
ENDBRANCH   2   3
ENDBRANCH   1   2
BRANCH   1  10
ATOM     10  C   UNL     1      -9.269   0.178   2.642  1.00  0.00     0.000 C 
BRANCH  10  11
ATOM     11  C   UNL     1     -10.637   0.308   1.951  1.00  0.00    -0.000 C 
BRANCH  11  12
ATOM     12  C   UNL     1     -11.629   1.160   2.759  1.00  0.00    -0.000 C 
BRANCH  12  13
ATOM     13  C   UNL     1     -12.847   0.351   3.242  1.00  0.00    -0.000 C 
BRANCH  13  14
ATOM     14  C   UNL     1     -12.790   0.060   4.758  1.00  0.00    -0.000 C 
BRANCH  14  15
ATOM     15  C   UNL     1     -11.833  -1.088   5.130  1.00  0.00    -0.000 C 
BRANCH  15  16
ATOM     16  C   UNL     1     -12.527  -2.421   5.455  1.00  0.00    -0.003 C 
ATOM     17  C   UNL     1     -13.221  -3.039   4.241  1.00  0.00     0.004 C 
ENDBRANCH  15  16
ENDBRANCH  14  15
ENDBRANCH  13  14
ENDBRANCH  12  13
ENDBRANCH  11  12
ENDBRANCH  10  11
ENDBRANCH   1  10
TORSDOF 13
ENDMDL
