MODEL 1
REMARK VINA RESULT:     0.717      0.000      0.000
REMARK INTER + INTRA:           0.832
REMARK INTER:                   1.011
REMARK INTRA:                  -0.178
REMARK UNBOUND:                -0.178
REMARK SMILES COc1c(O[C@H]2O[C@H](C(=O)[O-])[C@H](O)[C@H](O)[C@H]2O)cc(O)c2c(=O)cc(-c3ccccc3)oc12
REMARK SMILES IDX 5 1 6 2 8 3 12 4 7 5 14 6 16 7 9 8 10 9 11 10 13 11 15 13
REMARK SMILES IDX 17 15 4 17 3 18 18 19 33 20 19 21 21 22 32 23 22 24 25 25
REMARK SMILES IDX 24 26 23 27 2 28 1 29 20 30 26 32 27 33 31 34 28 35 30 36
REMARK SMILES IDX 29 37
REMARK H PARENT 13 12 15 14 17 16 20 31
REMARK Flexibility Score: inf
ROOT
ATOM      1  O   UNL     1     -16.353 -20.127   4.084  1.00  0.00    -0.458 OA
ENDROOT
BRANCH   1   2
ATOM      2  C   UNL     1     -16.502 -20.120   5.513  1.00  0.00     0.339 C 
ATOM      3  C   UNL     1     -15.699 -21.244   7.453  1.00  0.00     0.199 C 
ATOM      4  C   UNL     1     -14.720 -20.101   7.872  1.00  0.00     0.180 C 
ATOM      5  O   UNL     1     -15.902 -21.292   6.052  1.00  0.00    -0.328 OA
ATOM      6  C   UNL     1     -14.636 -18.988   6.804  1.00  0.00     0.181 C 
ATOM      7  C   UNL     1     -16.002 -18.784   6.153  1.00  0.00     0.214 C 
BRANCH   3   8
ATOM      8  C   UNL     1     -17.010 -21.298   8.208  1.00  0.00     0.073 C 
ATOM      9  O   UNL     1     -17.560 -20.250   8.640  1.00  0.00    -0.547 OA
ATOM     10  O   UNL     1     -17.641 -22.521   8.397  1.00  0.00    -0.547 OA
ENDBRANCH   3   8
BRANCH   4  11
ATOM     11  O   UNL     1     -15.064 -19.556   9.121  1.00  0.00    -0.387 OA
ATOM     12  H   UNL     1     -15.313 -18.610   8.959  1.00  0.00     0.211 HD
ENDBRANCH   4  11
BRANCH   6  13
ATOM     13  O   UNL     1     -14.197 -17.781   7.373  1.00  0.00    -0.387 OA
ATOM     14  H   UNL     1     -15.010 -17.281   7.643  1.00  0.00     0.211 HD
ENDBRANCH   6  13
BRANCH   7  15
ATOM     15  O   UNL     1     -15.935 -17.744   5.212  1.00  0.00    -0.384 OA
ATOM     16  H   UNL     1     -16.815 -17.286   5.232  1.00  0.00     0.211 HD
ENDBRANCH   7  15
ENDBRANCH   1   2
BRANCH   1  17
ATOM     17  C   UNL     1     -16.620 -21.210   3.227  1.00  0.00     0.172 A 
ATOM     18  C   UNL     1     -15.964 -21.387   1.993  1.00  0.00     0.205 A 
ATOM     19  C   UNL     1     -17.551 -22.152   3.657  1.00  0.00     0.097 A 
ATOM     20  C   UNL     1     -16.340 -22.468   1.156  1.00  0.00     0.188 A 
ATOM     21  C   UNL     1     -17.914 -23.240   2.866  1.00  0.00     0.134 A 
ATOM     22  C   UNL     1     -17.359 -23.375   1.566  1.00  0.00     0.111 A 
ATOM     23  O   UNL     1     -15.738 -22.639  -0.018  1.00  0.00    -0.452 OA
ATOM     24  C   UNL     1     -17.766 -24.358   0.632  1.00  0.00     0.197 A 
ATOM     25  C   UNL     1     -16.061 -23.590  -0.887  1.00  0.00     0.138 A 
ATOM     26  C   UNL     1     -17.105 -24.470  -0.588  1.00  0.00     0.100 A 
ATOM     27  O   UNL     1     -18.739 -25.124   0.853  1.00  0.00    -0.289 OA
BRANCH  18  28
ATOM     28  O   UNL     1     -14.939 -20.485   1.660  1.00  0.00    -0.490 OA
ATOM     29  C   UNL     1     -13.898 -20.697   0.712  1.00  0.00     0.278 C 
ENDBRANCH  18  28
BRANCH  21  30
ATOM     30  O   UNL     1     -18.798 -24.161   3.435  1.00  0.00    -0.507 OA
ATOM     31  H   UNL     1     -18.531 -24.873   4.099  1.00  0.00     0.293 HD
ENDBRANCH  21  30
BRANCH  25  32
ATOM     32  C   UNL     1     -15.303 -23.697  -2.155  1.00  0.00     0.017 A 
ATOM     33  C   UNL     1     -14.871 -22.552  -2.852  1.00  0.00     0.012 A 
ATOM     34  C   UNL     1     -14.997 -24.966  -2.676  1.00  0.00     0.012 A 
ATOM     35  C   UNL     1     -14.163 -22.679  -4.051  1.00  0.00     0.001 A 
ATOM     36  C   UNL     1     -14.290 -25.087  -3.877  1.00  0.00     0.001 A 
ATOM     37  C   UNL     1     -13.875 -23.945  -4.564  1.00  0.00     0.000 A 
ENDBRANCH  25  32
ENDBRANCH   1  17
TORSDOF 9
ENDMDL
MODEL 2
REMARK VINA RESULT:     2.180      2.112      8.375
REMARK INTER + INTRA:           2.894
REMARK INTER:                   1.211
REMARK INTRA:                   1.683
REMARK UNBOUND:                -0.178
REMARK SMILES COc1c(O[C@H]2O[C@H](C(=O)[O-])[C@H](O)[C@H](O)[C@H]2O)cc(O)c2c(=O)cc(-c3ccccc3)oc12
REMARK SMILES IDX 5 1 6 2 8 3 12 4 7 5 14 6 16 7 9 8 10 9 11 10 13 11 15 13
REMARK SMILES IDX 17 15 4 17 3 18 18 19 33 20 19 21 21 22 32 23 22 24 25 25
REMARK SMILES IDX 24 26 23 27 2 28 1 29 20 30 26 32 27 33 31 34 28 35 30 36
REMARK SMILES IDX 29 37
REMARK H PARENT 13 12 15 14 17 16 20 31
REMARK Flexibility Score: inf
ROOT
ATOM      1  O   UNL     1     -18.312 -23.361   1.861  1.00  0.00    -0.458 OA
ENDROOT
BRANCH   1   2
ATOM      2  C   UNL     1     -17.449 -24.030   0.926  1.00  0.00     0.339 C 
ATOM      3  C   UNL     1     -15.872 -23.551  -0.793  1.00  0.00     0.199 C 
ATOM      4  C   UNL     1     -14.619 -23.855   0.089  1.00  0.00     0.180 C 
ATOM      5  O   UNL     1     -16.970 -23.089  -0.027  1.00  0.00    -0.328 OA
ATOM      6  C   UNL     1     -14.996 -24.113   1.564  1.00  0.00     0.181 C 
ATOM      7  C   UNL     1     -16.329 -24.854   1.642  1.00  0.00     0.214 C 
BRANCH   3   8
ATOM      8  C   UNL     1     -16.284 -24.648  -1.752  1.00  0.00     0.073 C 
ATOM      9  O   UNL     1     -17.452 -25.120  -1.743  1.00  0.00    -0.547 OA
ATOM     10  O   UNL     1     -15.372 -25.118  -2.688  1.00  0.00    -0.547 OA
ENDBRANCH   3   8
BRANCH   4  11
ATOM     11  O   UNL     1     -13.875 -24.933  -0.423  1.00  0.00    -0.387 OA
ATOM     12  H   UNL     1     -13.196 -24.544  -1.032  1.00  0.00     0.211 HD
ENDBRANCH   4  11
BRANCH   6  13
ATOM     13  O   UNL     1     -13.999 -24.861   2.212  1.00  0.00    -0.387 OA
ATOM     14  H   UNL     1     -13.768 -25.612   1.605  1.00  0.00     0.211 HD
ENDBRANCH   6  13
BRANCH   7  15
ATOM     15  O   UNL     1     -16.650 -25.125   2.981  1.00  0.00    -0.384 OA
ATOM     16  H   UNL     1     -17.568 -25.504   2.981  1.00  0.00     0.211 HD
ENDBRANCH   7  15
ENDBRANCH   1   2
BRANCH   1  17
ATOM     17  C   UNL     1     -18.090 -23.224   3.243  1.00  0.00     0.172 A 
ATOM     18  C   UNL     1     -17.360 -22.154   3.796  1.00  0.00     0.205 A 
ATOM     19  C   UNL     1     -18.657 -24.182   4.080  1.00  0.00     0.097 A 
ATOM     20  C   UNL     1     -17.122 -22.127   5.194  1.00  0.00     0.188 A 
ATOM     21  C   UNL     1     -18.463 -24.158   5.459  1.00  0.00     0.134 A 
ATOM     22  C   UNL     1     -17.630 -23.160   6.032  1.00  0.00     0.111 A 
ATOM     23  O   UNL     1     -16.423 -21.129   5.728  1.00  0.00    -0.452 OA
ATOM     24  C   UNL     1     -17.254 -23.133   7.396  1.00  0.00     0.197 A 
ATOM     25  C   UNL     1     -16.108 -21.049   7.016  1.00  0.00     0.138 A 
ATOM     26  C   UNL     1     -16.505 -22.067   7.887  1.00  0.00     0.100 A 
ATOM     27  O   UNL     1     -17.550 -24.066   8.187  1.00  0.00    -0.289 OA
BRANCH  18  28
ATOM     28  O   UNL     1     -16.919 -21.142   2.927  1.00  0.00    -0.490 OA
ATOM     29  C   UNL     1     -15.618 -21.018   2.362  1.00  0.00     0.278 C 
ENDBRANCH  18  28
BRANCH  21  30
ATOM     30  O   UNL     1     -19.146 -25.125   6.204  1.00  0.00    -0.507 OA
ATOM     31  H   UNL     1     -18.757 -26.016   6.475  1.00  0.00     0.293 HD
ENDBRANCH  21  30
BRANCH  25  32
ATOM     32  C   UNL     1     -15.344 -19.876   7.500  1.00  0.00     0.017 A 
ATOM     33  C   UNL     1     -14.582 -19.933   8.683  1.00  0.00     0.012 A 
ATOM     34  C   UNL     1     -15.370 -18.678   6.766  1.00  0.00     0.012 A 
ATOM     35  C   UNL     1     -13.875 -18.810   9.125  1.00  0.00     0.001 A 
ATOM     36  C   UNL     1     -14.663 -17.557   7.213  1.00  0.00     0.001 A 
ATOM     37  C   UNL     1     -13.918 -17.622   8.391  1.00  0.00     0.000 A 
ENDBRANCH  25  32
ENDBRANCH   1  17
TORSDOF 9
ENDMDL
