MODEL 1
REMARK VINA RESULT:    78.445      0.000      0.000
REMARK INTER + INTRA:          99.317
REMARK INTER:                  99.081
REMARK INTRA:                   0.236
REMARK UNBOUND:                 0.236
REMARK SMILES CC(C)[C@@H](C)C=C[C@@H](C)[C@@H]1CC[C@@H]2C3=CC=C4C[C@@H](O)CC[C@@]4(C)[C@@H]3CC[C@@]21C
REMARK SMILES IDX 8 1 9 2 7 3 6 4 4 5 5 6 2 7 1 8 3 9 10 10 11 11 28 12 12 13
REMARK SMILES IDX 13 14 27 15 29 16 14 17 26 18 25 19 15 20 23 21 16 22 17 23
REMARK SMILES IDX 22 24 24 25 18 26 21 27 19 28 20 29
REMARK H PARENT 20 30
REMARK Flexibility Score: inf
ROOT
ATOM      1  C   UNL     1      77.149   3.603  63.153  1.00  0.00     0.012 C 
ATOM      2  C   UNL     1      76.875   4.420  61.878  1.00  0.00     0.012 C 
ENDROOT
BRANCH   1   3
ATOM      3  C   UNL     1      78.014   4.446  64.065  1.00  0.00    -0.028 C 
ATOM      4  C   UNL     1      78.783   5.441  63.596  1.00  0.00    -0.028 C 
BRANCH   4   5
ATOM      5  C   UNL     1      79.664   6.266  64.506  1.00  0.00     0.011 C 
ATOM      6  C   UNL     1      78.798   7.367  65.139  1.00  0.00     0.012 C 
BRANCH   5   7
ATOM      7  C   UNL     1      80.874   6.846  63.715  1.00  0.00    -0.011 C 
ATOM      8  C   UNL     1      80.547   8.204  63.073  1.00  0.00     0.008 C 
ATOM      9  C   UNL     1      82.107   7.005  64.623  1.00  0.00     0.008 C 
ENDBRANCH   5   7
ENDBRANCH   4   5
ENDBRANCH   1   3
BRANCH   1  10
ATOM     10  C   UNL     1      77.824   2.205  62.925  1.00  0.00     0.002 C 
ATOM     11  C   UNL     1      76.880   1.015  62.767  1.00  0.00     0.005 C 
ATOM     12  C   UNL     1      78.909   1.734  63.948  1.00  0.00    -0.023 C 
ATOM     13  C   UNL     1      77.811  -0.183  62.774  1.00  0.00     0.009 C 
ATOM     14  C   UNL     1      78.926   0.166  63.780  1.00  0.00     0.021 C 
ATOM     15  C   UNL     1      78.572   2.135  65.425  1.00  0.00     0.008 C 
ATOM     16  C   UNL     1      80.279   2.347  63.565  1.00  0.00     0.012 C 
ATOM     17  C   UNL     1      78.865  -0.529  65.138  1.00  0.00    -0.063 C 
ATOM     18  C   UNL     1      79.463   1.437  66.491  1.00  0.00     0.009 C 
ATOM     19  C   UNL     1      79.893  -0.014  66.111  1.00  0.00     0.025 C 
ATOM     20  C   UNL     1      77.774  -1.140  65.633  1.00  0.00    -0.000 C 
ATOM     21  C   UNL     1      80.120  -0.984  67.332  1.00  0.00    -0.005 C 
ATOM     22  C   UNL     1      77.727  -1.610  67.029  1.00  0.00    -0.000 C 
ATOM     23  C   UNL     1      78.798  -1.543  67.840  1.00  0.00    -0.061 C 
ATOM     24  C   UNL     1      80.964  -2.215  66.884  1.00  0.00     0.014 C 
ATOM     25  C   UNL     1      80.884  -0.227  68.456  1.00  0.00     0.017 C 
ATOM     26  C   UNL     1      78.873  -2.506  68.996  1.00  0.00     0.063 C 
ATOM     27  C   UNL     1      81.068  -3.319  67.967  1.00  0.00     0.033 C 
ATOM     28  C   UNL     1      79.698  -3.731  68.559  1.00  0.00     0.118 C 
BRANCH  28  29
ATOM     29  O   UNL     1      78.974  -4.463  67.601  1.00  0.00    -0.393 OA
ATOM     30  H   UNL     1      79.343  -5.386  67.592  1.00  0.00     0.210 HD
ENDBRANCH  28  29
ENDBRANCH   1  10
TORSDOF 5
ENDMDL
