MODEL 1
REMARK VINA RESULT:    -1.260      0.000      0.000
REMARK INTER + INTRA:          -2.383
REMARK INTER:                  -1.924
REMARK INTRA:                  -0.460
REMARK UNBOUND:                -0.460
REMARK SMILES CCCCCCCCCC=CC(=O)[O-]
REMARK SMILES IDX 7 1 8 2 9 3 10 4 11 5 12 6 13 7 14 8 6 9 5 10 4 11 3 12 2 13
REMARK SMILES IDX 1 14
REMARK H PARENT
REMARK Flexibility Score: inf
ROOT
ATOM      1  C   UNL     1      52.847 147.318  -0.389  1.00  0.00     0.000 C 
ENDROOT
BRANCH   1   2
ATOM      2  C   UNL     1      52.756 147.425   1.145  1.00  0.00     0.004 C 
BRANCH   2   3
ATOM      3  C   UNL     1      51.437 148.030   1.658  1.00  0.00     0.027 C 
BRANCH   3   4
ATOM      4  C   UNL     1      50.318 147.910   0.663  1.00  0.00    -0.025 C 
ATOM      5  C   UNL     1      49.053 147.716   1.052  1.00  0.00     0.020 C 
BRANCH   5   6
ATOM      6  C   UNL     1      47.951 147.593   0.089  1.00  0.00     0.064 C 
ATOM      7  O   UNL     1      46.894 146.998   0.425  1.00  0.00    -0.545 OA
ATOM      8  O   UNL     1      48.055 148.125  -1.193  1.00  0.00    -0.545 OA
ENDBRANCH   5   6
ENDBRANCH   3   4
ENDBRANCH   2   3
ENDBRANCH   1   2
BRANCH   1   9
ATOM      9  C   UNL     1      54.263 146.975  -0.877  1.00  0.00     0.000 C 
BRANCH   9  10
ATOM     10  C   UNL     1      54.775 148.037  -1.858  1.00  0.00     0.000 C 
BRANCH  10  11
ATOM     11  C   UNL     1      53.884 148.113  -3.104  1.00  0.00    -0.000 C 
BRANCH  11  12
ATOM     12  C   UNL     1      54.396 147.173  -4.205  1.00  0.00    -0.000 C 
BRANCH  12  13
ATOM     13  C   UNL     1      54.074 147.685  -5.616  1.00  0.00    -0.003 C 
ATOM     14  C   UNL     1      52.610 148.095  -5.778  1.00  0.00     0.004 C 
ENDBRANCH  12  13
ENDBRANCH  11  12
ENDBRANCH  10  11
ENDBRANCH   9  10
ENDBRANCH   1   9
TORSDOF 9
ENDMDL
MODEL 2
REMARK VINA RESULT:    -1.117      1.489      2.181
REMARK INTER + INTRA:          -2.164
REMARK INTER:                  -1.747
REMARK INTRA:                  -0.418
REMARK UNBOUND:                -0.460
REMARK SMILES CCCCCCCCCC=CC(=O)[O-]
REMARK SMILES IDX 7 1 8 2 9 3 10 4 11 5 12 6 13 7 14 8 6 9 5 10 4 11 3 12 2 13
REMARK SMILES IDX 1 14
REMARK H PARENT
REMARK Flexibility Score: inf
ROOT
ATOM      1  C   UNL     1      54.211 148.024  -1.570  1.00  0.00     0.000 C 
ENDROOT
BRANCH   1   2
ATOM      2  C   UNL     1      53.478 147.294  -0.429  1.00  0.00     0.004 C 
BRANCH   2   3
ATOM      3  C   UNL     1      53.611 147.975   0.945  1.00  0.00     0.027 C 
BRANCH   3   4
ATOM      4  C   UNL     1      52.292 148.124   1.648  1.00  0.00    -0.025 C 
ATOM      5  C   UNL     1      51.150 147.706   1.091  1.00  0.00     0.020 C 
BRANCH   5   6
ATOM      6  C   UNL     1      49.854 147.849   1.768  1.00  0.00     0.064 C 
ATOM      7  O   UNL     1      49.798 147.790   3.024  1.00  0.00    -0.545 OA
ATOM      8  O   UNL     1      48.685 148.050   1.041  1.00  0.00    -0.545 OA
ENDBRANCH   5   6
ENDBRANCH   3   4
ENDBRANCH   2   3
ENDBRANCH   1   2
BRANCH   1   9
ATOM      9  C   UNL     1      55.345 147.187  -2.179  1.00  0.00     0.000 C 
BRANCH   9  10
ATOM     10  C   UNL     1      55.130 146.985  -3.684  1.00  0.00     0.000 C 
BRANCH  10  11
ATOM     11  C   UNL     1      54.293 148.125  -4.279  1.00  0.00    -0.000 C 
BRANCH  11  12
ATOM     12  C   UNL     1      53.960 147.850  -5.753  1.00  0.00    -0.000 C 
BRANCH  12  13
ATOM     13  C   UNL     1      52.493 147.447  -5.962  1.00  0.00    -0.003 C 
ATOM     14  C   UNL     1      51.930 147.930  -7.299  1.00  0.00     0.004 C 
ENDBRANCH  12  13
ENDBRANCH  11  12
ENDBRANCH  10  11
ENDBRANCH   9  10
ENDBRANCH   1   9
TORSDOF 9
ENDMDL
MODEL 3
REMARK VINA RESULT:    -1.089      3.107      4.848
REMARK INTER + INTRA:          -2.122
REMARK INTER:                  -1.638
REMARK INTRA:                  -0.483
REMARK UNBOUND:                -0.460
REMARK SMILES CCCCCCCCCC=CC(=O)[O-]
REMARK SMILES IDX 7 1 8 2 9 3 10 4 11 5 12 6 13 7 14 8 6 9 5 10 4 11 3 12 2 13
REMARK SMILES IDX 1 14
REMARK H PARENT
REMARK Flexibility Score: inf
ROOT
ATOM      1  C   UNL     1      54.766 147.167  -4.188  1.00  0.00     0.000 C 
ENDROOT
BRANCH   1   2
ATOM      2  C   UNL     1      54.381 148.082  -3.010  1.00  0.00     0.004 C 
BRANCH   2   3
ATOM      3  C   UNL     1      53.061 147.698  -2.317  1.00  0.00     0.027 C 
BRANCH   3   4
ATOM      4  C   UNL     1      53.018 148.124  -0.877  1.00  0.00    -0.025 C 
ATOM      5  C   UNL     1      53.708 147.474   0.067  1.00  0.00     0.020 C 
BRANCH   5   6
ATOM      6  C   UNL     1      53.671 147.878   1.479  1.00  0.00     0.064 C 
ATOM      7  O   UNL     1      52.562 148.021   2.056  1.00  0.00    -0.545 OA
ATOM      8  O   UNL     1      54.845 148.106   2.190  1.00  0.00    -0.545 OA
ENDBRANCH   5   6
ENDBRANCH   3   4
ENDBRANCH   2   3
ENDBRANCH   1   2
BRANCH   1   9
ATOM      9  C   UNL     1      53.562 146.782  -5.060  1.00  0.00     0.000 C 
BRANCH   9  10
ATOM     10  C   UNL     1      53.498 147.654  -6.320  1.00  0.00     0.000 C 
BRANCH  10  11
ATOM     11  C   UNL     1      52.063 148.125  -6.592  1.00  0.00    -0.000 C 
BRANCH  11  12
ATOM     12  C   UNL     1      51.620 147.744  -8.013  1.00  0.00    -0.000 C 
BRANCH  12  13
ATOM     13  C   UNL     1      50.101 147.540  -8.123  1.00  0.00    -0.003 C 
ATOM     14  C   UNL     1      49.370 147.823  -6.810  1.00  0.00     0.004 C 
ENDBRANCH  12  13
ENDBRANCH  11  12
ENDBRANCH  10  11
ENDBRANCH   9  10
ENDBRANCH   1   9
TORSDOF 9
ENDMDL
MODEL 4
REMARK VINA RESULT:    -0.731      2.820      6.403
REMARK INTER + INTRA:          -1.575
REMARK INTER:                  -1.107
REMARK INTRA:                  -0.468
REMARK UNBOUND:                -0.460
REMARK SMILES CCCCCCCCCC=CC(=O)[O-]
REMARK SMILES IDX 7 1 8 2 9 3 10 4 11 5 12 6 13 7 14 8 6 9 5 10 4 11 3 12 2 13
REMARK SMILES IDX 1 14
REMARK H PARENT
REMARK Flexibility Score: inf
ROOT
ATOM      1  C   UNL     1      53.707 146.851  -0.649  1.00  0.00     0.000 C 
ENDROOT
BRANCH   1   2
ATOM      2  C   UNL     1      54.987 146.662  -1.485  1.00  0.00     0.004 C 
BRANCH   2   3
ATOM      3  C   UNL     1      55.359 147.876  -2.355  1.00  0.00     0.027 C 
BRANCH   3   4
ATOM      4  C   UNL     1      54.376 148.116  -3.466  1.00  0.00    -0.025 C 
ATOM      5  C   UNL     1      54.494 147.504  -4.649  1.00  0.00     0.020 C 
BRANCH   5   6
ATOM      6  C   UNL     1      53.542 147.733  -5.745  1.00  0.00     0.064 C 
ATOM      7  O   UNL     1      53.968 148.087  -6.875  1.00  0.00    -0.545 OA
ATOM      8  O   UNL     1      52.174 147.564  -5.553  1.00  0.00    -0.545 OA
ENDBRANCH   5   6
ENDBRANCH   3   4
ENDBRANCH   2   3
ENDBRANCH   1   2
BRANCH   1   9
ATOM      9  C   UNL     1      53.939 147.705   0.607  1.00  0.00     0.000 C 
BRANCH   9  10
ATOM     10  C   UNL     1      52.671 147.769   1.467  1.00  0.00     0.000 C 
BRANCH  10  11
ATOM     11  C   UNL     1      51.432 148.039   0.604  1.00  0.00    -0.000 C 
BRANCH  11  12
ATOM     12  C   UNL     1      50.226 147.230   1.106  1.00  0.00    -0.000 C 
BRANCH  12  13
ATOM     13  C   UNL     1      49.076 148.124   1.591  1.00  0.00    -0.003 C 
ATOM     14  C   UNL     1      47.794 147.932   0.780  1.00  0.00     0.004 C 
ENDBRANCH  12  13
ENDBRANCH  11  12
ENDBRANCH  10  11
ENDBRANCH   9  10
ENDBRANCH   1   9
TORSDOF 9
ENDMDL
MODEL 5
REMARK VINA RESULT:    -0.487      2.819      5.934
REMARK INTER + INTRA:          -1.203
REMARK INTER:                  -0.887
REMARK INTRA:                  -0.316
REMARK UNBOUND:                -0.460
REMARK SMILES CCCCCCCCCC=CC(=O)[O-]
REMARK SMILES IDX 7 1 8 2 9 3 10 4 11 5 12 6 13 7 14 8 6 9 5 10 4 11 3 12 2 13
REMARK SMILES IDX 1 14
REMARK H PARENT
REMARK Flexibility Score: inf
ROOT
ATOM      1  C   UNL     1      52.229 146.738   1.209  1.00  0.00     0.000 C 
ENDROOT
BRANCH   1   2
ATOM      2  C   UNL     1      53.731 146.912   1.504  1.00  0.00     0.004 C 
BRANCH   2   3
ATOM      3  C   UNL     1      54.375 148.125   0.809  1.00  0.00     0.027 C 
BRANCH   3   4
ATOM      4  C   UNL     1      54.595 147.900  -0.661  1.00  0.00    -0.025 C 
ATOM      5  C   UNL     1      53.626 148.121  -1.556  1.00  0.00     0.020 C 
BRANCH   5   6
ATOM      6  C   UNL     1      53.827 147.902  -2.994  1.00  0.00     0.064 C 
ATOM      7  O   UNL     1      54.958 147.544  -3.417  1.00  0.00    -0.545 OA
ATOM      8  O   UNL     1      52.788 148.085  -3.900  1.00  0.00    -0.545 OA
ENDBRANCH   5   6
ENDBRANCH   3   4
ENDBRANCH   2   3
ENDBRANCH   1   2
BRANCH   1   9
ATOM      9  C   UNL     1      51.468 148.072   1.193  1.00  0.00     0.000 C 
BRANCH   9  10
ATOM     10  C   UNL     1      50.035 147.891   1.710  1.00  0.00     0.000 C 
BRANCH  10  11
ATOM     11  C   UNL     1      49.013 148.125   0.591  1.00  0.00    -0.000 C 
BRANCH  11  12
ATOM     12  C   UNL     1      47.735 147.307   0.834  1.00  0.00    -0.000 C 
BRANCH  12  13
ATOM     13  C   UNL     1      47.041 146.893  -0.472  1.00  0.00    -0.003 C 
ATOM     14  C   UNL     1      47.350 147.840  -1.632  1.00  0.00     0.004 C 
ENDBRANCH  12  13
ENDBRANCH  11  12
ENDBRANCH  10  11
ENDBRANCH   9  10
ENDBRANCH   1   9
TORSDOF 9
ENDMDL
MODEL 6
REMARK VINA RESULT:     0.176     21.795     23.114
REMARK INTER + INTRA:          -0.191
REMARK INTER:                   0.206
REMARK INTRA:                  -0.397
REMARK UNBOUND:                -0.460
REMARK SMILES CCCCCCCCCC=CC(=O)[O-]
REMARK SMILES IDX 7 1 8 2 9 3 10 4 11 5 12 6 13 7 14 8 6 9 5 10 4 11 3 12 2 13
REMARK SMILES IDX 1 14
REMARK H PARENT
REMARK Flexibility Score: inf
ROOT
ATOM      1  C   UNL     1      64.116 130.444  -7.429  1.00  0.00     0.000 C 
ENDROOT
BRANCH   1   2
ATOM      2  C   UNL     1      63.645 128.990  -7.234  1.00  0.00     0.004 C 
BRANCH   2   3
ATOM      3  C   UNL     1      62.457 128.586  -8.125  1.00  0.00     0.027 C 
BRANCH   3   4
ATOM      4  C   UNL     1      61.194 128.367  -7.341  1.00  0.00    -0.025 C 
ATOM      5  C   UNL     1      61.203 128.281  -6.007  1.00  0.00     0.020 C 
BRANCH   5   6
ATOM      6  C   UNL     1      59.975 128.063  -5.230  1.00  0.00     0.064 C 
ATOM      7  O   UNL     1      60.030 128.044  -3.972  1.00  0.00    -0.545 OA
ATOM      8  O   UNL     1      58.750 127.876  -5.862  1.00  0.00    -0.545 OA
ENDBRANCH   5   6
ENDBRANCH   3   4
ENDBRANCH   2   3
ENDBRANCH   1   2
BRANCH   1   9
ATOM      9  C   UNL     1      65.619 130.548  -7.723  1.00  0.00     0.000 C 
BRANCH   9  10
ATOM     10  C   UNL     1      66.211 129.170  -8.043  1.00  0.00     0.000 C 
BRANCH  10  11
ATOM     11  C   UNL     1      67.065 128.653  -6.879  1.00  0.00    -0.000 C 
BRANCH  11  12
ATOM     12  C   UNL     1      66.535 129.174  -5.535  1.00  0.00    -0.000 C 
BRANCH  12  13
ATOM     13  C   UNL     1      66.237 128.044  -4.539  1.00  0.00    -0.003 C 
ATOM     14  C   UNL     1      64.743 127.879  -4.260  1.00  0.00     0.004 C 
ENDBRANCH  12  13
ENDBRANCH  11  12
ENDBRANCH  10  11
ENDBRANCH   9  10
ENDBRANCH   1   9
TORSDOF 9
ENDMDL
