MODEL 1
REMARK VINA RESULT:    -7.087      0.000      0.000
REMARK INTER + INTRA:          -8.528
REMARK INTER:                  -8.330
REMARK INTRA:                  -0.198
REMARK UNBOUND:                -0.198
REMARK SMILES O=c1c(O)c(-c2ccc(O)cc2)oc2cc(O)cc(O)c12
REMARK SMILES IDX 5 1 3 2 2 3 1 4 21 5 19 6 18 7 16 8 15 9 14 10 13 11 6 12
REMARK SMILES IDX 7 13 8 14 9 15 12 16 11 17 10 18 4 20 20 22 17 24
REMARK H PARENT 10 19 4 21 20 23 17 25
REMARK Flexibility Score: inf
ROOT
ATOM      1  C   UNL     1      32.357  -0.142 165.328  1.00  0.00     0.180 A 
ATOM      2  C   UNL     1      32.109  -0.753 164.086  1.00  0.00     0.208 A 
ATOM      3  C   UNL     1      30.979  -1.574 163.944  1.00  0.00     0.238 A 
ATOM      4  O   UNL     1      30.734  -2.074 162.816  1.00  0.00    -0.285 OA
ATOM      5  C   UNL     1      30.120  -1.788 165.049  1.00  0.00     0.111 A 
ATOM      6  C   UNL     1      28.970  -2.631 165.029  1.00  0.00     0.134 A 
ATOM      7  C   UNL     1      28.119  -2.666 166.141  1.00  0.00     0.093 A 
ATOM      8  C   UNL     1      28.411  -1.938 167.294  1.00  0.00     0.123 A 
ATOM      9  C   UNL     1      29.566  -1.155 167.346  1.00  0.00     0.094 A 
ATOM     10  C   UNL     1      30.415  -1.073 166.240  1.00  0.00     0.146 A 
ATOM     11  O   UNL     1      31.497  -0.308 166.325  1.00  0.00    -0.452 OA
ENDROOT
BRANCH   1  12
ATOM     12  C   UNL     1      33.540   0.717 165.562  1.00  0.00     0.021 A 
ATOM     13  C   UNL     1      33.360   2.086 165.823  1.00  0.00     0.016 A 
ATOM     14  C   UNL     1      34.463   2.910 166.068  1.00  0.00     0.047 A 
ATOM     15  C   UNL     1      35.757   2.374 166.073  1.00  0.00     0.115 A 
ATOM     16  C   UNL     1      34.841   0.181 165.587  1.00  0.00     0.016 A 
ATOM     17  C   UNL     1      35.941   1.009 165.835  1.00  0.00     0.047 A 
BRANCH  15  18
ATOM     18  O   UNL     1      36.862   3.185 166.316  1.00  0.00    -0.508 OA
ATOM     19  H   UNL     1      36.821   3.951 166.979  1.00  0.00     0.293 HD
ENDBRANCH  15  18
ENDBRANCH   1  12
BRANCH   2  20
ATOM     20  O   UNL     1      32.958  -0.512 163.002  1.00  0.00    -0.502 OA
ATOM     21  H   UNL     1      32.668  -0.651 162.042  1.00  0.00     0.293 HD
ENDBRANCH   2  20
BRANCH   6  22
ATOM     22  O   UNL     1      28.635  -3.471 163.962  1.00  0.00    -0.507 OA
ATOM     23  H   UNL     1      28.832  -3.275 162.993  1.00  0.00     0.293 HD
ENDBRANCH   6  22
BRANCH   8  24
ATOM     24  O   UNL     1      27.551  -2.008 168.387  1.00  0.00    -0.508 OA
ATOM     25  H   UNL     1      26.555  -1.846 168.290  1.00  0.00     0.293 HD
ENDBRANCH   8  24
TORSDOF 5
ENDMDL
MODEL 2
REMARK VINA RESULT:    -6.634      1.365      3.180
REMARK INTER + INTRA:          -7.995
REMARK INTER:                  -7.834
REMARK INTRA:                  -0.161
REMARK UNBOUND:                -0.198
REMARK SMILES O=c1c(O)c(-c2ccc(O)cc2)oc2cc(O)cc(O)c12
REMARK SMILES IDX 5 1 3 2 2 3 1 4 21 5 19 6 18 7 16 8 15 9 14 10 13 11 6 12
REMARK SMILES IDX 7 13 8 14 9 15 12 16 11 17 10 18 4 20 20 22 17 24
REMARK H PARENT 10 19 4 21 20 23 17 25
REMARK Flexibility Score: inf
ROOT
ATOM      1  C   UNL     1      31.697   0.010 166.289  1.00  0.00     0.180 A 
ATOM      2  C   UNL     1      31.048   0.209 167.521  1.00  0.00     0.208 A 
ATOM      3  C   UNL     1      29.877  -0.513 167.798  1.00  0.00     0.238 A 
ATOM      4  O   UNL     1      29.331  -0.371 168.924  1.00  0.00    -0.285 OA
ATOM      5  C   UNL     1      29.358  -1.412 166.835  1.00  0.00     0.111 A 
ATOM      6  C   UNL     1      28.157  -2.165 166.995  1.00  0.00     0.134 A 
ATOM      7  C   UNL     1      27.808  -3.122 166.033  1.00  0.00     0.093 A 
ATOM      8  C   UNL     1      28.582  -3.306 164.888  1.00  0.00     0.123 A 
ATOM      9  C   UNL     1      29.728  -2.533 164.693  1.00  0.00     0.094 A 
ATOM     10  C   UNL     1      30.120  -1.596 165.652  1.00  0.00     0.146 A 
ATOM     11  O   UNL     1      31.222  -0.889 165.435  1.00  0.00    -0.452 OA
ENDROOT
BRANCH   1  12
ATOM     12  C   UNL     1      32.922   0.752 165.914  1.00  0.00     0.021 A 
ATOM     13  C   UNL     1      34.112   0.045 165.673  1.00  0.00     0.016 A 
ATOM     14  C   UNL     1      35.275   0.725 165.297  1.00  0.00     0.047 A 
ATOM     15  C   UNL     1      35.258   2.117 165.140  1.00  0.00     0.115 A 
ATOM     16  C   UNL     1      32.907   2.148 165.736  1.00  0.00     0.016 A 
ATOM     17  C   UNL     1      34.072   2.823 165.357  1.00  0.00     0.047 A 
BRANCH  15  18
ATOM     18  O   UNL     1      36.410   2.803 164.765  1.00  0.00    -0.508 OA
ATOM     19  H   UNL     1      37.072   2.409 164.107  1.00  0.00     0.293 HD
ENDBRANCH  15  18
ENDBRANCH   1  12
BRANCH   2  20
ATOM     20  O   UNL     1      31.589   1.086 168.466  1.00  0.00    -0.502 OA
ATOM     21  H   UNL     1      31.079   1.887 168.819  1.00  0.00     0.293 HD
ENDBRANCH   2  20
BRANCH   6  22
ATOM     22  O   UNL     1      27.262  -1.994 168.056  1.00  0.00    -0.507 OA
ATOM     23  H   UNL     1      26.687  -1.177 168.196  1.00  0.00     0.293 HD
ENDBRANCH   6  22
BRANCH   8  24
ATOM     24  O   UNL     1      28.198  -4.256 163.944  1.00  0.00    -0.508 OA
ATOM     25  H   UNL     1      28.609  -4.280 163.018  1.00  0.00     0.293 HD
ENDBRANCH   8  24
TORSDOF 5
ENDMDL
MODEL 3
REMARK VINA RESULT:    -6.449      1.919      6.798
REMARK INTER + INTRA:          -7.777
REMARK INTER:                  -8.152
REMARK INTRA:                   0.375
REMARK UNBOUND:                -0.198
REMARK SMILES O=c1c(O)c(-c2ccc(O)cc2)oc2cc(O)cc(O)c12
REMARK SMILES IDX 5 1 3 2 2 3 1 4 21 5 19 6 18 7 16 8 15 9 14 10 13 11 6 12
REMARK SMILES IDX 7 13 8 14 9 15 12 16 11 17 10 18 4 20 20 22 17 24
REMARK H PARENT 10 19 4 21 20 23 17 25
REMARK Flexibility Score: inf
ROOT
ATOM      1  C   UNL     1      31.902   0.218 166.008  1.00  0.00     0.180 A 
ATOM      2  C   UNL     1      32.361   1.487 166.403  1.00  0.00     0.208 A 
ATOM      3  C   UNL     1      33.479   2.037 165.757  1.00  0.00     0.238 A 
ATOM      4  O   UNL     1      33.853   3.196 166.077  1.00  0.00    -0.285 OA
ATOM      5  C   UNL     1      34.135   1.307 164.737  1.00  0.00     0.111 A 
ATOM      6  C   UNL     1      35.300   1.751 164.043  1.00  0.00     0.134 A 
ATOM      7  C   UNL     1      35.787   1.005 162.962  1.00  0.00     0.093 A 
ATOM      8  C   UNL     1      35.191  -0.199 162.592  1.00  0.00     0.123 A 
ATOM      9  C   UNL     1      34.086  -0.673 163.301  1.00  0.00     0.094 A 
ATOM     10  C   UNL     1      33.556   0.066 164.361  1.00  0.00     0.146 A 
ATOM     11  O   UNL     1      32.498  -0.414 165.003  1.00  0.00    -0.452 OA
ENDROOT
BRANCH   1  12
ATOM     12  C   UNL     1      30.745  -0.439 166.658  1.00  0.00     0.021 A 
ATOM     13  C   UNL     1      30.427  -0.122 167.989  1.00  0.00     0.016 A 
ATOM     14  C   UNL     1      29.326  -0.714 168.614  1.00  0.00     0.047 A 
ATOM     15  C   UNL     1      28.518  -1.618 167.911  1.00  0.00     0.115 A 
ATOM     16  C   UNL     1      29.918  -1.333 165.952  1.00  0.00     0.016 A 
ATOM     17  C   UNL     1      28.816  -1.922 166.580  1.00  0.00     0.047 A 
BRANCH  15  18
ATOM     18  O   UNL     1      27.419  -2.213 168.524  1.00  0.00    -0.508 OA
ATOM     19  H   UNL     1      27.491  -2.646 169.438  1.00  0.00     0.293 HD
ENDBRANCH  15  18
ENDBRANCH   1  12
BRANCH   2  20
ATOM     20  O   UNL     1      31.687   2.200 167.398  1.00  0.00    -0.502 OA
ATOM     21  H   UNL     1      31.311   1.755 168.226  1.00  0.00     0.293 HD
ENDBRANCH   2  20
BRANCH   6  22
ATOM     22  O   UNL     1      36.028   2.894 164.391  1.00  0.00    -0.507 OA
ATOM     23  H   UNL     1      35.981   3.775 163.903  1.00  0.00     0.293 HD
ENDBRANCH   6  22
BRANCH   8  24
ATOM     24  O   UNL     1      35.711  -0.923 161.522  1.00  0.00    -0.508 OA
ATOM     25  H   UNL     1      36.295  -1.739 161.667  1.00  0.00     0.293 HD
ENDBRANCH   8  24
TORSDOF 5
ENDMDL
MODEL 4
REMARK VINA RESULT:    -6.381      1.560      6.495
REMARK INTER + INTRA:          -7.698
REMARK INTER:                  -7.968
REMARK INTRA:                   0.270
REMARK UNBOUND:                -0.198
REMARK SMILES O=c1c(O)c(-c2ccc(O)cc2)oc2cc(O)cc(O)c12
REMARK SMILES IDX 5 1 3 2 2 3 1 4 21 5 19 6 18 7 16 8 15 9 14 10 13 11 6 12
REMARK SMILES IDX 7 13 8 14 9 15 12 16 11 17 10 18 4 20 20 22 17 24
REMARK H PARENT 10 19 4 21 20 23 17 25
REMARK Flexibility Score: inf
ROOT
ATOM      1  C   UNL     1      31.962  -0.119 165.764  1.00  0.00     0.180 A 
ATOM      2  C   UNL     1      32.612  -0.816 164.730  1.00  0.00     0.208 A 
ATOM      3  C   UNL     1      33.714  -0.221 164.096  1.00  0.00     0.238 A 
ATOM      4  O   UNL     1      34.326  -0.873 163.209  1.00  0.00    -0.285 OA
ATOM      5  C   UNL     1      34.142   1.069 164.489  1.00  0.00     0.111 A 
ATOM      6  C   UNL     1      35.222   1.783 163.888  1.00  0.00     0.134 A 
ATOM      7  C   UNL     1      35.641   2.999 164.445  1.00  0.00     0.093 A 
ATOM      8  C   UNL     1      34.980   3.556 165.539  1.00  0.00     0.123 A 
ATOM      9  C   UNL     1      33.886   2.894 166.098  1.00  0.00     0.094 A 
ATOM     10  C   UNL     1      33.466   1.663 165.587  1.00  0.00     0.146 A 
ATOM     11  O   UNL     1      32.428   1.061 166.155  1.00  0.00    -0.452 OA
ENDROOT
BRANCH   1  12
ATOM     12  C   UNL     1      30.779  -0.669 166.463  1.00  0.00     0.021 A 
ATOM     13  C   UNL     1      30.517  -0.284 167.789  1.00  0.00     0.016 A 
ATOM     14  C   UNL     1      29.393  -0.775 168.460  1.00  0.00     0.047 A 
ATOM     15  C   UNL     1      28.508  -1.644 167.810  1.00  0.00     0.115 A 
ATOM     16  C   UNL     1      29.874  -1.527 165.810  1.00  0.00     0.016 A 
ATOM     17  C   UNL     1      28.751  -2.015 166.484  1.00  0.00     0.047 A 
BRANCH  15  18
ATOM     18  O   UNL     1      27.385  -2.138 168.469  1.00  0.00    -0.508 OA
ATOM     19  H   UNL     1      27.022  -3.064 168.274  1.00  0.00     0.293 HD
ENDBRANCH  15  18
ENDBRANCH   1  12
BRANCH   2  20
ATOM     20  O   UNL     1      32.187  -2.098 164.372  1.00  0.00    -0.502 OA
ATOM     21  H   UNL     1      31.421  -2.257 163.728  1.00  0.00     0.293 HD
ENDBRANCH   2  20
BRANCH   6  22
ATOM     22  O   UNL     1      35.892   1.361 162.736  1.00  0.00    -0.507 OA
ATOM     23  H   UNL     1      35.445   1.154 161.855  1.00  0.00     0.293 HD
ENDBRANCH   6  22
BRANCH   8  24
ATOM     24  O   UNL     1      35.415   4.773 166.057  1.00  0.00    -0.508 OA
ATOM     25  H   UNL     1      35.407   4.958 167.054  1.00  0.00     0.293 HD
ENDBRANCH   8  24
TORSDOF 5
ENDMDL
MODEL 5
REMARK VINA RESULT:    -6.300      2.212      2.856
REMARK INTER + INTRA:          -7.603
REMARK INTER:                  -7.314
REMARK INTRA:                  -0.289
REMARK UNBOUND:                -0.198
REMARK SMILES O=c1c(O)c(-c2ccc(O)cc2)oc2cc(O)cc(O)c12
REMARK SMILES IDX 5 1 3 2 2 3 1 4 21 5 19 6 18 7 16 8 15 9 14 10 13 11 6 12
REMARK SMILES IDX 7 13 8 14 9 15 12 16 11 17 10 18 4 20 20 22 17 24
REMARK H PARENT 10 19 4 21 20 23 17 25
REMARK Flexibility Score: inf
ROOT
ATOM      1  C   UNL     1      33.580   1.284 164.993  1.00  0.00     0.180 A 
ATOM      2  C   UNL     1      33.163   0.124 164.316  1.00  0.00     0.208 A 
ATOM      3  C   UNL     1      32.111  -0.636 164.851  1.00  0.00     0.238 A 
ATOM      4  O   UNL     1      31.706  -1.642 164.212  1.00  0.00    -0.285 OA
ATOM      5  C   UNL     1      31.501  -0.238 166.065  1.00  0.00     0.111 A 
ATOM      6  C   UNL     1      30.454  -0.954 166.718  1.00  0.00     0.134 A 
ATOM      7  C   UNL     1      29.835  -0.399 167.845  1.00  0.00     0.093 A 
ATOM      8  C   UNL     1      30.268   0.814 168.380  1.00  0.00     0.123 A 
ATOM      9  C   UNL     1      31.331   1.495 167.783  1.00  0.00     0.094 A 
ATOM     10  C   UNL     1      31.944   0.983 166.637  1.00  0.00     0.146 A 
ATOM     11  O   UNL     1      32.944   1.667 166.094  1.00  0.00    -0.452 OA
ENDROOT
BRANCH   1  12
ATOM     12  C   UNL     1      34.698   2.123 164.504  1.00  0.00     0.021 A 
ATOM     13  C   UNL     1      36.014   1.811 164.883  1.00  0.00     0.016 A 
ATOM     14  C   UNL     1      37.086   2.577 164.415  1.00  0.00     0.047 A 
ATOM     15  C   UNL     1      36.857   3.654 163.549  1.00  0.00     0.115 A 
ATOM     16  C   UNL     1      34.477   3.194 163.618  1.00  0.00     0.016 A 
ATOM     17  C   UNL     1      35.552   3.957 163.151  1.00  0.00     0.047 A 
BRANCH  15  18
ATOM     18  O   UNL     1      37.917   4.424 163.076  1.00  0.00    -0.508 OA
ATOM     19  H   UNL     1      38.873   4.235 163.352  1.00  0.00     0.293 HD
ENDBRANCH  15  18
ENDBRANCH   1  12
BRANCH   2  20
ATOM     20  O   UNL     1      33.765  -0.239 163.108  1.00  0.00    -0.502 OA
ATOM     21  H   UNL     1      33.987  -1.200 162.878  1.00  0.00     0.293 HD
ENDBRANCH   2  20
BRANCH   6  22
ATOM     22  O   UNL     1      30.006  -2.218 166.321  1.00  0.00    -0.507 OA
ATOM     23  H   UNL     1      29.757  -2.964 166.953  1.00  0.00     0.293 HD
ENDBRANCH   6  22
BRANCH   8  24
ATOM     24  O   UNL     1      29.641   1.329 169.511  1.00  0.00    -0.508 OA
ATOM     25  H   UNL     1      28.772   1.848 169.446  1.00  0.00     0.293 HD
ENDBRANCH   8  24
TORSDOF 5
ENDMDL
MODEL 6
REMARK VINA RESULT:    -6.170      1.239      3.221
REMARK INTER + INTRA:          -7.449
REMARK INTER:                  -7.216
REMARK INTRA:                  -0.233
REMARK UNBOUND:                -0.198
REMARK SMILES O=c1c(O)c(-c2ccc(O)cc2)oc2cc(O)cc(O)c12
REMARK SMILES IDX 5 1 3 2 2 3 1 4 21 5 19 6 18 7 16 8 15 9 14 10 13 11 6 12
REMARK SMILES IDX 7 13 8 14 9 15 12 16 11 17 10 18 4 20 20 22 17 24
REMARK H PARENT 10 19 4 21 20 23 17 25
REMARK Flexibility Score: inf
ROOT
ATOM      1  C   UNL     1      32.347   0.090 165.589  1.00  0.00     0.180 A 
ATOM      2  C   UNL     1      31.498  -0.298 166.640  1.00  0.00     0.208 A 
ATOM      3  C   UNL     1      30.400  -1.127 166.359  1.00  0.00     0.238 A 
ATOM      4  O   UNL     1      29.676  -1.515 167.312  1.00  0.00    -0.285 OA
ATOM      5  C   UNL     1      30.154  -1.543 165.029  1.00  0.00     0.111 A 
ATOM      6  C   UNL     1      29.049  -2.350 164.624  1.00  0.00     0.134 A 
ATOM      7  C   UNL     1      28.978  -2.810 163.302  1.00  0.00     0.093 A 
ATOM      8  C   UNL     1      29.934  -2.440 162.358  1.00  0.00     0.123 A 
ATOM      9  C   UNL     1      30.988  -1.603 162.730  1.00  0.00     0.094 A 
ATOM     10  C   UNL     1      31.106  -1.157 164.048  1.00  0.00     0.146 A 
ATOM     11  O   UNL     1      32.128  -0.371 164.363  1.00  0.00    -0.452 OA
ENDROOT
BRANCH   1  12
ATOM     12  C   UNL     1      33.510   0.981 165.803  1.00  0.00     0.021 A 
ATOM     13  C   UNL     1      34.810   0.459 165.701  1.00  0.00     0.016 A 
ATOM     14  C   UNL     1      35.922   1.288 165.878  1.00  0.00     0.047 A 
ATOM     15  C   UNL     1      35.748   2.653 166.140  1.00  0.00     0.115 A 
ATOM     16  C   UNL     1      33.343   2.357 166.048  1.00  0.00     0.016 A 
ATOM     17  C   UNL     1      34.458   3.183 166.222  1.00  0.00     0.047 A 
BRANCH  15  18
ATOM     18  O   UNL     1      36.849   3.488 166.318  1.00  0.00    -0.508 OA
ATOM     19  H   UNL     1      37.390   3.825 165.530  1.00  0.00     0.293 HD
ENDBRANCH  15  18
ENDBRANCH   1  12
BRANCH   2  20
ATOM     20  O   UNL     1      31.771   0.107 167.950  1.00  0.00    -0.502 OA
ATOM     21  H   UNL     1      31.080   0.561 168.534  1.00  0.00     0.293 HD
ENDBRANCH   2  20
BRANCH   6  22
ATOM     22  O   UNL     1      27.989  -2.701 165.464  1.00  0.00    -0.507 OA
ATOM     23  H   UNL     1      28.093  -3.041 166.409  1.00  0.00     0.293 HD
ENDBRANCH   6  22
BRANCH   8  24
ATOM     24  O   UNL     1      29.823  -2.903 161.049  1.00  0.00    -0.508 OA
ATOM     25  H   UNL     1      29.814  -3.894 160.836  1.00  0.00     0.293 HD
ENDBRANCH   8  24
TORSDOF 5
ENDMDL
MODEL 7
REMARK VINA RESULT:    -6.107      2.336      2.735
REMARK INTER + INTRA:          -7.376
REMARK INTER:                  -7.318
REMARK INTRA:                  -0.058
REMARK UNBOUND:                -0.198
REMARK SMILES O=c1c(O)c(-c2ccc(O)cc2)oc2cc(O)cc(O)c12
REMARK SMILES IDX 5 1 3 2 2 3 1 4 21 5 19 6 18 7 16 8 15 9 14 10 13 11 6 12
REMARK SMILES IDX 7 13 8 14 9 15 12 16 11 17 10 18 4 20 20 22 17 24
REMARK H PARENT 10 19 4 21 20 23 17 25
REMARK Flexibility Score: inf
ROOT
ATOM      1  C   UNL     1      32.623   0.108 164.675  1.00  0.00     0.180 A 
ATOM      2  C   UNL     1      31.858  -0.989 164.238  1.00  0.00     0.208 A 
ATOM      3  C   UNL     1      30.801  -1.444 165.040  1.00  0.00     0.238 A 
ATOM      4  O   UNL     1      30.086  -2.391 164.618  1.00  0.00    -0.285 OA
ATOM      5  C   UNL     1      30.530  -0.811 166.277  1.00  0.00     0.111 A 
ATOM      6  C   UNL     1      29.509  -1.214 167.188  1.00  0.00     0.134 A 
ATOM      7  C   UNL     1      29.246  -0.433 168.321  1.00  0.00     0.093 A 
ATOM      8  C   UNL     1      30.008   0.697 168.609  1.00  0.00     0.123 A 
ATOM      9  C   UNL     1      31.049   1.068 167.755  1.00  0.00     0.094 A 
ATOM     10  C   UNL     1      31.312   0.330 166.599  1.00  0.00     0.146 A 
ATOM     11  O   UNL     1      32.303   0.722 165.808  1.00  0.00    -0.452 OA
ENDROOT
BRANCH   1  12
ATOM     12  C   UNL     1      33.769   0.630 163.897  1.00  0.00     0.021 A 
ATOM     13  C   UNL     1      33.556   1.125 162.599  1.00  0.00     0.016 A 
ATOM     14  C   UNL     1      34.621   1.643 161.855  1.00  0.00     0.047 A 
ATOM     15  C   UNL     1      35.908   1.689 162.406  1.00  0.00     0.115 A 
ATOM     16  C   UNL     1      35.062   0.697 164.450  1.00  0.00     0.016 A 
ATOM     17  C   UNL     1      36.123   1.217 163.703  1.00  0.00     0.047 A 
BRANCH  15  18
ATOM     18  O   UNL     1      36.976   2.203 161.674  1.00  0.00    -0.508 OA
ATOM     19  H   UNL     1      36.971   2.206 160.661  1.00  0.00     0.293 HD
ENDBRANCH  15  18
ENDBRANCH   1  12
BRANCH   2  20
ATOM     20  O   UNL     1      32.129  -1.586 163.004  1.00  0.00    -0.502 OA
ATOM     21  H   UNL     1      32.955  -1.365 162.461  1.00  0.00     0.293 HD
ENDBRANCH   2  20
BRANCH   6  22
ATOM     22  O   UNL     1      28.749  -2.379 167.043  1.00  0.00    -0.507 OA
ATOM     23  H   UNL     1      29.109  -3.316 167.144  1.00  0.00     0.293 HD
ENDBRANCH   6  22
BRANCH   8  24
ATOM     24  O   UNL     1      29.729   1.441 169.753  1.00  0.00    -0.508 OA
ATOM     25  H   UNL     1      29.636   2.450 169.719  1.00  0.00     0.293 HD
ENDBRANCH   8  24
TORSDOF 5
ENDMDL
MODEL 8
REMARK VINA RESULT:    -6.071      2.037      2.870
REMARK INTER + INTRA:          -7.334
REMARK INTER:                  -7.071
REMARK INTRA:                  -0.263
REMARK UNBOUND:                -0.198
REMARK SMILES O=c1c(O)c(-c2ccc(O)cc2)oc2cc(O)cc(O)c12
REMARK SMILES IDX 5 1 3 2 2 3 1 4 21 5 19 6 18 7 16 8 15 9 14 10 13 11 6 12
REMARK SMILES IDX 7 13 8 14 9 15 12 16 11 17 10 18 4 20 20 22 17 24
REMARK H PARENT 10 19 4 21 20 23 17 25
REMARK Flexibility Score: inf
ROOT
ATOM      1  C   UNL     1      33.536   2.262 165.705  1.00  0.00     0.180 A 
ATOM      2  C   UNL     1      33.516   1.320 164.662  1.00  0.00     0.208 A 
ATOM      3  C   UNL     1      32.612   0.248 164.730  1.00  0.00     0.238 A 
ATOM      4  O   UNL     1      32.560  -0.561 163.768  1.00  0.00    -0.285 OA
ATOM      5  C   UNL     1      31.751   0.122 165.847  1.00  0.00     0.111 A 
ATOM      6  C   UNL     1      30.823  -0.946 166.038  1.00  0.00     0.134 A 
ATOM      7  C   UNL     1      29.930  -0.900 167.116  1.00  0.00     0.093 A 
ATOM      8  C   UNL     1      29.973   0.140 168.044  1.00  0.00     0.123 A 
ATOM      9  C   UNL     1      30.916   1.160 167.898  1.00  0.00     0.094 A 
ATOM     10  C   UNL     1      31.797   1.160 166.814  1.00  0.00     0.146 A 
ATOM     11  O   UNL     1      32.671   2.153 166.707  1.00  0.00    -0.452 OA
ENDROOT
BRANCH   1  12
ATOM     12  C   UNL     1      34.477   3.405 165.717  1.00  0.00     0.021 A 
ATOM     13  C   UNL     1      34.173   4.560 164.977  1.00  0.00     0.016 A 
ATOM     14  C   UNL     1      35.038   5.659 164.992  1.00  0.00     0.047 A 
ATOM     15  C   UNL     1      36.208   5.624 165.761  1.00  0.00     0.115 A 
ATOM     16  C   UNL     1      35.645   3.385 166.503  1.00  0.00     0.016 A 
ATOM     17  C   UNL     1      36.506   4.486 166.516  1.00  0.00     0.047 A 
BRANCH  15  18
ATOM     18  O   UNL     1      37.076   6.712 165.784  1.00  0.00    -0.508 OA
ATOM     19  H   UNL     1      37.230   7.250 166.628  1.00  0.00     0.293 HD
ENDBRANCH  15  18
ENDBRANCH   1  12
BRANCH   2  20
ATOM     20  O   UNL     1      34.359   1.475 163.559  1.00  0.00    -0.502 OA
ATOM     21  H   UNL     1      34.808   0.690 163.102  1.00  0.00     0.293 HD
ENDBRANCH   2  20
BRANCH   6  22
ATOM     22  O   UNL     1      30.758  -2.080 165.222  1.00  0.00    -0.507 OA
ATOM     23  H   UNL     1      31.281  -2.929 165.377  1.00  0.00     0.293 HD
ENDBRANCH   6  22
BRANCH   8  24
ATOM     24  O   UNL     1      29.080   0.146 169.112  1.00  0.00    -0.508 OA
ATOM     25  H   UNL     1      29.402   0.112 170.073  1.00  0.00     0.293 HD
ENDBRANCH   8  24
TORSDOF 5
ENDMDL
MODEL 9
REMARK VINA RESULT:    -5.825     10.002     11.970
REMARK INTER + INTRA:          -7.045
REMARK INTER:                  -6.837
REMARK INTRA:                  -0.208
REMARK UNBOUND:                -0.198
REMARK SMILES O=c1c(O)c(-c2ccc(O)cc2)oc2cc(O)cc(O)c12
REMARK SMILES IDX 5 1 3 2 2 3 1 4 21 5 19 6 18 7 16 8 15 9 14 10 13 11 6 12
REMARK SMILES IDX 7 13 8 14 9 15 12 16 11 17 10 18 4 20 20 22 17 24
REMARK H PARENT 10 19 4 21 20 23 17 25
REMARK Flexibility Score: inf
ROOT
ATOM      1  C   UNL     1      36.595   8.579 169.892  1.00  0.00     0.180 A 
ATOM      2  C   UNL     1      36.733   7.389 169.156  1.00  0.00     0.208 A 
ATOM      3  C   UNL     1      37.217   6.241 169.803  1.00  0.00     0.238 A 
ATOM      4  O   UNL     1      37.286   5.165 169.153  1.00  0.00    -0.285 OA
ATOM      5  C   UNL     1      37.574   6.301 171.172  1.00  0.00     0.111 A 
ATOM      6  C   UNL     1      38.112   5.209 171.917  1.00  0.00     0.134 A 
ATOM      7  C   UNL     1      38.306   5.344 173.298  1.00  0.00     0.093 A 
ATOM      8  C   UNL     1      38.043   6.549 173.947  1.00  0.00     0.123 A 
ATOM      9  C   UNL     1      37.572   7.642 173.217  1.00  0.00     0.094 A 
ATOM     10  C   UNL     1      37.335   7.527 171.845  1.00  0.00     0.146 A 
ATOM     11  O   UNL     1      36.876   8.586 171.190  1.00  0.00    -0.452 OA
ENDROOT
BRANCH   1  12
ATOM     12  C   UNL     1      36.115   9.836 169.275  1.00  0.00     0.021 A 
ATOM     13  C   UNL     1      36.950  10.534 168.385  1.00  0.00     0.016 A 
ATOM     14  C   UNL     1      36.507  11.711 167.774  1.00  0.00     0.047 A 
ATOM     15  C   UNL     1      35.219  12.197 168.031  1.00  0.00     0.115 A 
ATOM     16  C   UNL     1      34.815  10.320 169.514  1.00  0.00     0.016 A 
ATOM     17  C   UNL     1      34.376  11.497 168.899  1.00  0.00     0.047 A 
BRANCH  15  18
ATOM     18  O   UNL     1      34.768  13.368 167.428  1.00  0.00    -0.508 OA
ATOM     19  H   UNL     1      33.927  13.384 166.863  1.00  0.00     0.293 HD
ENDBRANCH  15  18
ENDBRANCH   1  12
BRANCH   2  20
ATOM     20  O   UNL     1      36.355   7.346 167.811  1.00  0.00    -0.502 OA
ATOM     21  H   UNL     1      36.030   8.165 167.311  1.00  0.00     0.293 HD
ENDBRANCH   2  20
BRANCH   6  22
ATOM     22  O   UNL     1      38.497   3.990 171.349  1.00  0.00    -0.507 OA
ATOM     23  H   UNL     1      38.142   3.089 171.629  1.00  0.00     0.293 HD
ENDBRANCH   6  22
BRANCH   8  24
ATOM     24  O   UNL     1      38.262   6.653 175.318  1.00  0.00    -0.508 OA
ATOM     25  H   UNL     1      38.045   7.502 175.828  1.00  0.00     0.293 HD
ENDBRANCH   8  24
TORSDOF 5
ENDMDL
