MODEL 1
REMARK VINA RESULT:    -4.576      0.000      0.000
REMARK INTER + INTRA:          -4.970
REMARK INTER:                  -4.844
REMARK INTRA:                  -0.126
REMARK UNBOUND:                -0.126
REMARK SMILES C=C(C)[C@@H]1CC=C(C)CC1
REMARK SMILES IDX 8 1 7 2 6 3 5 4 4 5 10 6 9 7 2 8 1 9 3 10
REMARK H PARENT
REMARK Flexibility Score: inf
ROOT
ATOM      1  C   UNL     1     -27.796 -55.562 103.572  1.00  0.00     0.039 C 
ATOM      2  C   UNL     1     -26.766 -54.483 103.392  1.00  0.00    -0.077 C 
ATOM      3  C   UNL     1     -26.581 -53.581 104.380  1.00  0.00    -0.027 C 
ATOM      4  C   UNL     1     -25.536 -52.493 104.316  1.00  0.00     0.035 C 
ATOM      5  C   UNL     1     -25.116 -52.175 102.871  1.00  0.00     0.018 C 
ATOM      6  C   UNL     1     -24.807 -53.478 102.117  1.00  0.00     0.013 C 
ATOM      7  C   UNL     1     -26.060 -54.361 102.054  1.00  0.00     0.031 C 
ENDROOT
BRANCH   5   8
ATOM      8  C   UNL     1     -23.934 -51.215 102.837  1.00  0.00    -0.077 C 
ATOM      9  C   UNL     1     -23.631 -50.561 101.704  1.00  0.00     0.008 C 
ATOM     10  C   UNL     1     -23.087 -50.965 104.060  1.00  0.00     0.039 C 
ENDBRANCH   5   8
TORSDOF 1
ENDMDL
MODEL 2
REMARK VINA RESULT:    -4.446      2.133      3.744
REMARK INTER + INTRA:          -4.832
REMARK INTER:                  -4.700
REMARK INTRA:                  -0.132
REMARK UNBOUND:                -0.126
REMARK SMILES C=C(C)[C@@H]1CC=C(C)CC1
REMARK SMILES IDX 8 1 7 2 6 3 5 4 4 5 10 6 9 7 2 8 1 9 3 10
REMARK H PARENT
REMARK Flexibility Score: inf
ROOT
ATOM      1  C   UNL     1     -24.811 -53.157 101.495  1.00  0.00     0.039 C 
ATOM      2  C   UNL     1     -24.407 -51.888 102.192  1.00  0.00    -0.077 C 
ATOM      3  C   UNL     1     -24.591 -51.785 103.526  1.00  0.00    -0.027 C 
ATOM      4  C   UNL     1     -24.171 -50.575 104.324  1.00  0.00     0.035 C 
ATOM      5  C   UNL     1     -24.042 -49.316 103.448  1.00  0.00     0.018 C 
ATOM      6  C   UNL     1     -23.221 -49.638 102.189  1.00  0.00     0.013 C 
ATOM      7  C   UNL     1     -23.927 -50.715 101.357  1.00  0.00     0.031 C 
ENDROOT
BRANCH   5   8
ATOM      8  C   UNL     1     -23.440 -48.157 104.229  1.00  0.00    -0.077 C 
ATOM      9  C   UNL     1     -23.319 -48.235 105.564  1.00  0.00     0.008 C 
ATOM     10  C   UNL     1     -22.957 -46.907 103.535  1.00  0.00     0.039 C 
ENDBRANCH   5   8
TORSDOF 1
ENDMDL
MODEL 3
REMARK VINA RESULT:    -4.342      1.320      4.420
REMARK INTER + INTRA:          -4.722
REMARK INTER:                  -4.596
REMARK INTRA:                  -0.126
REMARK UNBOUND:                -0.126
REMARK SMILES C=C(C)[C@@H]1CC=C(C)CC1
REMARK SMILES IDX 8 1 7 2 6 3 5 4 4 5 10 6 9 7 2 8 1 9 3 10
REMARK H PARENT
REMARK Flexibility Score: inf
ROOT
ATOM      1  C   UNL     1     -23.379 -48.374 103.682  1.00  0.00     0.039 C 
ATOM      2  C   UNL     1     -23.826 -49.730 103.212  1.00  0.00    -0.077 C 
ATOM      3  C   UNL     1     -24.263 -50.628 104.120  1.00  0.00    -0.027 C 
ATOM      4  C   UNL     1     -24.782 -51.995 103.743  1.00  0.00     0.035 C 
ATOM      5  C   UNL     1     -24.265 -52.454 102.368  1.00  0.00     0.018 C 
ATOM      6  C   UNL     1     -24.455 -51.330 101.337  1.00  0.00     0.013 C 
ATOM      7  C   UNL     1     -23.648 -50.093 101.749  1.00  0.00     0.031 C 
ENDROOT
BRANCH   5   8
ATOM      8  C   UNL     1     -24.943 -53.742 101.924  1.00  0.00    -0.077 C 
ATOM      9  C   UNL     1     -24.446 -54.443 100.892  1.00  0.00     0.008 C 
ATOM     10  C   UNL     1     -26.170 -54.269 102.626  1.00  0.00     0.039 C 
ENDBRANCH   5   8
TORSDOF 1
ENDMDL
MODEL 4
REMARK VINA RESULT:    -4.240      2.907      6.415
REMARK INTER + INTRA:          -4.614
REMARK INTER:                  -4.482
REMARK INTRA:                  -0.132
REMARK UNBOUND:                -0.126
REMARK SMILES C=C(C)[C@@H]1CC=C(C)CC1
REMARK SMILES IDX 8 1 7 2 6 3 5 4 4 5 10 6 9 7 2 8 1 9 3 10
REMARK H PARENT
REMARK Flexibility Score: inf
ROOT
ATOM      1  C   UNL     1     -21.230 -45.811 104.505  1.00  0.00     0.039 C 
ATOM      2  C   UNL     1     -21.918 -47.078 104.078  1.00  0.00    -0.077 C 
ATOM      3  C   UNL     1     -22.131 -47.297 102.763  1.00  0.00    -0.027 C 
ATOM      4  C   UNL     1     -22.766 -48.560 102.231  1.00  0.00     0.035 C 
ATOM      5  C   UNL     1     -23.612 -49.278 103.296  1.00  0.00     0.018 C 
ATOM      6  C   UNL     1     -22.813 -49.400 104.603  1.00  0.00     0.013 C 
ATOM      7  C   UNL     1     -22.468 -48.007 105.144  1.00  0.00     0.031 C 
ENDROOT
BRANCH   5   8
ATOM      8  C   UNL     1     -24.087 -50.637 102.802  1.00  0.00    -0.077 C 
ATOM      9  C   UNL     1     -23.972 -50.959 101.504  1.00  0.00     0.008 C 
ATOM     10  C   UNL     1     -24.684 -51.653 103.744  1.00  0.00     0.039 C 
ENDBRANCH   5   8
TORSDOF 1
ENDMDL
MODEL 5
REMARK VINA RESULT:    -4.228      1.271      4.898
REMARK INTER + INTRA:          -4.601
REMARK INTER:                  -4.469
REMARK INTRA:                  -0.132
REMARK UNBOUND:                -0.126
REMARK SMILES C=C(C)[C@@H]1CC=C(C)CC1
REMARK SMILES IDX 8 1 7 2 6 3 5 4 4 5 10 6 9 7 2 8 1 9 3 10
REMARK H PARENT
REMARK Flexibility Score: inf
ROOT
ATOM      1  C   UNL     1     -22.479 -48.150 102.360  1.00  0.00     0.039 C 
ATOM      2  C   UNL     1     -23.221 -49.438 102.586  1.00  0.00    -0.077 C 
ATOM      3  C   UNL     1     -23.579 -50.184 101.519  1.00  0.00    -0.027 C 
ATOM      4  C   UNL     1     -24.280 -51.516 101.645  1.00  0.00     0.035 C 
ATOM      5  C   UNL     1     -25.011 -51.664 102.990  1.00  0.00     0.018 C 
ATOM      6  C   UNL     1     -24.075 -51.262 104.140  1.00  0.00     0.013 C 
ATOM      7  C   UNL     1     -23.660 -49.792 103.995  1.00  0.00     0.031 C 
ENDROOT
BRANCH   5   8
ATOM      8  C   UNL     1     -25.550 -53.076 103.175  1.00  0.00    -0.077 C 
ATOM      9  C   UNL     1     -25.372 -53.995 102.213  1.00  0.00     0.008 C 
ATOM     10  C   UNL     1     -26.282 -53.481 104.430  1.00  0.00     0.039 C 
ENDBRANCH   5   8
TORSDOF 1
ENDMDL
MODEL 6
REMARK VINA RESULT:    -4.205      1.774      3.321
REMARK INTER + INTRA:          -4.577
REMARK INTER:                  -4.446
REMARK INTRA:                  -0.131
REMARK UNBOUND:                -0.126
REMARK SMILES C=C(C)[C@@H]1CC=C(C)CC1
REMARK SMILES IDX 8 1 7 2 6 3 5 4 4 5 10 6 9 7 2 8 1 9 3 10
REMARK H PARENT
REMARK Flexibility Score: inf
ROOT
ATOM      1  C   UNL     1     -25.290 -53.871 101.986  1.00  0.00     0.039 C 
ATOM      2  C   UNL     1     -24.743 -52.506 102.301  1.00  0.00    -0.077 C 
ATOM      3  C   UNL     1     -24.159 -51.791 101.316  1.00  0.00    -0.027 C 
ATOM      4  C   UNL     1     -23.627 -50.393 101.519  1.00  0.00     0.035 C 
ATOM      5  C   UNL     1     -23.318 -50.097 102.997  1.00  0.00     0.018 C 
ATOM      6  C   UNL     1     -24.505 -50.522 103.875  1.00  0.00     0.013 C 
ATOM      7  C   UNL     1     -24.747 -52.031 103.742  1.00  0.00     0.031 C 
ENDROOT
BRANCH   5   8
ATOM      8  C   UNL     1     -22.964 -48.631 103.206  1.00  0.00    -0.077 C 
ATOM      9  C   UNL     1     -22.496 -47.899 102.182  1.00  0.00     0.008 C 
ATOM     10  C   UNL     1     -23.135 -47.964 104.548  1.00  0.00     0.039 C 
ENDBRANCH   5   8
TORSDOF 1
ENDMDL
MODEL 7
REMARK VINA RESULT:    -4.128      6.585      7.963
REMARK INTER + INTRA:          -4.495
REMARK INTER:                  -4.365
REMARK INTRA:                  -0.130
REMARK UNBOUND:                -0.126
REMARK SMILES C=C(C)[C@@H]1CC=C(C)CC1
REMARK SMILES IDX 8 1 7 2 6 3 5 4 4 5 10 6 9 7 2 8 1 9 3 10
REMARK H PARENT
REMARK Flexibility Score: inf
ROOT
ATOM      1  C   UNL     1     -23.717 -55.378 100.750  1.00  0.00     0.039 C 
ATOM      2  C   UNL     1     -22.819 -56.107  99.789  1.00  0.00    -0.077 C 
ATOM      3  C   UNL     1     -21.612 -56.536 100.216  1.00  0.00    -0.027 C 
ATOM      4  C   UNL     1     -20.662 -57.321  99.345  1.00  0.00     0.035 C 
ATOM      5  C   UNL     1     -20.936 -57.107  97.846  1.00  0.00     0.018 C 
ATOM      6  C   UNL     1     -22.437 -57.272  97.560  1.00  0.00     0.013 C 
ATOM      7  C   UNL     1     -23.241 -56.222  98.336  1.00  0.00     0.031 C 
ENDROOT
BRANCH   5   8
ATOM      8  C   UNL     1     -20.097 -58.046  96.990  1.00  0.00    -0.077 C 
ATOM      9  C   UNL     1     -20.637 -58.639  95.914  1.00  0.00     0.008 C 
ATOM     10  C   UNL     1     -18.650 -58.325  97.315  1.00  0.00     0.039 C 
ENDBRANCH   5   8
TORSDOF 1
ENDMDL
MODEL 8
REMARK VINA RESULT:    -4.107      5.692      7.166
REMARK INTER + INTRA:          -4.474
REMARK INTER:                  -4.345
REMARK INTRA:                  -0.128
REMARK UNBOUND:                -0.126
REMARK SMILES C=C(C)[C@@H]1CC=C(C)CC1
REMARK SMILES IDX 8 1 7 2 6 3 5 4 4 5 10 6 9 7 2 8 1 9 3 10
REMARK H PARENT
REMARK Flexibility Score: inf
ROOT
ATOM      1  C   UNL     1     -22.108 -46.306 102.609  1.00  0.00     0.039 C 
ATOM      2  C   UNL     1     -21.988 -47.244 103.778  1.00  0.00    -0.077 C 
ATOM      3  C   UNL     1     -20.763 -47.519 104.275  1.00  0.00    -0.027 C 
ATOM      4  C   UNL     1     -20.543 -48.405 105.477  1.00  0.00     0.035 C 
ATOM      5  C   UNL     1     -21.724 -49.362 105.719  1.00  0.00     0.018 C 
ATOM      6  C   UNL     1     -23.047 -48.582 105.664  1.00  0.00     0.013 C 
ATOM      7  C   UNL     1     -23.233 -47.953 104.278  1.00  0.00     0.031 C 
ENDROOT
BRANCH   5   8
ATOM      8  C   UNL     1     -21.570 -50.111 107.035  1.00  0.00    -0.077 C 
ATOM      9  C   UNL     1     -21.459 -49.431 108.187  1.00  0.00     0.008 C 
ATOM     10  C   UNL     1     -21.549 -51.618 107.084  1.00  0.00     0.039 C 
ENDBRANCH   5   8
TORSDOF 1
ENDMDL
MODEL 9
REMARK VINA RESULT:    -4.094      6.253      8.229
REMARK INTER + INTRA:          -4.459
REMARK INTER:                  -4.328
REMARK INTRA:                  -0.131
REMARK UNBOUND:                -0.126
REMARK SMILES C=C(C)[C@@H]1CC=C(C)CC1
REMARK SMILES IDX 8 1 7 2 6 3 5 4 4 5 10 6 9 7 2 8 1 9 3 10
REMARK H PARENT
REMARK Flexibility Score: inf
ROOT
ATOM      1  C   UNL     1     -19.536 -46.379  99.188  1.00  0.00     0.039 C 
ATOM      2  C   UNL     1     -20.048 -46.744 100.554  1.00  0.00    -0.077 C 
ATOM      3  C   UNL     1     -19.167 -47.125 101.503  1.00  0.00    -0.027 C 
ATOM      4  C   UNL     1     -19.576 -47.460 102.918  1.00  0.00     0.035 C 
ATOM      5  C   UNL     1     -21.060 -47.853 103.017  1.00  0.00     0.018 C 
ATOM      6  C   UNL     1     -21.924 -46.825 102.270  1.00  0.00     0.013 C 
ATOM      7  C   UNL     1     -21.547 -46.798 100.783  1.00  0.00     0.031 C 
ENDROOT
BRANCH   5   8
ATOM      8  C   UNL     1     -21.497 -48.003 104.467  1.00  0.00    -0.077 C 
ATOM      9  C   UNL     1     -20.587 -48.250 105.423  1.00  0.00     0.008 C 
ATOM     10  C   UNL     1     -22.945 -47.871 104.871  1.00  0.00     0.039 C 
ENDBRANCH   5   8
TORSDOF 1
ENDMDL
