MODEL 1
REMARK VINA RESULT:    -2.714      0.000      0.000
REMARK INTER + INTRA:          -2.714
REMARK INTER:                  -2.714
REMARK INTRA:                   0.000
REMARK UNBOUND:                 0.000
REMARK SMILES CC(=O)[O-]
REMARK SMILES IDX 1 1 2 2 3 3 4 4
REMARK H PARENT
REMARK Flexibility Score: inf
ROOT
ATOM      1  C   UNL     1      26.521   8.035  32.039  1.00  0.00     0.063 C 
ATOM      2  C   UNL     1      26.879   9.464  32.269  1.00  0.00     0.038 C 
ATOM      3  O   UNL     1      27.589   9.785  33.257  1.00  0.00    -0.550 OA
ATOM      4  O   UNL     1      26.474  10.438  31.366  1.00  0.00    -0.550 OA
ENDROOT
TORSDOF 0
ENDMDL
MODEL 2
REMARK VINA RESULT:    -2.698      2.259      2.813
REMARK INTER + INTRA:          -2.698
REMARK INTER:                  -2.698
REMARK INTRA:                   0.000
REMARK UNBOUND:                 0.000
REMARK SMILES CC(=O)[O-]
REMARK SMILES IDX 1 1 2 2 3 3 4 4
REMARK H PARENT
REMARK Flexibility Score: inf
ROOT
ATOM      1  C   UNL     1      26.471   8.380  32.200  1.00  0.00     0.063 C 
ATOM      2  C   UNL     1      27.500   7.485  32.803  1.00  0.00     0.038 C 
ATOM      3  O   UNL     1      27.253   6.262  32.969  1.00  0.00    -0.550 OA
ATOM      4  O   UNL     1      28.752   7.987  33.134  1.00  0.00    -0.550 OA
ENDROOT
TORSDOF 0
ENDMDL
MODEL 3
REMARK VINA RESULT:    -2.679      2.209      2.751
REMARK INTER + INTRA:          -2.679
REMARK INTER:                  -2.679
REMARK INTRA:                   0.000
REMARK UNBOUND:                 0.000
REMARK SMILES CC(=O)[O-]
REMARK SMILES IDX 1 1 2 2 3 3 4 4
REMARK H PARENT
REMARK Flexibility Score: inf
ROOT
ATOM      1  C   UNL     1      26.457   8.404  32.216  1.00  0.00     0.063 C 
ATOM      2  C   UNL     1      27.530   7.523  32.756  1.00  0.00     0.038 C 
ATOM      3  O   UNL     1      28.640   8.013  33.091  1.00  0.00    -0.550 OA
ATOM      4  O   UNL     1      27.292   6.167  32.942  1.00  0.00    -0.550 OA
ENDROOT
TORSDOF 0
ENDMDL
MODEL 4
REMARK VINA RESULT:    -2.577      1.477      1.554
REMARK INTER + INTRA:          -2.577
REMARK INTER:                  -2.577
REMARK INTRA:                   0.000
REMARK UNBOUND:                 0.000
REMARK SMILES CC(=O)[O-]
REMARK SMILES IDX 1 1 2 2 3 3 4 4
REMARK H PARENT
REMARK Flexibility Score: inf
ROOT
ATOM      1  C   UNL     1      27.298   6.718  32.826  1.00  0.00     0.063 C 
ATOM      2  C   UNL     1      27.131   8.198  32.876  1.00  0.00     0.038 C 
ATOM      3  O   UNL     1      28.008   8.914  33.426  1.00  0.00    -0.550 OA
ATOM      4  O   UNL     1      26.035   8.797  32.268  1.00  0.00    -0.550 OA
ENDROOT
TORSDOF 0
ENDMDL
MODEL 5
REMARK VINA RESULT:    -2.289      4.720      5.210
REMARK INTER + INTRA:          -2.289
REMARK INTER:                  -2.289
REMARK INTRA:                   0.000
REMARK UNBOUND:                 0.000
REMARK SMILES CC(=O)[O-]
REMARK SMILES IDX 1 1 2 2 3 3 4 4
REMARK H PARENT
REMARK Flexibility Score: inf
ROOT
ATOM      1  C   UNL     1      27.589   5.915  32.493  1.00  0.00     0.063 C 
ATOM      2  C   UNL     1      28.396   4.873  31.796  1.00  0.00     0.038 C 
ATOM      3  O   UNL     1      27.829   3.874  31.282  1.00  0.00    -0.550 OA
ATOM      4  O   UNL     1      29.770   5.028  31.664  1.00  0.00    -0.550 OA
ENDROOT
TORSDOF 0
ENDMDL
MODEL 6
REMARK VINA RESULT:    -2.254      5.013      5.613
REMARK INTER + INTRA:          -2.254
REMARK INTER:                  -2.254
REMARK INTRA:                   0.000
REMARK UNBOUND:                 0.000
REMARK SMILES CC(=O)[O-]
REMARK SMILES IDX 1 1 2 2 3 3 4 4
REMARK H PARENT
REMARK Flexibility Score: inf
ROOT
ATOM      1  C   UNL     1      27.609  12.858  35.847  1.00  0.00     0.063 C 
ATOM      2  C   UNL     1      28.515  11.889  36.526  1.00  0.00     0.038 C 
ATOM      3  O   UNL     1      28.687  10.740  36.041  1.00  0.00    -0.550 OA
ATOM      4  O   UNL     1      29.214  12.267  37.665  1.00  0.00    -0.550 OA
ENDROOT
TORSDOF 0
ENDMDL
MODEL 7
REMARK VINA RESULT:    -2.248      6.662      7.021
REMARK INTER + INTRA:          -2.248
REMARK INTER:                  -2.248
REMARK INTRA:                   0.000
REMARK UNBOUND:                 0.000
REMARK SMILES CC(=O)[O-]
REMARK SMILES IDX 1 1 2 2 3 3 4 4
REMARK H PARENT
REMARK Flexibility Score: inf
ROOT
ATOM      1  C   UNL     1      31.663   8.876  35.472  1.00  0.00     0.063 C 
ATOM      2  C   UNL     1      32.538   7.687  35.673  1.00  0.00     0.038 C 
ATOM      3  O   UNL     1      32.752   7.249  36.834  1.00  0.00    -0.550 OA
ATOM      4  O   UNL     1      33.079   7.025  34.578  1.00  0.00    -0.550 OA
ENDROOT
TORSDOF 0
ENDMDL
MODEL 8
REMARK VINA RESULT:    -2.188      4.770      5.396
REMARK INTER + INTRA:          -2.188
REMARK INTER:                  -2.188
REMARK INTRA:                   0.000
REMARK UNBOUND:                 0.000
REMARK SMILES CC(=O)[O-]
REMARK SMILES IDX 1 1 2 2 3 3 4 4
REMARK H PARENT
REMARK Flexibility Score: inf
ROOT
ATOM      1  C   UNL     1      29.128  12.387  37.428  1.00  0.00     0.063 C 
ATOM      2  C   UNL     1      28.428  11.774  36.263  1.00  0.00     0.038 C 
ATOM      3  O   UNL     1      27.600  12.450  35.598  1.00  0.00    -0.550 OA
ATOM      4  O   UNL     1      28.725  10.473  35.877  1.00  0.00    -0.550 OA
ENDROOT
TORSDOF 0
ENDMDL
MODEL 9
REMARK VINA RESULT:    -2.052     11.884     12.553
REMARK INTER + INTRA:          -2.052
REMARK INTER:                  -2.052
REMARK INTRA:                   0.000
REMARK UNBOUND:                 0.000
REMARK SMILES CC(=O)[O-]
REMARK SMILES IDX 1 1 2 2 3 3 4 4
REMARK H PARENT
REMARK Flexibility Score: inf
ROOT
ATOM      1  C   UNL     1      22.557   4.797  22.414  1.00  0.00     0.063 C 
ATOM      2  C   UNL     1      21.232   4.129  22.556  1.00  0.00     0.038 C 
ATOM      3  O   UNL     1      20.498   3.963  21.548  1.00  0.00    -0.550 OA
ATOM      4  O   UNL     1      20.826   3.641  23.792  1.00  0.00    -0.550 OA
ENDROOT
TORSDOF 0
ENDMDL
