MODEL 1
REMARK VINA RESULT:    -3.811      0.000      0.000
REMARK INTER + INTRA:          -5.318
REMARK INTER:                  -4.702
REMARK INTRA:                  -0.616
REMARK UNBOUND:                -0.616
REMARK SMILES C=CC(=C)CCC=C(C)C
REMARK SMILES IDX 5 1 6 2 7 3 9 4 8 5 10 6 3 7 4 8 2 9 1 10
REMARK H PARENT
REMARK Flexibility Score: inf
ROOT
ATOM      1  C   UNL     1     137.944 140.048 134.378  1.00  0.00     0.039 C 
ENDROOT
BRANCH   1   2
ATOM      2  C   UNL     1     137.224 141.274 133.805  1.00  0.00     0.032 C 
BRANCH   2   3
ATOM      3  C   UNL     1     138.122 142.485 133.837  1.00  0.00    -0.028 C 
ATOM      4  C   UNL     1     138.325 142.599 131.343  1.00  0.00     0.039 C 
ATOM      5  C   UNL     1     138.605 143.107 132.738  1.00  0.00    -0.080 C 
ATOM      6  C   UNL     1     139.460 144.333 132.924  1.00  0.00     0.039 C 
ENDBRANCH   2   3
ENDBRANCH   1   2
BRANCH   1   7
ATOM      7  C   UNL     1     138.386 139.117 133.270  1.00  0.00    -0.055 C 
ATOM      8  C   UNL     1     139.459 138.343 133.462  1.00  0.00     0.012 C 
BRANCH   7   9
ATOM      9  C   UNL     1     137.641 138.998 131.989  1.00  0.00    -0.005 C 
ATOM     10  C   UNL     1     138.078 138.311 130.933  1.00  0.00     0.009 C 
ENDBRANCH   7   9
ENDBRANCH   1   7
TORSDOF 4
ENDMDL
MODEL 2
REMARK VINA RESULT:    -3.798      3.335      5.593
REMARK INTER + INTRA:          -5.301
REMARK INTER:                  -4.854
REMARK INTRA:                  -0.447
REMARK UNBOUND:                -0.616
REMARK SMILES C=CC(=C)CCC=C(C)C
REMARK SMILES IDX 5 1 6 2 7 3 9 4 8 5 10 6 3 7 4 8 2 9 1 10
REMARK H PARENT
REMARK Flexibility Score: inf
ROOT
ATOM      1  C   UNL     1     142.486 137.740 133.153  1.00  0.00     0.039 C 
ENDROOT
BRANCH   1   2
ATOM      2  C   UNL     1     141.233 137.314 133.928  1.00  0.00     0.032 C 
BRANCH   2   3
ATOM      3  C   UNL     1     140.008 138.004 133.383  1.00  0.00    -0.028 C 
ATOM      4  C   UNL     1     139.211 138.725 135.646  1.00  0.00     0.039 C 
ATOM      5  C   UNL     1     139.103 138.664 134.140  1.00  0.00    -0.080 C 
ATOM      6  C   UNL     1     137.948 139.341 133.450  1.00  0.00     0.039 C 
ENDBRANCH   2   3
ENDBRANCH   1   2
BRANCH   1   7
ATOM      7  C   UNL     1     143.256 138.795 133.917  1.00  0.00    -0.055 C 
ATOM      8  C   UNL     1     143.176 138.818 135.252  1.00  0.00     0.012 C 
BRANCH   7   9
ATOM      9  C   UNL     1     144.139 139.780 133.239  1.00  0.00    -0.005 C 
ATOM     10  C   UNL     1     144.837 140.719 133.878  1.00  0.00     0.009 C 
ENDBRANCH   7   9
ENDBRANCH   1   7
TORSDOF 4
ENDMDL
MODEL 3
REMARK VINA RESULT:    -3.794      2.695      4.830
REMARK INTER + INTRA:          -5.297
REMARK INTER:                  -4.892
REMARK INTRA:                  -0.405
REMARK UNBOUND:                -0.616
REMARK SMILES C=CC(=C)CCC=C(C)C
REMARK SMILES IDX 5 1 6 2 7 3 9 4 8 5 10 6 3 7 4 8 2 9 1 10
REMARK H PARENT
REMARK Flexibility Score: inf
ROOT
ATOM      1  C   UNL     1     139.636 144.406 132.923  1.00  0.00     0.039 C 
ENDROOT
BRANCH   1   2
ATOM      2  C   UNL     1     140.929 144.841 133.622  1.00  0.00     0.032 C 
BRANCH   2   3
ATOM      3  C   UNL     1     142.137 144.353 132.863  1.00  0.00    -0.028 C 
ATOM      4  C   UNL     1     143.160 143.265 134.874  1.00  0.00     0.039 C 
ATOM      5  C   UNL     1     143.136 143.621 133.407  1.00  0.00    -0.080 C 
ATOM      6  C   UNL     1     144.261 143.169 132.514  1.00  0.00     0.039 C 
ENDBRANCH   2   3
ENDBRANCH   1   2
BRANCH   1   7
ATOM      7  C   UNL     1     138.883 143.398 133.764  1.00  0.00    -0.055 C 
ATOM      8  C   UNL     1     138.990 143.456 135.096  1.00  0.00     0.012 C 
BRANCH   7   9
ATOM      9  C   UNL     1     137.990 142.373 133.164  1.00  0.00    -0.005 C 
ATOM     10  C   UNL     1     137.273 141.501 133.874  1.00  0.00     0.009 C 
ENDBRANCH   7   9
ENDBRANCH   1   7
TORSDOF 4
ENDMDL
MODEL 4
REMARK VINA RESULT:    -3.786      1.199      2.155
REMARK INTER + INTRA:          -5.287
REMARK INTER:                  -4.818
REMARK INTRA:                  -0.469
REMARK UNBOUND:                -0.616
REMARK SMILES C=CC(=C)CCC=C(C)C
REMARK SMILES IDX 5 1 6 2 7 3 9 4 8 5 10 6 3 7 4 8 2 9 1 10
REMARK H PARENT
REMARK Flexibility Score: inf
ROOT
ATOM      1  C   UNL     1     137.715 139.911 132.768  1.00  0.00     0.039 C 
ENDROOT
BRANCH   1   2
ATOM      2  C   UNL     1     137.259 141.169 133.516  1.00  0.00     0.032 C 
BRANCH   2   3
ATOM      3  C   UNL     1     138.064 142.369 133.084  1.00  0.00    -0.028 C 
ATOM      4  C   UNL     1     138.736 142.962 135.422  1.00  0.00     0.039 C 
ATOM      5  C   UNL     1     138.754 143.169 133.926  1.00  0.00    -0.080 C 
ATOM      6  C   UNL     1     139.548 144.310 133.344  1.00  0.00     0.039 C 
ENDBRANCH   2   3
ENDBRANCH   1   2
BRANCH   1   7
ATOM      7  C   UNL     1     138.632 139.074 133.634  1.00  0.00    -0.055 C 
ATOM      8  C   UNL     1     138.541 139.178 134.964  1.00  0.00     0.012 C 
BRANCH   7   9
ATOM      9  C   UNL     1     139.599 138.104 133.059  1.00  0.00    -0.005 C 
ATOM     10  C   UNL     1     140.532 137.469 133.771  1.00  0.00     0.009 C 
ENDBRANCH   7   9
ENDBRANCH   1   7
TORSDOF 4
ENDMDL
MODEL 5
REMARK VINA RESULT:    -3.781      3.083      5.074
REMARK INTER + INTRA:          -5.281
REMARK INTER:                  -4.659
REMARK INTRA:                  -0.622
REMARK UNBOUND:                -0.616
REMARK SMILES C=CC(=C)CCC=C(C)C
REMARK SMILES IDX 5 1 6 2 7 3 9 4 8 5 10 6 3 7 4 8 2 9 1 10
REMARK H PARENT
REMARK Flexibility Score: inf
ROOT
ATOM      1  C   UNL     1     142.269 137.976 134.428  1.00  0.00     0.039 C 
ENDROOT
BRANCH   1   2
ATOM      2  C   UNL     1     141.054 137.202 133.905  1.00  0.00     0.032 C 
BRANCH   2   3
ATOM      3  C   UNL     1     139.811 138.055 133.964  1.00  0.00    -0.028 C 
ATOM      4  C   UNL     1     139.663 138.292 131.475  1.00  0.00     0.039 C 
ATOM      5  C   UNL     1     139.160 138.531 132.879  1.00  0.00    -0.080 C 
ATOM      6  C   UNL     1     137.906 139.338 133.092  1.00  0.00     0.039 C 
ENDBRANCH   2   3
ENDBRANCH   1   2
BRANCH   1   7
ATOM      7  C   UNL     1     143.151 138.427 133.284  1.00  0.00    -0.055 C 
ATOM      8  C   UNL     1     143.883 139.538 133.428  1.00  0.00     0.012 C 
BRANCH   7   9
ATOM      9  C   UNL     1     143.270 137.654 132.020  1.00  0.00    -0.005 C 
ATOM     10  C   UNL     1     143.907 138.093 130.934  1.00  0.00     0.009 C 
ENDBRANCH   7   9
ENDBRANCH   1   7
TORSDOF 4
ENDMDL
MODEL 6
REMARK VINA RESULT:    -3.772      4.666      7.021
REMARK INTER + INTRA:          -5.269
REMARK INTER:                  -4.780
REMARK INTRA:                  -0.489
REMARK UNBOUND:                -0.616
REMARK SMILES C=CC(=C)CCC=C(C)C
REMARK SMILES IDX 5 1 6 2 7 3 9 4 8 5 10 6 3 7 4 8 2 9 1 10
REMARK H PARENT
REMARK Flexibility Score: inf
ROOT
ATOM      1  C   UNL     1     144.033 142.650 133.554  1.00  0.00     0.039 C 
ENDROOT
BRANCH   1   2
ATOM      2  C   UNL     1     144.754 141.369 133.992  1.00  0.00     0.032 C 
BRANCH   2   3
ATOM      3  C   UNL     1     144.165 140.163 133.304  1.00  0.00    -0.028 C 
ATOM      4  C   UNL     1     143.463 139.082 135.452  1.00  0.00     0.039 C 
ATOM      5  C   UNL     1     143.559 139.139 133.945  1.00  0.00    -0.080 C 
ATOM      6  C   UNL     1     142.981 138.018 133.122  1.00  0.00     0.039 C 
ENDBRANCH   2   3
ENDBRANCH   1   2
BRANCH   1   7
ATOM      7  C   UNL     1     143.220 143.225 134.694  1.00  0.00    -0.055 C 
ATOM      8  C   UNL     1     143.483 142.826 135.943  1.00  0.00     0.012 C 
BRANCH   7   9
ATOM      9  C   UNL     1     142.171 144.255 134.480  1.00  0.00    -0.005 C 
ATOM     10  C   UNL     1     141.822 144.727 133.282  1.00  0.00     0.009 C 
ENDBRANCH   7   9
ENDBRANCH   1   7
TORSDOF 4
ENDMDL
MODEL 7
REMARK VINA RESULT:    -3.768      4.006      6.106
REMARK INTER + INTRA:          -5.264
REMARK INTER:                  -4.774
REMARK INTRA:                  -0.490
REMARK UNBOUND:                -0.616
REMARK SMILES C=CC(=C)CCC=C(C)C
REMARK SMILES IDX 5 1 6 2 7 3 9 4 8 5 10 6 3 7 4 8 2 9 1 10
REMARK H PARENT
REMARK Flexibility Score: inf
ROOT
ATOM      1  C   UNL     1     141.667 143.562 135.506  1.00  0.00     0.039 C 
ENDROOT
BRANCH   1   2
ATOM      2  C   UNL     1     143.165 143.684 135.200  1.00  0.00     0.032 C 
BRANCH   2   3
ATOM      3  C   UNL     1     143.750 142.338 134.852  1.00  0.00    -0.028 C 
ATOM      4  C   UNL     1     144.350 143.022 132.519  1.00  0.00     0.039 C 
ATOM      5  C   UNL     1     144.309 142.034 133.660  1.00  0.00    -0.080 C 
ATOM      6  C   UNL     1     144.891 140.657 133.471  1.00  0.00     0.039 C 
ENDBRANCH   2   3
ENDBRANCH   1   2
BRANCH   1   7
ATOM      7  C   UNL     1     140.841 144.203 134.412  1.00  0.00    -0.055 C 
ATOM      8  C   UNL     1     141.433 145.055 133.567  1.00  0.00     0.012 C 
BRANCH   7   9
ATOM      9  C   UNL     1     139.404 143.884 134.212  1.00  0.00    -0.005 C 
ATOM     10  C   UNL     1     138.699 143.086 135.014  1.00  0.00     0.009 C 
ENDBRANCH   7   9
ENDBRANCH   1   7
TORSDOF 4
ENDMDL
MODEL 8
REMARK VINA RESULT:    -3.741      4.635      7.032
REMARK INTER + INTRA:          -5.231
REMARK INTER:                  -4.685
REMARK INTRA:                  -0.546
REMARK UNBOUND:                -0.616
REMARK SMILES C=CC(=C)CCC=C(C)C
REMARK SMILES IDX 5 1 6 2 7 3 9 4 8 5 10 6 3 7 4 8 2 9 1 10
REMARK H PARENT
REMARK Flexibility Score: inf
ROOT
ATOM      1  C   UNL     1     144.337 142.352 133.994  1.00  0.00     0.039 C 
ENDROOT
BRANCH   1   2
ATOM      2  C   UNL     1     144.997 140.995 133.722  1.00  0.00     0.032 C 
BRANCH   2   3
ATOM      3  C   UNL     1     144.029 139.868 133.982  1.00  0.00    -0.028 C 
ATOM      4  C   UNL     1     143.948 139.169 131.578  1.00  0.00     0.039 C 
ATOM      5  C   UNL     1     143.568 139.023 133.033  1.00  0.00    -0.080 C 
ATOM      6  C   UNL     1     142.634 137.917 133.449  1.00  0.00     0.039 C 
ENDBRANCH   2   3
ENDBRANCH   1   2
BRANCH   1   7
ATOM      7  C   UNL     1     143.972 143.040 132.696  1.00  0.00    -0.055 C 
ATOM      8  C   UNL     1     144.734 142.835 131.616  1.00  0.00     0.012 C 
BRANCH   7   9
ATOM      9  C   UNL     1     142.768 143.902 132.566  1.00  0.00    -0.005 C 
ATOM     10  C   UNL     1     142.104 144.416 133.602  1.00  0.00     0.009 C 
ENDBRANCH   7   9
ENDBRANCH   1   7
TORSDOF 4
ENDMDL
MODEL 9
REMARK VINA RESULT:    -3.721      4.595      6.733
REMARK INTER + INTRA:          -5.207
REMARK INTER:                  -4.739
REMARK INTRA:                  -0.468
REMARK UNBOUND:                -0.616
REMARK SMILES C=CC(=C)CCC=C(C)C
REMARK SMILES IDX 5 1 6 2 7 3 9 4 8 5 10 6 3 7 4 8 2 9 1 10
REMARK H PARENT
REMARK Flexibility Score: inf
ROOT
ATOM      1  C   UNL     1     143.469 140.736 135.138  1.00  0.00     0.039 C 
ENDROOT
BRANCH   1   2
ATOM      2  C   UNL     1     143.687 139.218 135.128  1.00  0.00     0.032 C 
BRANCH   2   3
ATOM      3  C   UNL     1     142.396 138.495 134.840  1.00  0.00    -0.028 C 
ATOM      4  C   UNL     1     143.063 137.901 132.500  1.00  0.00     0.039 C 
ATOM      5  C   UNL     1     142.111 137.876 133.673  1.00  0.00    -0.080 C 
ATOM      6  C   UNL     1     140.793 137.157 133.544  1.00  0.00     0.039 C 
ENDBRANCH   2   3
ENDBRANCH   1   2
BRANCH   1   7
ATOM      7  C   UNL     1     144.212 141.392 133.994  1.00  0.00    -0.055 C 
ATOM      8  C   UNL     1     145.167 140.703 133.360  1.00  0.00     0.012 C 
BRANCH   7   9
ATOM      9  C   UNL     1     143.885 142.761 133.517  1.00  0.00    -0.005 C 
ATOM     10  C   UNL     1     144.315 143.271 132.362  1.00  0.00     0.009 C 
ENDBRANCH   7   9
ENDBRANCH   1   7
TORSDOF 4
ENDMDL
