MODEL 1
REMARK VINA RESULT:    -3.980      0.000      0.000
REMARK INTER + INTRA:          -5.064
REMARK INTER:                  -4.795
REMARK INTRA:                  -0.269
REMARK UNBOUND:                -0.269
REMARK SMILES O=c1ccn([C@@H]2O[C@@H](CO)[C@@H](O)[C@@H]2O)c(=O)[nH]1
REMARK SMILES IDX 6 1 13 2 11 3 8 4 7 5 5 6 3 7 4 8 2 9 17 10 1 11 15 12 16 14
REMARK SMILES IDX 14 15 12 17 9 19 10 20
REMARK H PARENT 17 13 14 16 12 18 10 21
REMARK Flexibility Score: inf
ROOT
ATOM      1  C   UNL     1     176.958 160.650 170.604  1.00  0.00     0.255 C 
ATOM      2  C   UNL     1     176.025 161.724 171.167  1.00  0.00     0.196 C 
ATOM      3  C   UNL     1     175.846 161.271 172.594  1.00  0.00     0.179 C 
ATOM      4  C   UNL     1     175.976 159.753 172.457  1.00  0.00     0.178 C 
ATOM      5  O   UNL     1     176.825 159.465 171.367  1.00  0.00    -0.347 OA
ENDROOT
BRANCH   1   6
ATOM      6  N   UNL     1     176.709 160.395 169.168  1.00  0.00    -0.271 N 
ATOM      7  C   UNL     1     175.599 159.154 167.440  1.00  0.00     0.090 A 
ATOM      8  C   UNL     1     175.864 159.387 168.787  1.00  0.00     0.099 A 
ATOM      9  C   UNL     1     176.199 159.974 166.491  1.00  0.00     0.253 A 
ATOM     10  N   UNL     1     177.018 160.982 166.890  1.00  0.00    -0.274 N 
ATOM     11  O   UNL     1     175.979 159.785 165.265  1.00  0.00    -0.269 OA
ATOM     12  C   UNL     1     177.270 161.203 168.210  1.00  0.00     0.330 A 
ATOM     13  H   UNL     1     177.458 161.601 166.171  1.00  0.00     0.175 HD
ATOM     14  O   UNL     1     178.021 162.163 168.539  1.00  0.00    -0.248 OA
ENDBRANCH   1   6
BRANCH   2  15
ATOM     15  O   UNL     1     174.788 161.718 170.500  1.00  0.00    -0.386 OA
ATOM     16  H   UNL     1     174.586 162.661 170.268  1.00  0.00     0.211 HD
ENDBRANCH   2  15
BRANCH   3  17
ATOM     17  O   UNL     1     176.874 161.797 173.397  1.00  0.00    -0.387 OA
ATOM     18  H   UNL     1     177.729 161.536 172.966  1.00  0.00     0.211 HD
ENDBRANCH   3  17
BRANCH   4  19
ATOM     19  C   UNL     1     176.490 159.066 173.731  1.00  0.00     0.191 C 
BRANCH  19  20
ATOM     20  O   UNL     1     177.878 158.876 173.655  1.00  0.00    -0.394 OA
ATOM     21  H   UNL     1     178.146 159.097 172.725  1.00  0.00     0.210 HD
ENDBRANCH  19  20
ENDBRANCH   4  19
TORSDOF 5
ENDMDL
MODEL 2
REMARK VINA RESULT:    -3.954     22.496     24.156
REMARK INTER + INTRA:          -5.032
REMARK INTER:                  -4.763
REMARK INTRA:                  -0.269
REMARK UNBOUND:                -0.269
REMARK SMILES O=c1ccn([C@@H]2O[C@@H](CO)[C@@H](O)[C@@H]2O)c(=O)[nH]1
REMARK SMILES IDX 6 1 13 2 11 3 8 4 7 5 5 6 3 7 4 8 2 9 17 10 1 11 15 12 16 14
REMARK SMILES IDX 14 15 12 17 9 19 10 20
REMARK H PARENT 17 13 14 16 12 18 10 21
REMARK Flexibility Score: inf
ROOT
ATOM      1  C   UNL     1     160.418 177.470 165.856  1.00  0.00     0.255 C 
ATOM      2  C   UNL     1     161.493 176.524 165.317  1.00  0.00     0.196 C 
ATOM      3  C   UNL     1     161.059 176.333 163.887  1.00  0.00     0.179 C 
ATOM      4  C   UNL     1     159.541 176.474 164.001  1.00  0.00     0.178 C 
ATOM      5  O   UNL     1     159.243 177.336 165.078  1.00  0.00    -0.347 OA
ENDROOT
BRANCH   1   6
ATOM      6  N   UNL     1     160.141 177.237 167.290  1.00  0.00    -0.271 N 
ATOM      7  C   UNL     1     158.943 176.074 169.014  1.00  0.00     0.090 A 
ATOM      8  C   UNL     1     159.194 176.323 167.667  1.00  0.00     0.099 A 
ATOM      9  C   UNL     1     159.683 176.762 169.968  1.00  0.00     0.253 A 
ATOM     10  N   UNL     1     160.634 177.650 169.575  1.00  0.00    -0.274 N 
ATOM     11  O   UNL     1     159.477 176.558 171.194  1.00  0.00    -0.269 OA
ATOM     12  C   UNL     1     160.874 177.885 168.255  1.00  0.00     0.330 A 
ATOM     13  H   UNL     1     161.195 178.156 170.299  1.00  0.00     0.175 HD
ATOM     14  O   UNL     1     161.779 178.703 167.932  1.00  0.00    -0.248 OA
ENDBRANCH   1   6
BRANCH   2  15
ATOM     15  O   UNL     1     161.469 175.293 165.997  1.00  0.00    -0.386 OA
ATOM     16  H   UNL     1     162.224 174.757 165.640  1.00  0.00     0.211 HD
ENDBRANCH   2  15
BRANCH   3  17
ATOM     17  O   UNL     1     161.604 177.349 163.081  1.00  0.00    -0.387 OA
ATOM     18  H   UNL     1     162.575 177.158 163.005  1.00  0.00     0.211 HD
ENDBRANCH   3  17
BRANCH   4  19
ATOM     19  C   UNL     1     158.875 176.980 162.713  1.00  0.00     0.191 C 
BRANCH  19  20
ATOM     20  O   UNL     1     158.885 178.382 162.677  1.00  0.00    -0.394 OA
ATOM     21  H   UNL     1     158.431 178.692 163.504  1.00  0.00     0.210 HD
ENDBRANCH  19  20
ENDBRANCH   4  19
TORSDOF 5
ENDMDL
MODEL 3
REMARK VINA RESULT:    -3.940     15.524     16.371
REMARK INTER + INTRA:          -5.015
REMARK INTER:                  -4.725
REMARK INTRA:                  -0.290
REMARK UNBOUND:                -0.269
REMARK SMILES O=c1ccn([C@@H]2O[C@@H](CO)[C@@H](O)[C@@H]2O)c(=O)[nH]1
REMARK SMILES IDX 6 1 13 2 11 3 8 4 7 5 5 6 3 7 4 8 2 9 17 10 1 11 15 12 16 14
REMARK SMILES IDX 14 15 12 17 9 19 10 20
REMARK H PARENT 17 13 14 16 12 18 10 21
REMARK Flexibility Score: inf
ROOT
ATOM      1  C   UNL     1     176.560 177.147 170.687  1.00  0.00     0.255 C 
ATOM      2  C   UNL     1     175.460 176.227 171.218  1.00  0.00     0.196 C 
ATOM      3  C   UNL     1     175.911 175.979 172.635  1.00  0.00     0.179 C 
ATOM      4  C   UNL     1     177.431 176.067 172.497  1.00  0.00     0.178 C 
ATOM      5  O   UNL     1     177.742 176.948 171.439  1.00  0.00    -0.347 OA
ENDROOT
BRANCH   1   6
ATOM      6  N   UNL     1     176.803 176.945 169.241  1.00  0.00    -0.271 N 
ATOM      7  C   UNL     1     177.974 175.832 167.467  1.00  0.00     0.090 A 
ATOM      8  C   UNL     1     177.754 176.053 168.823  1.00  0.00     0.099 A 
ATOM      9  C   UNL     1     177.199 176.526 166.544  1.00  0.00     0.253 A 
ATOM     10  N   UNL     1     176.246 177.392 166.979  1.00  0.00    -0.274 N 
ATOM     11  O   UNL     1     177.377 176.349 165.310  1.00  0.00    -0.269 OA
ATOM     12  C   UNL     1     176.037 177.600 168.308  1.00  0.00     0.330 A 
ATOM     13  H   UNL     1     175.659 177.903 166.279  1.00  0.00     0.175 HD
ATOM     14  O   UNL     1     175.128 178.397 168.670  1.00  0.00    -0.248 OA
ENDBRANCH   1   6
BRANCH   2  15
ATOM     15  O   UNL     1     175.426 175.016 170.504  1.00  0.00    -0.386 OA
ATOM     16  H   UNL     1     174.609 174.536 170.798  1.00  0.00     0.211 HD
ENDBRANCH   2  15
BRANCH   3  17
ATOM     17  O   UNL     1     175.419 176.991 173.479  1.00  0.00    -0.387 OA
ATOM     18  H   UNL     1     175.632 177.854 173.037  1.00  0.00     0.211 HD
ENDBRANCH   3  17
BRANCH   4  19
ATOM     19  C   UNL     1     178.137 176.511 173.787  1.00  0.00     0.191 C 
BRANCH  19  20
ATOM     20  O   UNL     1     178.201 177.911 173.850  1.00  0.00    -0.394 OA
ATOM     21  H   UNL     1     177.603 178.256 173.137  1.00  0.00     0.210 HD
ENDBRANCH  19  20
ENDBRANCH   4  19
TORSDOF 5
ENDMDL
MODEL 4
REMARK VINA RESULT:    -3.788     15.368     17.011
REMARK INTER + INTRA:          -4.832
REMARK INTER:                  -4.536
REMARK INTRA:                  -0.296
REMARK UNBOUND:                -0.269
REMARK SMILES O=c1ccn([C@@H]2O[C@@H](CO)[C@@H](O)[C@@H]2O)c(=O)[nH]1
REMARK SMILES IDX 6 1 13 2 11 3 8 4 7 5 5 6 3 7 4 8 2 9 17 10 1 11 15 12 16 14
REMARK SMILES IDX 14 15 12 17 9 19 10 20
REMARK H PARENT 17 13 14 16 12 18 10 21
REMARK Flexibility Score: inf
ROOT
ATOM      1  C   UNL     1     160.193 160.708 166.763  1.00  0.00     0.255 C 
ATOM      2  C   UNL     1     161.297 161.624 166.234  1.00  0.00     0.196 C 
ATOM      3  C   UNL     1     161.545 161.060 164.859  1.00  0.00     0.179 C 
ATOM      4  C   UNL     1     161.217 159.580 165.066  1.00  0.00     0.178 C 
ATOM      5  O   UNL     1     160.246 159.467 166.084  1.00  0.00    -0.347 OA
ENDROOT
BRANCH   1   6
ATOM      6  N   UNL     1     160.281 160.521 168.228  1.00  0.00    -0.271 N 
ATOM      7  C   UNL     1     161.075 159.277 170.121  1.00  0.00     0.090 A 
ATOM      8  C   UNL     1     160.960 159.450 168.745  1.00  0.00     0.099 A 
ATOM      9  C   UNL     1     160.497 160.222 170.962  1.00  0.00     0.253 A 
ATOM     10  N   UNL     1     159.844 161.289 170.431  1.00  0.00    -0.274 N 
ATOM     11  O   UNL     1     160.582 160.091 172.211  1.00  0.00    -0.269 OA
ATOM     12  C   UNL     1     159.739 161.450 169.083  1.00  0.00     0.330 A 
ATOM     13  H   UNL     1     159.420 162.002 171.069  1.00  0.00     0.175 HD
ATOM     14  O   UNL     1     159.142 162.466 168.630  1.00  0.00    -0.248 OA
ENDBRANCH   1   6
BRANCH   2  15
ATOM     15  O   UNL     1     162.460 161.517 167.016  1.00  0.00    -0.386 OA
ATOM     16  H   UNL     1     162.248 160.891 167.756  1.00  0.00     0.211 HD
ENDBRANCH   2  15
BRANCH   3  17
ATOM     17  O   UNL     1     160.665 161.649 163.933  1.00  0.00    -0.387 OA
ATOM     18  H   UNL     1     160.259 160.904 163.416  1.00  0.00     0.211 HD
ENDBRANCH   3  17
BRANCH   4  19
ATOM     19  C   UNL     1     160.737 158.875 163.789  1.00  0.00     0.191 C 
BRANCH  19  20
ATOM     20  O   UNL     1     159.352 159.037 163.635  1.00  0.00    -0.394 OA
ATOM     21  H   UNL     1     158.970 158.129 163.517  1.00  0.00     0.210 HD
ENDBRANCH  19  20
ENDBRANCH   4  19
TORSDOF 5
ENDMDL
MODEL 5
REMARK VINA RESULT:    -3.780     15.545     17.426
REMARK INTER + INTRA:          -4.822
REMARK INTER:                  -4.551
REMARK INTRA:                  -0.271
REMARK UNBOUND:                -0.269
REMARK SMILES O=c1ccn([C@@H]2O[C@@H](CO)[C@@H](O)[C@@H]2O)c(=O)[nH]1
REMARK SMILES IDX 6 1 13 2 11 3 8 4 7 5 5 6 3 7 4 8 2 9 17 10 1 11 15 12 16 14
REMARK SMILES IDX 14 15 12 17 9 19 10 20
REMARK H PARENT 17 13 14 16 12 18 10 21
REMARK Flexibility Score: inf
ROOT
ATOM      1  C   UNL     1     177.533 176.416 166.091  1.00  0.00     0.255 C 
ATOM      2  C   UNL     1     176.725 175.277 165.468  1.00  0.00     0.196 C 
ATOM      3  C   UNL     1     176.611 175.719 164.031  1.00  0.00     0.179 C 
ATOM      4  C   UNL     1     176.617 177.241 164.172  1.00  0.00     0.178 C 
ATOM      5  O   UNL     1     177.365 177.589 165.318  1.00  0.00    -0.347 OA
ENDROOT
BRANCH   1   6
ATOM      6  N   UNL     1     177.167 176.648 167.506  1.00  0.00    -0.271 N 
ATOM      7  C   UNL     1     175.779 177.720 169.144  1.00  0.00     0.090 A 
ATOM      8  C   UNL     1     176.153 177.513 167.819  1.00  0.00     0.099 A 
ATOM      9  C   UNL     1     176.447 177.019 170.142  1.00  0.00     0.253 A 
ATOM     10  N   UNL     1     177.436 176.149 169.810  1.00  0.00    -0.274 N 
ATOM     11  O   UNL     1     176.131 177.187 171.350  1.00  0.00    -0.269 OA
ATOM     12  C   UNL     1     177.793 175.952 168.511  1.00  0.00     0.330 A 
ATOM     13  H   UNL     1     177.927 175.617 170.565  1.00  0.00     0.175 HD
ATOM     14  O   UNL     1     178.704 175.120 168.243  1.00  0.00    -0.248 OA
ENDBRANCH   1   6
BRANCH   2  15
ATOM     15  O   UNL     1     175.447 175.189 166.048  1.00  0.00    -0.386 OA
ATOM     16  H   UNL     1     175.513 175.606 166.945  1.00  0.00     0.211 HD
ENDBRANCH   2  15
BRANCH   3  17
ATOM     17  O   UNL     1     177.728 175.273 163.302  1.00  0.00    -0.387 OA
ATOM     18  H   UNL     1     177.390 174.987 162.414  1.00  0.00     0.211 HD
ENDBRANCH   3  17
BRANCH   4  19
ATOM     19  C   UNL     1     177.165 177.968 162.936  1.00  0.00     0.191 C 
BRANCH  19  20
ATOM     20  O   UNL     1     178.567 177.998 162.970  1.00  0.00    -0.394 OA
ATOM     21  H   UNL     1     178.829 178.938 163.150  1.00  0.00     0.210 HD
ENDBRANCH  19  20
ENDBRANCH   4  19
TORSDOF 5
ENDMDL
MODEL 6
REMARK VINA RESULT:    -3.646      2.027      6.360
REMARK INTER + INTRA:          -4.661
REMARK INTER:                  -4.375
REMARK INTRA:                  -0.286
REMARK UNBOUND:                -0.269
REMARK SMILES O=c1ccn([C@@H]2O[C@@H](CO)[C@@H](O)[C@@H]2O)c(=O)[nH]1
REMARK SMILES IDX 6 1 13 2 11 3 8 4 7 5 5 6 3 7 4 8 2 9 17 10 1 11 15 12 16 14
REMARK SMILES IDX 14 15 12 17 9 19 10 20
REMARK H PARENT 17 13 14 16 12 18 10 21
REMARK Flexibility Score: inf
ROOT
ATOM      1  C   UNL     1     176.033 159.807 166.301  1.00  0.00     0.255 C 
ATOM      2  C   UNL     1     174.951 160.722 165.726  1.00  0.00     0.196 C 
ATOM      3  C   UNL     1     175.409 160.898 164.301  1.00  0.00     0.179 C 
ATOM      4  C   UNL     1     176.928 160.789 164.447  1.00  0.00     0.178 C 
ATOM      5  O   UNL     1     177.221 159.951 165.545  1.00  0.00    -0.347 OA
ENDROOT
BRANCH   1   6
ATOM      6  N   UNL     1     176.277 160.070 167.737  1.00  0.00    -0.271 N 
ATOM      7  C   UNL     1     177.549 161.141 169.467  1.00  0.00     0.090 A 
ATOM      8  C   UNL     1     177.325 160.863 168.122  1.00  0.00     0.099 A 
ATOM      9  C   UNL     1     176.679 160.609 170.412  1.00  0.00     0.253 A 
ATOM     10  N   UNL     1     175.632 159.841 170.009  1.00  0.00    -0.274 N 
ATOM     11  O   UNL     1     176.858 160.842 171.636  1.00  0.00    -0.269 OA
ATOM     12  C   UNL     1     175.420 159.576 168.690  1.00  0.00     0.330 A 
ATOM     13  H   UNL     1     174.975 159.452 170.725  1.00  0.00     0.175 HD
ATOM     14  O   UNL     1     174.425 158.875 168.357  1.00  0.00    -0.248 OA
ENDBRANCH   1   6
BRANCH   2  15
ATOM     15  O   UNL     1     174.936 161.964 166.384  1.00  0.00    -0.386 OA
ATOM     16  H   UNL     1     174.129 162.445 166.066  1.00  0.00     0.211 HD
ENDBRANCH   2  15
BRANCH   3  17
ATOM     17  O   UNL     1     174.901 159.857 163.502  1.00  0.00    -0.387 OA
ATOM     18  H   UNL     1     174.236 160.270 162.891  1.00  0.00     0.211 HD
ENDBRANCH   3  17
BRANCH   4  19
ATOM     19  C   UNL     1     177.629 160.275 163.181  1.00  0.00     0.191 C 
BRANCH  19  20
ATOM     20  O   UNL     1     177.712 158.875 163.205  1.00  0.00    -0.394 OA
ATOM     21  H   UNL     1     178.343 158.639 163.934  1.00  0.00     0.210 HD
ENDBRANCH  19  20
ENDBRANCH   4  19
TORSDOF 5
ENDMDL
MODEL 7
REMARK VINA RESULT:    -3.477     21.211     22.448
REMARK INTER + INTRA:          -4.457
REMARK INTER:                  -4.202
REMARK INTRA:                  -0.256
REMARK UNBOUND:                -0.269
REMARK SMILES O=c1ccn([C@@H]2O[C@@H](CO)[C@@H](O)[C@@H]2O)c(=O)[nH]1
REMARK SMILES IDX 6 1 13 2 11 3 8 4 7 5 5 6 3 7 4 8 2 9 17 10 1 11 15 12 16 14
REMARK SMILES IDX 14 15 12 17 9 19 10 20
REMARK H PARENT 17 13 14 16 12 18 10 21
REMARK Flexibility Score: inf
ROOT
ATOM      1  C   UNL     1     160.841 175.732 170.723  1.00  0.00     0.255 C 
ATOM      2  C   UNL     1     162.236 176.354 170.806  1.00  0.00     0.196 C 
ATOM      3  C   UNL     1     162.248 176.922 172.202  1.00  0.00     0.179 C 
ATOM      4  C   UNL     1     160.772 177.266 172.410  1.00  0.00     0.178 C 
ATOM      5  O   UNL     1     159.985 176.374 171.650  1.00  0.00    -0.347 OA
ENDROOT
BRANCH   1   6
ATOM      6  N   UNL     1     160.288 175.789 169.352  1.00  0.00    -0.271 N 
ATOM      7  C   UNL     1     159.007 176.930 167.674  1.00  0.00     0.090 A 
ATOM      8  C   UNL     1     159.511 176.849 168.969  1.00  0.00     0.099 A 
ATOM      9  C   UNL     1     159.319 175.918 166.773  1.00  0.00     0.253 A 
ATOM     10  N   UNL     1     160.108 174.884 167.166  1.00  0.00    -0.274 N 
ATOM     11  O   UNL     1     158.875 175.963 165.596  1.00  0.00    -0.269 OA
ATOM     12  C   UNL     1     160.599 174.815 168.435  1.00  0.00     0.330 A 
ATOM     13  H   UNL     1     160.348 174.131 166.480  1.00  0.00     0.175 HD
ATOM     14  O   UNL     1     161.345 173.848 168.754  1.00  0.00    -0.248 OA
ENDBRANCH   1   6
BRANCH   2  15
ATOM     15  O   UNL     1     162.385 177.387 169.863  1.00  0.00    -0.386 OA
ATOM     16  H   UNL     1     162.898 178.108 170.312  1.00  0.00     0.211 HD
ENDBRANCH   2  15
BRANCH   3  17
ATOM     17  O   UNL     1     162.673 175.941 173.115  1.00  0.00    -0.387 OA
ATOM     18  H   UNL     1     163.514 176.279 173.521  1.00  0.00     0.211 HD
ENDBRANCH   3  17
BRANCH   4  19
ATOM     19  C   UNL     1     160.339 177.237 173.883  1.00  0.00     0.191 C 
BRANCH  19  20
ATOM     20  O   UNL     1     159.725 176.013 174.186  1.00  0.00    -0.394 OA
ATOM     21  H   UNL     1     160.005 175.773 175.107  1.00  0.00     0.210 HD
ENDBRANCH  19  20
ENDBRANCH   4  19
TORSDOF 5
ENDMDL
MODEL 8
REMARK VINA RESULT:    -3.341     21.370     23.131
REMARK INTER + INTRA:          -4.293
REMARK INTER:                  -4.012
REMARK INTRA:                  -0.281
REMARK UNBOUND:                -0.269
REMARK SMILES O=c1ccn([C@@H]2O[C@@H](CO)[C@@H](O)[C@@H]2O)c(=O)[nH]1
REMARK SMILES IDX 6 1 13 2 11 3 8 4 7 5 5 6 3 7 4 8 2 9 17 10 1 11 15 12 16 14
REMARK SMILES IDX 14 15 12 17 9 19 10 20
REMARK H PARENT 17 13 14 16 12 18 10 21
REMARK Flexibility Score: inf
ROOT
ATOM      1  C   UNL     1     161.038 176.383 168.228  1.00  0.00     0.255 C 
ATOM      2  C   UNL     1     160.817 174.887 167.999  1.00  0.00     0.196 C 
ATOM      3  C   UNL     1     160.016 174.877 166.722  1.00  0.00     0.179 C 
ATOM      4  C   UNL     1     159.249 176.196 166.825  1.00  0.00     0.178 C 
ATOM      5  O   UNL     1     160.021 177.114 167.570  1.00  0.00    -0.347 OA
ENDROOT
BRANCH   1   6
ATOM      6  N   UNL     1     161.096 176.722 169.668  1.00  0.00    -0.271 N 
ATOM      7  C   UNL     1     159.988 177.351 171.701  1.00  0.00     0.090 A 
ATOM      8  C   UNL     1     159.952 177.057 170.341  1.00  0.00     0.099 A 
ATOM      9  C   UNL     1     161.208 177.283 172.365  1.00  0.00     0.253 A 
ATOM     10  N   UNL     1     162.329 176.929 171.684  1.00  0.00    -0.274 N 
ATOM     11  O   UNL     1     161.272 177.545 173.596  1.00  0.00    -0.269 OA
ATOM     12  C   UNL     1     162.283 176.641 170.354  1.00  0.00     0.330 A 
ATOM     13  H   UNL     1     163.242 176.870 172.193  1.00  0.00     0.175 HD
ATOM     14  O   UNL     1     163.344 176.296 169.763  1.00  0.00    -0.248 OA
ENDBRANCH   1   6
BRANCH   2  15
ATOM     15  O   UNL     1     160.065 174.322 169.044  1.00  0.00    -0.386 OA
ATOM     16  H   UNL     1     160.533 174.553 169.887  1.00  0.00     0.211 HD
ENDBRANCH   2  15
BRANCH   3  17
ATOM     17  O   UNL     1     160.882 174.880 165.613  1.00  0.00    -0.387 OA
ATOM     18  H   UNL     1     161.799 174.751 165.971  1.00  0.00     0.211 HD
ENDBRANCH   3  17
BRANCH   4  19
ATOM     19  C   UNL     1     158.875 176.795 165.462  1.00  0.00     0.191 C 
BRANCH  19  20
ATOM     20  O   UNL     1     159.930 177.576 164.967  1.00  0.00    -0.394 OA
ATOM     21  H   UNL     1     159.555 178.475 164.776  1.00  0.00     0.210 HD
ENDBRANCH  19  20
ENDBRANCH   4  19
TORSDOF 5
ENDMDL
MODEL 9
REMARK VINA RESULT:    -3.328     14.689     15.461
REMARK INTER + INTRA:          -4.278
REMARK INTER:                  -4.025
REMARK INTRA:                  -0.253
REMARK UNBOUND:                -0.269
REMARK SMILES O=c1ccn([C@@H]2O[C@@H](CO)[C@@H](O)[C@@H]2O)c(=O)[nH]1
REMARK SMILES IDX 6 1 13 2 11 3 8 4 7 5 5 6 3 7 4 8 2 9 17 10 1 11 15 12 16 14
REMARK SMILES IDX 14 15 12 17 9 19 10 20
REMARK H PARENT 17 13 14 16 12 18 10 21
REMARK Flexibility Score: inf
ROOT
ATOM      1  C   UNL     1     161.522 161.085 170.861  1.00  0.00     0.255 C 
ATOM      2  C   UNL     1     160.773 162.377 171.191  1.00  0.00     0.196 C 
ATOM      3  C   UNL     1     160.447 162.191 172.651  1.00  0.00     0.179 C 
ATOM      4  C   UNL     1     160.306 160.671 172.747  1.00  0.00     0.178 C 
ATOM      5  O   UNL     1     161.140 160.074 171.776  1.00  0.00    -0.347 OA
ENDROOT
BRANCH   1   6
ATOM      6  N   UNL     1     161.298 160.655 169.463  1.00  0.00    -0.271 N 
ATOM      7  C   UNL     1     160.090 159.339 167.861  1.00  0.00     0.090 A 
ATOM      8  C   UNL     1     160.329 159.732 169.175  1.00  0.00     0.099 A 
ATOM      9  C   UNL     1     160.845 159.914 166.846  1.00  0.00     0.253 A 
ATOM     10  N   UNL     1     161.789 160.843 167.149  1.00  0.00    -0.274 N 
ATOM     11  O   UNL     1     160.652 159.576 165.648  1.00  0.00    -0.269 OA
ATOM     12  C   UNL     1     162.014 161.222 168.437  1.00  0.00     0.330 A 
ATOM     13  H   UNL     1     162.347 161.279 166.379  1.00  0.00     0.175 HD
ATOM     14  O   UNL     1     162.886 162.104 168.675  1.00  0.00    -0.248 OA
ENDBRANCH   1   6
BRANCH   2  15
ATOM     15  O   UNL     1     159.588 162.480 170.442  1.00  0.00    -0.386 OA
ATOM     16  H   UNL     1     159.448 163.445 170.262  1.00  0.00     0.211 HD
ENDBRANCH   2  15
BRANCH   3  17
ATOM     17  O   UNL     1     161.514 162.652 173.443  1.00  0.00    -0.387 OA
ATOM     18  H   UNL     1     161.185 162.664 174.380  1.00  0.00     0.211 HD
ENDBRANCH   3  17
BRANCH   4  19
ATOM     19  C   UNL     1     160.627 160.113 174.141  1.00  0.00     0.191 C 
BRANCH  19  20
ATOM     20  O   UNL     1     161.938 159.616 174.177  1.00  0.00    -0.394 OA
ATOM     21  H   UNL     1     162.484 160.286 174.666  1.00  0.00     0.210 HD
ENDBRANCH  19  20
ENDBRANCH   4  19
TORSDOF 5
ENDMDL
