MODEL 1
REMARK VINA RESULT:    -5.476      0.000      0.000
REMARK INTER + INTRA:          -8.199
REMARK INTER:                  -7.716
REMARK INTRA:                  -0.482
REMARK UNBOUND:                -0.482
REMARK SMILES CCCCCCCCC(=O)[O-]
REMARK SMILES IDX 6 1 7 2 8 3 9 4 10 5 11 6 5 7 4 8 3 9 2 10 1 11
REMARK H PARENT
REMARK Flexibility Score: inf
ROOT
ATOM      1  C   UNL     1      27.833  -9.315  20.664  1.00  0.00     0.000 C 
ENDROOT
BRANCH   1   2
ATOM      2  C   UNL     1      26.552  -9.275  19.823  1.00  0.00     0.006 C 
BRANCH   2   3
ATOM      3  C   UNL     1      26.589  -8.118  18.821  1.00  0.00     0.053 C 
BRANCH   3   4
ATOM      4  C   UNL     1      25.579  -7.076  19.186  1.00  0.00     0.041 C 
ATOM      5  O   UNL     1      25.884  -5.855  19.139  1.00  0.00    -0.550 OA
ATOM      6  O   UNL     1      24.286  -7.451  19.529  1.00  0.00    -0.550 OA
ENDBRANCH   3   4
ENDBRANCH   2   3
ENDBRANCH   1   2
BRANCH   1   7
ATOM      7  C   UNL     1      28.235 -10.759  20.987  1.00  0.00     0.000 C 
BRANCH   7   8
ATOM      8  C   UNL     1      27.222 -11.756  20.413  1.00  0.00    -0.000 C 
BRANCH   8   9
ATOM      9  C   UNL     1      27.927 -13.009  19.873  1.00  0.00    -0.000 C 
BRANCH   9  10
ATOM     10  C   UNL     1      27.323 -13.503  18.550  1.00  0.00    -0.003 C 
ATOM     11  C   UNL     1      26.199 -12.603  18.040  1.00  0.00     0.004 C 
ENDBRANCH   9  10
ENDBRANCH   8   9
ENDBRANCH   7   8
ENDBRANCH   1   7
TORSDOF 7
ENDMDL
MODEL 2
REMARK VINA RESULT:    -5.357      1.110      1.529
REMARK INTER + INTRA:          -8.031
REMARK INTER:                  -7.663
REMARK INTRA:                  -0.367
REMARK UNBOUND:                -0.482
REMARK SMILES CCCCCCCCC(=O)[O-]
REMARK SMILES IDX 6 1 7 2 8 3 9 4 10 5 11 6 5 7 4 8 3 9 2 10 1 11
REMARK H PARENT
REMARK Flexibility Score: inf
ROOT
ATOM      1  C   UNL     1      28.803  -9.724  21.126  1.00  0.00     0.000 C 
ENDROOT
BRANCH   1   2
ATOM      2  C   UNL     1      27.747  -8.618  21.023  1.00  0.00     0.006 C 
BRANCH   2   3
ATOM      3  C   UNL     1      28.022  -7.706  19.824  1.00  0.00     0.053 C 
BRANCH   3   4
ATOM      4  C   UNL     1      26.832  -7.655  18.919  1.00  0.00     0.041 C 
ATOM      5  O   UNL     1      26.128  -8.684  18.740  1.00  0.00    -0.550 OA
ATOM      6  O   UNL     1      26.469  -6.459  18.313  1.00  0.00    -0.550 OA
ENDBRANCH   3   4
ENDBRANCH   2   3
ENDBRANCH   1   2
BRANCH   1   7
ATOM      7  C   UNL     1      28.156 -11.076  21.446  1.00  0.00     0.000 C 
BRANCH   7   8
ATOM      8  C   UNL     1      27.375 -11.613  20.240  1.00  0.00    -0.000 C 
BRANCH   8   9
ATOM      9  C   UNL     1      27.885 -13.003  19.829  1.00  0.00    -0.000 C 
BRANCH   9  10
ATOM     10  C   UNL     1      27.133 -13.572  18.616  1.00  0.00    -0.003 C 
ATOM     11  C   UNL     1      26.188 -12.556  17.976  1.00  0.00     0.004 C 
ENDBRANCH   9  10
ENDBRANCH   8   9
ENDBRANCH   7   8
ENDBRANCH   1   7
TORSDOF 7
ENDMDL
MODEL 3
REMARK VINA RESULT:    -5.225      1.410      2.300
REMARK INTER + INTRA:          -7.846
REMARK INTER:                  -7.514
REMARK INTRA:                  -0.332
REMARK UNBOUND:                -0.482
REMARK SMILES CCCCCCCCC(=O)[O-]
REMARK SMILES IDX 6 1 7 2 8 3 9 4 10 5 11 6 5 7 4 8 3 9 2 10 1 11
REMARK H PARENT
REMARK Flexibility Score: inf
ROOT
ATOM      1  C   UNL     1      26.116  -8.954  19.202  1.00  0.00     0.000 C 
ENDROOT
BRANCH   1   2
ATOM      2  C   UNL     1      26.011  -7.511  18.696  1.00  0.00     0.006 C 
BRANCH   2   3
ATOM      3  C   UNL     1      27.393  -6.858  18.606  1.00  0.00     0.053 C 
BRANCH   3   4
ATOM      4  C   UNL     1      27.281  -5.372  18.743  1.00  0.00     0.041 C 
ATOM      5  O   UNL     1      26.482  -4.871  19.577  1.00  0.00    -0.550 OA
ATOM      6  O   UNL     1      28.096  -4.540  17.986  1.00  0.00    -0.550 OA
ENDBRANCH   3   4
ENDBRANCH   2   3
ENDBRANCH   1   2
BRANCH   1   7
ATOM      7  C   UNL     1      27.198  -9.082  20.280  1.00  0.00     0.000 C 
BRANCH   7   8
ATOM      8  C   UNL     1      27.347 -10.537  20.742  1.00  0.00    -0.000 C 
BRANCH   8   9
ATOM      9  C   UNL     1      26.670 -11.500  19.755  1.00  0.00    -0.000 C 
BRANCH   9  10
ATOM     10  C   UNL     1      27.463 -12.801  19.562  1.00  0.00    -0.003 C 
ATOM     11  C   UNL     1      27.028 -13.580  18.322  1.00  0.00     0.004 C 
ENDBRANCH   9  10
ENDBRANCH   8   9
ENDBRANCH   7   8
ENDBRANCH   1   7
TORSDOF 7
ENDMDL
MODEL 4
REMARK VINA RESULT:    -5.113      3.965      4.655
REMARK INTER + INTRA:          -7.688
REMARK INTER:                  -7.329
REMARK INTRA:                  -0.359
REMARK UNBOUND:                -0.482
REMARK SMILES CCCCCCCCC(=O)[O-]
REMARK SMILES IDX 6 1 7 2 8 3 9 4 10 5 11 6 5 7 4 8 3 9 2 10 1 11
REMARK H PARENT
REMARK Flexibility Score: inf
ROOT
ATOM      1  C   UNL     1      28.777  -9.969  22.138  1.00  0.00     0.000 C 
ENDROOT
BRANCH   1   2
ATOM      2  C   UNL     1      30.147  -9.283  22.176  1.00  0.00     0.006 C 
BRANCH   2   3
ATOM      3  C   UNL     1      30.778  -9.236  20.782  1.00  0.00     0.053 C 
BRANCH   3   4
ATOM      4  C   UNL     1      32.239  -8.929  20.876  1.00  0.00     0.041 C 
ATOM      5  O   UNL     1      32.698  -8.340  21.890  1.00  0.00    -0.550 OA
ATOM      6  O   UNL     1      33.102  -9.340  19.868  1.00  0.00    -0.550 OA
ENDBRANCH   3   4
ENDBRANCH   2   3
ENDBRANCH   1   2
BRANCH   1   7
ATOM      7  C   UNL     1      28.266 -10.099  20.698  1.00  0.00     0.000 C 
BRANCH   7   8
ATOM      8  C   UNL     1      27.317 -11.295  20.556  1.00  0.00    -0.000 C 
BRANCH   8   9
ATOM      9  C   UNL     1      28.093 -12.575  20.213  1.00  0.00    -0.000 C 
BRANCH   9  10
ATOM     10  C   UNL     1      27.472 -13.345  19.038  1.00  0.00    -0.003 C 
ATOM     11  C   UNL     1      26.343 -12.573  18.355  1.00  0.00     0.004 C 
ENDBRANCH   9  10
ENDBRANCH   8   9
ENDBRANCH   7   8
ENDBRANCH   1   7
TORSDOF 7
ENDMDL
MODEL 5
REMARK VINA RESULT:    -5.077      4.026      4.939
REMARK INTER + INTRA:          -7.637
REMARK INTER:                  -7.365
REMARK INTRA:                  -0.272
REMARK UNBOUND:                -0.482
REMARK SMILES CCCCCCCCC(=O)[O-]
REMARK SMILES IDX 6 1 7 2 8 3 9 4 10 5 11 6 5 7 4 8 3 9 2 10 1 11
REMARK H PARENT
REMARK Flexibility Score: inf
ROOT
ATOM      1  C   UNL     1      29.190  -9.860  21.980  1.00  0.00     0.000 C 
ENDROOT
BRANCH   1   2
ATOM      2  C   UNL     1      30.218  -9.256  21.017  1.00  0.00     0.006 C 
BRANCH   2   3
ATOM      3  C   UNL     1      31.542  -8.974  21.731  1.00  0.00     0.053 C 
BRANCH   3   4
ATOM      4  C   UNL     1      32.662  -8.878  20.743  1.00  0.00     0.041 C 
ATOM      5  O   UNL     1      32.671  -9.617  19.724  1.00  0.00    -0.550 OA
ATOM      6  O   UNL     1      33.668  -7.937  20.922  1.00  0.00    -0.550 OA
ENDBRANCH   3   4
ENDBRANCH   2   3
ENDBRANCH   1   2
BRANCH   1   7
ATOM      7  C   UNL     1      28.404 -10.992  21.309  1.00  0.00     0.000 C 
BRANCH   7   8
ATOM      8  C   UNL     1      27.190 -10.445  20.547  1.00  0.00    -0.000 C 
BRANCH   8   9
ATOM      9  C   UNL     1      26.476 -11.563  19.774  1.00  0.00    -0.000 C 
BRANCH   9  10
ATOM     10  C   UNL     1      27.374 -12.786  19.540  1.00  0.00    -0.003 C 
ATOM     11  C   UNL     1      27.130 -13.450  18.186  1.00  0.00     0.004 C 
ENDBRANCH   9  10
ENDBRANCH   8   9
ENDBRANCH   7   8
ENDBRANCH   1   7
TORSDOF 7
ENDMDL
MODEL 6
REMARK VINA RESULT:    -4.928      2.330      3.092
REMARK INTER + INTRA:          -7.428
REMARK INTER:                  -7.020
REMARK INTRA:                  -0.407
REMARK UNBOUND:                -0.482
REMARK SMILES CCCCCCCCC(=O)[O-]
REMARK SMILES IDX 6 1 7 2 8 3 9 4 10 5 11 6 5 7 4 8 3 9 2 10 1 11
REMARK H PARENT
REMARK Flexibility Score: inf
ROOT
ATOM      1  C   UNL     1      28.480 -10.210  22.239  1.00  0.00     0.000 C 
ENDROOT
BRANCH   1   2
ATOM      2  C   UNL     1      29.860  -9.553  22.126  1.00  0.00     0.006 C 
BRANCH   2   3
ATOM      3  C   UNL     1      29.786  -8.254  21.319  1.00  0.00     0.053 C 
BRANCH   3   4
ATOM      4  C   UNL     1      28.834  -7.293  21.958  1.00  0.00     0.041 C 
ATOM      5  O   UNL     1      29.077  -6.826  23.102  1.00  0.00    -0.550 OA
ATOM      6  O   UNL     1      27.703  -6.872  21.269  1.00  0.00    -0.550 OA
ENDBRANCH   3   4
ENDBRANCH   2   3
ENDBRANCH   1   2
BRANCH   1   7
ATOM      7  C   UNL     1      28.218 -11.150  21.057  1.00  0.00     0.000 C 
BRANCH   7   8
ATOM      8  C   UNL     1      26.953 -10.737  20.294  1.00  0.00    -0.000 C 
BRANCH   8   9
ATOM      9  C   UNL     1      26.326 -11.942  19.576  1.00  0.00    -0.000 C 
BRANCH   9  10
ATOM     10  C   UNL     1      27.301 -13.121  19.440  1.00  0.00    -0.003 C 
ATOM     11  C   UNL     1      27.298 -13.733  18.040  1.00  0.00     0.004 C 
ENDBRANCH   9  10
ENDBRANCH   8   9
ENDBRANCH   7   8
ENDBRANCH   1   7
TORSDOF 7
ENDMDL
MODEL 7
REMARK VINA RESULT:    -4.807      9.745     11.140
REMARK INTER + INTRA:          -7.257
REMARK INTER:                  -6.704
REMARK INTRA:                  -0.553
REMARK UNBOUND:                -0.482
REMARK SMILES CCCCCCCCC(=O)[O-]
REMARK SMILES IDX 6 1 7 2 8 3 9 4 10 5 11 6 5 7 4 8 3 9 2 10 1 11
REMARK H PARENT
REMARK Flexibility Score: inf
ROOT
ATOM      1  C   UNL     1      36.203 -10.409  21.718  1.00  0.00     0.000 C 
ENDROOT
BRANCH   1   2
ATOM      2  C   UNL     1      36.982 -10.973  20.525  1.00  0.00     0.006 C 
BRANCH   2   3
ATOM      3  C   UNL     1      38.131 -11.870  20.994  1.00  0.00     0.053 C 
BRANCH   3   4
ATOM      4  C   UNL     1      39.446 -11.179  20.810  1.00  0.00     0.041 C 
ATOM      5  O   UNL     1      39.729 -10.164  21.498  1.00  0.00    -0.550 OA
ATOM      6  O   UNL     1      40.378 -11.687  19.914  1.00  0.00    -0.550 OA
ENDBRANCH   3   4
ENDBRANCH   2   3
ENDBRANCH   1   2
BRANCH   1   7
ATOM      7  C   UNL     1      36.296  -8.879  21.764  1.00  0.00     0.000 C 
BRANCH   7   8
ATOM      8  C   UNL     1      34.993  -8.263  22.287  1.00  0.00    -0.000 C 
BRANCH   8   9
ATOM      9  C   UNL     1      33.770  -9.018  21.745  1.00  0.00    -0.000 C 
BRANCH   9  10
ATOM     10  C   UNL     1      33.372  -8.561  20.334  1.00  0.00    -0.003 C 
ATOM     11  C   UNL     1      33.340  -9.710  19.327  1.00  0.00     0.004 C 
ENDBRANCH   9  10
ENDBRANCH   8   9
ENDBRANCH   7   8
ENDBRANCH   1   7
TORSDOF 7
ENDMDL
MODEL 8
REMARK VINA RESULT:    -4.755     11.042     12.688
REMARK INTER + INTRA:          -7.183
REMARK INTER:                  -6.628
REMARK INTRA:                  -0.555
REMARK UNBOUND:                -0.482
REMARK SMILES CCCCCCCCC(=O)[O-]
REMARK SMILES IDX 6 1 7 2 8 3 9 4 10 5 11 6 5 7 4 8 3 9 2 10 1 11
REMARK H PARENT
REMARK Flexibility Score: inf
ROOT
ATOM      1  C   UNL     1      36.542 -10.461  20.958  1.00  0.00     0.000 C 
ENDROOT
BRANCH   1   2
ATOM      2  C   UNL     1      38.032 -10.611  21.284  1.00  0.00     0.006 C 
BRANCH   2   3
ATOM      3  C   UNL     1      38.335 -12.007  21.837  1.00  0.00     0.053 C 
BRANCH   3   4
ATOM      4  C   UNL     1      39.375 -12.686  21.003  1.00  0.00     0.041 C 
ATOM      5  O   UNL     1      39.416 -13.943  20.942  1.00  0.00    -0.550 OA
ATOM      6  O   UNL     1      40.268 -11.931  20.254  1.00  0.00    -0.550 OA
ENDBRANCH   3   4
ENDBRANCH   2   3
ENDBRANCH   1   2
BRANCH   1   7
ATOM      7  C   UNL     1      35.985  -9.147  21.518  1.00  0.00     0.000 C 
BRANCH   7   8
ATOM      8  C   UNL     1      36.964  -8.513  22.514  1.00  0.00    -0.000 C 
BRANCH   8   9
ATOM      9  C   UNL     1      36.271  -8.214  23.852  1.00  0.00    -0.000 C 
BRANCH   9  10
ATOM     10  C   UNL     1      37.148  -8.571  25.062  1.00  0.00    -0.003 C 
ATOM     11  C   UNL     1      38.225  -9.602  24.729  1.00  0.00     0.004 C 
ENDBRANCH   9  10
ENDBRANCH   8   9
ENDBRANCH   7   8
ENDBRANCH   1   7
TORSDOF 7
ENDMDL
MODEL 9
REMARK VINA RESULT:    -4.750      1.894      2.355
REMARK INTER + INTRA:          -7.176
REMARK INTER:                  -6.804
REMARK INTRA:                  -0.372
REMARK UNBOUND:                -0.482
REMARK SMILES CCCCCCCCC(=O)[O-]
REMARK SMILES IDX 6 1 7 2 8 3 9 4 10 5 11 6 5 7 4 8 3 9 2 10 1 11
REMARK H PARENT
REMARK Flexibility Score: inf
ROOT
ATOM      1  C   UNL     1      26.563  -9.100  19.543  1.00  0.00     0.000 C 
ENDROOT
BRANCH   1   2
ATOM      2  C   UNL     1      25.577  -8.014  19.989  1.00  0.00     0.006 C 
BRANCH   2   3
ATOM      3  C   UNL     1      26.291  -6.674  20.192  1.00  0.00     0.053 C 
BRANCH   3   4
ATOM      4  C   UNL     1      27.325  -6.789  21.268  1.00  0.00     0.041 C 
ATOM      5  O   UNL     1      26.977  -6.973  22.464  1.00  0.00    -0.550 OA
ATOM      6  O   UNL     1      28.675  -6.743  20.942  1.00  0.00    -0.550 OA
ENDBRANCH   3   4
ENDBRANCH   2   3
ENDBRANCH   1   2
BRANCH   1   7
ATOM      7  C   UNL     1      26.405 -10.368  20.390  1.00  0.00     0.000 C 
BRANCH   7   8
ATOM      8  C   UNL     1      27.762 -11.037  20.640  1.00  0.00    -0.000 C 
BRANCH   8   9
ATOM      9  C   UNL     1      27.746 -12.503  20.182  1.00  0.00    -0.000 C 
BRANCH   9  10
ATOM     10  C   UNL     1      26.762 -12.750  19.029  1.00  0.00    -0.003 C 
ATOM     11  C   UNL     1      27.291 -13.751  18.003  1.00  0.00     0.004 C 
ENDBRANCH   9  10
ENDBRANCH   8   9
ENDBRANCH   7   8
ENDBRANCH   1   7
TORSDOF 7
ENDMDL
