MODEL 1
REMARK VINA RESULT:    -6.764      0.000      0.000
REMARK INTER + INTRA:         -10.253
REMARK INTER:                  -8.939
REMARK INTRA:                  -1.314
REMARK UNBOUND:                -1.314
REMARK SMILES CC[C@H](C=C[C@@H](C)[C@@H]1CC[C@H]2[C@@H]3CC=C4C[C@@H](O)CC[C@]4(C)[C@@H]3CC[C@]21C)C(C)C
REMARK SMILES IDX 6 1 7 2 5 3 4 4 3 5 2 6 1 7 28 8 29 9 30 10 8 11 9 12 26 13
REMARK SMILES IDX 10 14 11 15 25 16 27 17 12 18 24 19 23 20 13 21 21 22 14 23
REMARK SMILES IDX 15 24 20 25 22 26 16 27 19 28 17 29 18 30
REMARK H PARENT 18 31
REMARK Flexibility Score: inf
ROOT
ATOM      1  C   UNL     1      95.094   2.038 -23.900  1.00  0.00     0.012 C 
ATOM      2  C   UNL     1      94.899   1.908 -22.377  1.00  0.00     0.012 C 
ENDROOT
BRANCH   1   3
ATOM      3  C   UNL     1      96.538   1.980 -24.376  1.00  0.00    -0.028 C 
ATOM      4  C   UNL     1      97.152   2.948 -25.086  1.00  0.00    -0.027 C 
BRANCH   4   5
ATOM      5  C   UNL     1      98.619   2.894 -25.484  1.00  0.00     0.014 C 
BRANCH   5   6
ATOM      6  C   UNL     1      99.331   1.614 -24.977  1.00  0.00     0.004 C 
ATOM      7  C   UNL     1      99.927   0.790 -26.120  1.00  0.00     0.004 C 
ENDBRANCH   5   6
BRANCH   5   8
ATOM      8  C   UNL     1      98.823   3.183 -27.008  1.00  0.00    -0.011 C 
ATOM      9  C   UNL     1      97.591   2.774 -27.832  1.00  0.00     0.008 C 
ATOM     10  C   UNL     1      99.205   4.637 -27.334  1.00  0.00     0.008 C 
ENDBRANCH   5   8
ENDBRANCH   4   5
ENDBRANCH   1   3
BRANCH   1  11
ATOM     11  C   UNL     1      94.240   3.197 -24.511  1.00  0.00     0.002 C 
ATOM     12  C   UNL     1      93.609   4.099 -23.450  1.00  0.00     0.005 C 
ATOM     13  C   UNL     1      93.108   2.927 -25.591  1.00  0.00    -0.026 C 
ATOM     14  C   UNL     1      92.579   4.904 -24.213  1.00  0.00     0.005 C 
ATOM     15  C   UNL     1      91.944   3.885 -25.150  1.00  0.00    -0.001 C 
ATOM     16  C   UNL     1      93.668   3.259 -27.010  1.00  0.00     0.007 C 
ATOM     17  C   UNL     1      92.578   1.472 -25.595  1.00  0.00     0.012 C 
ATOM     18  C   UNL     1      91.061   4.549 -26.256  1.00  0.00     0.000 C 
ATOM     19  C   UNL     1      92.611   3.661 -28.038  1.00  0.00     0.005 C 
ATOM     20  C   UNL     1      91.836   4.907 -27.547  1.00  0.00     0.003 C 
ATOM     21  C   UNL     1      89.826   3.683 -26.569  1.00  0.00     0.031 C 
ATOM     22  C   UNL     1      90.894   5.615 -28.616  1.00  0.00    -0.008 C 
ATOM     23  C   UNL     1      88.996   4.226 -27.692  1.00  0.00    -0.027 C 
ATOM     24  C   UNL     1      89.491   4.999 -28.679  1.00  0.00    -0.065 C 
ATOM     25  C   UNL     1      91.506   5.564 -30.052  1.00  0.00     0.014 C 
ATOM     26  C   UNL     1      90.745   7.104 -28.195  1.00  0.00     0.016 C 
ATOM     27  C   UNL     1      88.553   5.443 -29.790  1.00  0.00     0.063 C 
ATOM     28  C   UNL     1      90.581   6.131 -31.142  1.00  0.00     0.033 C 
ATOM     29  C   UNL     1      89.239   5.381 -31.159  1.00  0.00     0.118 C 
BRANCH  29  30
ATOM     30  O   UNL     1      88.390   5.944 -32.123  1.00  0.00    -0.393 OA
ATOM     31  H   UNL     1      88.971   6.310 -32.840  1.00  0.00     0.210 HD
ENDBRANCH  29  30
ENDBRANCH   1  11
TORSDOF 6
ENDMDL
MODEL 2
REMARK VINA RESULT:    -6.733      4.279      6.778
REMARK INTER + INTRA:         -10.211
REMARK INTER:                  -9.188
REMARK INTRA:                  -1.024
REMARK UNBOUND:                -1.314
REMARK SMILES CC[C@H](C=C[C@@H](C)[C@@H]1CC[C@H]2[C@@H]3CC=C4C[C@@H](O)CC[C@]4(C)[C@@H]3CC[C@]21C)C(C)C
REMARK SMILES IDX 6 1 7 2 5 3 4 4 3 5 2 6 1 7 28 8 29 9 30 10 8 11 9 12 26 13
REMARK SMILES IDX 10 14 11 15 25 16 27 17 12 18 24 19 23 20 13 21 21 22 14 23
REMARK SMILES IDX 15 24 20 25 22 26 16 27 19 28 17 29 18 30
REMARK H PARENT 18 31
REMARK Flexibility Score: inf
ROOT
ATOM      1  C   UNL     1      94.254   3.681 -26.559  1.00  0.00     0.012 C 
ATOM      2  C   UNL     1      94.020   3.045 -27.943  1.00  0.00     0.012 C 
ENDROOT
BRANCH   1   3
ATOM      3  C   UNL     1      95.710   3.780 -26.130  1.00  0.00    -0.028 C 
ATOM      4  C   UNL     1      96.750   3.951 -26.972  1.00  0.00    -0.027 C 
BRANCH   4   5
ATOM      5  C   UNL     1      98.187   4.120 -26.506  1.00  0.00     0.014 C 
BRANCH   5   6
ATOM      6  C   UNL     1      98.474   3.392 -25.168  1.00  0.00     0.004 C 
ATOM      7  C   UNL     1      98.959   1.957 -25.381  1.00  0.00     0.004 C 
ENDBRANCH   5   6
BRANCH   5   8
ATOM      8  C   UNL     1      99.213   3.803 -27.643  1.00  0.00    -0.011 C 
ATOM      9  C   UNL     1      98.519   3.213 -28.883  1.00  0.00     0.008 C 
ATOM     10  C   UNL     1     100.091   4.995 -28.059  1.00  0.00     0.008 C 
ENDBRANCH   5   8
ENDBRANCH   4   5
ENDBRANCH   1   3
BRANCH   1  11
ATOM     11  C   UNL     1      93.279   3.117 -25.474  1.00  0.00     0.002 C 
ATOM     12  C   UNL     1      92.132   2.299 -26.068  1.00  0.00     0.005 C 
ATOM     13  C   UNL     1      92.630   4.046 -24.364  1.00  0.00    -0.026 C 
ATOM     14  C   UNL     1      91.150   2.154 -24.926  1.00  0.00     0.005 C 
ATOM     15  C   UNL     1      91.150   3.529 -24.270  1.00  0.00    -0.001 C 
ATOM     16  C   UNL     1      93.422   3.873 -23.029  1.00  0.00     0.007 C 
ATOM     17  C   UNL     1      92.608   5.549 -24.736  1.00  0.00     0.012 C 
ATOM     18  C   UNL     1      90.440   3.535 -22.878  1.00  0.00     0.000 C 
ATOM     19  C   UNL     1      92.615   4.162 -21.763  1.00  0.00     0.005 C 
ATOM     20  C   UNL     1      91.384   3.228 -21.691  1.00  0.00     0.003 C 
ATOM     21  C   UNL     1      89.676   4.855 -22.655  1.00  0.00     0.031 C 
ATOM     22  C   UNL     1      90.596   3.209 -20.308  1.00  0.00    -0.008 C 
ATOM     23  C   UNL     1      89.057   4.953 -21.294  1.00  0.00    -0.027 C 
ATOM     24  C   UNL     1      89.533   4.309 -20.210  1.00  0.00    -0.065 C 
ATOM     25  C   UNL     1      91.561   3.363 -19.089  1.00  0.00     0.014 C 
ATOM     26  C   UNL     1      89.877   1.835 -20.199  1.00  0.00     0.016 C 
ATOM     27  C   UNL     1      88.844   4.534 -18.874  1.00  0.00     0.063 C 
ATOM     28  C   UNL     1      90.839   3.468 -17.736  1.00  0.00     0.033 C 
ATOM     29  C   UNL     1      89.861   4.654 -17.733  1.00  0.00     0.118 C 
BRANCH  29  30
ATOM     30  O   UNL     1      89.174   4.704 -16.511  1.00  0.00    -0.393 OA
ATOM     31  H   UNL     1      89.730   4.215 -15.849  1.00  0.00     0.210 HD
ENDBRANCH  29  30
ENDBRANCH   1  11
TORSDOF 6
ENDMDL
MODEL 3
REMARK VINA RESULT:    -6.696      3.479      5.959
REMARK INTER + INTRA:         -10.163
REMARK INTER:                  -8.939
REMARK INTRA:                  -1.224
REMARK UNBOUND:                -1.314
REMARK SMILES CC[C@H](C=C[C@@H](C)[C@@H]1CC[C@H]2[C@@H]3CC=C4C[C@@H](O)CC[C@]4(C)[C@@H]3CC[C@]21C)C(C)C
REMARK SMILES IDX 6 1 7 2 5 3 4 4 3 5 2 6 1 7 28 8 29 9 30 10 8 11 9 12 26 13
REMARK SMILES IDX 10 14 11 15 25 16 27 17 12 18 24 19 23 20 13 21 21 22 14 23
REMARK SMILES IDX 15 24 20 25 22 26 16 27 19 28 17 29 18 30
REMARK H PARENT 18 31
REMARK Flexibility Score: inf
ROOT
ATOM      1  C   UNL     1      94.296   3.472 -28.087  1.00  0.00     0.012 C 
ATOM      2  C   UNL     1      93.647   2.876 -29.351  1.00  0.00     0.012 C 
ENDROOT
BRANCH   1   3
ATOM      3  C   UNL     1      95.805   3.301 -27.991  1.00  0.00    -0.028 C 
ATOM      4  C   UNL     1      96.578   3.830 -27.021  1.00  0.00    -0.027 C 
BRANCH   4   5
ATOM      5  C   UNL     1      98.073   3.580 -26.910  1.00  0.00     0.014 C 
BRANCH   5   6
ATOM      6  C   UNL     1      98.916   4.849 -27.202  1.00  0.00     0.004 C 
ATOM      7  C   UNL     1      98.924   5.211 -28.688  1.00  0.00     0.004 C 
ENDBRANCH   5   6
BRANCH   5   8
ATOM      8  C   UNL     1      98.449   2.851 -25.579  1.00  0.00    -0.011 C 
ATOM      9  C   UNL     1      97.218   2.643 -24.681  1.00  0.00     0.008 C 
ATOM     10  C   UNL     1      99.182   1.512 -25.771  1.00  0.00     0.008 C 
ENDBRANCH   5   8
ENDBRANCH   4   5
ENDBRANCH   1   3
BRANCH   1  11
ATOM     11  C   UNL     1      93.503   3.113 -26.787  1.00  0.00     0.002 C 
ATOM     12  C   UNL     1      92.664   1.843 -26.930  1.00  0.00     0.005 C 
ATOM     13  C   UNL     1      92.581   4.172 -26.047  1.00  0.00    -0.026 C 
ATOM     14  C   UNL     1      91.741   1.873 -25.731  1.00  0.00     0.005 C 
ATOM     15  C   UNL     1      91.318   3.334 -25.636  1.00  0.00    -0.001 C 
ATOM     16  C   UNL     1      93.354   4.752 -24.820  1.00  0.00     0.007 C 
ATOM     17  C   UNL     1      92.125   5.347 -26.947  1.00  0.00     0.012 C 
ATOM     18  C   UNL     1      90.602   3.669 -24.288  1.00  0.00     0.000 C 
ATOM     19  C   UNL     1      92.465   5.260 -23.685  1.00  0.00     0.005 C 
ATOM     20  C   UNL     1      91.564   4.118 -23.161  1.00  0.00     0.003 C 
ATOM     21  C   UNL     1      89.477   4.700 -24.502  1.00  0.00     0.031 C 
ATOM     22  C   UNL     1      90.782   4.405 -21.805  1.00  0.00    -0.008 C 
ATOM     23  C   UNL     1      88.822   5.130 -23.225  1.00  0.00    -0.027 C 
ATOM     24  C   UNL     1      89.439   5.110 -22.027  1.00  0.00    -0.065 C 
ATOM     25  C   UNL     1      91.626   5.277 -20.823  1.00  0.00     0.014 C 
ATOM     26  C   UNL     1      90.498   3.033 -21.130  1.00  0.00     0.016 C 
ATOM     27  C   UNL     1      88.680   5.623 -20.814  1.00  0.00     0.063 C 
ATOM     28  C   UNL     1      90.871   5.681 -19.545  1.00  0.00     0.033 C 
ATOM     29  C   UNL     1      89.587   6.450 -19.895  1.00  0.00     0.118 C 
BRANCH  29  30
ATOM     30  O   UNL     1      88.885   6.766 -18.722  1.00  0.00    -0.393 OA
ATOM     31  H   UNL     1      88.923   7.753 -18.622  1.00  0.00     0.210 HD
ENDBRANCH  29  30
ENDBRANCH   1  11
TORSDOF 6
ENDMDL
MODEL 4
REMARK VINA RESULT:    -6.497      3.335      6.540
REMARK INTER + INTRA:          -9.900
REMARK INTER:                  -8.546
REMARK INTRA:                  -1.354
REMARK UNBOUND:                -1.314
REMARK SMILES CC[C@H](C=C[C@@H](C)[C@@H]1CC[C@H]2[C@@H]3CC=C4C[C@@H](O)CC[C@]4(C)[C@@H]3CC[C@]21C)C(C)C
REMARK SMILES IDX 6 1 7 2 5 3 4 4 3 5 2 6 1 7 28 8 29 9 30 10 8 11 9 12 26 13
REMARK SMILES IDX 10 14 11 15 25 16 27 17 12 18 24 19 23 20 13 21 21 22 14 23
REMARK SMILES IDX 15 24 20 25 22 26 16 27 19 28 17 29 18 30
REMARK H PARENT 18 31
REMARK Flexibility Score: inf
ROOT
ATOM      1  C   UNL     1      93.116   2.995 -20.577  1.00  0.00     0.012 C 
ATOM      2  C   UNL     1      94.170   1.998 -20.059  1.00  0.00     0.012 C 
ENDROOT
BRANCH   1   3
ATOM      3  C   UNL     1      91.818   3.037 -19.785  1.00  0.00    -0.028 C 
ATOM      4  C   UNL     1      91.157   4.163 -19.451  1.00  0.00    -0.027 C 
BRANCH   4   5
ATOM      5  C   UNL     1      89.823   4.169 -18.722  1.00  0.00     0.014 C 
BRANCH   5   6
ATOM      6  C   UNL     1      89.866   4.976 -17.399  1.00  0.00     0.004 C 
ATOM      7  C   UNL     1      90.265   6.435 -17.622  1.00  0.00     0.004 C 
ENDBRANCH   5   6
BRANCH   5   8
ATOM      8  C   UNL     1      88.639   4.551 -19.670  1.00  0.00    -0.011 C 
ATOM      9  C   UNL     1      89.057   5.618 -20.696  1.00  0.00     0.008 C 
ATOM     10  C   UNL     1      87.995   3.358 -20.397  1.00  0.00     0.008 C 
ENDBRANCH   5   8
ENDBRANCH   4   5
ENDBRANCH   1   3
BRANCH   1  11
ATOM     11  C   UNL     1      92.944   2.924 -22.130  1.00  0.00     0.002 C 
ATOM     12  C   UNL     1      94.200   2.429 -22.849  1.00  0.00     0.005 C 
ATOM     13  C   UNL     1      92.410   4.157 -22.974  1.00  0.00    -0.026 C 
ATOM     14  C   UNL     1      93.949   2.761 -24.304  1.00  0.00     0.005 C 
ATOM     15  C   UNL     1      93.316   4.146 -24.256  1.00  0.00    -0.001 C 
ATOM     16  C   UNL     1      90.897   3.938 -23.294  1.00  0.00     0.007 C 
ATOM     17  C   UNL     1      92.572   5.524 -22.262  1.00  0.00     0.012 C 
ATOM     18  C   UNL     1      92.688   4.572 -25.622  1.00  0.00     0.000 C 
ATOM     19  C   UNL     1      90.402   4.641 -24.558  1.00  0.00     0.005 C 
ATOM     20  C   UNL     1      91.206   4.157 -25.787  1.00  0.00     0.003 C 
ATOM     21  C   UNL     1      92.875   6.081 -25.869  1.00  0.00     0.031 C 
ATOM     22  C   UNL     1      90.636   4.582 -27.211  1.00  0.00    -0.008 C 
ATOM     23  C   UNL     1      92.205   6.560 -27.121  1.00  0.00    -0.027 C 
ATOM     24  C   UNL     1      91.129   5.961 -27.666  1.00  0.00    -0.065 C 
ATOM     25  C   UNL     1      89.075   4.599 -27.229  1.00  0.00     0.014 C 
ATOM     26  C   UNL     1      91.131   3.531 -28.245  1.00  0.00     0.016 C 
ATOM     27  C   UNL     1      90.510   6.577 -28.910  1.00  0.00     0.063 C 
ATOM     28  C   UNL     1      88.474   5.115 -28.547  1.00  0.00     0.033 C 
ATOM     29  C   UNL     1      88.979   6.535 -28.854  1.00  0.00     0.118 C 
BRANCH  29  30
ATOM     30  O   UNL     1      88.463   6.970 -30.084  1.00  0.00    -0.393 OA
ATOM     31  H   UNL     1      89.216   6.959 -30.731  1.00  0.00     0.210 HD
ENDBRANCH  29  30
ENDBRANCH   1  11
TORSDOF 6
ENDMDL
MODEL 5
REMARK VINA RESULT:    -6.377      5.589      9.308
REMARK INTER + INTRA:          -9.741
REMARK INTER:                  -8.721
REMARK INTRA:                  -1.020
REMARK UNBOUND:                -1.314
REMARK SMILES CC[C@H](C=C[C@@H](C)[C@@H]1CC[C@H]2[C@@H]3CC=C4C[C@@H](O)CC[C@]4(C)[C@@H]3CC[C@]21C)C(C)C
REMARK SMILES IDX 6 1 7 2 5 3 4 4 3 5 2 6 1 7 28 8 29 9 30 10 8 11 9 12 26 13
REMARK SMILES IDX 10 14 11 15 25 16 27 17 12 18 24 19 23 20 13 21 21 22 14 23
REMARK SMILES IDX 15 24 20 25 22 26 16 27 19 28 17 29 18 30
REMARK H PARENT 18 31
REMARK Flexibility Score: inf
ROOT
ATOM      1  C   UNL     1      98.481  -2.229 -20.576  1.00  0.00     0.012 C 
ATOM      2  C   UNL     1      97.918  -3.661 -20.494  1.00  0.00     0.012 C 
ENDROOT
BRANCH   1   3
ATOM      3  C   UNL     1      98.556  -1.485 -19.251  1.00  0.00    -0.028 C 
ATOM      4  C   UNL     1      98.086  -1.955 -18.078  1.00  0.00    -0.027 C 
BRANCH   4   5
ATOM      5  C   UNL     1      98.243  -1.220 -16.756  1.00  0.00     0.014 C 
BRANCH   5   6
ATOM      6  C   UNL     1      96.901  -1.059 -15.997  1.00  0.00     0.004 C 
ATOM      7  C   UNL     1      95.806  -1.970 -16.555  1.00  0.00     0.004 C 
ENDBRANCH   5   6
BRANCH   5   8
ATOM      8  C   UNL     1      99.404  -1.811 -15.891  1.00  0.00    -0.011 C 
ATOM      9  C   UNL     1      99.032  -1.856 -14.400  1.00  0.00     0.008 C 
ATOM     10  C   UNL     1      99.893  -3.197 -16.344  1.00  0.00     0.008 C 
ENDBRANCH   5   8
ENDBRANCH   4   5
ENDBRANCH   1   3
BRANCH   1  11
ATOM     11  C   UNL     1      97.862  -1.415 -21.760  1.00  0.00     0.002 C 
ATOM     12  C   UNL     1      96.686  -2.130 -22.427  1.00  0.00     0.005 C 
ATOM     13  C   UNL     1      98.753  -0.837 -22.938  1.00  0.00    -0.026 C 
ATOM     14  C   UNL     1      96.473  -1.368 -23.717  1.00  0.00     0.005 C 
ATOM     15  C   UNL     1      97.887  -1.105 -24.220  1.00  0.00    -0.001 C 
ATOM     16  C   UNL     1      99.012   0.682 -22.683  1.00  0.00     0.007 C 
ATOM     17  C   UNL     1     100.118  -1.551 -23.103  1.00  0.00     0.012 C 
ATOM     18  C   UNL     1      97.929  -0.064 -25.385  1.00  0.00     0.000 C 
ATOM     19  C   UNL     1      99.277   1.507 -23.942  1.00  0.00     0.005 C 
ATOM     20  C   UNL     1      98.076   1.403 -24.911  1.00  0.00     0.003 C 
ATOM     21  C   UNL     1      99.019  -0.429 -26.412  1.00  0.00     0.031 C 
ATOM     22  C   UNL     1      98.073   2.416 -26.138  1.00  0.00    -0.008 C 
ATOM     23  C   UNL     1      99.168   0.591 -27.499  1.00  0.00    -0.027 C 
ATOM     24  C   UNL     1      98.855   1.893 -27.349  1.00  0.00    -0.065 C 
ATOM     25  C   UNL     1      98.669   3.805 -25.744  1.00  0.00     0.014 C 
ATOM     26  C   UNL     1      96.594   2.618 -26.573  1.00  0.00     0.016 C 
ATOM     27  C   UNL     1      99.102   2.836 -28.515  1.00  0.00     0.063 C 
ATOM     28  C   UNL     1      98.797   4.783 -26.924  1.00  0.00     0.033 C 
ATOM     29  C   UNL     1      99.668   4.179 -28.038  1.00  0.00     0.118 C 
BRANCH  29  30
ATOM     30  O   UNL     1      99.731   5.062 -29.126  1.00  0.00    -0.393 OA
ATOM     31  H   UNL     1      99.877   4.508 -29.937  1.00  0.00     0.210 HD
ENDBRANCH  29  30
ENDBRANCH   1  11
TORSDOF 6
ENDMDL
MODEL 6
REMARK VINA RESULT:    -6.356      1.024      1.166
REMARK INTER + INTRA:          -9.714
REMARK INTER:                  -8.437
REMARK INTRA:                  -1.277
REMARK UNBOUND:                -1.314
REMARK SMILES CC[C@H](C=C[C@@H](C)[C@@H]1CC[C@H]2[C@@H]3CC=C4C[C@@H](O)CC[C@]4(C)[C@@H]3CC[C@]21C)C(C)C
REMARK SMILES IDX 6 1 7 2 5 3 4 4 3 5 2 6 1 7 28 8 29 9 30 10 8 11 9 12 26 13
REMARK SMILES IDX 10 14 11 15 25 16 27 17 12 18 24 19 23 20 13 21 21 22 14 23
REMARK SMILES IDX 15 24 20 25 22 26 16 27 19 28 17 29 18 30
REMARK H PARENT 18 31
REMARK Flexibility Score: inf
ROOT
ATOM      1  C   UNL     1      95.033   1.417 -23.023  1.00  0.00     0.012 C 
ATOM      2  C   UNL     1      94.885   1.456 -21.490  1.00  0.00     0.012 C 
ENDROOT
BRANCH   1   3
ATOM      3  C   UNL     1      96.425   1.073 -23.531  1.00  0.00    -0.028 C 
ATOM      4  C   UNL     1      96.947   1.510 -24.695  1.00  0.00    -0.027 C 
BRANCH   4   5
ATOM      5  C   UNL     1      98.369   1.210 -25.142  1.00  0.00     0.014 C 
BRANCH   5   6
ATOM      6  C   UNL     1      98.576  -0.279 -25.524  1.00  0.00     0.004 C 
ATOM      7  C   UNL     1      99.749  -0.913 -24.773  1.00  0.00     0.004 C 
ENDBRANCH   5   6
BRANCH   5   8
ATOM      8  C   UNL     1      98.872   2.226 -26.219  1.00  0.00    -0.011 C 
ATOM      9  C   UNL     1      98.442   1.808 -27.635  1.00  0.00     0.008 C 
ATOM     10  C   UNL     1      98.457   3.684 -25.962  1.00  0.00     0.008 C 
ENDBRANCH   5   8
ENDBRANCH   4   5
ENDBRANCH   1   3
BRANCH   1  11
ATOM     11  C   UNL     1      94.357   2.645 -23.716  1.00  0.00     0.002 C 
ATOM     12  C   UNL     1      93.891   3.710 -22.723  1.00  0.00     0.005 C 
ATOM     13  C   UNL     1      93.180   2.475 -24.766  1.00  0.00    -0.026 C 
ATOM     14  C   UNL     1      92.986   4.607 -23.539  1.00  0.00     0.005 C 
ATOM     15  C   UNL     1      92.185   3.632 -24.394  1.00  0.00    -0.001 C 
ATOM     16  C   UNL     1      93.761   2.610 -26.209  1.00  0.00     0.007 C 
ATOM     17  C   UNL     1      92.431   1.123 -24.658  1.00  0.00     0.012 C 
ATOM     18  C   UNL     1      91.397   4.342 -25.542  1.00  0.00     0.000 C 
ATOM     19  C   UNL     1      92.761   3.094 -27.260  1.00  0.00     0.005 C 
ATOM     20  C   UNL     1      92.197   4.478 -26.861  1.00  0.00     0.003 C 
ATOM     21  C   UNL     1      90.038   3.657 -25.783  1.00  0.00     0.031 C 
ATOM     22  C   UNL     1      91.357   5.242 -27.976  1.00  0.00    -0.008 C 
ATOM     23  C   UNL     1      89.284   4.238 -26.940  1.00  0.00    -0.027 C 
ATOM     24  C   UNL     1      89.876   4.849 -27.985  1.00  0.00    -0.065 C 
ATOM     25  C   UNL     1      91.930   4.990 -29.407  1.00  0.00     0.014 C 
ATOM     26  C   UNL     1      91.448   6.764 -27.668  1.00  0.00     0.016 C 
ATOM     27  C   UNL     1      89.000   5.349 -29.122  1.00  0.00     0.063 C 
ATOM     28  C   UNL     1      91.086   5.611 -30.532  1.00  0.00     0.033 C 
ATOM     29  C   UNL     1      89.645   5.079 -30.486  1.00  0.00     0.118 C 
BRANCH  29  30
ATOM     30  O   UNL     1      88.877   5.695 -31.486  1.00  0.00    -0.393 OA
ATOM     31  H   UNL     1      87.990   5.248 -31.482  1.00  0.00     0.210 HD
ENDBRANCH  29  30
ENDBRANCH   1  11
TORSDOF 6
ENDMDL
MODEL 7
REMARK VINA RESULT:    -6.139      4.950      7.611
REMARK INTER + INTRA:          -9.426
REMARK INTER:                  -8.020
REMARK INTRA:                  -1.406
REMARK UNBOUND:                -1.314
REMARK SMILES CC[C@H](C=C[C@@H](C)[C@@H]1CC[C@H]2[C@@H]3CC=C4C[C@@H](O)CC[C@]4(C)[C@@H]3CC[C@]21C)C(C)C
REMARK SMILES IDX 6 1 7 2 5 3 4 4 3 5 2 6 1 7 28 8 29 9 30 10 8 11 9 12 26 13
REMARK SMILES IDX 10 14 11 15 25 16 27 17 12 18 24 19 23 20 13 21 21 22 14 23
REMARK SMILES IDX 15 24 20 25 22 26 16 27 19 28 17 29 18 30
REMARK H PARENT 18 31
REMARK Flexibility Score: inf
ROOT
ATOM      1  C   UNL     1      91.340   4.446 -24.123  1.00  0.00     0.012 C 
ATOM      2  C   UNL     1      92.372   4.607 -22.991  1.00  0.00     0.012 C 
ENDROOT
BRANCH   1   3
ATOM      3  C   UNL     1      91.684   5.162 -25.421  1.00  0.00    -0.028 C 
ATOM      4  C   UNL     1      91.053   4.967 -26.597  1.00  0.00    -0.027 C 
BRANCH   4   5
ATOM      5  C   UNL     1      91.372   5.752 -27.859  1.00  0.00     0.014 C 
BRANCH   5   6
ATOM      6  C   UNL     1      92.102   4.898 -28.928  1.00  0.00     0.004 C 
ATOM      7  C   UNL     1      91.798   3.406 -28.785  1.00  0.00     0.004 C 
ENDBRANCH   5   6
BRANCH   5   8
ATOM      8  C   UNL     1      90.124   6.526 -28.398  1.00  0.00    -0.011 C 
ATOM      9  C   UNL     1      90.387   7.125 -29.790  1.00  0.00     0.008 C 
ATOM     10  C   UNL     1      88.826   5.701 -28.426  1.00  0.00     0.008 C 
ENDBRANCH   5   8
ENDBRANCH   4   5
ENDBRANCH   1   3
BRANCH   1  11
ATOM     11  C   UNL     1      89.872   4.649 -23.622  1.00  0.00     0.002 C 
ATOM     12  C   UNL     1      89.783   4.897 -22.116  1.00  0.00     0.005 C 
ATOM     13  C   UNL     1      88.716   3.619 -23.970  1.00  0.00    -0.026 C 
ATOM     14  C   UNL     1      88.314   4.718 -21.798  1.00  0.00     0.005 C 
ATOM     15  C   UNL     1      87.907   3.508 -22.628  1.00  0.00    -0.001 C 
ATOM     16  C   UNL     1      87.865   4.188 -25.150  1.00  0.00     0.007 C 
ATOM     17  C   UNL     1      89.225   2.210 -24.361  1.00  0.00     0.012 C 
ATOM     18  C   UNL     1      86.357   3.317 -22.700  1.00  0.00     0.000 C 
ATOM     19  C   UNL     1      86.420   3.692 -25.195  1.00  0.00     0.005 C 
ATOM     20  C   UNL     1      85.688   4.060 -23.882  1.00  0.00     0.003 C 
ATOM     21  C   UNL     1      85.985   1.822 -22.699  1.00  0.00     0.031 C 
ATOM     22  C   UNL     1      84.109   3.861 -23.878  1.00  0.00    -0.008 C 
ATOM     23  C   UNL     1      84.516   1.582 -22.865  1.00  0.00    -0.027 C 
ATOM     24  C   UNL     1      83.687   2.438 -23.495  1.00  0.00    -0.065 C 
ATOM     25  C   UNL     1      83.480   4.191 -25.268  1.00  0.00     0.014 C 
ATOM     26  C   UNL     1      83.518   4.837 -22.822  1.00  0.00     0.016 C 
ATOM     27  C   UNL     1      82.224   2.051 -23.642  1.00  0.00     0.063 C 
ATOM     28  C   UNL     1      81.971   3.903 -25.351  1.00  0.00     0.033 C 
ATOM     29  C   UNL     1      81.682   2.429 -25.026  1.00  0.00     0.118 C 
BRANCH  29  30
ATOM     30  O   UNL     1      80.299   2.196 -25.056  1.00  0.00    -0.393 OA
ATOM     31  H   UNL     1      80.104   1.735 -25.914  1.00  0.00     0.210 HD
ENDBRANCH  29  30
ENDBRANCH   1  11
TORSDOF 6
ENDMDL
MODEL 8
REMARK VINA RESULT:    -6.094      4.963      6.378
REMARK INTER + INTRA:          -9.367
REMARK INTER:                  -8.151
REMARK INTRA:                  -1.215
REMARK UNBOUND:                -1.314
REMARK SMILES CC[C@H](C=C[C@@H](C)[C@@H]1CC[C@H]2[C@@H]3CC=C4C[C@@H](O)CC[C@]4(C)[C@@H]3CC[C@]21C)C(C)C
REMARK SMILES IDX 6 1 7 2 5 3 4 4 3 5 2 6 1 7 28 8 29 9 30 10 8 11 9 12 26 13
REMARK SMILES IDX 10 14 11 15 25 16 27 17 12 18 24 19 23 20 13 21 21 22 14 23
REMARK SMILES IDX 15 24 20 25 22 26 16 27 19 28 17 29 18 30
REMARK H PARENT 18 31
REMARK Flexibility Score: inf
ROOT
ATOM      1  C   UNL     1      95.990  -0.585 -23.864  1.00  0.00     0.012 C 
ATOM      2  C   UNL     1      96.297  -2.093 -23.773  1.00  0.00     0.012 C 
ENDROOT
BRANCH   1   3
ATOM      3  C   UNL     1      97.190   0.304 -24.155  1.00  0.00    -0.028 C 
ATOM      4  C   UNL     1      97.281   1.156 -25.196  1.00  0.00    -0.027 C 
BRANCH   4   5
ATOM      5  C   UNL     1      98.463   2.086 -25.419  1.00  0.00     0.014 C 
BRANCH   5   6
ATOM      6  C   UNL     1      99.560   1.456 -26.314  1.00  0.00     0.004 C 
ATOM      7  C   UNL     1      98.989   0.436 -27.301  1.00  0.00     0.004 C 
ENDBRANCH   5   6
BRANCH   5   8
ATOM      8  C   UNL     1      98.009   3.514 -25.867  1.00  0.00    -0.011 C 
ATOM      9  C   UNL     1      99.000   4.137 -26.863  1.00  0.00     0.008 C 
ATOM     10  C   UNL     1      96.585   3.577 -26.446  1.00  0.00     0.008 C 
ENDBRANCH   5   8
ENDBRANCH   4   5
ENDBRANCH   1   3
BRANCH   1  11
ATOM     11  C   UNL     1      95.069  -0.096 -22.699  1.00  0.00     0.002 C 
ATOM     12  C   UNL     1      94.521  -1.243 -21.848  1.00  0.00     0.005 C 
ATOM     13  C   UNL     1      93.850   0.889 -22.949  1.00  0.00    -0.026 C 
ATOM     14  C   UNL     1      93.417  -0.604 -21.034  1.00  0.00     0.005 C 
ATOM     15  C   UNL     1      92.716   0.312 -22.028  1.00  0.00    -0.001 C 
ATOM     16  C   UNL     1      94.278   2.338 -22.555  1.00  0.00     0.007 C 
ATOM     17  C   UNL     1      93.342   0.903 -24.412  1.00  0.00     0.012 C 
ATOM     18  C   UNL     1      91.729   1.310 -21.340  1.00  0.00     0.000 C 
ATOM     19  C   UNL     1      93.128   3.254 -22.135  1.00  0.00     0.005 C 
ATOM     20  C   UNL     1      92.382   2.650 -20.922  1.00  0.00     0.003 C 
ATOM     21  C   UNL     1      90.484   1.546 -22.216  1.00  0.00     0.031 C 
ATOM     22  C   UNL     1      91.339   3.605 -20.192  1.00  0.00    -0.008 C 
ATOM     23  C   UNL     1      89.550   2.571 -21.647  1.00  0.00    -0.027 C 
ATOM     24  C   UNL     1      89.945   3.567 -20.830  1.00  0.00    -0.065 C 
ATOM     25  C   UNL     1      91.822   5.089 -20.180  1.00  0.00     0.014 C 
ATOM     26  C   UNL     1      91.206   3.115 -18.722  1.00  0.00     0.016 C 
ATOM     27  C   UNL     1      88.907   4.574 -20.362  1.00  0.00     0.063 C 
ATOM     28  C   UNL     1      90.797   6.072 -19.589  1.00  0.00     0.033 C 
ATOM     29  C   UNL     1      89.470   6.000 -20.362  1.00  0.00     0.118 C 
BRANCH  29  30
ATOM     30  O   UNL     1      88.530   6.863 -19.779  1.00  0.00    -0.393 OA
ATOM     31  H   UNL     1      87.661   6.686 -20.226  1.00  0.00     0.210 HD
ENDBRANCH  29  30
ENDBRANCH   1  11
TORSDOF 6
ENDMDL
MODEL 9
REMARK VINA RESULT:    -6.060      1.705      2.624
REMARK INTER + INTRA:          -9.322
REMARK INTER:                  -8.027
REMARK INTRA:                  -1.295
REMARK UNBOUND:                -1.314
REMARK SMILES CC[C@H](C=C[C@@H](C)[C@@H]1CC[C@H]2[C@@H]3CC=C4C[C@@H](O)CC[C@]4(C)[C@@H]3CC[C@]21C)C(C)C
REMARK SMILES IDX 6 1 7 2 5 3 4 4 3 5 2 6 1 7 28 8 29 9 30 10 8 11 9 12 26 13
REMARK SMILES IDX 10 14 11 15 25 16 27 17 12 18 24 19 23 20 13 21 21 22 14 23
REMARK SMILES IDX 15 24 20 25 22 26 16 27 19 28 17 29 18 30
REMARK H PARENT 18 31
REMARK Flexibility Score: inf
ROOT
ATOM      1  C   UNL     1      93.633   2.424 -21.943  1.00  0.00     0.012 C 
ATOM      2  C   UNL     1      93.640   3.227 -20.628  1.00  0.00     0.012 C 
ENDROOT
BRANCH   1   3
ATOM      3  C   UNL     1      94.854   1.544 -22.172  1.00  0.00    -0.028 C 
ATOM      4  C   UNL     1      95.281   1.122 -23.379  1.00  0.00    -0.027 C 
BRANCH   4   5
ATOM      5  C   UNL     1      96.547   0.306 -23.582  1.00  0.00     0.014 C 
BRANCH   5   6
ATOM      6  C   UNL     1      96.259  -1.201 -23.806  1.00  0.00     0.004 C 
ATOM      7  C   UNL     1      94.761  -1.498 -23.901  1.00  0.00     0.004 C 
ENDBRANCH   5   6
BRANCH   5   8
ATOM      8  C   UNL     1      97.492   0.945 -24.652  1.00  0.00    -0.011 C 
ATOM      9  C   UNL     1      96.869   2.205 -25.277  1.00  0.00     0.008 C 
ATOM     10  C   UNL     1      98.907   1.267 -24.140  1.00  0.00     0.008 C 
ENDBRANCH   5   8
ENDBRANCH   4   5
ENDBRANCH   1   3
BRANCH   1  11
ATOM     11  C   UNL     1      93.204   3.295 -23.169  1.00  0.00     0.002 C 
ATOM     12  C   UNL     1      93.013   4.771 -22.815  1.00  0.00     0.005 C 
ATOM     13  C   UNL     1      91.975   2.899 -24.092  1.00  0.00    -0.026 C 
ATOM     14  C   UNL     1      92.284   5.346 -24.011  1.00  0.00     0.005 C 
ATOM     15  C   UNL     1      91.263   4.272 -24.364  1.00  0.00    -0.001 C 
ATOM     16  C   UNL     1      92.513   2.223 -25.392  1.00  0.00     0.007 C 
ATOM     17  C   UNL     1      90.964   1.941 -23.416  1.00  0.00     0.012 C 
ATOM     18  C   UNL     1      90.596   4.508 -25.757  1.00  0.00     0.000 C 
ATOM     19  C   UNL     1      91.596   2.353 -26.608  1.00  0.00     0.005 C 
ATOM     20  C   UNL     1      91.351   3.845 -26.935  1.00  0.00     0.003 C 
ATOM     21  C   UNL     1      89.114   4.085 -25.738  1.00  0.00     0.031 C 
ATOM     22  C   UNL     1      90.647   4.154 -28.328  1.00  0.00    -0.008 C 
ATOM     23  C   UNL     1      88.452   4.198 -27.077  1.00  0.00    -0.027 C 
ATOM     24  C   UNL     1      89.117   4.114 -28.247  1.00  0.00    -0.065 C 
ATOM     25  C   UNL     1      91.096   3.152 -29.439  1.00  0.00     0.014 C 
ATOM     26  C   UNL     1      91.068   5.588 -28.757  1.00  0.00     0.016 C 
ATOM     27  C   UNL     1      88.320   4.194 -29.539  1.00  0.00     0.063 C 
ATOM     28  C   UNL     1      90.356   3.334 -30.775  1.00  0.00     0.033 C 
ATOM     29  C   UNL     1      88.838   3.192 -30.578  1.00  0.00     0.118 C 
BRANCH  29  30
ATOM     30  O   UNL     1      88.177   3.412 -31.795  1.00  0.00    -0.393 OA
ATOM     31  H   UNL     1      87.371   2.831 -31.794  1.00  0.00     0.210 HD
ENDBRANCH  29  30
ENDBRANCH   1  11
TORSDOF 6
ENDMDL
