MODEL 1
REMARK VINA RESULT:    -6.188      0.000      0.000
REMARK INTER + INTRA:          -6.792
REMARK INTER:                  -6.550
REMARK INTRA:                  -0.242
REMARK UNBOUND:                -0.242
REMARK SMILES CC1=CC[C@@H]2[C@H]3[C@H](C(C)C)CC[C@]2(C)[C@@H]13
REMARK SMILES IDX 1 1 2 2 3 3 4 4 5 5 6 6 15 7 13 8 12 9 11 10 7 11 14 12 8 13
REMARK SMILES IDX 9 14 10 15
REMARK H PARENT
REMARK Flexibility Score: inf
ROOT
ATOM      1  C   UNL     1     101.644 107.004 125.393  1.00  0.00     0.039 C 
ATOM      2  C   UNL     1     102.011 107.101 126.843  1.00  0.00    -0.073 C 
ATOM      3  C   UNL     1     101.091 106.964 127.834  1.00  0.00    -0.027 C 
ATOM      4  C   UNL     1     101.550 107.087 129.290  1.00  0.00     0.031 C 
ATOM      5  C   UNL     1     103.079 107.413 129.354  1.00  0.00     0.003 C 
ATOM      6  C   UNL     1     103.358 108.543 128.335  1.00  0.00     0.004 C 
ATOM      7  C   UNL     1     103.446 107.423 127.265  1.00  0.00     0.024 C 
ATOM      8  C   UNL     1     103.896 106.491 128.416  1.00  0.00    -0.022 C 
ATOM      9  C   UNL     1     105.415 106.680 128.714  1.00  0.00     0.008 C 
ATOM     10  C   UNL     1     105.893 108.137 128.467  1.00  0.00     0.005 C 
ATOM     11  C   UNL     1     104.749 109.182 128.638  1.00  0.00    -0.005 C 
ATOM     12  C   UNL     1     103.529 104.990 128.346  1.00  0.00     0.012 C 
ENDROOT
BRANCH  11  13
ATOM     13  C   UNL     1     105.026 110.495 127.844  1.00  0.00    -0.014 C 
ATOM     14  C   UNL     1     105.021 111.763 128.715  1.00  0.00     0.007 C 
ATOM     15  C   UNL     1     106.344 110.407 127.058  1.00  0.00     0.007 C 
ENDBRANCH  11  13
TORSDOF 1
ENDMDL
MODEL 2
REMARK VINA RESULT:    -6.173      3.847      6.439
REMARK INTER + INTRA:          -6.777
REMARK INTER:                  -6.500
REMARK INTRA:                  -0.276
REMARK UNBOUND:                -0.242
REMARK SMILES CC1=CC[C@@H]2[C@H]3[C@H](C(C)C)CC[C@]2(C)[C@@H]13
REMARK SMILES IDX 1 1 2 2 3 3 4 4 5 5 6 6 15 7 13 8 12 9 11 10 7 11 14 12 8 13
REMARK SMILES IDX 9 14 10 15
REMARK H PARENT
REMARK Flexibility Score: inf
ROOT
ATOM      1  C   UNL     1     112.060 107.841 129.457  1.00  0.00     0.039 C 
ATOM      2  C   UNL     1     111.120 107.463 128.352  1.00  0.00    -0.073 C 
ATOM      3  C   UNL     1     111.563 107.028 127.142  1.00  0.00    -0.027 C 
ATOM      4  C   UNL     1     110.535 106.672 126.064  1.00  0.00     0.031 C 
ATOM      5  C   UNL     1     109.084 106.938 126.584  1.00  0.00     0.003 C 
ATOM      6  C   UNL     1     109.079 108.331 127.258  1.00  0.00     0.004 C 
ATOM      7  C   UNL     1     109.608 107.612 128.527  1.00  0.00     0.024 C 
ATOM      8  C   UNL     1     108.874 106.354 128.003  1.00  0.00    -0.022 C 
ATOM      9  C   UNL     1     107.357 106.416 128.359  1.00  0.00     0.008 C 
ATOM     10  C   UNL     1     106.806 107.867 128.366  1.00  0.00     0.005 C 
ATOM     11  C   UNL     1     107.606 108.818 127.426  1.00  0.00    -0.005 C 
ATOM     12  C   UNL     1     109.461 104.960 128.327  1.00  0.00     0.012 C 
ENDROOT
BRANCH  11  13
ATOM     13  C   UNL     1     107.482 110.313 127.854  1.00  0.00    -0.014 C 
ATOM     14  C   UNL     1     106.360 111.077 127.131  1.00  0.00     0.007 C 
ATOM     15  C   UNL     1     107.309 110.447 129.376  1.00  0.00     0.007 C 
ENDBRANCH  11  13
TORSDOF 1
ENDMDL
MODEL 3
REMARK VINA RESULT:    -6.161      4.639      6.611
REMARK INTER + INTRA:          -6.763
REMARK INTER:                  -6.494
REMARK INTRA:                  -0.269
REMARK UNBOUND:                -0.242
REMARK SMILES CC1=CC[C@@H]2[C@H]3[C@H](C(C)C)CC[C@]2(C)[C@@H]13
REMARK SMILES IDX 1 1 2 2 3 3 4 4 5 5 6 6 15 7 13 8 12 9 11 10 7 11 14 12 8 13
REMARK SMILES IDX 9 14 10 15
REMARK H PARENT
REMARK Flexibility Score: inf
ROOT
ATOM      1  C   UNL     1     107.838 100.401 129.284  1.00  0.00     0.039 C 
ATOM      2  C   UNL     1     107.396 101.447 128.305  1.00  0.00    -0.073 C 
ATOM      3  C   UNL     1     106.837 101.128 127.108  1.00  0.00    -0.027 C 
ATOM      4  C   UNL     1     106.422 102.259 126.162  1.00  0.00     0.031 C 
ATOM      5  C   UNL     1     106.787 103.648 126.780  1.00  0.00     0.003 C 
ATOM      6  C   UNL     1     108.235 103.553 127.318  1.00  0.00     0.004 C 
ATOM      7  C   UNL     1     107.616 102.932 128.597  1.00  0.00     0.024 C 
ATOM      8  C   UNL     1     106.343 103.746 128.261  1.00  0.00    -0.022 C 
ATOM      9  C   UNL     1     106.493 105.223 128.740  1.00  0.00     0.008 C 
ATOM     10  C   UNL     1     107.958 105.729 128.660  1.00  0.00     0.005 C 
ATOM     11  C   UNL     1     108.790 104.990 127.568  1.00  0.00    -0.005 C 
ATOM     12  C   UNL     1     104.963 103.172 128.661  1.00  0.00     0.012 C 
ENDROOT
BRANCH  11  13
ATOM     13  C   UNL     1     110.321 105.032 127.863  1.00  0.00    -0.014 C 
ATOM     14  C   UNL     1     111.092 106.051 127.006  1.00  0.00     0.007 C 
ATOM     15  C   UNL     1     110.597 105.287 129.353  1.00  0.00     0.007 C 
ENDBRANCH  11  13
TORSDOF 1
ENDMDL
MODEL 4
REMARK VINA RESULT:    -6.152      0.997      4.709
REMARK INTER + INTRA:          -6.754
REMARK INTER:                  -6.498
REMARK INTRA:                  -0.256
REMARK UNBOUND:                -0.242
REMARK SMILES CC1=CC[C@@H]2[C@H]3[C@H](C(C)C)CC[C@]2(C)[C@@H]13
REMARK SMILES IDX 1 1 2 2 3 3 4 4 5 5 6 6 15 7 13 8 12 9 11 10 7 11 14 12 8 13
REMARK SMILES IDX 9 14 10 15
REMARK H PARENT
REMARK Flexibility Score: inf
ROOT
ATOM      1  C   UNL     1     104.764 112.031 129.266  1.00  0.00     0.039 C 
ATOM      2  C   UNL     1     105.215 110.917 128.370  1.00  0.00    -0.073 C 
ATOM      3  C   UNL     1     105.883 111.148 127.208  1.00  0.00    -0.027 C 
ATOM      4  C   UNL     1     106.298 109.952 126.345  1.00  0.00     0.031 C 
ATOM      5  C   UNL     1     105.802 108.616 126.989  1.00  0.00     0.003 C 
ATOM      6  C   UNL     1     104.326 108.820 127.407  1.00  0.00     0.004 C 
ATOM      7  C   UNL     1     104.883 109.462 128.704  1.00  0.00     0.024 C 
ATOM      8  C   UNL     1     106.126 108.561 128.503  1.00  0.00    -0.022 C 
ATOM      9  C   UNL     1     105.849 107.119 129.030  1.00  0.00     0.008 C 
ATOM     10  C   UNL     1     104.366 106.696 128.854  1.00  0.00     0.005 C 
ATOM     11  C   UNL     1     103.667 107.430 127.671  1.00  0.00    -0.005 C 
ATOM     12  C   UNL     1     107.503 109.072 128.987  1.00  0.00     0.012 C 
ENDROOT
BRANCH  11  13
ATOM     13  C   UNL     1     102.118 107.490 127.845  1.00  0.00    -0.014 C 
ATOM     14  C   UNL     1     101.342 106.648 126.819  1.00  0.00     0.007 C 
ATOM     15  C   UNL     1     101.699 107.094 129.270  1.00  0.00     0.007 C 
ENDBRANCH  11  13
TORSDOF 1
ENDMDL
MODEL 5
REMARK VINA RESULT:    -6.124      3.000      5.547
REMARK INTER + INTRA:          -6.724
REMARK INTER:                  -6.481
REMARK INTRA:                  -0.243
REMARK UNBOUND:                -0.242
REMARK SMILES CC1=CC[C@@H]2[C@H]3[C@H](C(C)C)CC[C@]2(C)[C@@H]13
REMARK SMILES IDX 1 1 2 2 3 3 4 4 5 5 6 6 15 7 13 8 12 9 11 10 7 11 14 12 8 13
REMARK SMILES IDX 9 14 10 15
REMARK H PARENT
REMARK Flexibility Score: inf
ROOT
ATOM      1  C   UNL     1     105.606 101.503 125.363  1.00  0.00     0.039 C 
ATOM      2  C   UNL     1     105.529 101.897 126.808  1.00  0.00    -0.073 C 
ATOM      3  C   UNL     1     105.677 100.994 127.813  1.00  0.00    -0.027 C 
ATOM      4  C   UNL     1     105.573 101.480 129.263  1.00  0.00     0.031 C 
ATOM      5  C   UNL     1     105.253 103.010 129.304  1.00  0.00     0.003 C 
ATOM      6  C   UNL     1     104.111 103.275 128.294  1.00  0.00     0.004 C 
ATOM      7  C   UNL     1     105.216 103.340 127.208  1.00  0.00     0.024 C 
ATOM      8  C   UNL     1     106.165 103.808 128.339  1.00  0.00    -0.022 C 
ATOM      9  C   UNL     1     105.984 105.332 128.612  1.00  0.00     0.008 C 
ATOM     10  C   UNL     1     104.526 105.810 128.376  1.00  0.00     0.005 C 
ATOM     11  C   UNL     1     103.480 104.673 128.581  1.00  0.00    -0.005 C 
ATOM     12  C   UNL     1     107.664 103.434 128.256  1.00  0.00     0.012 C 
ENDROOT
BRANCH  11  13
ATOM     13  C   UNL     1     102.157 104.940 127.799  1.00  0.00    -0.014 C 
ATOM     14  C   UNL     1     100.904 104.977 128.690  1.00  0.00     0.007 C 
ATOM     15  C   UNL     1     102.247 106.231 126.970  1.00  0.00     0.007 C 
ENDBRANCH  11  13
TORSDOF 1
ENDMDL
MODEL 6
REMARK VINA RESULT:    -6.117      2.265      5.053
REMARK INTER + INTRA:          -6.717
REMARK INTER:                  -6.460
REMARK INTRA:                  -0.257
REMARK UNBOUND:                -0.242
REMARK SMILES CC1=CC[C@@H]2[C@H]3[C@H](C(C)C)CC[C@]2(C)[C@@H]13
REMARK SMILES IDX 1 1 2 2 3 3 4 4 5 5 6 6 15 7 13 8 12 9 11 10 7 11 14 12 8 13
REMARK SMILES IDX 9 14 10 15
REMARK H PARENT
REMARK Flexibility Score: inf
ROOT
ATOM      1  C   UNL     1     100.366 104.814 129.181  1.00  0.00     0.039 C 
ATOM      2  C   UNL     1     101.490 105.270 128.300  1.00  0.00    -0.073 C 
ATOM      3  C   UNL     1     101.272 105.909 127.121  1.00  0.00    -0.027 C 
ATOM      4  C   UNL     1     102.477 106.332 126.275  1.00  0.00     0.031 C 
ATOM      5  C   UNL     1     103.809 105.876 126.958  1.00  0.00     0.003 C 
ATOM      6  C   UNL     1     103.625 104.404 127.400  1.00  0.00     0.004 C 
ATOM      7  C   UNL     1     102.944 104.973 128.672  1.00  0.00     0.024 C 
ATOM      8  C   UNL     1     103.825 106.230 128.466  1.00  0.00    -0.022 C 
ATOM      9  C   UNL     1     105.260 105.992 129.028  1.00  0.00     0.008 C 
ATOM     10  C   UNL     1     105.716 104.515 128.891  1.00  0.00     0.005 C 
ATOM     11  C   UNL     1     105.021 103.778 127.706  1.00  0.00    -0.005 C 
ATOM     12  C   UNL     1     103.276 107.606 128.911  1.00  0.00     0.012 C 
ENDROOT
BRANCH  11  13
ATOM     13  C   UNL     1     104.988 102.232 127.910  1.00  0.00    -0.014 C 
ATOM     14  C   UNL     1     105.886 101.455 126.933  1.00  0.00     0.007 C 
ATOM     15  C   UNL     1     105.338 101.851 129.358  1.00  0.00     0.007 C 
ENDBRANCH  11  13
TORSDOF 1
ENDMDL
MODEL 7
REMARK VINA RESULT:    -6.104      3.078      5.500
REMARK INTER + INTRA:          -6.703
REMARK INTER:                  -6.460
REMARK INTRA:                  -0.243
REMARK UNBOUND:                -0.242
REMARK SMILES CC1=CC[C@@H]2[C@H]3[C@H](C(C)C)CC[C@]2(C)[C@@H]13
REMARK SMILES IDX 1 1 2 2 3 3 4 4 5 5 6 6 15 7 13 8 12 9 11 10 7 11 14 12 8 13
REMARK SMILES IDX 9 14 10 15
REMARK H PARENT
REMARK Flexibility Score: inf
ROOT
ATOM      1  C   UNL     1     107.009 110.772 125.353  1.00  0.00     0.039 C 
ATOM      2  C   UNL     1     107.140 110.366 126.791  1.00  0.00    -0.073 C 
ATOM      3  C   UNL     1     106.980 111.251 127.810  1.00  0.00    -0.027 C 
ATOM      4  C   UNL     1     107.141 110.756 129.250  1.00  0.00     0.031 C 
ATOM      5  C   UNL     1     107.528 109.241 129.266  1.00  0.00     0.003 C 
ATOM      6  C   UNL     1     108.654 109.036 128.225  1.00  0.00     0.004 C 
ATOM      7  C   UNL     1     107.525 108.935 127.167  1.00  0.00     0.024 C 
ATOM      8  C   UNL     1     106.627 108.415 128.316  1.00  0.00    -0.022 C 
ATOM      9  C   UNL     1     106.880 106.896 128.566  1.00  0.00     0.008 C 
ATOM     10  C   UNL     1     108.351 106.485 128.288  1.00  0.00     0.005 C 
ATOM     11  C   UNL     1     109.352 107.664 128.479  1.00  0.00    -0.005 C 
ATOM     12  C   UNL     1     105.111 108.723 128.275  1.00  0.00     0.012 C 
ENDROOT
BRANCH  11  13
ATOM     13  C   UNL     1     110.665 107.463 127.661  1.00  0.00    -0.014 C 
ATOM     14  C   UNL     1     111.942 107.484 128.518  1.00  0.00     0.007 C 
ATOM     15  C   UNL     1     110.614 106.171 126.831  1.00  0.00     0.007 C 
ENDBRANCH  11  13
TORSDOF 1
ENDMDL
MODEL 8
REMARK VINA RESULT:    -6.079      1.390      5.096
REMARK INTER + INTRA:          -6.677
REMARK INTER:                  -6.410
REMARK INTRA:                  -0.266
REMARK UNBOUND:                -0.242
REMARK SMILES CC1=CC[C@@H]2[C@H]3[C@H](C(C)C)CC[C@]2(C)[C@@H]13
REMARK SMILES IDX 1 1 2 2 3 3 4 4 5 5 6 6 15 7 13 8 12 9 11 10 7 11 14 12 8 13
REMARK SMILES IDX 9 14 10 15
REMARK H PARENT
REMARK Flexibility Score: inf
ROOT
ATOM      1  C   UNL     1     108.507 108.789 128.876  1.00  0.00     0.039 C 
ATOM      2  C   UNL     1     107.277 109.587 128.558  1.00  0.00    -0.073 C 
ATOM      3  C   UNL     1     107.102 110.857 129.009  1.00  0.00    -0.027 C 
ATOM      4  C   UNL     1     105.811 111.598 128.647  1.00  0.00     0.031 C 
ATOM      5  C   UNL     1     104.867 110.672 127.812  1.00  0.00     0.003 C 
ATOM      6  C   UNL     1     104.822 109.295 128.517  1.00  0.00     0.004 C 
ATOM      7  C   UNL     1     106.132 108.970 127.754  1.00  0.00     0.024 C 
ATOM      8  C   UNL     1     105.634 109.959 126.671  1.00  0.00    -0.022 C 
ATOM      9  C   UNL     1     104.607 109.265 125.725  1.00  0.00     0.008 C 
ATOM     10  C   UNL     1     103.755 108.192 126.455  1.00  0.00     0.005 C 
ATOM     11  C   UNL     1     103.606 108.478 127.980  1.00  0.00    -0.005 C 
ATOM     12  C   UNL     1     106.677 110.764 125.861  1.00  0.00     0.012 C 
ENDROOT
BRANCH  11  13
ATOM     13  C   UNL     1     103.305 107.184 128.797  1.00  0.00    -0.014 C 
ATOM     14  C   UNL     1     101.844 107.067 129.263  1.00  0.00     0.007 C 
ATOM     15  C   UNL     1     103.707 105.923 128.016  1.00  0.00     0.007 C 
ENDBRANCH  11  13
TORSDOF 1
ENDMDL
MODEL 9
REMARK VINA RESULT:    -6.077      4.735      7.766
REMARK INTER + INTRA:          -6.674
REMARK INTER:                  -6.417
REMARK INTRA:                  -0.257
REMARK UNBOUND:                -0.242
REMARK SMILES CC1=CC[C@@H]2[C@H]3[C@H](C(C)C)CC[C@]2(C)[C@@H]13
REMARK SMILES IDX 1 1 2 2 3 3 4 4 5 5 6 6 15 7 13 8 12 9 11 10 7 11 14 12 8 13
REMARK SMILES IDX 9 14 10 15
REMARK H PARENT
REMARK Flexibility Score: inf
ROOT
ATOM      1  C   UNL     1     111.106 105.711 125.356  1.00  0.00     0.039 C 
ATOM      2  C   UNL     1     110.709 105.625 126.800  1.00  0.00    -0.073 C 
ATOM      3  C   UNL     1     111.603 105.805 127.807  1.00  0.00    -0.027 C 
ATOM      4  C   UNL     1     111.116 105.690 129.255  1.00  0.00     0.031 C 
ATOM      5  C   UNL     1     109.597 105.321 129.292  1.00  0.00     0.003 C 
ATOM      6  C   UNL     1     109.373 104.168 128.285  1.00  0.00     0.004 C 
ATOM      7  C   UNL     1     109.276 105.268 127.196  1.00  0.00     0.024 C 
ATOM      8  C   UNL     1     108.774 106.204 128.322  1.00  0.00    -0.022 C 
ATOM      9  C   UNL     1     107.255 105.975 128.590  1.00  0.00     0.008 C 
ATOM     10  C   UNL     1     106.825 104.501 128.357  1.00  0.00     0.005 C 
ATOM     11  C   UNL     1     107.995 103.493 128.569  1.00  0.00    -0.005 C 
ATOM     12  C   UNL     1     109.099 107.714 128.236  1.00  0.00     0.012 C 
ENDROOT
BRANCH  11  13
ATOM     13  C   UNL     1     107.774 102.160 127.790  1.00  0.00    -0.014 C 
ATOM     14  C   UNL     1     107.509 100.946 128.696  1.00  0.00     0.007 C 
ATOM     15  C   UNL     1     106.644 102.296 126.756  1.00  0.00     0.007 C 
ENDBRANCH  11  13
TORSDOF 1
ENDMDL
