MODEL 1
REMARK VINA RESULT:    -4.219      0.000      0.000
REMARK INTER + INTRA:          -5.159
REMARK INTER:                  -4.836
REMARK INTRA:                  -0.324
REMARK UNBOUND:                -0.324
REMARK SMILES COc1ccc(C(C)=O)c(O)c1
REMARK SMILES IDX 6 1 10 2 12 3 3 4 4 5 5 6 7 7 8 8 9 9 11 10 2 12 1 13
REMARK H PARENT 11 11
REMARK Flexibility Score: inf
ROOT
ATOM      1  C   UNL     1      -8.750 -18.751 -16.935  1.00  0.00     0.059 A 
ATOM      2  C   UNL     1      -9.067 -17.425 -16.559  1.00  0.00     0.130 A 
ATOM      3  C   UNL     1      -9.456 -16.492 -17.531  1.00  0.00     0.093 A 
ATOM      4  C   UNL     1      -9.543 -16.852 -18.879  1.00  0.00     0.122 A 
ATOM      5  C   UNL     1      -9.233 -18.169 -19.255  1.00  0.00     0.047 A 
ATOM      6  C   UNL     1      -8.842 -19.104 -18.296  1.00  0.00     0.019 A 
ENDROOT
BRANCH   1   7
ATOM      7  C   UNL     1      -8.323 -19.761 -15.924  1.00  0.00     0.163 C 
ATOM      8  C   UNL     1      -7.238 -20.755 -16.212  1.00  0.00     0.093 C 
ATOM      9  O   UNL     1      -8.857 -19.779 -14.782  1.00  0.00    -0.294 OA
ENDBRANCH   1   7
BRANCH   2  10
ATOM     10  O   UNL     1      -9.007 -17.030 -15.221  1.00  0.00    -0.507 OA
ATOM     11  H   UNL     1      -9.776 -16.544 -14.774  1.00  0.00     0.293 HD
ENDBRANCH   2  10
BRANCH   4  12
ATOM     12  O   UNL     1      -9.939 -15.876 -19.805  1.00  0.00    -0.497 OA
ATOM     13  C   UNL     1      -9.602 -15.898 -21.189  1.00  0.00     0.278 C 
ENDBRANCH   4  12
TORSDOF 3
ENDMDL
MODEL 2
REMARK VINA RESULT:    -4.036      1.964      4.813
REMARK INTER + INTRA:          -4.949
REMARK INTER:                  -4.609
REMARK INTRA:                  -0.341
REMARK UNBOUND:                -0.324
REMARK SMILES COc1ccc(C(C)=O)c(O)c1
REMARK SMILES IDX 6 1 10 2 12 3 3 4 4 5 5 6 7 7 8 8 9 9 11 10 2 12 1 13
REMARK H PARENT 11 11
REMARK Flexibility Score: inf
ROOT
ATOM      1  C   UNL     1      -7.981 -18.533 -16.650  1.00  0.00     0.059 A 
ATOM      2  C   UNL     1      -8.262 -19.819 -16.133  1.00  0.00     0.130 A 
ATOM      3  C   UNL     1      -7.327 -20.854 -16.279  1.00  0.00     0.093 A 
ATOM      4  C   UNL     1      -6.108 -20.637 -16.928  1.00  0.00     0.122 A 
ATOM      5  C   UNL     1      -5.825 -19.359 -17.438  1.00  0.00     0.047 A 
ATOM      6  C   UNL     1      -6.750 -18.323 -17.300  1.00  0.00     0.019 A 
ENDROOT
BRANCH   1   7
ATOM      7  C   UNL     1      -8.961 -17.415 -16.518  1.00  0.00     0.163 C 
ATOM      8  C   UNL     1      -9.365 -16.578 -17.695  1.00  0.00     0.093 C 
ATOM      9  O   UNL     1      -9.496 -17.170 -15.404  1.00  0.00    -0.294 OA
ENDBRANCH   1   7
BRANCH   2  10
ATOM     10  O   UNL     1      -9.461 -20.072 -15.465  1.00  0.00    -0.507 OA
ATOM     11  H   UNL     1      -9.535 -20.796 -14.759  1.00  0.00     0.293 HD
ENDBRANCH   2  10
BRANCH   4  12
ATOM     12  O   UNL     1      -5.213 -21.710 -17.042  1.00  0.00    -0.497 OA
ATOM     13  C   UNL     1      -5.595 -23.045 -17.360  1.00  0.00     0.278 C 
ENDBRANCH   4  12
TORSDOF 3
ENDMDL
MODEL 3
REMARK VINA RESULT:    -3.986      2.375      3.862
REMARK INTER + INTRA:          -4.892
REMARK INTER:                  -4.631
REMARK INTRA:                  -0.261
REMARK UNBOUND:                -0.324
REMARK SMILES COc1ccc(C(C)=O)c(O)c1
REMARK SMILES IDX 6 1 10 2 12 3 3 4 4 5 5 6 7 7 8 8 9 9 11 10 2 12 1 13
REMARK H PARENT 11 11
REMARK Flexibility Score: inf
ROOT
ATOM      1  C   UNL     1      -8.701 -19.011 -16.918  1.00  0.00     0.059 A 
ATOM      2  C   UNL     1      -8.084 -20.271 -16.740  1.00  0.00     0.130 A 
ATOM      3  C   UNL     1      -7.764 -21.060 -17.855  1.00  0.00     0.093 A 
ATOM      4  C   UNL     1      -8.041 -20.620 -19.151  1.00  0.00     0.122 A 
ATOM      5  C   UNL     1      -8.649 -19.367 -19.332  1.00  0.00     0.047 A 
ATOM      6  C   UNL     1      -8.975 -18.575 -18.229  1.00  0.00     0.019 A 
ENDROOT
BRANCH   1   7
ATOM      7  C   UNL     1      -9.063 -18.155 -15.752  1.00  0.00     0.163 C 
ATOM      8  C   UNL     1      -9.250 -16.674 -15.888  1.00  0.00     0.093 C 
ATOM      9  O   UNL     1      -9.247 -18.675 -14.618  1.00  0.00    -0.294 OA
ENDBRANCH   1   7
BRANCH   2  10
ATOM     10  O   UNL     1      -7.778 -20.740 -15.462  1.00  0.00    -0.507 OA
ATOM     11  H   UNL     1      -7.517 -21.706 -15.297  1.00  0.00     0.293 HD
ENDBRANCH   2  10
BRANCH   4  12
ATOM     12  O   UNL     1      -7.696 -21.453 -20.226  1.00  0.00    -0.497 OA
ATOM     13  C   UNL     1      -8.151 -22.794 -20.382  1.00  0.00     0.278 C 
ENDBRANCH   4  12
TORSDOF 3
ENDMDL
MODEL 4
REMARK VINA RESULT:    -3.933      2.386      3.783
REMARK INTER + INTRA:          -4.832
REMARK INTER:                  -4.533
REMARK INTRA:                  -0.299
REMARK UNBOUND:                -0.324
REMARK SMILES COc1ccc(C(C)=O)c(O)c1
REMARK SMILES IDX 6 1 10 2 12 3 3 4 4 5 5 6 7 7 8 8 9 9 11 10 2 12 1 13
REMARK H PARENT 11 11
REMARK Flexibility Score: inf
ROOT
ATOM      1  C   UNL     1      -7.839 -20.687 -18.229  1.00  0.00     0.059 A 
ATOM      2  C   UNL     1      -7.676 -20.474 -16.841  1.00  0.00     0.130 A 
ATOM      3  C   UNL     1      -8.083 -19.262 -16.263  1.00  0.00     0.093 A 
ATOM      4  C   UNL     1      -8.657 -18.253 -17.039  1.00  0.00     0.122 A 
ATOM      5  C   UNL     1      -8.825 -18.462 -18.418  1.00  0.00     0.047 A 
ATOM      6  C   UNL     1      -8.421 -19.664 -19.003  1.00  0.00     0.019 A 
ENDROOT
BRANCH   1   7
ATOM      7  C   UNL     1      -7.406 -21.961 -18.873  1.00  0.00     0.163 C 
ATOM      8  C   UNL     1      -8.046 -22.467 -20.131  1.00  0.00     0.093 C 
ATOM      9  O   UNL     1      -6.460 -22.631 -18.377  1.00  0.00    -0.294 OA
ENDBRANCH   1   7
BRANCH   2  10
ATOM     10  O   UNL     1      -7.120 -21.464 -16.029  1.00  0.00    -0.507 OA
ATOM     11  H   UNL     1      -7.691 -22.177 -15.591  1.00  0.00     0.293 HD
ENDBRANCH   2  10
BRANCH   4  12
ATOM     12  O   UNL     1      -9.046 -17.063 -16.405  1.00  0.00    -0.497 OA
ATOM     13  C   UNL     1      -9.802 -17.006 -15.199  1.00  0.00     0.278 C 
ENDBRANCH   4  12
TORSDOF 3
ENDMDL
MODEL 5
REMARK VINA RESULT:    -3.764      2.208      4.697
REMARK INTER + INTRA:          -4.637
REMARK INTER:                  -4.306
REMARK INTRA:                  -0.331
REMARK UNBOUND:                -0.324
REMARK SMILES COc1ccc(C(C)=O)c(O)c1
REMARK SMILES IDX 6 1 10 2 12 3 3 4 4 5 5 6 7 7 8 8 9 9 11 10 2 12 1 13
REMARK H PARENT 11 11
REMARK Flexibility Score: inf
ROOT
ATOM      1  C   UNL     1      -8.548 -18.533 -16.961  1.00  0.00     0.059 A 
ATOM      2  C   UNL     1      -8.641 -18.968 -18.304  1.00  0.00     0.130 A 
ATOM      3  C   UNL     1      -8.143 -20.227 -18.671  1.00  0.00     0.093 A 
ATOM      4  C   UNL     1      -7.555 -21.071 -17.726  1.00  0.00     0.122 A 
ATOM      5  C   UNL     1      -7.465 -20.644 -16.391  1.00  0.00     0.047 A 
ATOM      6  C   UNL     1      -7.955 -19.392 -16.016  1.00  0.00     0.019 A 
ENDROOT
BRANCH   1   7
ATOM      7  C   UNL     1      -9.059 -17.195 -16.544  1.00  0.00     0.163 C 
ATOM      8  C   UNL     1      -9.770 -16.994 -15.240  1.00  0.00     0.093 C 
ATOM      9  O   UNL     1      -8.874 -16.189 -17.281  1.00  0.00    -0.294 OA
ENDBRANCH   1   7
BRANCH   2  10
ATOM     10  O   UNL     1      -9.235 -18.160 -19.275  1.00  0.00    -0.507 OA
ATOM     11  H   UNL     1      -8.689 -17.530 -19.852  1.00  0.00     0.293 HD
ENDBRANCH   2  10
BRANCH   4  12
ATOM     12  O   UNL     1      -7.077 -22.319 -18.153  1.00  0.00    -0.497 OA
ATOM     13  C   UNL     1      -6.008 -23.025 -17.530  1.00  0.00     0.278 C 
ENDBRANCH   4  12
TORSDOF 3
ENDMDL
MODEL 6
REMARK VINA RESULT:    -3.675      2.444      4.768
REMARK INTER + INTRA:          -4.536
REMARK INTER:                  -4.202
REMARK INTRA:                  -0.334
REMARK UNBOUND:                -0.324
REMARK SMILES COc1ccc(C(C)=O)c(O)c1
REMARK SMILES IDX 6 1 10 2 12 3 3 4 4 5 5 6 7 7 8 8 9 9 11 10 2 12 1 13
REMARK H PARENT 11 11
REMARK Flexibility Score: inf
ROOT
ATOM      1  C   UNL     1      -8.135 -18.319 -16.843  1.00  0.00     0.059 A 
ATOM      2  C   UNL     1      -6.764 -18.181 -17.162  1.00  0.00     0.130 A 
ATOM      3  C   UNL     1      -5.946 -19.317 -17.252  1.00  0.00     0.093 A 
ATOM      4  C   UNL     1      -6.465 -20.596 -17.037  1.00  0.00     0.122 A 
ATOM      5  C   UNL     1      -7.827 -20.737 -16.724  1.00  0.00     0.047 A 
ATOM      6  C   UNL     1      -8.650 -19.613 -16.629  1.00  0.00     0.019 A 
ENDROOT
BRANCH   1   7
ATOM      7  C   UNL     1      -9.026 -17.129 -16.729  1.00  0.00     0.163 C 
ATOM      8  C   UNL     1      -9.708 -16.774 -15.441  1.00  0.00     0.093 C 
ATOM      9  O   UNL     1      -9.203 -16.372 -17.722  1.00  0.00    -0.294 OA
ENDBRANCH   1   7
BRANCH   2  10
ATOM     10  O   UNL     1      -6.211 -16.922 -17.399  1.00  0.00    -0.507 OA
ATOM     11  H   UNL     1      -5.208 -16.777 -17.428  1.00  0.00     0.293 HD
ENDBRANCH   2  10
BRANCH   4  12
ATOM     12  O   UNL     1      -5.598 -21.694 -17.143  1.00  0.00    -0.497 OA
ATOM     13  C   UNL     1      -6.013 -23.015 -17.476  1.00  0.00     0.278 C 
ENDBRANCH   4  12
TORSDOF 3
ENDMDL
MODEL 7
REMARK VINA RESULT:    -3.642     11.067     12.524
REMARK INTER + INTRA:          -4.498
REMARK INTER:                  -4.162
REMARK INTRA:                  -0.336
REMARK UNBOUND:                -0.324
REMARK SMILES COc1ccc(C(C)=O)c(O)c1
REMARK SMILES IDX 6 1 10 2 12 3 3 4 4 5 5 6 7 7 8 8 9 9 11 10 2 12 1 13
REMARK H PARENT 11 11
REMARK Flexibility Score: inf
ROOT
ATOM      1  C   UNL     1      -2.924 -25.126  -9.689  1.00  0.00     0.059 A 
ATOM      2  C   UNL     1      -2.924 -23.925 -10.436  1.00  0.00     0.130 A 
ATOM      3  C   UNL     1      -1.739 -23.191 -10.586  1.00  0.00     0.093 A 
ATOM      4  C   UNL     1      -0.543 -23.629 -10.011  1.00  0.00     0.122 A 
ATOM      5  C   UNL     1      -0.539 -24.823  -9.271  1.00  0.00     0.047 A 
ATOM      6  C   UNL     1      -1.714 -25.560  -9.113  1.00  0.00     0.019 A 
ENDROOT
BRANCH   1   7
ATOM      7  C   UNL     1      -4.172 -25.921  -9.503  1.00  0.00     0.163 C 
ATOM      8  C   UNL     1      -4.225 -27.388  -9.809  1.00  0.00     0.093 C 
ATOM      9  O   UNL     1      -5.213 -25.371  -9.052  1.00  0.00    -0.294 OA
ENDBRANCH   1   7
BRANCH   2  10
ATOM     10  O   UNL     1      -4.094 -23.461 -11.039  1.00  0.00    -0.507 OA
ATOM     11  H   UNL     1      -4.993 -23.897 -10.866  1.00  0.00     0.293 HD
ENDBRANCH   2  10
BRANCH   4  12
ATOM     12  O   UNL     1       0.610 -22.853 -10.197  1.00  0.00    -0.497 OA
ATOM     13  C   UNL     1       0.890 -21.647  -9.492  1.00  0.00     0.278 C 
ENDBRANCH   4  12
TORSDOF 3
ENDMDL
MODEL 8
REMARK VINA RESULT:    -3.604     10.273     11.453
REMARK INTER + INTRA:          -4.454
REMARK INTER:                  -4.111
REMARK INTRA:                  -0.343
REMARK UNBOUND:                -0.324
REMARK SMILES COc1ccc(C(C)=O)c(O)c1
REMARK SMILES IDX 6 1 10 2 12 3 3 4 4 5 5 6 7 7 8 8 9 9 11 10 2 12 1 13
REMARK H PARENT 11 11
REMARK Flexibility Score: inf
ROOT
ATOM      1  C   UNL     1       0.554 -20.280 -11.141  1.00  0.00     0.059 A 
ATOM      2  C   UNL     1      -0.495 -19.517 -11.704  1.00  0.00     0.130 A 
ATOM      3  C   UNL     1      -0.243 -18.225 -12.188  1.00  0.00     0.093 A 
ATOM      4  C   UNL     1       1.039 -17.673 -12.130  1.00  0.00     0.122 A 
ATOM      5  C   UNL     1       2.084 -18.430 -11.576  1.00  0.00     0.047 A 
ATOM      6  C   UNL     1       1.843 -19.716 -11.088  1.00  0.00     0.019 A 
ENDROOT
BRANCH   1   7
ATOM      7  C   UNL     1       0.313 -21.653 -10.609  1.00  0.00     0.163 C 
ATOM      8  C   UNL     1       0.702 -22.036  -9.212  1.00  0.00     0.093 C 
ATOM      9  O   UNL     1      -0.256 -22.519 -11.326  1.00  0.00    -0.294 OA
ENDBRANCH   1   7
BRANCH   2  10
ATOM     10  O   UNL     1      -1.787 -20.039 -11.794  1.00  0.00    -0.507 OA
ATOM     11  H   UNL     1      -2.537 -19.711 -11.196  1.00  0.00     0.293 HD
ENDBRANCH   2  10
BRANCH   4  12
ATOM     12  O   UNL     1       1.231 -16.377 -12.631  1.00  0.00    -0.497 OA
ATOM     13  C   UNL     1       0.619 -15.875 -13.816  1.00  0.00     0.278 C 
ENDBRANCH   4  12
TORSDOF 3
ENDMDL
MODEL 9
REMARK VINA RESULT:    -3.519      2.632      4.222
REMARK INTER + INTRA:          -4.357
REMARK INTER:                  -4.011
REMARK INTRA:                  -0.346
REMARK UNBOUND:                -0.324
REMARK SMILES COc1ccc(C(C)=O)c(O)c1
REMARK SMILES IDX 6 1 10 2 12 3 3 4 4 5 5 6 7 7 8 8 9 9 11 10 2 12 1 13
REMARK H PARENT 11 11
REMARK Flexibility Score: inf
ROOT
ATOM      1  C   UNL     1      -7.959 -20.504 -18.823  1.00  0.00     0.059 A 
ATOM      2  C   UNL     1      -8.519 -19.224 -19.043  1.00  0.00     0.130 A 
ATOM      3  C   UNL     1      -8.918 -18.436 -17.953  1.00  0.00     0.093 A 
ATOM      4  C   UNL     1      -8.766 -18.892 -16.642  1.00  0.00     0.122 A 
ATOM      5  C   UNL     1      -8.207 -20.161 -16.420  1.00  0.00     0.047 A 
ATOM      6  C   UNL     1      -7.809 -20.955 -17.498  1.00  0.00     0.019 A 
ENDROOT
BRANCH   1   7
ATOM      7  C   UNL     1      -7.536 -21.369 -19.963  1.00  0.00     0.163 C 
ATOM      8  C   UNL     1      -8.043 -22.771 -20.120  1.00  0.00     0.093 C 
ATOM      9  O   UNL     1      -6.754 -20.918 -20.843  1.00  0.00    -0.294 OA
ENDBRANCH   1   7
BRANCH   2  10
ATOM     10  O   UNL     1      -8.673 -18.726 -20.337  1.00  0.00    -0.507 OA
ATOM     11  H   UNL     1      -8.145 -19.097 -21.118  1.00  0.00     0.293 HD
ENDBRANCH   2  10
BRANCH   4  12
ATOM     12  O   UNL     1      -9.182 -18.059 -15.593  1.00  0.00    -0.497 OA
ATOM     13  C   UNL     1      -9.402 -16.657 -15.719  1.00  0.00     0.278 C 
ENDBRANCH   4  12
TORSDOF 3
ENDMDL
