MODEL 1
REMARK VINA RESULT:    -4.040      0.000      0.000
REMARK INTER + INTRA:          -5.970
REMARK INTER:                  -5.457
REMARK INTRA:                  -0.513
REMARK UNBOUND:                -0.513
REMARK SMILES C[C@H](O)[C@H](O)[C@H](O)[C@@H](O)C=O
REMARK SMILES IDX 4 1 2 2 1 3 3 4 6 6 8 7 10 8 11 9 9 10 7 12 5 14
REMARK H PARENT 3 5 9 11 7 13 5 15
REMARK Flexibility Score: inf
ROOT
ATOM      1  C   UNL     1      -5.357  -5.973   5.231  1.00  0.00     0.174 C 
ENDROOT
BRANCH   1   2
ATOM      2  C   UNL     1      -5.846  -6.068   6.701  1.00  0.00     0.142 C 
ATOM      3  C   UNL     1      -7.173  -5.331   6.892  1.00  0.00     0.041 C 
BRANCH   2   4
ATOM      4  O   UNL     1      -4.897  -5.491   7.564  1.00  0.00    -0.391 OA
ATOM      5  H   UNL     1      -4.080  -5.308   7.029  1.00  0.00     0.211 HD
ENDBRANCH   2   4
ENDBRANCH   1   2
BRANCH   1   6
ATOM      6  C   UNL     1      -3.805  -5.901   5.124  1.00  0.00     0.181 C 
BRANCH   6   7
ATOM      7  C   UNL     1      -3.163  -7.299   4.948  1.00  0.00     0.209 C 
BRANCH   7   8
ATOM      8  C   UNL     1      -2.272  -7.640   6.113  1.00  0.00     0.258 C 
ATOM      9  O   UNL     1      -2.352  -7.021   7.163  1.00  0.00    -0.300 OA
ENDBRANCH   7   8
BRANCH   7  10
ATOM     10  O   UNL     1      -2.428  -7.351   3.752  1.00  0.00    -0.383 OA
ATOM     11  H   UNL     1      -1.776  -8.096   3.846  1.00  0.00     0.211 HD
ENDBRANCH   7  10
ENDBRANCH   6   7
BRANCH   6  12
ATOM     12  O   UNL     1      -3.408  -5.038   4.085  1.00  0.00    -0.387 OA
ATOM     13  H   UNL     1      -2.666  -4.475   4.425  1.00  0.00     0.211 HD
ENDBRANCH   6  12
ENDBRANCH   1   6
BRANCH   1  14
ATOM     14  O   UNL     1      -5.848  -7.062   4.485  1.00  0.00    -0.388 OA
ATOM     15  H   UNL     1      -5.800  -7.867   5.066  1.00  0.00     0.211 HD
ENDBRANCH   1  14
TORSDOF 8
ENDMDL
MODEL 2
REMARK VINA RESULT:    -4.031      9.747     10.668
REMARK INTER + INTRA:          -5.958
REMARK INTER:                  -5.272
REMARK INTRA:                  -0.686
REMARK UNBOUND:                -0.513
REMARK SMILES C[C@H](O)[C@H](O)[C@H](O)[C@@H](O)C=O
REMARK SMILES IDX 4 1 2 2 1 3 3 4 6 6 8 7 10 8 11 9 9 10 7 12 5 14
REMARK H PARENT 3 5 9 11 7 13 5 15
REMARK Flexibility Score: inf
ROOT
ATOM      1  C   UNL     1      -4.427   4.133   6.198  1.00  0.00     0.174 C 
ENDROOT
BRANCH   1   2
ATOM      2  C   UNL     1      -5.131   5.513   6.112  1.00  0.00     0.142 C 
ATOM      3  C   UNL     1      -6.504   5.478   6.786  1.00  0.00     0.041 C 
BRANCH   2   4
ATOM      4  O   UNL     1      -5.313   5.880   4.766  1.00  0.00    -0.391 OA
ATOM      5  H   UNL     1      -6.191   6.340   4.699  1.00  0.00     0.211 HD
ENDBRANCH   2   4
ENDBRANCH   1   2
BRANCH   1   6
ATOM      6  C   UNL     1      -2.877   4.261   6.290  1.00  0.00     0.181 C 
BRANCH   6   7
ATOM      7  C   UNL     1      -2.165   2.893   6.147  1.00  0.00     0.209 C 
BRANCH   7   8
ATOM      8  C   UNL     1      -0.950   3.003   5.264  1.00  0.00     0.258 C 
ATOM      9  O   UNL     1      -1.063   3.189   4.063  1.00  0.00    -0.300 OA
ENDBRANCH   7   8
BRANCH   7  10
ATOM     10  O   UNL     1      -3.050   1.936   5.624  1.00  0.00    -0.383 OA
ATOM     11  H   UNL     1      -3.296   1.331   6.373  1.00  0.00     0.211 HD
ENDBRANCH   7  10
ENDBRANCH   6   7
BRANCH   6  12
ATOM     12  O   UNL     1      -2.388   5.177   5.339  1.00  0.00    -0.387 OA
ATOM     13  H   UNL     1      -3.123   5.374   4.702  1.00  0.00     0.211 HD
ENDBRANCH   6  12
ENDBRANCH   1   6
BRANCH   1  14
ATOM     14  O   UNL     1      -4.922   3.403   7.296  1.00  0.00    -0.388 OA
ATOM     15  H   UNL     1      -5.895   3.594   7.366  1.00  0.00     0.211 HD
ENDBRANCH   1  14
TORSDOF 8
ENDMDL
MODEL 3
REMARK VINA RESULT:    -3.982      1.135      2.283
REMARK INTER + INTRA:          -5.892
REMARK INTER:                  -5.125
REMARK INTRA:                  -0.767
REMARK UNBOUND:                -0.513
REMARK SMILES C[C@H](O)[C@H](O)[C@H](O)[C@@H](O)C=O
REMARK SMILES IDX 4 1 2 2 1 3 3 4 6 6 8 7 10 8 11 9 9 10 7 12 5 14
REMARK H PARENT 3 5 9 11 7 13 5 15
REMARK Flexibility Score: inf
ROOT
ATOM      1  C   UNL     1      -4.452  -6.161   6.289  1.00  0.00     0.174 C 
ENDROOT
BRANCH   1   2
ATOM      2  C   UNL     1      -5.672  -5.706   5.446  1.00  0.00     0.142 C 
ATOM      3  C   UNL     1      -6.921  -5.552   6.317  1.00  0.00     0.041 C 
BRANCH   2   4
ATOM      4  O   UNL     1      -5.951  -6.656   4.447  1.00  0.00    -0.391 OA
ATOM      5  H   UNL     1      -5.404  -7.462   4.641  1.00  0.00     0.211 HD
ENDBRANCH   2   4
ENDBRANCH   1   2
BRANCH   1   6
ATOM      6  C   UNL     1      -3.157  -6.300   5.433  1.00  0.00     0.181 C 
BRANCH   6   7
ATOM      7  C   UNL     1      -2.677  -7.769   5.330  1.00  0.00     0.209 C 
BRANCH   7   8
ATOM      8  C   UNL     1      -1.497  -7.892   4.402  1.00  0.00     0.258 C 
ATOM      9  O   UNL     1      -1.655  -7.930   3.192  1.00  0.00    -0.300 OA
ENDBRANCH   7   8
BRANCH   7  10
ATOM     10  O   UNL     1      -3.724  -8.594   4.884  1.00  0.00    -0.383 OA
ATOM     11  H   UNL     1      -3.462  -8.933   3.988  1.00  0.00     0.211 HD
ENDBRANCH   7  10
ENDBRANCH   6   7
BRANCH   6  12
ATOM     12  O   UNL     1      -3.336  -5.746   4.152  1.00  0.00    -0.387 OA
ATOM     13  H   UNL     1      -3.513  -4.776   4.264  1.00  0.00     0.211 HD
ENDBRANCH   6  12
ENDBRANCH   1   6
BRANCH   1  14
ATOM     14  O   UNL     1      -4.238  -5.267   7.356  1.00  0.00    -0.388 OA
ATOM     15  H   UNL     1      -3.288  -5.356   7.634  1.00  0.00     0.211 HD
ENDBRANCH   1  14
TORSDOF 8
ENDMDL
MODEL 4
REMARK VINA RESULT:    -3.982      9.503     10.879
REMARK INTER + INTRA:          -5.892
REMARK INTER:                  -5.182
REMARK INTRA:                  -0.710
REMARK UNBOUND:                -0.513
REMARK SMILES C[C@H](O)[C@H](O)[C@H](O)[C@@H](O)C=O
REMARK SMILES IDX 4 1 2 2 1 3 3 4 6 6 8 7 10 8 11 9 9 10 7 12 5 14
REMARK H PARENT 3 5 9 11 7 13 5 15
REMARK Flexibility Score: inf
ROOT
ATOM      1  C   UNL     1      -0.183   3.650   6.455  1.00  0.00     0.174 C 
ENDROOT
BRANCH   1   2
ATOM      2  C   UNL     1       0.708   2.507   7.011  1.00  0.00     0.142 C 
ATOM      3  C   UNL     1       2.194   2.852   6.886  1.00  0.00     0.041 C 
BRANCH   2   4
ATOM      4  O   UNL     1       0.473   1.319   6.297  1.00  0.00    -0.391 OA
ATOM      5  H   UNL     1      -0.137   1.539   5.544  1.00  0.00     0.211 HD
ENDBRANCH   2   4
ENDBRANCH   1   2
BRANCH   1   6
ATOM      6  C   UNL     1      -1.510   3.119   5.836  1.00  0.00     0.181 C 
BRANCH   6   7
ATOM      7  C   UNL     1      -2.716   4.036   6.159  1.00  0.00     0.209 C 
BRANCH   7   8
ATOM      8  C   UNL     1      -4.021   3.332   5.895  1.00  0.00     0.258 C 
ATOM      9  O   UNL     1      -4.040   2.162   5.545  1.00  0.00    -0.300 OA
ENDBRANCH   7   8
BRANCH   7  10
ATOM     10  O   UNL     1      -2.648   5.217   5.400  1.00  0.00    -0.383 OA
ATOM     11  H   UNL     1      -3.125   5.919   5.917  1.00  0.00     0.211 HD
ENDBRANCH   7  10
ENDBRANCH   6   7
BRANCH   6  12
ATOM     12  O   UNL     1      -1.384   2.938   4.445  1.00  0.00    -0.387 OA
ATOM     13  H   UNL     1      -0.733   2.205   4.293  1.00  0.00     0.211 HD
ENDBRANCH   6  12
ENDBRANCH   1   6
BRANCH   1  14
ATOM     14  O   UNL     1      -0.457   4.589   7.467  1.00  0.00    -0.388 OA
ATOM     15  H   UNL     1      -0.592   5.470   7.029  1.00  0.00     0.211 HD
ENDBRANCH   1  14
TORSDOF 8
ENDMDL
MODEL 5
REMARK VINA RESULT:    -3.965      9.556     11.010
REMARK INTER + INTRA:          -5.869
REMARK INTER:                  -5.138
REMARK INTRA:                  -0.731
REMARK UNBOUND:                -0.513
REMARK SMILES C[C@H](O)[C@H](O)[C@H](O)[C@@H](O)C=O
REMARK SMILES IDX 4 1 2 2 1 3 3 4 6 6 8 7 10 8 11 9 9 10 7 12 5 14
REMARK H PARENT 3 5 9 11 7 13 5 15
REMARK Flexibility Score: inf
ROOT
ATOM      1  C   UNL     1      -2.556   2.693   6.028  1.00  0.00     0.174 C 
ENDROOT
BRANCH   1   2
ATOM      2  C   UNL     1      -1.211   2.480   5.282  1.00  0.00     0.142 C 
ATOM      3  C   UNL     1      -0.018   2.734   6.208  1.00  0.00     0.041 C 
BRANCH   2   4
ATOM      4  O   UNL     1      -1.116   3.365   4.194  1.00  0.00    -0.391 OA
ATOM      5  H   UNL     1      -1.063   4.286   4.562  1.00  0.00     0.211 HD
ENDBRANCH   2   4
ENDBRANCH   1   2
BRANCH   1   6
ATOM      6  C   UNL     1      -3.218   4.059   5.678  1.00  0.00     0.181 C 
BRANCH   6   7
ATOM      7  C   UNL     1      -4.725   4.087   6.031  1.00  0.00     0.209 C 
BRANCH   7   8
ATOM      8  C   UNL     1      -5.298   5.470   5.858  1.00  0.00     0.258 C 
ATOM      9  O   UNL     1      -4.938   6.185   4.937  1.00  0.00    -0.300 OA
ENDBRANCH   7   8
BRANCH   7  10
ATOM     10  O   UNL     1      -4.926   3.648   7.350  1.00  0.00    -0.383 OA
ATOM     11  H   UNL     1      -5.611   4.245   7.752  1.00  0.00     0.211 HD
ENDBRANCH   7  10
ENDBRANCH   6   7
BRANCH   6  12
ATOM     12  O   UNL     1      -2.542   5.124   6.304  1.00  0.00    -0.387 OA
ATOM     13  H   UNL     1      -3.200   5.614   6.862  1.00  0.00     0.211 HD
ENDBRANCH   6  12
ENDBRANCH   1   6
BRANCH   1  14
ATOM     14  O   UNL     1      -3.440   1.635   5.745  1.00  0.00    -0.388 OA
ATOM     15  H   UNL     1      -3.591   1.626   4.763  1.00  0.00     0.211 HD
ENDBRANCH   1  14
TORSDOF 8
ENDMDL
MODEL 6
REMARK VINA RESULT:    -3.932      9.737     10.575
REMARK INTER + INTRA:          -5.824
REMARK INTER:                  -4.813
REMARK INTRA:                  -1.011
REMARK UNBOUND:                -0.513
REMARK SMILES C[C@H](O)[C@H](O)[C@H](O)[C@@H](O)C=O
REMARK SMILES IDX 4 1 2 2 1 3 3 4 6 6 8 7 10 8 11 9 9 10 7 12 5 14
REMARK H PARENT 3 5 9 11 7 13 5 15
REMARK Flexibility Score: inf
ROOT
ATOM      1  C   UNL     1      -3.457   3.306   5.922  1.00  0.00     0.174 C 
ENDROOT
BRANCH   1   2
ATOM      2  C   UNL     1      -3.745   4.820   6.102  1.00  0.00     0.142 C 
ATOM      3  C   UNL     1      -5.131   5.188   5.569  1.00  0.00     0.041 C 
BRANCH   2   4
ATOM      4  O   UNL     1      -2.791   5.580   5.401  1.00  0.00    -0.391 OA
ATOM      5  H   UNL     1      -3.253   6.385   5.047  1.00  0.00     0.211 HD
ENDBRANCH   2   4
ENDBRANCH   1   2
BRANCH   1   6
ATOM      6  C   UNL     1      -2.140   2.864   6.629  1.00  0.00     0.181 C 
BRANCH   6   7
ATOM      7  C   UNL     1      -0.960   2.724   5.635  1.00  0.00     0.209 C 
BRANCH   7   8
ATOM      8  C   UNL     1       0.180   3.633   6.014  1.00  0.00     0.258 C 
ATOM      9  O   UNL     1       0.150   4.822   5.738  1.00  0.00    -0.300 OA
ENDBRANCH   7   8
BRANCH   7  10
ATOM     10  O   UNL     1      -1.387   3.011   4.328  1.00  0.00    -0.383 OA
ATOM     11  H   UNL     1      -1.633   3.974   4.310  1.00  0.00     0.211 HD
ENDBRANCH   7  10
ENDBRANCH   6   7
BRANCH   6  12
ATOM     12  O   UNL     1      -1.807   3.746   7.674  1.00  0.00    -0.387 OA
ATOM     13  H   UNL     1      -1.225   3.255   8.311  1.00  0.00     0.211 HD
ENDBRANCH   6  12
ENDBRANCH   1   6
BRANCH   1  14
ATOM     14  O   UNL     1      -4.543   2.546   6.396  1.00  0.00    -0.388 OA
ATOM     15  H   UNL     1      -5.139   3.160   6.901  1.00  0.00     0.211 HD
ENDBRANCH   1  14
TORSDOF 8
ENDMDL
MODEL 7
REMARK VINA RESULT:    -3.876      9.490     10.315
REMARK INTER + INTRA:          -5.749
REMARK INTER:                  -5.034
REMARK INTRA:                  -0.715
REMARK UNBOUND:                -0.513
REMARK SMILES C[C@H](O)[C@H](O)[C@H](O)[C@@H](O)C=O
REMARK SMILES IDX 4 1 2 2 1 3 3 4 6 6 8 7 10 8 11 9 9 10 7 12 5 14
REMARK H PARENT 3 5 9 11 7 13 5 15
REMARK Flexibility Score: inf
ROOT
ATOM      1  C   UNL     1      -4.263  -6.835  -4.077  1.00  0.00     0.174 C 
ENDROOT
BRANCH   1   2
ATOM      2  C   UNL     1      -5.537  -7.459  -3.448  1.00  0.00     0.142 C 
ATOM      3  C   UNL     1      -5.672  -8.937  -3.820  1.00  0.00     0.041 C 
BRANCH   2   4
ATOM      4  O   UNL     1      -6.683  -6.786  -3.907  1.00  0.00    -0.391 OA
ATOM      5  H   UNL     1      -6.919  -7.170  -4.793  1.00  0.00     0.211 HD
ENDBRANCH   2   4
ENDBRANCH   1   2
BRANCH   1   6
ATOM      6  C   UNL     1      -3.976  -5.401  -3.538  1.00  0.00     0.181 C 
BRANCH   6   7
ATOM      7  C   UNL     1      -2.765  -4.741  -4.243  1.00  0.00     0.209 C 
BRANCH   7   8
ATOM      8  C   UNL     1      -2.959  -4.706  -5.736  1.00  0.00     0.258 C 
ATOM      9  O   UNL     1      -3.811  -3.991  -6.239  1.00  0.00    -0.300 OA
ENDBRANCH   7   8
BRANCH   7  10
ATOM     10  O   UNL     1      -1.583  -5.431  -3.930  1.00  0.00    -0.383 OA
ATOM     11  H   UNL     1      -1.837  -6.185  -3.335  1.00  0.00     0.211 HD
ENDBRANCH   7  10
ENDBRANCH   6   7
BRANCH   6  12
ATOM     12  O   UNL     1      -5.117  -4.584  -3.642  1.00  0.00    -0.387 OA
ATOM     13  H   UNL     1      -5.086  -4.131  -4.524  1.00  0.00     0.211 HD
ENDBRANCH   6  12
ENDBRANCH   1   6
BRANCH   1  14
ATOM     14  O   UNL     1      -3.152  -7.671  -3.855  1.00  0.00    -0.388 OA
ATOM     15  H   UNL     1      -3.488  -8.604  -3.797  1.00  0.00     0.211 HD
ENDBRANCH   1  14
TORSDOF 8
ENDMDL
MODEL 8
REMARK VINA RESULT:    -3.874      9.608     10.473
REMARK INTER + INTRA:          -5.746
REMARK INTER:                  -5.610
REMARK INTRA:                  -0.136
REMARK UNBOUND:                -0.513
REMARK SMILES C[C@H](O)[C@H](O)[C@H](O)[C@@H](O)C=O
REMARK SMILES IDX 4 1 2 2 1 3 3 4 6 6 8 7 10 8 11 9 9 10 7 12 5 14
REMARK H PARENT 3 5 9 11 7 13 5 15
REMARK Flexibility Score: inf
ROOT
ATOM      1  C   UNL     1      -4.525  -5.708  -3.772  1.00  0.00     0.174 C 
ENDROOT
BRANCH   1   2
ATOM      2  C   UNL     1      -5.510  -6.731  -4.399  1.00  0.00     0.142 C 
ATOM      3  C   UNL     1      -5.839  -6.365  -5.849  1.00  0.00     0.041 C 
BRANCH   2   4
ATOM      4  O   UNL     1      -6.712  -6.755  -3.671  1.00  0.00    -0.391 OA
ATOM      5  H   UNL     1      -7.015  -7.700  -3.625  1.00  0.00     0.211 HD
ENDBRANCH   2   4
ENDBRANCH   1   2
BRANCH   1   6
ATOM      6  C   UNL     1      -3.182  -5.619  -4.555  1.00  0.00     0.181 C 
BRANCH   6   7
ATOM      7  C   UNL     1      -2.263  -4.494  -4.019  1.00  0.00     0.209 C 
BRANCH   7   8
ATOM      8  C   UNL     1      -1.894  -3.526  -5.113  1.00  0.00     0.258 C 
ATOM      9  O   UNL     1      -1.547  -2.386  -4.848  1.00  0.00    -0.300 OA
ENDBRANCH   7   8
BRANCH   7  10
ATOM     10  O   UNL     1      -1.100  -5.042  -3.453  1.00  0.00    -0.383 OA
ATOM     11  H   UNL     1      -1.086  -4.764  -2.499  1.00  0.00     0.211 HD
ENDBRANCH   7  10
ENDBRANCH   6   7
BRANCH   6  12
ATOM     12  O   UNL     1      -2.508  -6.856  -4.547  1.00  0.00    -0.387 OA
ATOM     13  H   UNL     1      -3.188  -7.571  -4.652  1.00  0.00     0.211 HD
ENDBRANCH   6  12
ENDBRANCH   1   6
BRANCH   1  14
ATOM     14  O   UNL     1      -5.129  -4.439  -3.693  1.00  0.00    -0.388 OA
ATOM     15  H   UNL     1      -5.632  -4.294  -4.538  1.00  0.00     0.211 HD
ENDBRANCH   1  14
TORSDOF 8
ENDMDL
MODEL 9
REMARK VINA RESULT:    -3.864      1.715      2.562
REMARK INTER + INTRA:          -5.732
REMARK INTER:                  -4.800
REMARK INTRA:                  -0.931
REMARK UNBOUND:                -0.513
REMARK SMILES C[C@H](O)[C@H](O)[C@H](O)[C@@H](O)C=O
REMARK SMILES IDX 4 1 2 2 1 3 3 4 6 6 8 7 10 8 11 9 9 10 7 12 5 14
REMARK H PARENT 3 5 9 11 7 13 5 15
REMARK Flexibility Score: inf
ROOT
ATOM      1  C   UNL     1      -6.476  -5.834   6.519  1.00  0.00     0.174 C 
ENDROOT
BRANCH   1   2
ATOM      2  C   UNL     1      -7.048  -7.214   6.941  1.00  0.00     0.142 C 
ATOM      3  C   UNL     1      -7.915  -7.095   8.196  1.00  0.00     0.041 C 
BRANCH   2   4
ATOM      4  O   UNL     1      -5.999  -8.109   7.218  1.00  0.00    -0.391 OA
ATOM      5  H   UNL     1      -5.206  -7.568   7.475  1.00  0.00     0.211 HD
ENDBRANCH   2   4
ENDBRANCH   1   2
BRANCH   1   6
ATOM      6  C   UNL     1      -5.734  -5.892   5.151  1.00  0.00     0.181 C 
BRANCH   6   7
ATOM      7  C   UNL     1      -4.214  -5.633   5.296  1.00  0.00     0.209 C 
BRANCH   7   8
ATOM      8  C   UNL     1      -3.416  -6.853   4.919  1.00  0.00     0.258 C 
ATOM      9  O   UNL     1      -3.485  -7.876   5.582  1.00  0.00    -0.300 OA
ENDBRANCH   7   8
BRANCH   7  10
ATOM     10  O   UNL     1      -3.908  -5.250   6.613  1.00  0.00    -0.383 OA
ATOM     11  H   UNL     1      -2.918  -5.197   6.675  1.00  0.00     0.211 HD
ENDBRANCH   7  10
ENDBRANCH   6   7
BRANCH   6  12
ATOM     12  O   UNL     1      -5.968  -7.119   4.500  1.00  0.00    -0.387 OA
ATOM     13  H   UNL     1      -6.095  -6.930   3.534  1.00  0.00     0.211 HD
ENDBRANCH   6  12
ENDBRANCH   1   6
BRANCH   1  14
ATOM     14  O   UNL     1      -7.505  -4.875   6.477  1.00  0.00    -0.388 OA
ATOM     15  H   UNL     1      -8.366  -5.364   6.394  1.00  0.00     0.211 HD
ENDBRANCH   1  14
TORSDOF 8
ENDMDL
