MODEL 1
REMARK VINA RESULT:    -4.028      0.000      0.000
REMARK INTER + INTRA:          -4.629
REMARK INTER:                  -4.381
REMARK INTRA:                  -0.249
REMARK UNBOUND:                -0.249
REMARK SMILES O=C([O-])c1ccccc1O
REMARK SMILES IDX 4 1 9 2 5 3 8 4 6 5 7 6 2 7 1 8 3 9 10 10
REMARK H PARENT 10 11
REMARK Flexibility Score: inf
ROOT
ATOM      1  C   UNL     1      18.226 129.401  55.574  1.00  0.00     0.039 A 
ATOM      2  C   UNL     1      18.036 128.815  54.297  1.00  0.00     0.124 A 
ATOM      3  C   UNL     1      17.402 128.991  56.640  1.00  0.00     0.014 A 
ATOM      4  C   UNL     1      17.001 127.892  54.104  1.00  0.00     0.047 A 
ATOM      5  C   UNL     1      16.387 128.053  56.436  1.00  0.00     0.001 A 
ATOM      6  C   UNL     1      16.180 127.512  55.167  1.00  0.00     0.004 A 
ENDROOT
BRANCH   1   7
ATOM      7  C   UNL     1      19.232 130.457  55.822  1.00  0.00     0.075 C 
ATOM      8  O   UNL     1      20.416 130.309  55.416  1.00  0.00    -0.545 OA
ATOM      9  O   UNL     1      18.909 131.589  56.560  1.00  0.00    -0.545 OA
ENDBRANCH   1   7
BRANCH   2  10
ATOM     10  O   UNL     1      18.871 129.092  53.211  1.00  0.00    -0.507 OA
ATOM     11  H   UNL     1      18.528 129.399  52.311  1.00  0.00     0.293 HD
ENDBRANCH   2  10
TORSDOF 2
ENDMDL
MODEL 2
REMARK VINA RESULT:    -3.907      1.841      3.335
REMARK INTER + INTRA:          -4.499
REMARK INTER:                  -4.249
REMARK INTRA:                  -0.250
REMARK UNBOUND:                -0.249
REMARK SMILES O=C([O-])c1ccccc1O
REMARK SMILES IDX 4 1 9 2 5 3 8 4 6 5 7 6 2 7 1 8 3 9 10 10
REMARK H PARENT 10 11
REMARK Flexibility Score: inf
ROOT
ATOM      1  C   UNL     1      17.204 128.736  54.969  1.00  0.00     0.039 A 
ATOM      2  C   UNL     1      18.511 129.055  54.520  1.00  0.00     0.124 A 
ATOM      3  C   UNL     1      16.893 128.904  56.333  1.00  0.00     0.014 A 
ATOM      4  C   UNL     1      19.480 129.468  55.442  1.00  0.00     0.047 A 
ATOM      5  C   UNL     1      17.867 129.337  57.236  1.00  0.00     0.001 A 
ATOM      6  C   UNL     1      19.160 129.610  56.794  1.00  0.00     0.004 A 
ENDROOT
BRANCH   1   7
ATOM      7  C   UNL     1      16.164 128.196  54.067  1.00  0.00     0.075 C 
ATOM      8  O   UNL     1      16.473 127.364  53.173  1.00  0.00    -0.545 OA
ATOM      9  O   UNL     1      14.851 128.646  54.145  1.00  0.00    -0.545 OA
ENDBRANCH   1   7
BRANCH   2  10
ATOM     10  O   UNL     1      18.874 129.012  53.172  1.00  0.00    -0.507 OA
ATOM     11  H   UNL     1      19.682 128.510  52.829  1.00  0.00     0.293 HD
ENDBRANCH   2  10
TORSDOF 2
ENDMDL
MODEL 3
REMARK VINA RESULT:    -3.781      1.845      2.535
REMARK INTER + INTRA:          -4.361
REMARK INTER:                  -4.108
REMARK INTRA:                  -0.253
REMARK UNBOUND:                -0.249
REMARK SMILES O=C([O-])c1ccccc1O
REMARK SMILES IDX 4 1 9 2 5 3 8 4 6 5 7 6 2 7 1 8 3 9 10 10
REMARK H PARENT 10 11
REMARK Flexibility Score: inf
ROOT
ATOM      1  C   UNL     1      17.978 128.854  55.032  1.00  0.00     0.039 A 
ATOM      2  C   UNL     1      16.941 127.890  55.101  1.00  0.00     0.124 A 
ATOM      3  C   UNL     1      18.311 129.406  53.780  1.00  0.00     0.014 A 
ATOM      4  C   UNL     1      16.314 127.460  53.925  1.00  0.00     0.047 A 
ATOM      5  C   UNL     1      17.661 128.982  52.619  1.00  0.00     0.001 A 
ATOM      6  C   UNL     1      16.671 128.003  52.690  1.00  0.00     0.004 A 
ENDROOT
BRANCH   1   7
ATOM      7  C   UNL     1      18.751 129.275  56.220  1.00  0.00     0.075 C 
ATOM      8  O   UNL     1      20.008 129.347  56.164  1.00  0.00    -0.545 OA
ATOM      9  O   UNL     1      18.115 129.530  57.429  1.00  0.00    -0.545 OA
ENDBRANCH   1   7
BRANCH   2  10
ATOM     10  O   UNL     1      16.482 127.365  56.311  1.00  0.00    -0.507 OA
ATOM     11  H   UNL     1      16.897 127.586  57.206  1.00  0.00     0.293 HD
ENDBRANCH   2  10
TORSDOF 2
ENDMDL
MODEL 4
REMARK VINA RESULT:    -3.695      1.633      2.457
REMARK INTER + INTRA:          -4.267
REMARK INTER:                  -4.026
REMARK INTRA:                  -0.242
REMARK UNBOUND:                -0.249
REMARK SMILES O=C([O-])c1ccccc1O
REMARK SMILES IDX 4 1 9 2 5 3 8 4 6 5 7 6 2 7 1 8 3 9 10 10
REMARK H PARENT 10 11
REMARK Flexibility Score: inf
ROOT
ATOM      1  C   UNL     1      18.115 129.397  57.126  1.00  0.00     0.039 A 
ATOM      2  C   UNL     1      19.102 129.335  56.109  1.00  0.00     0.124 A 
ATOM      3  C   UNL     1      16.910 128.691  56.949  1.00  0.00     0.014 A 
ATOM      4  C   UNL     1      18.838 128.631  54.928  1.00  0.00     0.047 A 
ATOM      5  C   UNL     1      16.671 127.975  55.773  1.00  0.00     0.001 A 
ATOM      6  C   UNL     1      17.629 127.953  54.760  1.00  0.00     0.004 A 
ENDROOT
BRANCH   1   7
ATOM      7  C   UNL     1      18.288 130.207  58.352  1.00  0.00     0.075 C 
ATOM      8  O   UNL     1      17.969 129.731  59.474  1.00  0.00    -0.545 OA
ATOM      9  O   UNL     1      18.737 131.520  58.279  1.00  0.00    -0.545 OA
ENDBRANCH   1   7
BRANCH   2  10
ATOM     10  O   UNL     1      20.361 129.924  56.246  1.00  0.00    -0.507 OA
ATOM     11  H   UNL     1      20.499 130.876  56.558  1.00  0.00     0.293 HD
ENDBRANCH   2  10
TORSDOF 2
ENDMDL
MODEL 5
REMARK VINA RESULT:    -3.673      8.581      9.747
REMARK INTER + INTRA:          -4.244
REMARK INTER:                  -3.994
REMARK INTRA:                  -0.250
REMARK UNBOUND:                -0.249
REMARK SMILES O=C([O-])c1ccccc1O
REMARK SMILES IDX 4 1 9 2 5 3 8 4 6 5 7 6 2 7 1 8 3 9 10 10
REMARK H PARENT 10 11
REMARK Flexibility Score: inf
ROOT
ATOM      1  C   UNL     1      16.107 126.733  64.156  1.00  0.00     0.039 A 
ATOM      2  C   UNL     1      17.004 126.253  63.167  1.00  0.00     0.124 A 
ATOM      3  C   UNL     1      16.446 127.895  64.875  1.00  0.00     0.014 A 
ATOM      4  C   UNL     1      18.230 126.901  62.970  1.00  0.00     0.047 A 
ATOM      5  C   UNL     1      17.664 128.541  64.651  1.00  0.00     0.001 A 
ATOM      6  C   UNL     1      18.558 128.039  63.707  1.00  0.00     0.004 A 
ENDROOT
BRANCH   1   7
ATOM      7  C   UNL     1      14.844 126.037  64.486  1.00  0.00     0.075 C 
ATOM      8  O   UNL     1      14.819 124.781  64.575  1.00  0.00    -0.545 OA
ATOM      9  O   UNL     1      13.659 126.748  64.636  1.00  0.00    -0.545 OA
ENDBRANCH   1   7
BRANCH   2  10
ATOM     10  O   UNL     1      16.702 125.167  62.342  1.00  0.00    -0.507 OA
ATOM     11  H   UNL     1      16.979 125.113  61.371  1.00  0.00     0.293 HD
ENDBRANCH   2  10
TORSDOF 2
ENDMDL
MODEL 6
REMARK VINA RESULT:    -3.639      7.451      8.639
REMARK INTER + INTRA:          -4.207
REMARK INTER:                  -3.979
REMARK INTRA:                  -0.228
REMARK UNBOUND:                -0.249
REMARK SMILES O=C([O-])c1ccccc1O
REMARK SMILES IDX 4 1 9 2 5 3 8 4 6 5 7 6 2 7 1 8 3 9 10 10
REMARK H PARENT 10 11
REMARK Flexibility Score: inf
ROOT
ATOM      1  C   UNL     1      17.972 128.450  63.362  1.00  0.00     0.039 A 
ATOM      2  C   UNL     1      16.781 127.687  63.456  1.00  0.00     0.124 A 
ATOM      3  C   UNL     1      18.564 128.937  64.543  1.00  0.00     0.014 A 
ATOM      4  C   UNL     1      16.183 127.486  64.706  1.00  0.00     0.047 A 
ATOM      5  C   UNL     1      17.966 128.709  65.785  1.00  0.00     0.001 A 
ATOM      6  C   UNL     1      16.772 127.993  65.866  1.00  0.00     0.004 A 
ENDROOT
BRANCH   1   7
ATOM      7  C   UNL     1      18.599 128.787  62.065  1.00  0.00     0.075 C 
ATOM      8  O   UNL     1      17.931 129.379  61.175  1.00  0.00    -0.545 OA
ATOM      9  O   UNL     1      19.903 128.398  61.782  1.00  0.00    -0.545 OA
ENDBRANCH   1   7
BRANCH   2  10
ATOM     10  O   UNL     1      16.183 127.085  62.346  1.00  0.00    -0.507 OA
ATOM     11  H   UNL     1      15.187 127.104  62.172  1.00  0.00     0.293 HD
ENDBRANCH   2  10
TORSDOF 2
ENDMDL
MODEL 7
REMARK VINA RESULT:    -3.589      8.625      9.955
REMARK INTER + INTRA:          -4.153
REMARK INTER:                  -3.911
REMARK INTRA:                  -0.242
REMARK UNBOUND:                -0.249
REMARK SMILES O=C([O-])c1ccccc1O
REMARK SMILES IDX 4 1 9 2 5 3 8 4 6 5 7 6 2 7 1 8 3 9 10 10
REMARK H PARENT 10 11
REMARK Flexibility Score: inf
ROOT
ATOM      1  C   UNL     1      17.266 127.755  64.425  1.00  0.00     0.039 A 
ATOM      2  C   UNL     1      18.039 128.643  65.215  1.00  0.00     0.124 A 
ATOM      3  C   UNL     1      16.079 127.222  64.964  1.00  0.00     0.014 A 
ATOM      4  C   UNL     1      17.646 128.924  66.530  1.00  0.00     0.047 A 
ATOM      5  C   UNL     1      15.690 127.529  66.270  1.00  0.00     0.001 A 
ATOM      6  C   UNL     1      16.477 128.370  67.055  1.00  0.00     0.004 A 
ENDROOT
BRANCH   1   7
ATOM      7  C   UNL     1      17.679 127.336  63.068  1.00  0.00     0.075 C 
ATOM      8  O   UNL     1      17.425 126.170  62.662  1.00  0.00    -0.545 OA
ATOM      9  O   UNL     1      18.408 128.191  62.250  1.00  0.00    -0.545 OA
ENDBRANCH   1   7
BRANCH   2  10
ATOM     10  O   UNL     1      19.175 129.292  64.725  1.00  0.00    -0.507 OA
ATOM     11  H   UNL     1      19.269 129.600  63.766  1.00  0.00     0.293 HD
ENDBRANCH   2  10
TORSDOF 2
ENDMDL
MODEL 8
REMARK VINA RESULT:    -3.587      1.309      2.399
REMARK INTER + INTRA:          -4.150
REMARK INTER:                  -3.946
REMARK INTRA:                  -0.205
REMARK UNBOUND:                -0.249
REMARK SMILES O=C([O-])c1ccccc1O
REMARK SMILES IDX 4 1 9 2 5 3 8 4 6 5 7 6 2 7 1 8 3 9 10 10
REMARK H PARENT 10 11
REMARK Flexibility Score: inf
ROOT
ATOM      1  C   UNL     1      18.426 128.933  55.761  1.00  0.00     0.039 A 
ATOM      2  C   UNL     1      17.668 129.199  56.929  1.00  0.00     0.124 A 
ATOM      3  C   UNL     1      17.834 128.194  54.719  1.00  0.00     0.014 A 
ATOM      4  C   UNL     1      16.377 128.672  57.054  1.00  0.00     0.047 A 
ATOM      5  C   UNL     1      16.536 127.693  54.851  1.00  0.00     0.001 A 
ATOM      6  C   UNL     1      15.813 127.923  56.020  1.00  0.00     0.004 A 
ENDROOT
BRANCH   1   7
ATOM      7  C   UNL     1      19.831 129.371  55.608  1.00  0.00     0.075 C 
ATOM      8  O   UNL     1      20.756 128.518  55.549  1.00  0.00    -0.545 OA
ATOM      9  O   UNL     1      20.157 130.722  55.598  1.00  0.00    -0.545 OA
ENDBRANCH   1   7
BRANCH   2  10
ATOM     10  O   UNL     1      18.143 130.006  57.966  1.00  0.00    -0.507 OA
ATOM     11  H   UNL     1      17.791 130.935  58.155  1.00  0.00     0.293 HD
ENDBRANCH   2  10
TORSDOF 2
ENDMDL
MODEL 9
REMARK VINA RESULT:    -3.546      7.500      8.679
REMARK INTER + INTRA:          -4.105
REMARK INTER:                  -3.868
REMARK INTRA:                  -0.238
REMARK UNBOUND:                -0.249
REMARK SMILES O=C([O-])c1ccccc1O
REMARK SMILES IDX 4 1 9 2 5 3 8 4 6 5 7 6 2 7 1 8 3 9 10 10
REMARK H PARENT 10 11
REMARK Flexibility Score: inf
ROOT
ATOM      1  C   UNL     1      17.607 127.290  63.245  1.00  0.00     0.039 A 
ATOM      2  C   UNL     1      16.776 128.140  62.472  1.00  0.00     0.124 A 
ATOM      3  C   UNL     1      18.365 127.848  64.293  1.00  0.00     0.014 A 
ATOM      4  C   UNL     1      16.770 129.518  62.721  1.00  0.00     0.047 A 
ATOM      5  C   UNL     1      18.332 129.222  64.541  1.00  0.00     0.001 A 
ATOM      6  C   UNL     1      17.543 130.057  63.750  1.00  0.00     0.004 A 
ENDROOT
BRANCH   1   7
ATOM      7  C   UNL     1      17.739 125.843  62.968  1.00  0.00     0.075 C 
ATOM      8  O   UNL     1      16.717 125.106  62.958  1.00  0.00    -0.545 OA
ATOM      9  O   UNL     1      18.989 125.264  62.786  1.00  0.00    -0.545 OA
ENDBRANCH   1   7
BRANCH   2  10
ATOM     10  O   UNL     1      15.920 127.655  61.481  1.00  0.00    -0.507 OA
ATOM     11  H   UNL     1      16.085 126.796  60.974  1.00  0.00     0.293 HD
ENDBRANCH   2  10
TORSDOF 2
ENDMDL
