MODEL 1
REMARK VINA RESULT:    -2.920      0.000      0.000
REMARK INTER + INTRA:          -5.447
REMARK INTER:                  -5.138
REMARK INTRA:                  -0.309
REMARK UNBOUND:                -0.309
REMARK SMILES CCCCCCC=CCCCCCCCC(=O)[O-]
REMARK SMILES IDX 10 1 11 2 12 3 13 4 14 5 15 6 16 7 17 8 18 9 9 10 8 11 7 12
REMARK SMILES IDX 6 13 5 14 4 15 3 16 2 17 1 18
REMARK H PARENT
REMARK Flexibility Score: inf
ROOT
ATOM      1  C   UNL     1      15.310  12.626  36.716  1.00  0.00     0.004 C 
ENDROOT
BRANCH   1   2
ATOM      2  C   UNL     1      13.897  12.026  36.667  1.00  0.00     0.000 C 
BRANCH   2   3
ATOM      3  C   UNL     1      13.150  12.357  35.362  1.00  0.00     0.000 C 
BRANCH   3   4
ATOM      4  C   UNL     1      13.742  11.723  34.088  1.00  0.00     0.000 C 
BRANCH   4   5
ATOM      5  C   UNL     1      14.319  12.718  33.062  1.00  0.00     0.006 C 
BRANCH   5   6
ATOM      6  C   UNL     1      13.695  14.125  33.136  1.00  0.00     0.053 C 
BRANCH   6   7
ATOM      7  C   UNL     1      12.224  14.119  32.858  1.00  0.00     0.041 C 
ATOM      8  O   UNL     1      11.801  14.076  31.673  1.00  0.00    -0.550 OA
ATOM      9  O   UNL     1      11.315  14.124  33.910  1.00  0.00    -0.550 OA
ENDBRANCH   6   7
ENDBRANCH   5   6
ENDBRANCH   4   5
ENDBRANCH   3   4
ENDBRANCH   2   3
ENDBRANCH   1   2
BRANCH   1  10
ATOM     10  C   UNL     1      15.328  13.916  37.544  1.00  0.00     0.027 C 
BRANCH  10  11
ATOM     11  C   UNL     1      14.290  13.863  38.637  1.00  0.00    -0.031 C 
ATOM     12  C   UNL     1      14.555  13.995  39.950  1.00  0.00    -0.031 C 
BRANCH  12  13
ATOM     13  C   UNL     1      15.939  14.125  40.534  1.00  0.00     0.027 C 
BRANCH  13  14
ATOM     14  C   UNL     1      16.655  12.769  40.543  1.00  0.00     0.004 C 
BRANCH  14  15
ATOM     15  C   UNL     1      17.776  12.747  41.592  1.00  0.00     0.000 C 
BRANCH  15  16
ATOM     16  C   UNL     1      18.822  13.855  41.374  1.00  0.00    -0.000 C 
BRANCH  16  17
ATOM     17  C   UNL     1      19.806  14.054  42.540  1.00  0.00    -0.003 C 
ATOM     18  C   UNL     1      19.307  13.452  43.853  1.00  0.00     0.004 C 
ENDBRANCH  16  17
ENDBRANCH  15  16
ENDBRANCH  14  15
ENDBRANCH  13  14
ENDBRANCH  12  13
ENDBRANCH  10  11
ENDBRANCH   1  10
TORSDOF 13
ENDMDL
MODEL 2
REMARK VINA RESULT:    -1.595      1.711      1.958
REMARK INTER + INTRA:          -3.117
REMARK INTER:                  -3.860
REMARK INTRA:                   0.743
REMARK UNBOUND:                -0.309
REMARK SMILES CCCCCCC=CCCCCCCCC(=O)[O-]
REMARK SMILES IDX 10 1 11 2 12 3 13 4 14 5 15 6 16 7 17 8 18 9 9 10 8 11 7 12
REMARK SMILES IDX 6 13 5 14 4 15 3 16 2 17 1 18
REMARK H PARENT
REMARK Flexibility Score: inf
ROOT
ATOM      1  C   UNL     1      15.548  12.133  36.944  1.00  0.00     0.004 C 
ENDROOT
BRANCH   1   2
ATOM      2  C   UNL     1      14.024  12.007  36.803  1.00  0.00     0.000 C 
BRANCH   2   3
ATOM      3  C   UNL     1      13.367  13.280  36.237  1.00  0.00     0.000 C 
BRANCH   3   4
ATOM      4  C   UNL     1      14.263  14.125  35.311  1.00  0.00     0.000 C 
BRANCH   4   5
ATOM      5  C   UNL     1      14.258  13.707  33.827  1.00  0.00     0.006 C 
BRANCH   5   6
ATOM      6  C   UNL     1      13.162  12.687  33.468  1.00  0.00     0.053 C 
BRANCH   6   7
ATOM      7  C   UNL     1      13.641  11.271  33.555  1.00  0.00     0.041 C 
ATOM      8  O   UNL     1      14.827  11.020  33.895  1.00  0.00    -0.550 OA
ATOM      9  O   UNL     1      12.766  10.222  33.294  1.00  0.00    -0.550 OA
ENDBRANCH   6   7
ENDBRANCH   5   6
ENDBRANCH   4   5
ENDBRANCH   3   4
ENDBRANCH   2   3
ENDBRANCH   1   2
BRANCH   1  10
ATOM     10  C   UNL     1      15.917  13.272  37.902  1.00  0.00     0.027 C 
BRANCH  10  11
ATOM     11  C   UNL     1      14.719  13.693  38.716  1.00  0.00    -0.031 C 
ATOM     12  C   UNL     1      14.771  14.106  39.996  1.00  0.00    -0.031 C 
BRANCH  12  13
ATOM     13  C   UNL     1      16.021  14.124  40.838  1.00  0.00     0.027 C 
BRANCH  13  14
ATOM     14  C   UNL     1      16.616  12.717  40.959  1.00  0.00     0.004 C 
BRANCH  14  15
ATOM     15  C   UNL     1      18.105  12.779  41.327  1.00  0.00     0.000 C 
BRANCH  15  16
ATOM     16  C   UNL     1      18.483  14.067  42.081  1.00  0.00    -0.000 C 
BRANCH  16  17
ATOM     17  C   UNL     1      19.546  13.886  43.178  1.00  0.00    -0.003 C 
ATOM     18  C   UNL     1      19.422  12.554  43.918  1.00  0.00     0.004 C 
ENDBRANCH  16  17
ENDBRANCH  15  16
ENDBRANCH  14  15
ENDBRANCH  13  14
ENDBRANCH  12  13
ENDBRANCH  10  11
ENDBRANCH   1  10
TORSDOF 13
ENDMDL
MODEL 3
REMARK VINA RESULT:    -1.371      4.855      9.355
REMARK INTER + INTRA:          -2.722
REMARK INTER:                  -2.112
REMARK INTRA:                  -0.610
REMARK UNBOUND:                -0.309
REMARK SMILES CCCCCCC=CCCCCCCCC(=O)[O-]
REMARK SMILES IDX 10 1 11 2 12 3 13 4 14 5 15 6 16 7 17 8 18 9 9 10 8 11 7 12
REMARK SMILES IDX 6 13 5 14 4 15 3 16 2 17 1 18
REMARK H PARENT
REMARK Flexibility Score: inf
ROOT
ATOM      1  C   UNL     1      15.881  13.570  38.699  1.00  0.00     0.004 C 
ENDROOT
BRANCH   1   2
ATOM      2  C   UNL     1      15.028  13.842  39.946  1.00  0.00     0.000 C 
BRANCH   2   3
ATOM      3  C   UNL     1      15.873  14.123  41.202  1.00  0.00     0.000 C 
BRANCH   3   4
ATOM      4  C   UNL     1      16.964  13.078  41.506  1.00  0.00     0.000 C 
BRANCH   4   5
ATOM      5  C   UNL     1      18.383  13.646  41.711  1.00  0.00     0.006 C 
BRANCH   5   6
ATOM      6  C   UNL     1      18.716  13.984  43.176  1.00  0.00     0.053 C 
BRANCH   6   7
ATOM      7  C   UNL     1      20.017  13.392  43.624  1.00  0.00     0.041 C 
ATOM      8  O   UNL     1      20.051  12.237  44.125  1.00  0.00    -0.550 OA
ATOM      9  O   UNL     1      21.200  14.101  43.455  1.00  0.00    -0.550 OA
ENDBRANCH   6   7
ENDBRANCH   5   6
ENDBRANCH   4   5
ENDBRANCH   3   4
ENDBRANCH   2   3
ENDBRANCH   1   2
BRANCH   1  10
ATOM     10  C   UNL     1      15.012  13.544  37.437  1.00  0.00     0.027 C 
BRANCH  10  11
ATOM     11  C   UNL     1      15.768  12.939  36.280  1.00  0.00    -0.031 C 
ATOM     12  C   UNL     1      15.284  11.982  35.467  1.00  0.00    -0.031 C 
BRANCH  12  13
ATOM     13  C   UNL     1      13.949  11.305  35.642  1.00  0.00     0.027 C 
BRANCH  13  14
ATOM     14  C   UNL     1      13.091  11.460  34.381  1.00  0.00     0.004 C 
BRANCH  14  15
ATOM     15  C   UNL     1      13.951  11.871  33.178  1.00  0.00     0.000 C 
BRANCH  15  16
ATOM     16  C   UNL     1      13.970  13.393  32.948  1.00  0.00    -0.000 C 
BRANCH  16  17
ATOM     17  C   UNL     1      12.675  14.123  33.346  1.00  0.00    -0.003 C 
ATOM     18  C   UNL     1      11.603  14.077  32.257  1.00  0.00     0.004 C 
ENDBRANCH  16  17
ENDBRANCH  15  16
ENDBRANCH  14  15
ENDBRANCH  13  14
ENDBRANCH  12  13
ENDBRANCH  10  11
ENDBRANCH   1  10
TORSDOF 13
ENDMDL
MODEL 4
REMARK VINA RESULT:    -1.192      4.572      8.527
REMARK INTER + INTRA:          -2.407
REMARK INTER:                  -1.199
REMARK INTRA:                  -1.208
REMARK UNBOUND:                -0.309
REMARK SMILES CCCCCCC=CCCCCCCCC(=O)[O-]
REMARK SMILES IDX 10 1 11 2 12 3 13 4 14 5 15 6 16 7 17 8 18 9 9 10 8 11 7 12
REMARK SMILES IDX 6 13 5 14 4 15 3 16 2 17 1 18
REMARK H PARENT
REMARK Flexibility Score: inf
ROOT
ATOM      1  C   UNL     1      16.412  12.960  38.091  1.00  0.00     0.004 C 
ENDROOT
BRANCH   1   2
ATOM      2  C   UNL     1      15.596  13.377  39.323  1.00  0.00     0.000 C 
BRANCH   2   3
ATOM      3  C   UNL     1      16.419  13.350  40.624  1.00  0.00     0.000 C 
BRANCH   3   4
ATOM      4  C   UNL     1      17.938  13.174  40.436  1.00  0.00     0.000 C 
BRANCH   4   5
ATOM      5  C   UNL     1      18.821  14.120  41.274  1.00  0.00     0.006 C 
BRANCH   5   6
ATOM      6  C   UNL     1      18.485  14.123  42.777  1.00  0.00     0.053 C 
BRANCH   6   7
ATOM      7  C   UNL     1      19.106  12.973  43.509  1.00  0.00     0.041 C 
ATOM      8  O   UNL     1      18.409  11.977  43.837  1.00  0.00    -0.550 OA
ATOM      9  O   UNL     1      20.466  12.984  43.798  1.00  0.00    -0.550 OA
ENDBRANCH   6   7
ENDBRANCH   5   6
ENDBRANCH   4   5
ENDBRANCH   3   4
ENDBRANCH   2   3
ENDBRANCH   1   2
BRANCH   1  10
ATOM     10  C   UNL     1      15.995  13.772  36.859  1.00  0.00     0.027 C 
BRANCH  10  11
ATOM     11  C   UNL     1      14.507  14.018  36.860  1.00  0.00    -0.031 C 
ATOM     12  C   UNL     1      13.749  14.123  35.753  1.00  0.00    -0.031 C 
BRANCH  12  13
ATOM     13  C   UNL     1      14.284  14.100  34.344  1.00  0.00     0.027 C 
BRANCH  13  14
ATOM     14  C   UNL     1      14.713  12.682  33.949  1.00  0.00     0.004 C 
BRANCH  14  15
ATOM     15  C   UNL     1      13.491  11.773  33.750  1.00  0.00     0.000 C 
BRANCH  15  16
ATOM     16  C   UNL     1      13.508  10.537  34.667  1.00  0.00    -0.000 C 
BRANCH  16  17
ATOM     17  C   UNL     1      14.261  10.728  35.996  1.00  0.00    -0.003 C 
ATOM     18  C   UNL     1      13.345  10.663  37.218  1.00  0.00     0.004 C 
ENDBRANCH  16  17
ENDBRANCH  15  16
ENDBRANCH  14  15
ENDBRANCH  13  14
ENDBRANCH  12  13
ENDBRANCH  10  11
ENDBRANCH   1  10
TORSDOF 13
ENDMDL
MODEL 5
REMARK VINA RESULT:    -0.619      4.518      8.942
REMARK INTER + INTRA:          -1.399
REMARK INTER:                  -0.693
REMARK INTRA:                  -0.706
REMARK UNBOUND:                -0.309
REMARK SMILES CCCCCCC=CCCCCCCCC(=O)[O-]
REMARK SMILES IDX 10 1 11 2 12 3 13 4 14 5 15 6 16 7 17 8 18 9 9 10 8 11 7 12
REMARK SMILES IDX 6 13 5 14 4 15 3 16 2 17 1 18
REMARK H PARENT
REMARK Flexibility Score: inf
ROOT
ATOM      1  C   UNL     1      16.006  12.835  37.714  1.00  0.00     0.004 C 
ENDROOT
BRANCH   1   2
ATOM      2  C   UNL     1      15.689  14.075  38.562  1.00  0.00     0.000 C 
BRANCH   2   3
ATOM      3  C   UNL     1      15.150  13.724  39.961  1.00  0.00     0.000 C 
BRANCH   3   4
ATOM      4  C   UNL     1      16.091  14.068  41.132  1.00  0.00     0.000 C 
BRANCH   4   5
ATOM      5  C   UNL     1      17.258  13.085  41.352  1.00  0.00     0.006 C 
BRANCH   5   6
ATOM      6  C   UNL     1      18.576  13.763  41.770  1.00  0.00     0.053 C 
BRANCH   6   7
ATOM      7  C   UNL     1      18.922  13.513  43.206  1.00  0.00     0.041 C 
ATOM      8  O   UNL     1      18.272  14.079  44.124  1.00  0.00    -0.550 OA
ATOM      9  O   UNL     1      19.942  12.627  43.533  1.00  0.00    -0.550 OA
ENDBRANCH   6   7
ENDBRANCH   5   6
ENDBRANCH   4   5
ENDBRANCH   3   4
ENDBRANCH   2   3
ENDBRANCH   1   2
BRANCH   1  10
ATOM     10  C   UNL     1      14.728  12.246  37.108  1.00  0.00     0.027 C 
BRANCH  10  11
ATOM     11  C   UNL     1      13.699  13.324  36.879  1.00  0.00    -0.031 C 
ATOM     12  C   UNL     1      13.657  14.125  35.797  1.00  0.00    -0.031 C 
BRANCH  12  13
ATOM     13  C   UNL     1      14.684  14.125  34.694  1.00  0.00     0.027 C 
BRANCH  13  14
ATOM     14  C   UNL     1      14.058  13.676  33.368  1.00  0.00     0.004 C 
BRANCH  14  15
ATOM     15  C   UNL     1      12.973  12.616  33.604  1.00  0.00     0.000 C 
BRANCH  15  16
ATOM     16  C   UNL     1      13.550  11.206  33.824  1.00  0.00    -0.000 C 
BRANCH  16  17
ATOM     17  C   UNL     1      13.920  10.451  32.536  1.00  0.00    -0.003 C 
ATOM     18  C   UNL     1      12.768   9.616  31.979  1.00  0.00     0.004 C 
ENDBRANCH  16  17
ENDBRANCH  15  16
ENDBRANCH  14  15
ENDBRANCH  13  14
ENDBRANCH  12  13
ENDBRANCH  10  11
ENDBRANCH   1  10
TORSDOF 13
ENDMDL
