MODEL 1
REMARK VINA RESULT:    -4.125      0.000      0.000
REMARK INTER + INTRA:          -8.130
REMARK INTER:                  -7.500
REMARK INTRA:                  -0.629
REMARK UNBOUND:                -0.629
REMARK SMILES CCCCCCCCCCCCCCCC(=O)[O-]
REMARK SMILES IDX 9 1 10 2 11 3 12 4 13 5 14 6 15 7 16 8 17 9 18 10 8 11 7 12
REMARK SMILES IDX 6 13 5 14 4 15 3 16 2 17 1 18
REMARK H PARENT
REMARK Flexibility Score: inf
ROOT
ATOM      1  C   UNL     1       0.941   9.341   8.311  1.00  0.00     0.000 C 
ENDROOT
BRANCH   1   2
ATOM      2  C   UNL     1       1.298   9.312   9.810  1.00  0.00     0.000 C 
BRANCH   2   3
ATOM      3  C   UNL     1       2.798   9.162  10.125  1.00  0.00     0.000 C 
BRANCH   3   4
ATOM      4  C   UNL     1       3.693   9.998   9.195  1.00  0.00     0.000 C 
BRANCH   4   5
ATOM      5  C   UNL     1       5.187   9.854   9.529  1.00  0.00     0.000 C 
BRANCH   5   6
ATOM      6  C   UNL     1       5.802   8.568   8.950  1.00  0.00     0.006 C 
BRANCH   6   7
ATOM      7  C   UNL     1       6.114   8.699   7.453  1.00  0.00     0.053 C 
BRANCH   7   8
ATOM      8  C   UNL     1       5.065   8.043   6.607  1.00  0.00     0.041 C 
ATOM      9  O   UNL     1       4.025   7.575   7.140  1.00  0.00    -0.550 OA
ATOM     10  O   UNL     1       5.221   7.981   5.228  1.00  0.00    -0.550 OA
ENDBRANCH   7   8
ENDBRANCH   6   7
ENDBRANCH   5   6
ENDBRANCH   4   5
ENDBRANCH   3   4
ENDBRANCH   2   3
ENDBRANCH   1   2
BRANCH   1  11
ATOM     11  C   UNL     1      -0.350  10.125   8.017  1.00  0.00     0.000 C 
BRANCH  11  12
ATOM     12  C   UNL     1      -1.616   9.279   8.231  1.00  0.00    -0.000 C 
BRANCH  12  13
ATOM     13  C   UNL     1      -2.480   9.172   6.965  1.00  0.00    -0.000 C 
BRANCH  13  14
ATOM     14  C   UNL     1      -2.621   7.708   6.522  1.00  0.00    -0.000 C 
BRANCH  14  15
ATOM     15  C   UNL     1      -2.235   7.492   5.050  1.00  0.00    -0.000 C 
BRANCH  15  16
ATOM     16  C   UNL     1      -2.171   6.003   4.668  1.00  0.00    -0.000 C 
BRANCH  16  17
ATOM     17  C   UNL     1      -3.487   5.264   4.964  1.00  0.00    -0.003 C 
ATOM     18  C   UNL     1      -3.321   4.143   5.989  1.00  0.00     0.004 C 
ENDBRANCH  16  17
ENDBRANCH  15  16
ENDBRANCH  14  15
ENDBRANCH  13  14
ENDBRANCH  12  13
ENDBRANCH  11  12
ENDBRANCH   1  11
TORSDOF 14
ENDMDL
MODEL 2
REMARK VINA RESULT:    -4.103      3.154      7.382
REMARK INTER + INTRA:          -8.091
REMARK INTER:                  -7.093
REMARK INTRA:                  -0.998
REMARK UNBOUND:                -0.629
REMARK SMILES CCCCCCCCCCCCCCCC(=O)[O-]
REMARK SMILES IDX 9 1 10 2 11 3 12 4 13 5 14 6 15 7 16 8 17 9 18 10 8 11 7 12
REMARK SMILES IDX 6 13 5 14 4 15 3 16 2 17 1 18
REMARK H PARENT
REMARK Flexibility Score: inf
ROOT
ATOM      1  C   UNL     1      -3.347   8.945   7.988  1.00  0.00     0.000 C 
ENDROOT
BRANCH   1   2
ATOM      2  C   UNL     1      -2.592   9.492   6.761  1.00  0.00     0.000 C 
BRANCH   2   3
ATOM      3  C   UNL     1      -3.406   9.537   5.455  1.00  0.00     0.000 C 
BRANCH   3   4
ATOM      4  C   UNL     1      -3.174   8.308   4.561  1.00  0.00     0.000 C 
BRANCH   4   5
ATOM      5  C   UNL     1      -1.954   7.481   5.001  1.00  0.00     0.000 C 
BRANCH   5   6
ATOM      6  C   UNL     1      -2.009   6.028   4.497  1.00  0.00     0.006 C 
BRANCH   6   7
ATOM      7  C   UNL     1      -3.392   5.396   4.709  1.00  0.00     0.053 C 
BRANCH   7   8
ATOM      8  C   UNL     1      -3.533   4.816   6.084  1.00  0.00     0.041 C 
ATOM      9  O   UNL     1      -3.436   3.573   6.259  1.00  0.00    -0.550 OA
ATOM     10  O   UNL     1      -3.735   5.653   7.174  1.00  0.00    -0.550 OA
ENDBRANCH   7   8
ENDBRANCH   6   7
ENDBRANCH   5   6
ENDBRANCH   4   5
ENDBRANCH   3   4
ENDBRANCH   2   3
ENDBRANCH   1   2
BRANCH   1  11
ATOM     11  C   UNL     1      -2.421   8.648   9.180  1.00  0.00     0.000 C 
BRANCH  11  12
ATOM     12  C   UNL     1      -1.446   9.800   9.471  1.00  0.00    -0.000 C 
BRANCH  12  13
ATOM     13  C   UNL     1      -0.025   9.309   9.791  1.00  0.00    -0.000 C 
BRANCH  13  14
ATOM     14  C   UNL     1       1.002   9.960   8.852  1.00  0.00    -0.000 C 
BRANCH  14  15
ATOM     15  C   UNL     1       1.845   8.927   8.086  1.00  0.00    -0.000 C 
BRANCH  15  16
ATOM     16  C   UNL     1       3.098   8.491   8.867  1.00  0.00    -0.000 C 
BRANCH  16  17
ATOM     17  C   UNL     1       4.393   8.713   8.069  1.00  0.00    -0.003 C 
ATOM     18  C   UNL     1       4.555   7.727   6.914  1.00  0.00     0.004 C 
ENDBRANCH  16  17
ENDBRANCH  15  16
ENDBRANCH  14  15
ENDBRANCH  13  14
ENDBRANCH  12  13
ENDBRANCH  11  12
ENDBRANCH   1  11
TORSDOF 14
ENDMDL
MODEL 3
REMARK VINA RESULT:    -3.969      2.835      7.576
REMARK INTER + INTRA:          -7.847
REMARK INTER:                  -6.864
REMARK INTRA:                  -0.983
REMARK UNBOUND:                -0.629
REMARK SMILES CCCCCCCCCCCCCCCC(=O)[O-]
REMARK SMILES IDX 9 1 10 2 11 3 12 4 13 5 14 6 15 7 16 8 17 9 18 10 8 11 7 12
REMARK SMILES IDX 6 13 5 14 4 15 3 16 2 17 1 18
REMARK H PARENT
REMARK Flexibility Score: inf
ROOT
ATOM      1  C   UNL     1       0.315   9.259   8.887  1.00  0.00     0.000 C 
ENDROOT
BRANCH   1   2
ATOM      2  C   UNL     1      -1.075   9.002   9.499  1.00  0.00     0.000 C 
BRANCH   2   3
ATOM      3  C   UNL     1      -2.248   9.688   8.774  1.00  0.00     0.000 C 
BRANCH   3   4
ATOM      4  C   UNL     1      -2.884   8.802   7.690  1.00  0.00     0.000 C 
BRANCH   4   5
ATOM      5  C   UNL     1      -2.531   9.267   6.267  1.00  0.00     0.000 C 
BRANCH   5   6
ATOM      6  C   UNL     1      -3.060   8.312   5.183  1.00  0.00     0.006 C 
BRANCH   6   7
ATOM      7  C   UNL     1      -2.066   7.184   4.872  1.00  0.00     0.053 C 
BRANCH   7   8
ATOM      8  C   UNL     1      -2.630   5.838   5.212  1.00  0.00     0.041 C 
ATOM      9  O   UNL     1      -2.383   4.845   4.478  1.00  0.00    -0.550 OA
ATOM     10  O   UNL     1      -3.395   5.674   6.359  1.00  0.00    -0.550 OA
ENDBRANCH   7   8
ENDBRANCH   6   7
ENDBRANCH   5   6
ENDBRANCH   4   5
ENDBRANCH   3   4
ENDBRANCH   2   3
ENDBRANCH   1   2
BRANCH   1  11
ATOM     11  C   UNL     1       1.416   9.430   9.949  1.00  0.00     0.000 C 
BRANCH  11  12
ATOM     12  C   UNL     1       2.759   8.826   9.509  1.00  0.00    -0.000 C 
BRANCH  12  13
ATOM     13  C   UNL     1       3.182   9.278   8.102  1.00  0.00    -0.000 C 
BRANCH  13  14
ATOM     14  C   UNL     1       3.685   8.086   7.273  1.00  0.00    -0.000 C 
BRANCH  14  15
ATOM     15  C   UNL     1       5.208   7.899   7.364  1.00  0.00    -0.000 C 
BRANCH  15  16
ATOM     16  C   UNL     1       5.946   9.209   7.689  1.00  0.00    -0.000 C 
BRANCH  16  17
ATOM     17  C   UNL     1       6.865   9.078   8.914  1.00  0.00    -0.003 C 
ATOM     18  C   UNL     1       6.284   8.170   9.997  1.00  0.00     0.004 C 
ENDBRANCH  16  17
ENDBRANCH  15  16
ENDBRANCH  14  15
ENDBRANCH  13  14
ENDBRANCH  12  13
ENDBRANCH  11  12
ENDBRANCH   1  11
TORSDOF 14
ENDMDL
MODEL 4
REMARK VINA RESULT:    -3.876     12.399     15.560
REMARK INTER + INTRA:          -7.677
REMARK INTER:                  -6.574
REMARK INTRA:                  -1.103
REMARK UNBOUND:                -0.629
REMARK SMILES CCCCCCCCCCCCCCCC(=O)[O-]
REMARK SMILES IDX 9 1 10 2 11 3 12 4 13 5 14 6 15 7 16 8 17 9 18 10 8 11 7 12
REMARK SMILES IDX 6 13 5 14 4 15 3 16 2 17 1 18
REMARK H PARENT
REMARK Flexibility Score: inf
ROOT
ATOM      1  C   UNL     1       5.982  -6.422   6.855  1.00  0.00     0.000 C 
ENDROOT
BRANCH   1   2
ATOM      2  C   UNL     1       5.527  -7.525   7.830  1.00  0.00     0.000 C 
BRANCH   2   3
ATOM      3  C   UNL     1       4.002  -7.701   7.958  1.00  0.00     0.000 C 
BRANCH   3   4
ATOM      4  C   UNL     1       3.449  -7.183   9.296  1.00  0.00     0.000 C 
BRANCH   4   5
ATOM      5  C   UNL     1       3.722  -5.684   9.505  1.00  0.00     0.000 C 
BRANCH   5   6
ATOM      6  C   UNL     1       2.488  -4.811   9.214  1.00  0.00     0.006 C 
BRANCH   6   7
ATOM      7  C   UNL     1       2.200  -4.700   7.710  1.00  0.00     0.053 C 
BRANCH   7   8
ATOM      8  C   UNL     1       0.879  -5.310   7.351  1.00  0.00     0.041 C 
ATOM      9  O   UNL     1       0.710  -6.554   7.449  1.00  0.00    -0.550 OA
ATOM     10  O   UNL     1      -0.173  -4.501   6.944  1.00  0.00    -0.550 OA
ENDBRANCH   7   8
ENDBRANCH   6   7
ENDBRANCH   5   6
ENDBRANCH   4   5
ENDBRANCH   3   4
ENDBRANCH   2   3
ENDBRANCH   1   2
BRANCH   1  11
ATOM     11  C   UNL     1       6.804  -5.317   7.541  1.00  0.00     0.000 C 
BRANCH  11  12
ATOM     12  C   UNL     1       7.464  -5.794   8.844  1.00  0.00    -0.000 C 
BRANCH  12  13
ATOM     13  C   UNL     1       7.721  -4.648   9.835  1.00  0.00    -0.000 C 
BRANCH  13  14
ATOM     14  C   UNL     1       8.667  -3.601   9.225  1.00  0.00    -0.000 C 
BRANCH  14  15
ATOM     15  C   UNL     1       8.849  -2.369  10.125  1.00  0.00    -0.000 C 
BRANCH  15  16
ATOM     16  C   UNL     1       8.505  -1.054   9.403  1.00  0.00    -0.000 C 
BRANCH  16  17
ATOM     17  C   UNL     1       9.147   0.171  10.075  1.00  0.00    -0.003 C 
ATOM     18  C   UNL     1       8.322   1.445   9.900  1.00  0.00     0.004 C 
ENDBRANCH  16  17
ENDBRANCH  15  16
ENDBRANCH  14  15
ENDBRANCH  13  14
ENDBRANCH  12  13
ENDBRANCH  11  12
ENDBRANCH   1  11
TORSDOF 14
ENDMDL
MODEL 5
REMARK VINA RESULT:    -3.837      2.619      7.429
REMARK INTER + INTRA:          -7.606
REMARK INTER:                  -6.421
REMARK INTRA:                  -1.185
REMARK UNBOUND:                -0.629
REMARK SMILES CCCCCCCCCCCCCCCC(=O)[O-]
REMARK SMILES IDX 9 1 10 2 11 3 12 4 13 5 14 6 15 7 16 8 17 9 18 10 8 11 7 12
REMARK SMILES IDX 6 13 5 14 4 15 3 16 2 17 1 18
REMARK H PARENT
REMARK Flexibility Score: inf
ROOT
ATOM      1  C   UNL     1       2.420   9.581   8.108  1.00  0.00     0.000 C 
ENDROOT
BRANCH   1   2
ATOM      2  C   UNL     1       0.970  10.035   8.361  1.00  0.00     0.000 C 
BRANCH   2   3
ATOM      3  C   UNL     1       0.061   8.987   9.031  1.00  0.00     0.000 C 
BRANCH   3   4
ATOM      4  C   UNL     1      -1.435   9.313   8.889  1.00  0.00     0.000 C 
BRANCH   4   5
ATOM      5  C   UNL     1      -1.763  10.008   7.557  1.00  0.00     0.000 C 
BRANCH   5   6
ATOM      6  C   UNL     1      -2.891   9.303   6.783  1.00  0.00     0.006 C 
BRANCH   6   7
ATOM      7  C   UNL     1      -2.520   7.863   6.402  1.00  0.00     0.053 C 
BRANCH   7   8
ATOM      8  C   UNL     1      -2.386   7.698   4.919  1.00  0.00     0.041 C 
ATOM      9  O   UNL     1      -1.540   6.895   4.445  1.00  0.00    -0.550 OA
ATOM     10  O   UNL     1      -3.220   8.404   4.062  1.00  0.00    -0.550 OA
ENDBRANCH   7   8
ENDBRANCH   6   7
ENDBRANCH   5   6
ENDBRANCH   4   5
ENDBRANCH   3   4
ENDBRANCH   2   3
ENDBRANCH   1   2
BRANCH   1  11
ATOM     11  C   UNL     1       2.962   8.657   9.213  1.00  0.00     0.000 C 
BRANCH  11  12
ATOM     12  C   UNL     1       4.080   9.316  10.037  1.00  0.00    -0.000 C 
BRANCH  12  13
ATOM     13  C   UNL     1       5.420   8.573   9.923  1.00  0.00    -0.000 C 
BRANCH  13  14
ATOM     14  C   UNL     1       6.500   9.483   9.319  1.00  0.00    -0.000 C 
BRANCH  14  15
ATOM     15  C   UNL     1       6.064  10.125   7.993  1.00  0.00    -0.000 C 
BRANCH  15  16
ATOM     16  C   UNL     1       6.625   9.384   6.766  1.00  0.00    -0.000 C 
BRANCH  16  17
ATOM     17  C   UNL     1       6.070   7.956   6.637  1.00  0.00    -0.003 C 
ATOM     18  C   UNL     1       4.692   7.912   5.979  1.00  0.00     0.004 C 
ENDBRANCH  16  17
ENDBRANCH  15  16
ENDBRANCH  14  15
ENDBRANCH  13  14
ENDBRANCH  12  13
ENDBRANCH  11  12
ENDBRANCH   1  11
TORSDOF 14
ENDMDL
MODEL 6
REMARK VINA RESULT:    -3.742      3.052      7.818
REMARK INTER + INTRA:          -7.435
REMARK INTER:                  -6.696
REMARK INTRA:                  -0.738
REMARK UNBOUND:                -0.629
REMARK SMILES CCCCCCCCCCCCCCCC(=O)[O-]
REMARK SMILES IDX 9 1 10 2 11 3 12 4 13 5 14 6 15 7 16 8 17 9 18 10 8 11 7 12
REMARK SMILES IDX 6 13 5 14 4 15 3 16 2 17 1 18
REMARK H PARENT
REMARK Flexibility Score: inf
ROOT
ATOM      1  C   UNL     1      -0.441   9.401   8.071  1.00  0.00     0.000 C 
ENDROOT
BRANCH   1   2
ATOM      2  C   UNL     1      -1.793   9.828   7.469  1.00  0.00     0.000 C 
BRANCH   2   3
ATOM      3  C   UNL     1      -2.714   8.671   7.038  1.00  0.00     0.000 C 
BRANCH   3   4
ATOM      4  C   UNL     1      -3.321   8.876   5.641  1.00  0.00     0.000 C 
BRANCH   4   5
ATOM      5  C   UNL     1      -2.536   8.139   4.543  1.00  0.00     0.000 C 
BRANCH   5   6
ATOM      6  C   UNL     1      -2.064   6.743   4.987  1.00  0.00     0.006 C 
BRANCH   6   7
ATOM      7  C   UNL     1      -3.154   5.678   4.799  1.00  0.00     0.053 C 
BRANCH   7   8
ATOM      8  C   UNL     1      -3.462   4.967   6.082  1.00  0.00     0.041 C 
ATOM      9  O   UNL     1      -3.763   5.624   7.113  1.00  0.00    -0.550 OA
ATOM     10  O   UNL     1      -3.452   3.579   6.128  1.00  0.00    -0.550 OA
ENDBRANCH   7   8
ENDBRANCH   6   7
ENDBRANCH   5   6
ENDBRANCH   4   5
ENDBRANCH   3   4
ENDBRANCH   2   3
ENDBRANCH   1   2
BRANCH   1  11
ATOM     11  C   UNL     1      -0.362   9.626   9.591  1.00  0.00     0.000 C 
BRANCH  11  12
ATOM     12  C   UNL     1       1.053  10.003  10.059  1.00  0.00    -0.000 C 
BRANCH  12  13
ATOM     13  C   UNL     1       2.129   9.040   9.533  1.00  0.00    -0.000 C 
BRANCH  13  14
ATOM     14  C   UNL     1       3.252   9.812   8.822  1.00  0.00    -0.000 C 
BRANCH  14  15
ATOM     15  C   UNL     1       4.617   9.114   8.936  1.00  0.00    -0.000 C 
BRANCH  15  16
ATOM     16  C   UNL     1       4.965   8.290   7.683  1.00  0.00    -0.000 C 
BRANCH  16  17
ATOM     17  C   UNL     1       6.306   8.709   7.059  1.00  0.00    -0.003 C 
ATOM     18  C   UNL     1       6.732  10.121   7.459  1.00  0.00     0.004 C 
ENDBRANCH  16  17
ENDBRANCH  15  16
ENDBRANCH  14  15
ENDBRANCH  13  14
ENDBRANCH  12  13
ENDBRANCH  11  12
ENDBRANCH   1  11
TORSDOF 14
ENDMDL
MODEL 7
REMARK VINA RESULT:    -3.661      1.310      2.046
REMARK INTER + INTRA:          -7.287
REMARK INTER:                  -6.485
REMARK INTRA:                  -0.802
REMARK UNBOUND:                -0.629
REMARK SMILES CCCCCCCCCCCCCCCC(=O)[O-]
REMARK SMILES IDX 9 1 10 2 11 3 12 4 13 5 14 6 15 7 16 8 17 9 18 10 8 11 7 12
REMARK SMILES IDX 6 13 5 14 4 15 3 16 2 17 1 18
REMARK H PARENT
REMARK Flexibility Score: inf
ROOT
ATOM      1  C   UNL     1       0.753   9.910   8.513  1.00  0.00     0.000 C 
ENDROOT
BRANCH   1   2
ATOM      2  C   UNL     1       1.550   8.713   9.067  1.00  0.00     0.000 C 
BRANCH   2   3
ATOM      3  C   UNL     1       2.865   9.076   9.784  1.00  0.00     0.000 C 
BRANCH   3   4
ATOM      4  C   UNL     1       3.980   9.499   8.814  1.00  0.00     0.000 C 
BRANCH   4   5
ATOM      5  C   UNL     1       5.048   8.407   8.631  1.00  0.00     0.000 C 
BRANCH   5   6
ATOM      6  C   UNL     1       6.441   8.986   8.329  1.00  0.00     0.006 C 
BRANCH   6   7
ATOM      7  C   UNL     1       6.385  10.123   7.299  1.00  0.00     0.053 C 
BRANCH   7   8
ATOM      8  C   UNL     1       6.813   9.661   5.939  1.00  0.00     0.041 C 
ATOM      9  O   UNL     1       7.859  10.125   5.414  1.00  0.00    -0.550 OA
ATOM     10  O   UNL     1       6.076   8.693   5.269  1.00  0.00    -0.550 OA
ENDBRANCH   7   8
ENDBRANCH   6   7
ENDBRANCH   5   6
ENDBRANCH   4   5
ENDBRANCH   3   4
ENDBRANCH   2   3
ENDBRANCH   1   2
BRANCH   1  11
ATOM     11  C   UNL     1      -0.587  10.124   9.237  1.00  0.00     0.000 C 
BRANCH  11  12
ATOM     12  C   UNL     1      -1.394   8.824   9.384  1.00  0.00    -0.000 C 
BRANCH  12  13
ATOM     13  C   UNL     1      -2.825   8.947   8.838  1.00  0.00    -0.000 C 
BRANCH  13  14
ATOM     14  C   UNL     1      -2.907  10.042   7.763  1.00  0.00    -0.000 C 
BRANCH  14  15
ATOM     15  C   UNL     1      -3.009   9.472   6.340  1.00  0.00    -0.000 C 
BRANCH  15  16
ATOM     16  C   UNL     1      -2.305   8.111   6.197  1.00  0.00    -0.000 C 
BRANCH  16  17
ATOM     17  C   UNL     1      -2.734   7.358   4.926  1.00  0.00    -0.003 C 
ATOM     18  C   UNL     1      -2.737   5.841   5.107  1.00  0.00     0.004 C 
ENDBRANCH  16  17
ENDBRANCH  15  16
ENDBRANCH  14  15
ENDBRANCH  13  14
ENDBRANCH  12  13
ENDBRANCH  11  12
ENDBRANCH   1  11
TORSDOF 14
ENDMDL
MODEL 8
REMARK VINA RESULT:    -3.648     13.637     16.716
REMARK INTER + INTRA:          -7.263
REMARK INTER:                  -6.161
REMARK INTRA:                  -1.103
REMARK UNBOUND:                -0.629
REMARK SMILES CCCCCCCCCCCCCCCC(=O)[O-]
REMARK SMILES IDX 9 1 10 2 11 3 12 4 13 5 14 6 15 7 16 8 17 9 18 10 8 11 7 12
REMARK SMILES IDX 6 13 5 14 4 15 3 16 2 17 1 18
REMARK H PARENT
REMARK Flexibility Score: inf
ROOT
ATOM      1  C   UNL     1       5.978  -8.819   5.634  1.00  0.00     0.000 C 
ENDROOT
BRANCH   1   2
ATOM      2  C   UNL     1       5.636  -9.297   7.057  1.00  0.00     0.000 C 
BRANCH   2   3
ATOM      3  C   UNL     1       4.135  -9.306   7.404  1.00  0.00     0.000 C 
BRANCH   3   4
ATOM      4  C   UNL     1       3.810  -8.522   8.685  1.00  0.00     0.000 C 
BRANCH   4   5
ATOM      5  C   UNL     1       3.409  -7.065   8.399  1.00  0.00     0.000 C 
BRANCH   5   6
ATOM      6  C   UNL     1       1.958  -6.937   7.902  1.00  0.00     0.006 C 
BRANCH   6   7
ATOM      7  C   UNL     1       1.484  -5.477   7.871  1.00  0.00     0.053 C 
BRANCH   7   8
ATOM      8  C   UNL     1       0.131  -5.346   7.240  1.00  0.00     0.041 C 
ATOM      9  O   UNL     1      -0.244  -4.239   6.772  1.00  0.00    -0.550 OA
ATOM     10  O   UNL     1      -0.699  -6.455   7.136  1.00  0.00    -0.550 OA
ENDBRANCH   7   8
ENDBRANCH   6   7
ENDBRANCH   5   6
ENDBRANCH   4   5
ENDBRANCH   3   4
ENDBRANCH   2   3
ENDBRANCH   1   2
BRANCH   1  11
ATOM     11  C   UNL     1       6.744  -7.484   5.617  1.00  0.00     0.000 C 
BRANCH  11  12
ATOM     12  C   UNL     1       6.069  -6.406   6.480  1.00  0.00    -0.000 C 
BRANCH  12  13
ATOM     13  C   UNL     1       7.081  -5.550   7.259  1.00  0.00    -0.000 C 
BRANCH  13  14
ATOM     14  C   UNL     1       6.798  -5.608   8.768  1.00  0.00    -0.000 C 
BRANCH  14  15
ATOM     15  C   UNL     1       8.057  -5.376   9.618  1.00  0.00    -0.000 C 
BRANCH  15  16
ATOM     16  C   UNL     1       8.879  -4.167   9.138  1.00  0.00    -0.000 C 
BRANCH  16  17
ATOM     17  C   UNL     1       8.783  -2.972  10.101  1.00  0.00    -0.003 C 
ATOM     18  C   UNL     1       8.573  -1.642   9.378  1.00  0.00     0.004 C 
ENDBRANCH  16  17
ENDBRANCH  15  16
ENDBRANCH  14  15
ENDBRANCH  13  14
ENDBRANCH  12  13
ENDBRANCH  11  12
ENDBRANCH   1  11
TORSDOF 14
ENDMDL
MODEL 9
REMARK VINA RESULT:    -3.210      3.200      4.032
REMARK INTER + INTRA:          -6.467
REMARK INTER:                  -5.706
REMARK INTRA:                  -0.762
REMARK UNBOUND:                -0.629
REMARK SMILES CCCCCCCCCCCCCCCC(=O)[O-]
REMARK SMILES IDX 9 1 10 2 11 3 12 4 13 5 14 6 15 7 16 8 17 9 18 10 8 11 7 12
REMARK SMILES IDX 6 13 5 14 4 15 3 16 2 17 1 18
REMARK H PARENT
REMARK Flexibility Score: inf
ROOT
ATOM      1  C   UNL     1      -1.010   9.659   8.081  1.00  0.00     0.000 C 
ENDROOT
BRANCH   1   2
ATOM      2  C   UNL     1      -0.453   9.799   9.511  1.00  0.00     0.000 C 
BRANCH   2   3
ATOM      3  C   UNL     1       1.077   9.672   9.635  1.00  0.00     0.000 C 
BRANCH   3   4
ATOM      4  C   UNL     1       1.811   9.938   8.310  1.00  0.00     0.000 C 
BRANCH   4   5
ATOM      5  C   UNL     1       2.630   8.726   7.837  1.00  0.00     0.000 C 
BRANCH   5   6
ATOM      6  C   UNL     1       3.941   8.552   8.624  1.00  0.00     0.006 C 
BRANCH   6   7
ATOM      7  C   UNL     1       5.130   8.238   7.705  1.00  0.00     0.053 C 
BRANCH   7   8
ATOM      8  C   UNL     1       6.380   8.929   8.159  1.00  0.00     0.041 C 
ATOM      9  O   UNL     1       6.958   8.561   9.216  1.00  0.00    -0.550 OA
ATOM     10  O   UNL     1       6.926   9.952   7.396  1.00  0.00    -0.550 OA
ENDBRANCH   7   8
ENDBRANCH   6   7
ENDBRANCH   5   6
ENDBRANCH   4   5
ENDBRANCH   3   4
ENDBRANCH   2   3
ENDBRANCH   1   2
BRANCH   1  11
ATOM     11  C   UNL     1      -2.542   9.528   8.044  1.00  0.00     0.000 C 
BRANCH  11  12
ATOM     12  C   UNL     1      -3.164   9.470   9.448  1.00  0.00    -0.000 C 
BRANCH  12  13
ATOM     13  C   UNL     1      -3.585   8.049   9.854  1.00  0.00    -0.000 C 
BRANCH  13  14
ATOM     14  C   UNL     1      -4.782   7.574   9.016  1.00  0.00    -0.000 C 
BRANCH  14  15
ATOM     15  C   UNL     1      -5.832   6.824   9.851  1.00  0.00    -0.000 C 
BRANCH  15  16
ATOM     16  C   UNL     1      -7.237   7.439   9.725  1.00  0.00    -0.000 C 
BRANCH  16  17
ATOM     17  C   UNL     1      -7.205   8.863   9.147  1.00  0.00    -0.003 C 
ATOM     18  C   UNL     1      -8.573   9.542   9.165  1.00  0.00     0.004 C 
ENDBRANCH  16  17
ENDBRANCH  15  16
ENDBRANCH  14  15
ENDBRANCH  13  14
ENDBRANCH  12  13
ENDBRANCH  11  12
ENDBRANCH   1  11
TORSDOF 14
ENDMDL
