MODEL 1
REMARK VINA RESULT:    -2.236      0.000      0.000
REMARK INTER + INTRA:          -2.674
REMARK INTER:                  -2.628
REMARK INTRA:                  -0.046
REMARK UNBOUND:                -0.046
REMARK SMILES O=C([O-])CCC(=O)[O-]
REMARK SMILES IDX 4 1 2 2 1 3 3 4 5 5 6 6 7 7 8 8
REMARK H PARENT
REMARK Flexibility Score: inf
ROOT
ATOM      1  C   UNL     1      12.823  -4.243   2.190  1.00  0.00     0.059 C 
ENDROOT
BRANCH   1   2
ATOM      2  C   UNL     1      12.819  -3.738   3.598  1.00  0.00     0.042 C 
ATOM      3  O   UNL     1      12.927  -2.505   3.829  1.00  0.00    -0.550 OA
ATOM      4  O   UNL     1      12.744  -4.633   4.657  1.00  0.00    -0.550 OA
ENDBRANCH   1   2
BRANCH   1   5
ATOM      5  C   UNL     1      13.125  -5.742   2.159  1.00  0.00     0.059 C 
BRANCH   5   6
ATOM      6  C   UNL     1      12.561  -6.365   0.922  1.00  0.00     0.042 C 
ATOM      7  O   UNL     1      11.984  -5.652   0.060  1.00  0.00    -0.550 OA
ATOM      8  O   UNL     1      12.628  -7.741   0.743  1.00  0.00    -0.550 OA
ENDBRANCH   5   6
ENDBRANCH   1   5
TORSDOF 3
ENDMDL
MODEL 2
REMARK VINA RESULT:    -2.159      1.236      4.073
REMARK INTER + INTRA:          -2.583
REMARK INTER:                  -2.540
REMARK INTRA:                  -0.043
REMARK UNBOUND:                -0.046
REMARK SMILES O=C([O-])CCC(=O)[O-]
REMARK SMILES IDX 4 1 2 2 1 3 3 4 5 5 6 6 7 7 8 8
REMARK H PARENT
REMARK Flexibility Score: inf
ROOT
ATOM      1  C   UNL     1      12.511  -5.401   1.062  1.00  0.00     0.059 C 
ENDROOT
BRANCH   1   2
ATOM      2  C   UNL     1      12.568  -6.895   1.105  1.00  0.00     0.042 C 
ATOM      3  O   UNL     1      12.074  -7.575   0.167  1.00  0.00    -0.550 OA
ATOM      4  O   UNL     1      13.123  -7.538   2.204  1.00  0.00    -0.550 OA
ENDBRANCH   1   2
BRANCH   1   5
ATOM      5  C   UNL     1      13.125  -4.804   2.330  1.00  0.00     0.059 C 
BRANCH   5   6
ATOM      6  C   UNL     1      12.438  -3.526   2.694  1.00  0.00     0.042 C 
ATOM      7  O   UNL     1      12.517  -3.077   3.867  1.00  0.00    -0.550 OA
ATOM      8  O   UNL     1      11.669  -2.857   1.750  1.00  0.00    -0.550 OA
ENDBRANCH   5   6
ENDBRANCH   1   5
TORSDOF 3
ENDMDL
MODEL 3
REMARK VINA RESULT:    -2.139     18.150     18.679
REMARK INTER + INTRA:          -2.560
REMARK INTER:                  -2.440
REMARK INTRA:                  -0.119
REMARK UNBOUND:                -0.046
REMARK SMILES O=C([O-])CCC(=O)[O-]
REMARK SMILES IDX 4 1 2 2 1 3 3 4 5 5 6 6 7 7 8 8
REMARK H PARENT
REMARK Flexibility Score: inf
ROOT
ATOM      1  C   UNL     1      -4.586  -8.474   1.698  1.00  0.00     0.059 C 
ENDROOT
BRANCH   1   2
ATOM      2  C   UNL     1      -5.283  -7.634   2.721  1.00  0.00     0.042 C 
ATOM      3  O   UNL     1      -6.527  -7.735   2.883  1.00  0.00    -0.550 OA
ATOM      4  O   UNL     1      -4.564  -6.705   3.463  1.00  0.00    -0.550 OA
ENDBRANCH   1   2
BRANCH   1   5
ATOM      5  C   UNL     1      -5.393  -9.740   1.404  1.00  0.00     0.059 C 
BRANCH   5   6
ATOM      6  C   UNL     1      -5.846  -9.754  -0.021  1.00  0.00     0.042 C 
ATOM      7  O   UNL     1      -5.681 -10.782  -0.729  1.00  0.00    -0.550 OA
ATOM      8  O   UNL     1      -6.406  -8.614  -0.584  1.00  0.00    -0.550 OA
ENDBRANCH   5   6
ENDBRANCH   1   5
TORSDOF 3
ENDMDL
MODEL 4
REMARK VINA RESULT:    -2.127     18.149     19.062
REMARK INTER + INTRA:          -2.546
REMARK INTER:                  -2.427
REMARK INTRA:                  -0.119
REMARK UNBOUND:                -0.046
REMARK SMILES O=C([O-])CCC(=O)[O-]
REMARK SMILES IDX 4 1 2 2 1 3 3 4 5 5 6 6 7 7 8 8
REMARK H PARENT
REMARK Flexibility Score: inf
ROOT
ATOM      1  C   UNL     1      -5.383  -9.717   1.447  1.00  0.00     0.059 C 
ENDROOT
BRANCH   1   2
ATOM      2  C   UNL     1      -5.825  -9.741   0.018  1.00  0.00     0.042 C 
ATOM      3  O   UNL     1      -5.642 -10.769  -0.685  1.00  0.00    -0.550 OA
ATOM      4  O   UNL     1      -6.395  -8.609  -0.552  1.00  0.00    -0.550 OA
ENDBRANCH   1   2
BRANCH   1   5
ATOM      5  C   UNL     1      -4.557  -8.462   1.732  1.00  0.00     0.059 C 
BRANCH   5   6
ATOM      6  C   UNL     1      -5.261  -7.582   2.716  1.00  0.00     0.042 C 
ATOM      7  O   UNL     1      -4.609  -6.758   3.409  1.00  0.00    -0.550 OA
ATOM      8  O   UNL     1      -6.631  -7.707   2.903  1.00  0.00    -0.550 OA
ENDBRANCH   5   6
ENDBRANCH   1   5
TORSDOF 3
ENDMDL
MODEL 5
REMARK VINA RESULT:    -2.095     13.925     14.104
REMARK INTER + INTRA:          -2.509
REMARK INTER:                  -2.411
REMARK INTRA:                  -0.098
REMARK UNBOUND:                -0.046
REMARK SMILES O=C([O-])CCC(=O)[O-]
REMARK SMILES IDX 4 1 2 2 1 3 3 4 5 5 6 6 7 7 8 8
REMARK H PARENT
REMARK Flexibility Score: inf
ROOT
ATOM      1  C   UNL     1      -1.536  -7.495   5.089  1.00  0.00     0.059 C 
ENDROOT
BRANCH   1   2
ATOM      2  C   UNL     1      -0.391  -6.554   4.889  1.00  0.00     0.042 C 
ATOM      3  O   UNL     1       0.788  -6.994   4.831  1.00  0.00    -0.550 OA
ATOM      4  O   UNL     1      -0.620  -5.186   4.814  1.00  0.00    -0.550 OA
ENDBRANCH   1   2
BRANCH   1   5
ATOM      5  C   UNL     1      -1.112  -8.931   4.776  1.00  0.00     0.059 C 
BRANCH   5   6
ATOM      6  C   UNL     1      -1.376  -9.255   3.340  1.00  0.00     0.042 C 
ATOM      7  O   UNL     1      -2.523  -9.078   2.852  1.00  0.00    -0.550 OA
ATOM      8  O   UNL     1      -0.369  -9.798   2.554  1.00  0.00    -0.550 OA
ENDBRANCH   5   6
ENDBRANCH   1   5
TORSDOF 3
ENDMDL
MODEL 6
REMARK VINA RESULT:    -2.004     17.761     18.070
REMARK INTER + INTRA:          -2.401
REMARK INTER:                  -2.284
REMARK INTRA:                  -0.116
REMARK UNBOUND:                -0.046
REMARK SMILES O=C([O-])CCC(=O)[O-]
REMARK SMILES IDX 4 1 2 2 1 3 3 4 5 5 6 6 7 7 8 8
REMARK H PARENT
REMARK Flexibility Score: inf
ROOT
ATOM      1  C   UNL     1      -4.865  -6.339   3.517  1.00  0.00     0.059 C 
ENDROOT
BRANCH   1   2
ATOM      2  C   UNL     1      -6.295  -6.153   3.914  1.00  0.00     0.042 C 
ATOM      3  O   UNL     1      -7.107  -7.111   3.826  1.00  0.00    -0.550 OA
ATOM      4  O   UNL     1      -6.742  -4.907   4.336  1.00  0.00    -0.550 OA
ENDBRANCH   1   2
BRANCH   1   5
ATOM      5  C   UNL     1      -4.387  -7.747   3.878  1.00  0.00     0.059 C 
BRANCH   5   6
ATOM      6  C   UNL     1      -3.912  -8.468   2.657  1.00  0.00     0.042 C 
ATOM      7  O   UNL     1      -4.540  -8.356   1.571  1.00  0.00    -0.550 OA
ATOM      8  O   UNL     1      -2.806  -9.304   2.729  1.00  0.00    -0.550 OA
ENDBRANCH   5   6
ENDBRANCH   1   5
TORSDOF 3
ENDMDL
MODEL 7
REMARK VINA RESULT:    -1.995     16.486     16.997
REMARK INTER + INTRA:          -2.390
REMARK INTER:                  -2.267
REMARK INTRA:                  -0.124
REMARK UNBOUND:                -0.046
REMARK SMILES O=C([O-])CCC(=O)[O-]
REMARK SMILES IDX 4 1 2 2 1 3 3 4 5 5 6 6 7 7 8 8
REMARK H PARENT
REMARK Flexibility Score: inf
ROOT
ATOM      1  C   UNL     1      -4.231  -8.418   2.126  1.00  0.00     0.059 C 
ENDROOT
BRANCH   1   2
ATOM      2  C   UNL     1      -5.194  -7.533   2.851  1.00  0.00     0.042 C 
ATOM      3  O   UNL     1      -6.413  -7.840   2.915  1.00  0.00    -0.550 OA
ATOM      4  O   UNL     1      -4.754  -6.342   3.415  1.00  0.00    -0.550 OA
ENDBRANCH   1   2
BRANCH   1   5
ATOM      5  C   UNL     1      -3.581  -9.409   3.093  1.00  0.00     0.059 C 
BRANCH   5   6
ATOM      6  C   UNL     1      -2.202  -8.958   3.457  1.00  0.00     0.042 C 
ATOM      7  O   UNL     1      -1.199  -9.473   2.897  1.00  0.00    -0.550 OA
ATOM      8  O   UNL     1      -2.022  -8.005   4.451  1.00  0.00    -0.550 OA
ENDBRANCH   5   6
ENDBRANCH   1   5
TORSDOF 3
ENDMDL
MODEL 8
REMARK VINA RESULT:    -1.979     15.763     16.331
REMARK INTER + INTRA:          -2.372
REMARK INTER:                  -2.297
REMARK INTRA:                  -0.075
REMARK UNBOUND:                -0.046
REMARK SMILES O=C([O-])CCC(=O)[O-]
REMARK SMILES IDX 4 1 2 2 1 3 3 4 5 5 6 6 7 7 8 8
REMARK H PARENT
REMARK Flexibility Score: inf
ROOT
ATOM      1  C   UNL     1      -2.791  -9.516   2.971  1.00  0.00     0.059 C 
ENDROOT
BRANCH   1   2
ATOM      2  C   UNL     1      -1.344  -9.241   3.229  1.00  0.00     0.042 C 
ATOM      3  O   UNL     1      -1.004  -8.294   3.987  1.00  0.00    -0.550 OA
ATOM      4  O   UNL     1      -0.368 -10.000   2.595  1.00  0.00    -0.550 OA
ENDBRANCH   1   2
BRANCH   1   5
ATOM      5  C   UNL     1      -3.672  -8.578   3.798  1.00  0.00     0.059 C 
BRANCH   5   6
ATOM      6  C   UNL     1      -4.516  -7.726   2.903  1.00  0.00     0.042 C 
ATOM      7  O   UNL     1      -4.843  -8.140   1.760  1.00  0.00    -0.550 OA
ATOM      8  O   UNL     1      -4.899  -6.455   3.311  1.00  0.00    -0.550 OA
ENDBRANCH   5   6
ENDBRANCH   1   5
TORSDOF 3
ENDMDL
MODEL 9
REMARK VINA RESULT:    -1.978     14.743     15.326
REMARK INTER + INTRA:          -2.371
REMARK INTER:                  -2.310
REMARK INTRA:                  -0.061
REMARK UNBOUND:                -0.046
REMARK SMILES O=C([O-])CCC(=O)[O-]
REMARK SMILES IDX 4 1 2 2 1 3 3 4 5 5 6 6 7 7 8 8
REMARK H PARENT
REMARK Flexibility Score: inf
ROOT
ATOM      1  C   UNL     1      -1.705  -8.550   3.986  1.00  0.00     0.059 C 
ENDROOT
BRANCH   1   2
ATOM      2  C   UNL     1      -3.096  -8.550   3.437  1.00  0.00     0.042 C 
ATOM      3  O   UNL     1      -3.498  -9.510   2.729  1.00  0.00    -0.550 OA
ATOM      4  O   UNL     1      -3.934  -7.465   3.667  1.00  0.00    -0.550 OA
ENDBRANCH   1   2
BRANCH   1   5
ATOM      5  C   UNL     1      -1.576  -7.536   5.124  1.00  0.00     0.059 C 
BRANCH   5   6
ATOM      6  C   UNL     1      -0.438  -6.600   4.866  1.00  0.00     0.042 C 
ATOM      7  O   UNL     1       0.726  -7.051   4.697  1.00  0.00    -0.550 OA
ATOM      8  O   UNL     1      -0.652  -5.228   4.862  1.00  0.00    -0.550 OA
ENDBRANCH   5   6
ENDBRANCH   1   5
TORSDOF 3
ENDMDL
