MODEL 1
REMARK VINA RESULT:    -3.787      0.000      0.000
REMARK INTER + INTRA:          -5.819
REMARK INTER:                  -5.558
REMARK INTRA:                  -0.261
REMARK UNBOUND:                -0.261
REMARK SMILES O=C([O-])CCCCCCCC(=O)[O-]
REMARK SMILES IDX 7 1 6 2 5 3 4 4 2 5 1 6 3 7 8 8 9 9 10 10 11 11 12 12 13 13
REMARK H PARENT
REMARK Flexibility Score: inf
ROOT
ATOM      1  C   UNL     1      18.750  -1.653  11.918  1.00  0.00     0.000 C 
ENDROOT
BRANCH   1   2
ATOM      2  C   UNL     1      17.891  -1.172  10.738  1.00  0.00     0.000 C 
BRANCH   2   3
ATOM      3  C   UNL     1      16.418  -0.945  11.126  1.00  0.00     0.006 C 
BRANCH   3   4
ATOM      4  C   UNL     1      15.805   0.344  10.555  1.00  0.00     0.053 C 
BRANCH   4   5
ATOM      5  C   UNL     1      14.604   0.065   9.706  1.00  0.00     0.041 C 
ATOM      6  O   UNL     1      14.404  -1.091   9.249  1.00  0.00    -0.550 OA
ATOM      7  O   UNL     1      13.688   1.076   9.446  1.00  0.00    -0.550 OA
ENDBRANCH   4   5
ENDBRANCH   3   4
ENDBRANCH   2   3
ENDBRANCH   1   2
BRANCH   1   8
ATOM      8  C   UNL     1      20.109  -2.172  11.432  1.00  0.00     0.000 C 
BRANCH   8   9
ATOM      9  C   UNL     1      21.204  -1.113  11.625  1.00  0.00     0.006 C 
BRANCH   9  10
ATOM     10  C   UNL     1      21.233  -0.560  13.056  1.00  0.00     0.053 C 
BRANCH  10  11
ATOM     11  C   UNL     1      22.373  -1.128  13.846  1.00  0.00     0.041 C 
ATOM     12  O   UNL     1      22.700  -2.336  13.710  1.00  0.00    -0.550 OA
ATOM     13  O   UNL     1      23.094  -0.313  14.709  1.00  0.00    -0.550 OA
ENDBRANCH  10  11
ENDBRANCH   9  10
ENDBRANCH   8   9
ENDBRANCH   1   8
TORSDOF 8
ENDMDL
MODEL 2
REMARK VINA RESULT:    -3.786      5.133      7.652
REMARK INTER + INTRA:          -5.818
REMARK INTER:                  -5.279
REMARK INTRA:                  -0.540
REMARK UNBOUND:                -0.261
REMARK SMILES O=C([O-])CCCCCCCC(=O)[O-]
REMARK SMILES IDX 7 1 6 2 5 3 4 4 2 5 1 6 3 7 8 8 9 9 10 10 11 11 12 12 13 13
REMARK H PARENT
REMARK Flexibility Score: inf
ROOT
ATOM      1  C   UNL     1      24.518   2.651  15.023  1.00  0.00     0.000 C 
ENDROOT
BRANCH   1   2
ATOM      2  C   UNL     1      23.455   1.576  14.747  1.00  0.00     0.000 C 
BRANCH   2   3
ATOM      3  C   UNL     1      22.322   2.077  13.833  1.00  0.00     0.006 C 
BRANCH   3   4
ATOM      4  C   UNL     1      21.673   0.982  12.972  1.00  0.00     0.053 C 
BRANCH   4   5
ATOM      5  C   UNL     1      21.521  -0.305  13.722  1.00  0.00     0.041 C 
ATOM      6  O   UNL     1      22.217  -1.307  13.410  1.00  0.00    -0.550 OA
ATOM      7  O   UNL     1      20.634  -0.387  14.788  1.00  0.00    -0.550 OA
ENDBRANCH   4   5
ENDBRANCH   3   4
ENDBRANCH   2   3
ENDBRANCH   1   2
BRANCH   1   8
ATOM      8  C   UNL     1      23.967   4.053  14.733  1.00  0.00     0.000 C 
BRANCH   8   9
ATOM      9  C   UNL     1      24.908   4.834  13.805  1.00  0.00     0.006 C 
BRANCH   9  10
ATOM     10  C   UNL     1      24.329   4.997  12.393  1.00  0.00     0.053 C 
BRANCH  10  11
ATOM     11  C   UNL     1      23.084   5.831  12.398  1.00  0.00     0.041 C 
ATOM     12  O   UNL     1      21.971   5.311  12.121  1.00  0.00    -0.550 OA
ATOM     13  O   UNL     1      23.149   7.175  12.742  1.00  0.00    -0.550 OA
ENDBRANCH  10  11
ENDBRANCH   9  10
ENDBRANCH   8   9
ENDBRANCH   1   8
TORSDOF 8
ENDMDL
MODEL 3
REMARK VINA RESULT:    -3.784      4.030      5.224
REMARK INTER + INTRA:          -5.815
REMARK INTER:                  -5.308
REMARK INTRA:                  -0.506
REMARK UNBOUND:                -0.261
REMARK SMILES O=C([O-])CCCCCCCC(=O)[O-]
REMARK SMILES IDX 7 1 6 2 5 3 4 4 2 5 1 6 3 7 8 8 9 9 10 10 11 11 12 12 13 13
REMARK H PARENT
REMARK Flexibility Score: inf
ROOT
ATOM      1  C   UNL     1      22.430  -0.632  14.154  1.00  0.00     0.000 C 
ENDROOT
BRANCH   1   2
ATOM      2  C   UNL     1      21.348  -0.125  13.188  1.00  0.00     0.000 C 
BRANCH   2   3
ATOM      3  C   UNL     1      21.155  -1.048  11.970  1.00  0.00     0.006 C 
BRANCH   3   4
ATOM      4  C   UNL     1      19.715  -1.551  11.780  1.00  0.00     0.053 C 
BRANCH   4   5
ATOM      5  C   UNL     1      19.491  -2.874  12.445  1.00  0.00     0.041 C 
ATOM      6  O   UNL     1      19.512  -3.936  11.769  1.00  0.00    -0.550 OA
ATOM      7  O   UNL     1      19.290  -2.936  13.818  1.00  0.00    -0.550 OA
ENDBRANCH   4   5
ENDBRANCH   3   4
ENDBRANCH   2   3
ENDBRANCH   1   2
BRANCH   1   8
ATOM      8  C   UNL     1      22.787  -2.094  13.858  1.00  0.00     0.000 C 
BRANCH   8   9
ATOM      9  C   UNL     1      22.660  -2.958  15.121  1.00  0.00     0.006 C 
BRANCH   9  10
ATOM     10  C   UNL     1      24.027  -3.361  15.690  1.00  0.00     0.053 C 
BRANCH  10  11
ATOM     11  C   UNL     1      23.902  -3.972  17.053  1.00  0.00     0.041 C 
ATOM     12  O   UNL     1      24.731  -3.683  17.957  1.00  0.00    -0.550 OA
ATOM     13  O   UNL     1      22.851  -4.835  17.334  1.00  0.00    -0.550 OA
ENDBRANCH  10  11
ENDBRANCH   9  10
ENDBRANCH   8   9
ENDBRANCH   1   8
TORSDOF 8
ENDMDL
MODEL 4
REMARK VINA RESULT:    -3.769      5.206      8.003
REMARK INTER + INTRA:          -5.792
REMARK INTER:                  -5.202
REMARK INTRA:                  -0.591
REMARK UNBOUND:                -0.261
REMARK SMILES O=C([O-])CCCCCCCC(=O)[O-]
REMARK SMILES IDX 7 1 6 2 5 3 4 4 2 5 1 6 3 7 8 8 9 9 10 10 11 11 12 12 13 13
REMARK H PARENT
REMARK Flexibility Score: inf
ROOT
ATOM      1  C   UNL     1      23.274   4.076  15.321  1.00  0.00     0.000 C 
ENDROOT
BRANCH   1   2
ATOM      2  C   UNL     1      24.637   3.863  14.643  1.00  0.00     0.000 C 
BRANCH   2   3
ATOM      3  C   UNL     1      24.960   4.950  13.601  1.00  0.00     0.006 C 
BRANCH   3   4
ATOM      4  C   UNL     1      24.010   4.968  12.392  1.00  0.00     0.053 C 
BRANCH   4   5
ATOM      5  C   UNL     1      23.171   6.208  12.358  1.00  0.00     0.041 C 
ATOM      6  O   UNL     1      22.099   6.231  11.696  1.00  0.00    -0.550 OA
ATOM      7  O   UNL     1      23.556   7.328  13.083  1.00  0.00    -0.550 OA
ENDBRANCH   4   5
ENDBRANCH   3   4
ENDBRANCH   2   3
ENDBRANCH   1   2
BRANCH   1   8
ATOM      8  C   UNL     1      22.446   2.784  15.305  1.00  0.00     0.000 C 
BRANCH   8   9
ATOM      9  C   UNL     1      22.949   1.821  14.219  1.00  0.00     0.006 C 
BRANCH   9  10
ATOM     10  C   UNL     1      21.905   1.588  13.120  1.00  0.00     0.053 C 
BRANCH  10  11
ATOM     11  C   UNL     1      21.440   0.164  13.090  1.00  0.00     0.041 C 
ATOM     12  O   UNL     1      20.943  -0.363  14.120  1.00  0.00    -0.550 OA
ATOM     13  O   UNL     1      21.526  -0.570  11.914  1.00  0.00    -0.550 OA
ENDBRANCH  10  11
ENDBRANCH   9  10
ENDBRANCH   8   9
ENDBRANCH   1   8
TORSDOF 8
ENDMDL
MODEL 5
REMARK VINA RESULT:    -3.762      6.746      9.071
REMARK INTER + INTRA:          -5.783
REMARK INTER:                  -5.278
REMARK INTRA:                  -0.505
REMARK UNBOUND:                -0.261
REMARK SMILES O=C([O-])CCCCCCCC(=O)[O-]
REMARK SMILES IDX 7 1 6 2 5 3 4 4 2 5 1 6 3 7 8 8 9 9 10 10 11 11 12 12 13 13
REMARK H PARENT
REMARK Flexibility Score: inf
ROOT
ATOM      1  C   UNL     1      22.369   4.758  13.257  1.00  0.00     0.000 C 
ENDROOT
BRANCH   1   2
ATOM      2  C   UNL     1      22.031   3.366  12.701  1.00  0.00     0.000 C 
BRANCH   2   3
ATOM      3  C   UNL     1      22.470   2.227  13.639  1.00  0.00     0.006 C 
BRANCH   3   4
ATOM      4  C   UNL     1      23.309   2.686  14.842  1.00  0.00     0.053 C 
BRANCH   4   5
ATOM      5  C   UNL     1      24.133   1.571  15.409  1.00  0.00     0.041 C 
ATOM      6  O   UNL     1      25.087   1.823  16.192  1.00  0.00    -0.550 OA
ATOM      7  O   UNL     1      23.827   0.253  15.098  1.00  0.00    -0.550 OA
ENDBRANCH   4   5
ENDBRANCH   3   4
ENDBRANCH   2   3
ENDBRANCH   1   2
BRANCH   1   8
ATOM      8  C   UNL     1      23.382   5.478  12.358  1.00  0.00     0.000 C 
BRANCH   8   9
ATOM      9  C   UNL     1      24.817   5.258  12.858  1.00  0.00     0.006 C 
BRANCH   9  10
ATOM     10  C   UNL     1      25.429   6.536  13.446  1.00  0.00     0.053 C 
BRANCH  10  11
ATOM     11  C   UNL     1      25.178   6.644  14.919  1.00  0.00     0.041 C 
ATOM     12  O   UNL     1      24.946   5.611  15.601  1.00  0.00    -0.550 OA
ATOM     13  O   UNL     1      25.234   7.883  15.545  1.00  0.00    -0.550 OA
ENDBRANCH  10  11
ENDBRANCH   9  10
ENDBRANCH   8   9
ENDBRANCH   1   8
TORSDOF 8
ENDMDL
MODEL 6
REMARK VINA RESULT:    -3.756      6.313      8.528
REMARK INTER + INTRA:          -5.773
REMARK INTER:                  -5.332
REMARK INTRA:                  -0.442
REMARK UNBOUND:                -0.261
REMARK SMILES O=C([O-])CCCCCCCC(=O)[O-]
REMARK SMILES IDX 7 1 6 2 5 3 4 4 2 5 1 6 3 7 8 8 9 9 10 10 11 11 12 12 13 13
REMARK H PARENT
REMARK Flexibility Score: inf
ROOT
ATOM      1  C   UNL     1      22.107   2.995  12.809  1.00  0.00     0.000 C 
ENDROOT
BRANCH   1   2
ATOM      2  C   UNL     1      22.128   1.744  13.702  1.00  0.00     0.000 C 
BRANCH   2   3
ATOM      3  C   UNL     1      22.981   1.930  14.970  1.00  0.00     0.006 C 
BRANCH   3   4
ATOM      4  C   UNL     1      23.896   0.739  15.297  1.00  0.00     0.053 C 
BRANCH   4   5
ATOM      5  C   UNL     1      23.117  -0.521  15.521  1.00  0.00     0.041 C 
ATOM      6  O   UNL     1      23.440  -1.581  14.923  1.00  0.00    -0.550 OA
ATOM      7  O   UNL     1      22.055  -0.531  16.416  1.00  0.00    -0.550 OA
ENDBRANCH   4   5
ENDBRANCH   3   4
ENDBRANCH   2   3
ENDBRANCH   1   2
BRANCH   1   8
ATOM      8  C   UNL     1      22.812   4.171  13.497  1.00  0.00     0.000 C 
BRANCH   8   9
ATOM      9  C   UNL     1      23.746   4.900  12.520  1.00  0.00     0.006 C 
BRANCH   9  10
ATOM     10  C   UNL     1      25.105   5.229  13.153  1.00  0.00     0.053 C 
BRANCH  10  11
ATOM     11  C   UNL     1      25.213   6.680  13.510  1.00  0.00     0.041 C 
ATOM     12  O   UNL     1      26.269   7.130  14.029  1.00  0.00    -0.550 OA
ATOM     13  O   UNL     1      24.158   7.543  13.240  1.00  0.00    -0.550 OA
ENDBRANCH  10  11
ENDBRANCH   9  10
ENDBRANCH   8   9
ENDBRANCH   1   8
TORSDOF 8
ENDMDL
MODEL 7
REMARK VINA RESULT:    -3.729      5.424      8.677
REMARK INTER + INTRA:          -5.735
REMARK INTER:                  -5.135
REMARK INTRA:                  -0.600
REMARK UNBOUND:                -0.261
REMARK SMILES O=C([O-])CCCCCCCC(=O)[O-]
REMARK SMILES IDX 7 1 6 2 5 3 4 4 2 5 1 6 3 7 8 8 9 9 10 10 11 11 12 12 13 13
REMARK H PARENT
REMARK Flexibility Score: inf
ROOT
ATOM      1  C   UNL     1      22.415   4.125  14.409  1.00  0.00     0.000 C 
ENDROOT
BRANCH   1   2
ATOM      2  C   UNL     1      22.846   3.860  12.958  1.00  0.00     0.000 C 
BRANCH   2   3
ATOM      3  C   UNL     1      23.689   5.005  12.367  1.00  0.00     0.006 C 
BRANCH   3   4
ATOM      4  C   UNL     1      25.016   5.256  13.101  1.00  0.00     0.053 C 
BRANCH   4   5
ATOM      5  C   UNL     1      25.160   6.685  13.525  1.00  0.00     0.041 C 
ATOM      6  O   UNL     1      26.233   7.086  14.050  1.00  0.00    -0.550 OA
ATOM      7  O   UNL     1      24.121   7.582  13.312  1.00  0.00    -0.550 OA
ENDBRANCH   4   5
ENDBRANCH   3   4
ENDBRANCH   2   3
ENDBRANCH   1   2
BRANCH   1   8
ATOM      8  C   UNL     1      22.928   3.023  15.344  1.00  0.00     0.000 C 
BRANCH   8   9
ATOM      9  C   UNL     1      23.536   1.861  14.544  1.00  0.00     0.006 C 
BRANCH   9  10
ATOM     10  C   UNL     1      22.895   0.513  14.899  1.00  0.00     0.053 C 
BRANCH  10  11
ATOM     11  C   UNL     1      21.677   0.243  14.070  1.00  0.00     0.041 C 
ATOM     12  O   UNL     1      21.607   0.667  12.886  1.00  0.00    -0.550 OA
ATOM     13  O   UNL     1      20.631  -0.506  14.594  1.00  0.00    -0.550 OA
ENDBRANCH  10  11
ENDBRANCH   9  10
ENDBRANCH   8   9
ENDBRANCH   1   8
TORSDOF 8
ENDMDL
MODEL 8
REMARK VINA RESULT:    -3.717      1.124      7.413
REMARK INTER + INTRA:          -5.717
REMARK INTER:                  -5.389
REMARK INTRA:                  -0.328
REMARK UNBOUND:                -0.261
REMARK SMILES O=C([O-])CCCCCCCC(=O)[O-]
REMARK SMILES IDX 7 1 6 2 5 3 4 4 2 5 1 6 3 7 8 8 9 9 10 10 11 11 12 12 13 13
REMARK H PARENT
REMARK Flexibility Score: inf
ROOT
ATOM      1  C   UNL     1      17.195  -2.212  10.525  1.00  0.00     0.000 C 
ENDROOT
BRANCH   1   2
ATOM      2  C   UNL     1      18.638  -2.586  10.895  1.00  0.00     0.000 C 
BRANCH   2   3
ATOM      3  C   UNL     1      19.355  -1.481  11.693  1.00  0.00     0.006 C 
BRANCH   3   4
ATOM      4  C   UNL     1      20.872  -1.413  11.458  1.00  0.00     0.053 C 
BRANCH   4   5
ATOM      5  C   UNL     1      21.604  -0.901  12.660  1.00  0.00     0.041 C 
ATOM      6  O   UNL     1      21.477   0.300  13.016  1.00  0.00    -0.550 OA
ATOM      7  O   UNL     1      22.402  -1.760  13.405  1.00  0.00    -0.550 OA
ENDBRANCH   4   5
ENDBRANCH   3   4
ENDBRANCH   2   3
ENDBRANCH   1   2
BRANCH   1   8
ATOM      8  C   UNL     1      17.089  -0.726  10.160  1.00  0.00     0.000 C 
BRANCH   8   9
ATOM      9  C   UNL     1      15.761  -0.131  10.651  1.00  0.00     0.006 C 
BRANCH   9  10
ATOM     10  C   UNL     1      15.014   0.619   9.541  1.00  0.00     0.053 C 
BRANCH  10  11
ATOM     11  C   UNL     1      13.834  -0.158   9.044  1.00  0.00     0.041 C 
ATOM     12  O   UNL     1      12.826   0.443   8.586  1.00  0.00    -0.550 OA
ATOM     13  O   UNL     1      13.861  -1.546   9.055  1.00  0.00    -0.550 OA
ENDBRANCH  10  11
ENDBRANCH   9  10
ENDBRANCH   8   9
ENDBRANCH   1   8
TORSDOF 8
ENDMDL
MODEL 9
REMARK VINA RESULT:    -3.710      6.094      7.298
REMARK INTER + INTRA:          -5.707
REMARK INTER:                  -4.920
REMARK INTRA:                  -0.786
REMARK UNBOUND:                -0.261
REMARK SMILES O=C([O-])CCCCCCCC(=O)[O-]
REMARK SMILES IDX 7 1 6 2 5 3 4 4 2 5 1 6 3 7 8 8 9 9 10 10 11 11 12 12 13 13
REMARK H PARENT
REMARK Flexibility Score: inf
ROOT
ATOM      1  C   UNL     1      21.334  -2.697  14.785  1.00  0.00     0.000 C 
ENDROOT
BRANCH   1   2
ATOM      2  C   UNL     1      20.670  -1.314  14.699  1.00  0.00     0.000 C 
BRANCH   2   3
ATOM      3  C   UNL     1      20.739  -0.536  16.026  1.00  0.00     0.006 C 
BRANCH   3   4
ATOM      4  C   UNL     1      21.627   0.718  15.977  1.00  0.00     0.053 C 
BRANCH   4   5
ATOM      5  C   UNL     1      23.072   0.392  16.200  1.00  0.00     0.041 C 
ATOM      6  O   UNL     1      23.908   0.551  15.273  1.00  0.00    -0.550 OA
ATOM      7  O   UNL     1      23.498  -0.058  17.443  1.00  0.00    -0.550 OA
ENDBRANCH   4   5
ENDBRANCH   3   4
ENDBRANCH   2   3
ENDBRANCH   1   2
BRANCH   1   8
ATOM      8  C   UNL     1      22.763  -2.655  14.230  1.00  0.00     0.000 C 
BRANCH   8   9
ATOM      9  C   UNL     1      23.769  -3.191  15.259  1.00  0.00     0.006 C 
BRANCH   9  10
ATOM     10  C   UNL     1      23.085  -3.674  16.544  1.00  0.00     0.053 C 
BRANCH  10  11
ATOM     11  C   UNL     1      24.083  -4.082  17.584  1.00  0.00     0.041 C 
ATOM     12  O   UNL     1      24.504  -5.269  17.629  1.00  0.00    -0.550 OA
ATOM     13  O   UNL     1      24.574  -3.144  18.484  1.00  0.00    -0.550 OA
ENDBRANCH  10  11
ENDBRANCH   9  10
ENDBRANCH   8   9
ENDBRANCH   1   8
TORSDOF 8
ENDMDL
