MODEL 1
REMARK VINA RESULT:    -4.147      0.000      0.000
REMARK INTER + INTRA:          -5.140
REMARK INTER:                  -4.874
REMARK INTRA:                  -0.266
REMARK UNBOUND:                -0.266
REMARK SMILES C=C[C@]1(C)CC[C@@H](C(=C)C)C[C@H]1C(=C)C
REMARK SMILES IDX 7 1 6 2 5 3 3 4 12 5 11 6 4 7 8 8 10 9 9 10 13 11 14 12
REMARK SMILES IDX 15 13 2 14 1 15
REMARK H PARENT
REMARK Flexibility Score: inf
ROOT
ATOM      1  C   UNL     1      43.753  16.367  -2.470  1.00  0.00     0.015 C 
ATOM      2  C   UNL     1      42.288  16.017  -2.156  1.00  0.00     0.009 C 
ATOM      3  C   UNL     1      41.547  17.227  -1.571  1.00  0.00     0.012 C 
ATOM      4  C   UNL     1      41.582  18.477  -2.500  1.00  0.00    -0.008 C 
ATOM      5  C   UNL     1      43.082  18.790  -2.869  1.00  0.00     0.024 C 
ATOM      6  C   UNL     1      43.835  17.562  -3.435  1.00  0.00     0.017 C 
ATOM      7  C   UNL     1      40.706  18.228  -3.755  1.00  0.00     0.016 C 
ENDROOT
BRANCH   1   8
ATOM      8  C   UNL     1      44.500  15.160  -3.022  1.00  0.00    -0.077 C 
ATOM      9  C   UNL     1      45.922  15.275  -3.515  1.00  0.00     0.039 C 
ATOM     10  C   UNL     1      43.900  13.960  -3.074  1.00  0.00     0.008 C 
ENDBRANCH   1   8
BRANCH   5  11
ATOM     11  C   UNL     1      43.271  20.021  -3.761  1.00  0.00    -0.077 C 
ATOM     12  C   UNL     1      43.073  21.272  -3.306  1.00  0.00     0.008 C 
ATOM     13  C   UNL     1      43.632  19.850  -5.216  1.00  0.00     0.039 C 
ENDBRANCH   5  11
BRANCH   4  14
ATOM     14  C   UNL     1      41.003  19.661  -1.725  1.00  0.00    -0.028 C 
ATOM     15  C   UNL     1      41.217  19.859  -0.417  1.00  0.00     0.004 C 
ENDBRANCH   4  14
TORSDOF 3
ENDMDL
MODEL 2
REMARK VINA RESULT:    -4.109      5.214      7.330
REMARK INTER + INTRA:          -5.096
REMARK INTER:                  -4.836
REMARK INTRA:                  -0.260
REMARK UNBOUND:                -0.266
REMARK SMILES C=C[C@]1(C)CC[C@@H](C(=C)C)C[C@H]1C(=C)C
REMARK SMILES IDX 7 1 6 2 5 3 3 4 12 5 11 6 4 7 8 8 10 9 9 10 13 11 14 12
REMARK SMILES IDX 15 13 2 14 1 15
REMARK H PARENT
REMARK Flexibility Score: inf
ROOT
ATOM      1  C   UNL     1      47.723  13.132  -2.175  1.00  0.00     0.015 C 
ATOM      2  C   UNL     1      46.453  13.651  -2.871  1.00  0.00     0.009 C 
ATOM      3  C   UNL     1      46.700  15.021  -3.516  1.00  0.00     0.012 C 
ATOM      4  C   UNL     1      47.875  15.016  -4.540  1.00  0.00    -0.008 C 
ATOM      5  C   UNL     1      49.155  14.423  -3.838  1.00  0.00     0.024 C 
ATOM      6  C   UNL     1      48.897  13.053  -3.165  1.00  0.00     0.017 C 
ATOM      7  C   UNL     1      47.471  14.211  -5.803  1.00  0.00     0.016 C 
ENDROOT
BRANCH   1   8
ATOM      8  C   UNL     1      47.474  11.786  -1.506  1.00  0.00    -0.077 C 
ATOM      9  C   UNL     1      48.617  10.908  -1.060  1.00  0.00     0.039 C 
ATOM     10  C   UNL     1      46.218  11.359  -1.298  1.00  0.00     0.008 C 
ENDBRANCH   1   8
BRANCH   5  11
ATOM     11  C   UNL     1      50.403  14.385  -4.725  1.00  0.00    -0.077 C 
ATOM     12  C   UNL     1      50.835  13.250  -5.304  1.00  0.00     0.008 C 
ATOM     13  C   UNL     1      51.226  15.634  -4.922  1.00  0.00     0.039 C 
ENDBRANCH   5  11
BRANCH   4  14
ATOM     14  C   UNL     1      48.155  16.462  -4.948  1.00  0.00    -0.028 C 
ATOM     15  C   UNL     1      47.200  17.312  -5.350  1.00  0.00     0.004 C 
ENDBRANCH   4  14
TORSDOF 3
ENDMDL
MODEL 3
REMARK VINA RESULT:    -4.045      1.442      5.223
REMARK INTER + INTRA:          -5.020
REMARK INTER:                  -4.587
REMARK INTRA:                  -0.434
REMARK UNBOUND:                -0.266
REMARK SMILES C=C[C@]1(C)CC[C@@H](C(=C)C)C[C@H]1C(=C)C
REMARK SMILES IDX 7 1 6 2 5 3 3 4 12 5 11 6 4 7 8 8 10 9 9 10 13 11 14 12
REMARK SMILES IDX 15 13 2 14 1 15
REMARK H PARENT
REMARK Flexibility Score: inf
ROOT
ATOM      1  C   UNL     1      43.032  19.096  -2.793  1.00  0.00     0.015 C 
ATOM      2  C   UNL     1      43.086  19.479  -4.282  1.00  0.00     0.009 C 
ATOM      3  C   UNL     1      44.284  18.818  -4.977  1.00  0.00     0.012 C 
ATOM      4  C   UNL     1      44.287  17.264  -4.852  1.00  0.00    -0.008 C 
ATOM      5  C   UNL     1      44.166  16.880  -3.329  1.00  0.00     0.024 C 
ATOM      6  C   UNL     1      42.973  17.568  -2.623  1.00  0.00     0.017 C 
ATOM      7  C   UNL     1      43.138  16.664  -5.704  1.00  0.00     0.016 C 
ENDROOT
BRANCH   1   8
ATOM      8  C   UNL     1      41.862  19.774  -2.092  1.00  0.00    -0.077 C 
ATOM      9  C   UNL     1      42.035  20.456  -0.757  1.00  0.00     0.039 C 
ATOM     10  C   UNL     1      40.646  19.780  -2.661  1.00  0.00     0.008 C 
ENDBRANCH   1   8
BRANCH   5  11
ATOM     11  C   UNL     1      44.186  15.373  -3.053  1.00  0.00    -0.077 C 
ATOM     12  C   UNL     1      43.072  14.621  -3.106  1.00  0.00     0.008 C 
ATOM     13  C   UNL     1      45.473  14.698  -2.648  1.00  0.00     0.039 C 
ENDBRANCH   5  11
BRANCH   4  14
ATOM     14  C   UNL     1      45.620  16.747  -5.392  1.00  0.00    -0.028 C 
ATOM     15  C   UNL     1      46.808  17.233  -5.007  1.00  0.00     0.004 C 
ENDBRANCH   4  14
TORSDOF 3
ENDMDL
MODEL 4
REMARK VINA RESULT:    -3.994      2.331      6.938
REMARK INTER + INTRA:          -4.961
REMARK INTER:                  -4.666
REMARK INTRA:                  -0.295
REMARK UNBOUND:                -0.266
REMARK SMILES C=C[C@]1(C)CC[C@@H](C(=C)C)C[C@H]1C(=C)C
REMARK SMILES IDX 7 1 6 2 5 3 3 4 12 5 11 6 4 7 8 8 10 9 9 10 13 11 14 12
REMARK SMILES IDX 15 13 2 14 1 15
REMARK H PARENT
REMARK Flexibility Score: inf
ROOT
ATOM      1  C   UNL     1      45.291  16.412  -3.097  1.00  0.00     0.015 C 
ATOM      2  C   UNL     1      46.138  16.570  -4.371  1.00  0.00     0.009 C 
ATOM      3  C   UNL     1      47.516  15.916  -4.199  1.00  0.00     0.012 C 
ATOM      4  C   UNL     1      47.437  14.405  -3.826  1.00  0.00    -0.008 C 
ATOM      5  C   UNL     1      46.514  14.245  -2.559  1.00  0.00     0.024 C 
ATOM      6  C   UNL     1      45.135  14.928  -2.723  1.00  0.00     0.017 C 
ATOM      7  C   UNL     1      46.919  13.587  -5.038  1.00  0.00     0.016 C 
ENDROOT
BRANCH   1   8
ATOM      8  C   UNL     1      43.934  17.087  -3.252  1.00  0.00    -0.077 C 
ATOM      9  C   UNL     1      42.765  16.709  -2.375  1.00  0.00     0.039 C 
ATOM     10  C   UNL     1      43.757  18.042  -4.179  1.00  0.00     0.008 C 
ENDBRANCH   1   8
BRANCH   5  11
ATOM     11  C   UNL     1      46.369  12.804  -2.059  1.00  0.00    -0.077 C 
ATOM     12  C   UNL     1      45.334  12.024  -2.416  1.00  0.00     0.008 C 
ATOM     13  C   UNL     1      47.374  12.239  -1.086  1.00  0.00     0.039 C 
ENDBRANCH   5  11
BRANCH   4  14
ATOM     14  C   UNL     1      48.847  13.927  -3.479  1.00  0.00    -0.028 C 
ATOM     15  C   UNL     1      49.938  14.290  -4.168  1.00  0.00     0.004 C 
ENDBRANCH   4  14
TORSDOF 3
ENDMDL
MODEL 5
REMARK VINA RESULT:    -3.976      1.325      3.241
REMARK INTER + INTRA:          -4.940
REMARK INTER:                  -4.520
REMARK INTRA:                  -0.420
REMARK UNBOUND:                -0.266
REMARK SMILES C=C[C@]1(C)CC[C@@H](C(=C)C)C[C@H]1C(=C)C
REMARK SMILES IDX 7 1 6 2 5 3 3 4 12 5 11 6 4 7 8 8 10 9 9 10 13 11 14 12
REMARK SMILES IDX 15 13 2 14 1 15
REMARK H PARENT
REMARK Flexibility Score: inf
ROOT
ATOM      1  C   UNL     1      43.809  17.394  -3.944  1.00  0.00     0.015 C 
ATOM      2  C   UNL     1      44.387  18.608  -4.690  1.00  0.00     0.009 C 
ATOM      3  C   UNL     1      43.271  19.565  -5.133  1.00  0.00     0.012 C 
ATOM      4  C   UNL     1      42.388  20.068  -3.952  1.00  0.00    -0.008 C 
ATOM      5  C   UNL     1      41.852  18.819  -3.155  1.00  0.00     0.024 C 
ATOM      6  C   UNL     1      42.975  17.842  -2.732  1.00  0.00     0.017 C 
ATOM      7  C   UNL     1      43.205  21.032  -3.054  1.00  0.00     0.016 C 
ENDROOT
BRANCH   1   8
ATOM      8  C   UNL     1      44.910  16.427  -3.530  1.00  0.00    -0.077 C 
ATOM      9  C   UNL     1      46.293  16.508  -4.128  1.00  0.00     0.039 C 
ATOM     10  C   UNL     1      44.664  15.479  -2.611  1.00  0.00     0.008 C 
ENDBRANCH   1   8
BRANCH   5  11
ATOM     11  C   UNL     1      40.938  19.165  -1.975  1.00  0.00    -0.077 C 
ATOM     12  C   UNL     1      41.425  19.527  -0.775  1.00  0.00     0.008 C 
ATOM     13  C   UNL     1      39.441  19.047  -2.122  1.00  0.00     0.039 C 
ENDBRANCH   5  11
BRANCH   4  14
ATOM     14  C   UNL     1      41.201  20.831  -4.539  1.00  0.00    -0.028 C 
ATOM     15  C   UNL     1      40.443  20.357  -5.538  1.00  0.00     0.004 C 
ENDBRANCH   4  14
TORSDOF 3
ENDMDL
MODEL 6
REMARK VINA RESULT:    -3.864      0.936      1.339
REMARK INTER + INTRA:          -4.808
REMARK INTER:                  -4.482
REMARK INTRA:                  -0.326
REMARK UNBOUND:                -0.266
REMARK SMILES C=C[C@]1(C)CC[C@@H](C(=C)C)C[C@H]1C(=C)C
REMARK SMILES IDX 7 1 6 2 5 3 3 4 12 5 11 6 4 7 8 8 10 9 9 10 13 11 14 12
REMARK SMILES IDX 15 13 2 14 1 15
REMARK H PARENT
REMARK Flexibility Score: inf
ROOT
ATOM      1  C   UNL     1      44.611  16.106  -2.801  1.00  0.00     0.015 C 
ATOM      2  C   UNL     1      43.209  15.506  -2.601  1.00  0.00     0.009 C 
ATOM      3  C   UNL     1      42.213  16.578  -2.136  1.00  0.00     0.012 C 
ATOM      4  C   UNL     1      42.112  17.787  -3.112  1.00  0.00    -0.008 C 
ATOM      5  C   UNL     1      43.561  18.356  -3.363  1.00  0.00     0.024 C 
ATOM      6  C   UNL     1      44.570  17.269  -3.806  1.00  0.00     0.017 C 
ATOM      7  C   UNL     1      41.416  17.349  -4.427  1.00  0.00     0.016 C 
ENDROOT
BRANCH   1   8
ATOM      8  C   UNL     1      45.609  15.040  -3.233  1.00  0.00    -0.077 C 
ATOM      9  C   UNL     1      45.475  13.607  -2.777  1.00  0.00     0.039 C 
ATOM     10  C   UNL     1      46.633  15.361  -4.039  1.00  0.00     0.008 C 
ENDBRANCH   1   8
BRANCH   5  11
ATOM     11  C   UNL     1      43.610  19.576  -4.288  1.00  0.00    -0.077 C 
ATOM     12  C   UNL     1      43.278  20.809  -3.865  1.00  0.00     0.008 C 
ATOM     13  C   UNL     1      43.984  19.406  -5.740  1.00  0.00     0.039 C 
ENDBRANCH   5  11
BRANCH   4  14
ATOM     14  C   UNL     1      41.263  18.868  -2.444  1.00  0.00    -0.028 C 
ATOM     15  C   UNL     1      41.331  19.153  -1.136  1.00  0.00     0.004 C 
ENDBRANCH   4  14
TORSDOF 3
ENDMDL
MODEL 7
REMARK VINA RESULT:    -3.800      1.674      4.790
REMARK INTER + INTRA:          -4.733
REMARK INTER:                  -4.382
REMARK INTRA:                  -0.351
REMARK UNBOUND:                -0.266
REMARK SMILES C=C[C@]1(C)CC[C@@H](C(=C)C)C[C@H]1C(=C)C
REMARK SMILES IDX 7 1 6 2 5 3 3 4 12 5 11 6 4 7 8 8 10 9 9 10 13 11 14 12
REMARK SMILES IDX 15 13 2 14 1 15
REMARK H PARENT
REMARK Flexibility Score: inf
ROOT
ATOM      1  C   UNL     1      40.892  19.512  -2.193  1.00  0.00     0.015 C 
ATOM      2  C   UNL     1      39.785  18.452  -2.323  1.00  0.00     0.009 C 
ATOM      3  C   UNL     1      39.904  17.692  -3.651  1.00  0.00     0.012 C 
ATOM      4  C   UNL     1      41.288  17.005  -3.845  1.00  0.00    -0.008 C 
ATOM      5  C   UNL     1      42.420  18.084  -3.646  1.00  0.00     0.024 C 
ATOM      6  C   UNL     1      42.284  18.867  -2.318  1.00  0.00     0.017 C 
ATOM      7  C   UNL     1      41.430  15.815  -2.860  1.00  0.00     0.016 C 
ENDROOT
BRANCH   1   8
ATOM      8  C   UNL     1      40.760  20.289  -0.890  1.00  0.00    -0.077 C 
ATOM      9  C   UNL     1      39.410  20.579  -0.282  1.00  0.00     0.039 C 
ATOM     10  C   UNL     1      41.857  20.729  -0.253  1.00  0.00     0.008 C 
ENDBRANCH   1   8
BRANCH   5  11
ATOM     11  C   UNL     1      43.843  17.551  -3.838  1.00  0.00    -0.077 C 
ATOM     12  C   UNL     1      44.462  16.809  -2.901  1.00  0.00     0.008 C 
ATOM     13  C   UNL     1      44.619  17.906  -5.082  1.00  0.00     0.039 C 
ENDBRANCH   5  11
BRANCH   4  14
ATOM     14  C   UNL     1      41.357  16.469  -5.274  1.00  0.00    -0.028 C 
ATOM     15  C   UNL     1      41.547  15.175  -5.567  1.00  0.00     0.004 C 
ENDBRANCH   4  14
TORSDOF 3
ENDMDL
MODEL 8
REMARK VINA RESULT:    -3.682      4.134      6.618
REMARK INTER + INTRA:          -4.594
REMARK INTER:                  -4.260
REMARK INTRA:                  -0.334
REMARK UNBOUND:                -0.266
REMARK SMILES C=C[C@]1(C)CC[C@@H](C(=C)C)C[C@H]1C(=C)C
REMARK SMILES IDX 7 1 6 2 5 3 3 4 12 5 11 6 4 7 8 8 10 9 9 10 13 11 14 12
REMARK SMILES IDX 15 13 2 14 1 15
REMARK H PARENT
REMARK Flexibility Score: inf
ROOT
ATOM      1  C   UNL     1      46.832  12.551  -1.496  1.00  0.00     0.015 C 
ATOM      2  C   UNL     1      45.605  12.115  -2.315  1.00  0.00     0.009 C 
ATOM      3  C   UNL     1      45.120  13.251  -3.227  1.00  0.00     0.012 C 
ATOM      4  C   UNL     1      46.220  13.771  -4.199  1.00  0.00    -0.008 C 
ATOM      5  C   UNL     1      47.496  14.155  -3.359  1.00  0.00     0.024 C 
ATOM      6  C   UNL     1      47.969  13.018  -2.421  1.00  0.00     0.017 C 
ATOM      7  C   UNL     1      46.526  12.697  -5.275  1.00  0.00     0.016 C 
ENDROOT
BRANCH   1   8
ATOM      8  C   UNL     1      47.298  11.438  -0.568  1.00  0.00    -0.077 C 
ATOM      9  C   UNL     1      48.696  10.875  -0.656  1.00  0.00     0.039 C 
ATOM     10  C   UNL     1      46.464  10.938   0.358  1.00  0.00     0.008 C 
ENDBRANCH   1   8
BRANCH   5  11
ATOM     11  C   UNL     1      48.656  14.714  -4.188  1.00  0.00    -0.077 C 
ATOM     12  C   UNL     1      48.715  16.007  -4.557  1.00  0.00     0.008 C 
ATOM     13  C   UNL     1      49.750  13.794  -4.671  1.00  0.00     0.039 C 
ENDBRANCH   5  11
BRANCH   4  14
ATOM     14  C   UNL     1      45.686  15.023  -4.894  1.00  0.00    -0.028 C 
ATOM     15  C   UNL     1      44.730  15.804  -4.371  1.00  0.00     0.004 C 
ENDBRANCH   4  14
TORSDOF 3
ENDMDL
MODEL 9
REMARK VINA RESULT:    -1.262      1.359      5.167
REMARK INTER + INTRA:          -1.749
REMARK INTER:                  -1.509
REMARK INTRA:                  -0.241
REMARK UNBOUND:                -0.266
REMARK SMILES C=C[C@]1(C)CC[C@@H](C(=C)C)C[C@H]1C(=C)C
REMARK SMILES IDX 7 1 6 2 5 3 3 4 12 5 11 6 4 7 8 8 10 9 9 10 13 11 14 12
REMARK SMILES IDX 15 13 2 14 1 15
REMARK H PARENT
REMARK Flexibility Score: inf
ROOT
ATOM      1  C   UNL     1      42.263  19.503  -2.212  1.00  0.00     0.015 C 
ATOM      2  C   UNL     1      42.315  20.069  -3.641  1.00  0.00     0.009 C 
ATOM      3  C   UNL     1      43.577  19.594  -4.375  1.00  0.00     0.012 C 
ATOM      4  C   UNL     1      43.703  18.043  -4.439  1.00  0.00    -0.008 C 
ATOM      5  C   UNL     1      43.584  17.465  -2.978  1.00  0.00     0.024 C 
ATOM      6  C   UNL     1      42.325  17.966  -2.230  1.00  0.00     0.017 C 
ATOM      7  C   UNL     1      42.624  17.463  -5.391  1.00  0.00     0.016 C 
ENDROOT
BRANCH   1   8
ATOM      8  C   UNL     1      41.028  19.996  -1.469  1.00  0.00    -0.077 C 
ATOM      9  C   UNL     1      39.648  19.498  -1.823  1.00  0.00     0.039 C 
ATOM     10  C   UNL     1      41.151  20.888  -0.473  1.00  0.00     0.008 C 
ENDBRANCH   1   8
BRANCH   5  11
ATOM     11  C   UNL     1      43.721  15.942  -2.886  1.00  0.00    -0.077 C 
ATOM     12  C   UNL     1      44.909  15.341  -2.691  1.00  0.00     0.008 C 
ATOM     13  C   UNL     1      42.509  15.064  -3.076  1.00  0.00     0.039 C 
ENDBRANCH   5  11
BRANCH   4  14
ATOM     14  C   UNL     1      45.085  17.702  -4.998  1.00  0.00    -0.028 C 
ATOM     15  C   UNL     1      45.575  18.237  -6.125  1.00  0.00     0.004 C 
ENDBRANCH   4  14
TORSDOF 3
ENDMDL
