MODEL 1
REMARK VINA RESULT:    -6.024      0.000      0.000
REMARK INTER + INTRA:         -13.734
REMARK INTER:                 -11.307
REMARK INTRA:                  -2.427
REMARK UNBOUND:                -2.427
REMARK SMILES CCCCCCCCC=CCCCCCCCC(=O)[O-]
REMARK SMILES IDX 10 1 9 2 11 3 12 4 13 5 14 6 15 7 16 8 17 9 18 10 19 11
REMARK SMILES IDX 20 12 8 13 7 14 6 15 5 16 4 17 3 18 2 19 1 20
REMARK H PARENT
REMARK Flexibility Score: inf
ROOT
ATOM      1  C   UNL     1       9.851 -12.385  -6.895  1.00  0.00    -0.031 C 
ATOM      2  C   UNL     1       8.819 -12.498  -6.037  1.00  0.00    -0.031 C 
ENDROOT
BRANCH   1   3
ATOM      3  C   UNL     1      11.294 -12.693  -6.572  1.00  0.00     0.027 C 
BRANCH   3   4
ATOM      4  C   UNL     1      12.047 -11.489  -5.985  1.00  0.00     0.004 C 
BRANCH   4   5
ATOM      5  C   UNL     1      13.074 -11.907  -4.919  1.00  0.00     0.000 C 
BRANCH   5   6
ATOM      6  C   UNL     1      12.496 -12.903  -3.900  1.00  0.00     0.000 C 
BRANCH   6   7
ATOM      7  C   UNL     1      12.684 -12.442  -2.447  1.00  0.00     0.000 C 
BRANCH   7   8
ATOM      8  C   UNL     1      11.655 -13.111  -1.523  1.00  0.00     0.006 C 
BRANCH   8   9
ATOM      9  C   UNL     1      11.206 -12.185  -0.386  1.00  0.00     0.053 C 
BRANCH   9  10
ATOM     10  C   UNL     1      11.037 -12.929   0.904  1.00  0.00     0.041 C 
ATOM     11  O   UNL     1      10.079 -12.653   1.673  1.00  0.00    -0.550 OA
ATOM     12  O   UNL     1      11.959 -13.900   1.274  1.00  0.00    -0.550 OA
ENDBRANCH   9  10
ENDBRANCH   8   9
ENDBRANCH   7   8
ENDBRANCH   6   7
ENDBRANCH   5   6
ENDBRANCH   4   5
ENDBRANCH   3   4
ENDBRANCH   1   3
BRANCH   2  13
ATOM     13  C   UNL     1       8.921 -12.932  -4.594  1.00  0.00     0.027 C 
BRANCH  13  14
ATOM     14  C   UNL     1       8.932 -11.732  -3.631  1.00  0.00     0.004 C 
BRANCH  14  15
ATOM     15  C   UNL     1       7.540 -11.165  -3.280  1.00  0.00     0.000 C 
BRANCH  15  16
ATOM     16  C   UNL     1       7.176 -11.209  -1.786  1.00  0.00     0.000 C 
BRANCH  16  17
ATOM     17  C   UNL     1       6.534 -12.544  -1.370  1.00  0.00    -0.000 C 
BRANCH  17  18
ATOM     18  C   UNL     1       7.507 -13.462  -0.608  1.00  0.00    -0.000 C 
BRANCH  18  19
ATOM     19  C   UNL     1       7.480 -14.937  -1.049  1.00  0.00    -0.003 C 
ATOM     20  C   UNL     1       8.695 -15.334  -1.886  1.00  0.00     0.004 C 
ENDBRANCH  18  19
ENDBRANCH  17  18
ENDBRANCH  16  17
ENDBRANCH  15  16
ENDBRANCH  14  15
ENDBRANCH  13  14
ENDBRANCH   2  13
TORSDOF 15
ENDMDL
MODEL 2
REMARK VINA RESULT:    -5.943      1.280      4.613
REMARK INTER + INTRA:         -13.582
REMARK INTER:                 -10.913
REMARK INTRA:                  -2.669
REMARK UNBOUND:                -2.427
REMARK SMILES CCCCCCCCC=CCCCCCCCC(=O)[O-]
REMARK SMILES IDX 10 1 9 2 11 3 12 4 13 5 14 6 15 7 16 8 17 9 18 10 19 11
REMARK SMILES IDX 20 12 8 13 7 14 6 15 5 16 4 17 3 18 2 19 1 20
REMARK H PARENT
REMARK Flexibility Score: inf
ROOT
ATOM      1  C   UNL     1       8.912 -13.094  -4.681  1.00  0.00    -0.031 C 
ATOM      2  C   UNL     1       9.389 -13.345  -5.915  1.00  0.00    -0.031 C 
ENDROOT
BRANCH   1   3
ATOM      3  C   UNL     1       8.938 -11.752  -3.988  1.00  0.00     0.027 C 
BRANCH   3   4
ATOM      4  C   UNL     1       7.534 -11.214  -3.671  1.00  0.00     0.004 C 
BRANCH   4   5
ATOM      5  C   UNL     1       7.518 -10.335  -2.409  1.00  0.00     0.000 C 
BRANCH   5   6
ATOM      6  C   UNL     1       6.564 -10.871  -1.328  1.00  0.00     0.000 C 
BRANCH   6   7
ATOM      7  C   UNL     1       6.518 -12.407  -1.287  1.00  0.00     0.000 C 
BRANCH   7   8
ATOM      8  C   UNL     1       7.338 -12.948  -0.106  1.00  0.00     0.006 C 
BRANCH   8   9
ATOM      9  C   UNL     1       8.799 -13.218  -0.487  1.00  0.00     0.053 C 
BRANCH   9  10
ATOM     10  C   UNL     1       9.746 -12.359   0.293  1.00  0.00     0.041 C 
ATOM     11  O   UNL     1       9.992 -12.624   1.500  1.00  0.00    -0.550 OA
ATOM     12  O   UNL     1      10.329 -11.247  -0.300  1.00  0.00    -0.550 OA
ENDBRANCH   9  10
ENDBRANCH   8   9
ENDBRANCH   7   8
ENDBRANCH   6   7
ENDBRANCH   5   6
ENDBRANCH   4   5
ENDBRANCH   3   4
ENDBRANCH   1   3
BRANCH   2  13
ATOM     13  C   UNL     1      10.057 -12.335  -6.819  1.00  0.00     0.027 C 
BRANCH  13  14
ATOM     14  C   UNL     1      11.591 -12.391  -6.711  1.00  0.00     0.004 C 
BRANCH  14  15
ATOM     15  C   UNL     1      12.194 -11.561  -5.558  1.00  0.00     0.000 C 
BRANCH  15  16
ATOM     16  C   UNL     1      13.086 -12.350  -4.585  1.00  0.00     0.000 C 
BRANCH  16  17
ATOM     17  C   UNL     1      12.401 -12.619  -3.234  1.00  0.00    -0.000 C 
BRANCH  17  18
ATOM     18  C   UNL     1      11.866 -14.057  -3.111  1.00  0.00    -0.000 C 
BRANCH  18  19
ATOM     19  C   UNL     1      12.647 -15.107  -3.923  1.00  0.00    -0.003 C 
ATOM     20  C   UNL     1      11.778 -15.843  -4.941  1.00  0.00     0.004 C 
ENDBRANCH  18  19
ENDBRANCH  17  18
ENDBRANCH  16  17
ENDBRANCH  15  16
ENDBRANCH  14  15
ENDBRANCH  13  14
ENDBRANCH   2  13
TORSDOF 15
ENDMDL
MODEL 3
REMARK VINA RESULT:    -5.902      1.042      5.100
REMARK INTER + INTRA:         -13.504
REMARK INTER:                 -11.427
REMARK INTRA:                  -2.077
REMARK UNBOUND:                -2.427
REMARK SMILES CCCCCCCCC=CCCCCCCCC(=O)[O-]
REMARK SMILES IDX 10 1 9 2 11 3 12 4 13 5 14 6 15 7 16 8 17 9 18 10 19 11
REMARK SMILES IDX 20 12 8 13 7 14 6 15 5 16 4 17 3 18 2 19 1 20
REMARK H PARENT
REMARK Flexibility Score: inf
ROOT
ATOM      1  C   UNL     1       6.822 -11.196  -1.418  1.00  0.00    -0.031 C 
ATOM      2  C   UNL     1       7.302 -10.556  -2.501  1.00  0.00    -0.031 C 
ENDROOT
BRANCH   1   3
ATOM      3  C   UNL     1       6.527 -12.675  -1.336  1.00  0.00     0.027 C 
BRANCH   3   4
ATOM      4  C   UNL     1       7.303 -13.380  -0.213  1.00  0.00     0.004 C 
BRANCH   4   5
ATOM      5  C   UNL     1       7.791 -14.778  -0.629  1.00  0.00     0.000 C 
BRANCH   5   6
ATOM      6  C   UNL     1       8.818 -14.729  -1.772  1.00  0.00     0.000 C 
BRANCH   6   7
ATOM      7  C   UNL     1      10.219 -15.179  -1.331  1.00  0.00     0.000 C 
BRANCH   7   8
ATOM      8  C   UNL     1      11.185 -13.985  -1.277  1.00  0.00     0.006 C 
BRANCH   8   9
ATOM      9  C   UNL     1      11.526 -13.577   0.162  1.00  0.00     0.053 C 
BRANCH   9  10
ATOM     10  C   UNL     1      10.616 -12.499   0.666  1.00  0.00     0.041 C 
ATOM     11  O   UNL     1      10.045 -12.624   1.781  1.00  0.00    -0.550 OA
ATOM     12  O   UNL     1      10.371 -11.375  -0.111  1.00  0.00    -0.550 OA
ENDBRANCH   9  10
ENDBRANCH   8   9
ENDBRANCH   7   8
ENDBRANCH   6   7
ENDBRANCH   5   6
ENDBRANCH   4   5
ENDBRANCH   3   4
ENDBRANCH   1   3
BRANCH   2  13
ATOM     13  C   UNL     1       7.611 -11.196  -3.834  1.00  0.00     0.027 C 
BRANCH  13  14
ATOM     14  C   UNL     1       9.032 -11.786  -3.874  1.00  0.00     0.004 C 
BRANCH  14  15
ATOM     15  C   UNL     1       9.240 -12.916  -4.903  1.00  0.00     0.000 C 
BRANCH  15  16
ATOM     16  C   UNL     1       8.650 -12.645  -6.297  1.00  0.00     0.000 C 
BRANCH  16  17
ATOM     17  C   UNL     1       9.706 -12.164  -7.308  1.00  0.00    -0.000 C 
BRANCH  17  18
ATOM     18  C   UNL     1      11.143 -12.515  -6.881  1.00  0.00    -0.000 C 
BRANCH  18  19
ATOM     19  C   UNL     1      12.035 -11.302  -6.561  1.00  0.00    -0.003 C 
ATOM     20  C   UNL     1      12.909 -11.512  -5.325  1.00  0.00     0.004 C 
ENDBRANCH  18  19
ENDBRANCH  17  18
ENDBRANCH  16  17
ENDBRANCH  15  16
ENDBRANCH  14  15
ENDBRANCH  13  14
ENDBRANCH   2  13
TORSDOF 15
ENDMDL
MODEL 4
REMARK VINA RESULT:    -5.899      3.038      6.185
REMARK INTER + INTRA:         -13.500
REMARK INTER:                 -11.551
REMARK INTRA:                  -1.949
REMARK UNBOUND:                -2.427
REMARK SMILES CCCCCCCCC=CCCCCCCCC(=O)[O-]
REMARK SMILES IDX 10 1 9 2 11 3 12 4 13 5 14 6 15 7 16 8 17 9 18 10 19 11
REMARK SMILES IDX 20 12 8 13 7 14 6 15 5 16 4 17 3 18 2 19 1 20
REMARK H PARENT
REMARK Flexibility Score: inf
ROOT
ATOM      1  C   UNL     1       7.342 -10.685  -1.935  1.00  0.00    -0.031 C 
ATOM      2  C   UNL     1       8.404 -10.602  -2.759  1.00  0.00    -0.031 C 
ENDROOT
BRANCH   1   3
ATOM      3  C   UNL     1       6.546 -11.939  -1.658  1.00  0.00     0.027 C 
BRANCH   3   4
ATOM      4  C   UNL     1       6.624 -12.385  -0.190  1.00  0.00     0.004 C 
BRANCH   4   5
ATOM      5  C   UNL     1       7.603 -13.554   0.013  1.00  0.00     0.000 C 
BRANCH   5   6
ATOM      6  C   UNL     1       7.645 -14.506  -1.193  1.00  0.00     0.000 C 
BRANCH   6   7
ATOM      7  C   UNL     1       9.072 -14.954  -1.546  1.00  0.00     0.000 C 
BRANCH   7   8
ATOM      8  C   UNL     1       9.182 -15.305  -3.038  1.00  0.00     0.006 C 
BRANCH   8   9
ATOM      9  C   UNL     1       8.534 -16.655  -3.368  1.00  0.00     0.053 C 
BRANCH   9  10
ATOM     10  C   UNL     1       9.227 -17.343  -4.503  1.00  0.00     0.041 C 
ATOM     11  O   UNL     1       9.508 -16.706  -5.553  1.00  0.00    -0.550 OA
ATOM     12  O   UNL     1       9.529 -18.696  -4.418  1.00  0.00    -0.550 OA
ENDBRANCH   9  10
ENDBRANCH   8   9
ENDBRANCH   7   8
ENDBRANCH   6   7
ENDBRANCH   5   6
ENDBRANCH   4   5
ENDBRANCH   3   4
ENDBRANCH   1   3
BRANCH   2  13
ATOM     13  C   UNL     1       8.977 -11.740  -3.570  1.00  0.00     0.027 C 
BRANCH  13  14
ATOM     14  C   UNL     1       8.162 -12.003  -4.849  1.00  0.00     0.004 C 
BRANCH  14  15
ATOM     15  C   UNL     1       8.814 -12.981  -5.848  1.00  0.00     0.000 C 
BRANCH  15  16
ATOM     16  C   UNL     1       8.846 -12.497  -7.308  1.00  0.00     0.000 C 
BRANCH  16  17
ATOM     17  C   UNL     1      10.258 -12.102  -7.774  1.00  0.00    -0.000 C 
BRANCH  17  18
ATOM     18  C   UNL     1      11.346 -12.454  -6.743  1.00  0.00    -0.000 C 
BRANCH  18  19
ATOM     19  C   UNL     1      12.001 -11.241  -6.057  1.00  0.00    -0.003 C 
ATOM     20  C   UNL     1      13.199 -11.620  -5.189  1.00  0.00     0.004 C 
ENDBRANCH  18  19
ENDBRANCH  17  18
ENDBRANCH  16  17
ENDBRANCH  15  16
ENDBRANCH  14  15
ENDBRANCH  13  14
ENDBRANCH   2  13
TORSDOF 15
ENDMDL
MODEL 5
REMARK VINA RESULT:    -5.865      2.022      3.418
REMARK INTER + INTRA:         -13.435
REMARK INTER:                 -11.272
REMARK INTRA:                  -2.164
REMARK UNBOUND:                -2.427
REMARK SMILES CCCCCCCCC=CCCCCCCCC(=O)[O-]
REMARK SMILES IDX 10 1 9 2 11 3 12 4 13 5 14 6 15 7 16 8 17 9 18 10 19 11
REMARK SMILES IDX 20 12 8 13 7 14 6 15 5 16 4 17 3 18 2 19 1 20
REMARK H PARENT
REMARK Flexibility Score: inf
ROOT
ATOM      1  C   UNL     1       9.070 -12.025  -4.175  1.00  0.00    -0.031 C 
ATOM      2  C   UNL     1       8.577 -11.436  -3.068  1.00  0.00    -0.031 C 
ENDROOT
BRANCH   1   3
ATOM      3  C   UNL     1       8.387 -12.065  -5.522  1.00  0.00     0.027 C 
BRANCH   3   4
ATOM      4  C   UNL     1       9.095 -12.990  -6.525  1.00  0.00     0.004 C 
BRANCH   4   5
ATOM      5  C   UNL     1      10.112 -12.234  -7.397  1.00  0.00     0.000 C 
BRANCH   5   6
ATOM      6  C   UNL     1      11.565 -12.478  -6.958  1.00  0.00     0.000 C 
BRANCH   6   7
ATOM      7  C   UNL     1      12.143 -11.310  -6.145  1.00  0.00     0.000 C 
BRANCH   7   8
ATOM      8  C   UNL     1      12.844 -11.820  -4.876  1.00  0.00     0.006 C 
BRANCH   8   9
ATOM      9  C   UNL     1      12.432 -13.254  -4.520  1.00  0.00     0.053 C 
BRANCH   9  10
ATOM     10  C   UNL     1      13.000 -13.686  -3.203  1.00  0.00     0.041 C 
ATOM     11  O   UNL     1      13.000 -14.904  -2.883  1.00  0.00    -0.550 OA
ATOM     12  O   UNL     1      13.494 -12.740  -2.314  1.00  0.00    -0.550 OA
ENDBRANCH   9  10
ENDBRANCH   8   9
ENDBRANCH   7   8
ENDBRANCH   6   7
ENDBRANCH   5   6
ENDBRANCH   4   5
ENDBRANCH   3   4
ENDBRANCH   1   3
BRANCH   2  13
ATOM     13  C   UNL     1       7.246 -10.729  -2.969  1.00  0.00     0.027 C 
BRANCH  13  14
ATOM     14  C   UNL     1       6.609 -10.894  -1.579  1.00  0.00     0.004 C 
BRANCH  14  15
ATOM     15  C   UNL     1       6.353 -12.353  -1.147  1.00  0.00     0.000 C 
BRANCH  15  16
ATOM     16  C   UNL     1       7.053 -12.780   0.154  1.00  0.00     0.000 C 
BRANCH  16  17
ATOM     17  C   UNL     1       7.918 -14.040  -0.021  1.00  0.00    -0.000 C 
BRANCH  17  18
ATOM     18  C   UNL     1       7.546 -14.849  -1.276  1.00  0.00    -0.000 C 
BRANCH  18  19
ATOM     19  C   UNL     1       8.725 -15.157  -2.218  1.00  0.00    -0.003 C 
ATOM     20  C   UNL     1       9.862 -15.908  -1.526  1.00  0.00     0.004 C 
ENDBRANCH  18  19
ENDBRANCH  17  18
ENDBRANCH  16  17
ENDBRANCH  15  16
ENDBRANCH  14  15
ENDBRANCH  13  14
ENDBRANCH   2  13
TORSDOF 15
ENDMDL
MODEL 6
REMARK VINA RESULT:    -5.812      2.590      5.520
REMARK INTER + INTRA:         -13.335
REMARK INTER:                 -10.728
REMARK INTRA:                  -2.608
REMARK UNBOUND:                -2.427
REMARK SMILES CCCCCCCCC=CCCCCCCCC(=O)[O-]
REMARK SMILES IDX 10 1 9 2 11 3 12 4 13 5 14 6 15 7 16 8 17 9 18 10 19 11
REMARK SMILES IDX 20 12 8 13 7 14 6 15 5 16 4 17 3 18 2 19 1 20
REMARK H PARENT
REMARK Flexibility Score: inf
ROOT
ATOM      1  C   UNL     1       9.050 -13.339  -4.701  1.00  0.00    -0.031 C 
ATOM      2  C   UNL     1       9.115 -13.498  -6.037  1.00  0.00    -0.031 C 
ENDROOT
BRANCH   1   3
ATOM      3  C   UNL     1       8.736 -12.045  -3.989  1.00  0.00     0.027 C 
BRANCH   3   4
ATOM      4  C   UNL     1       8.940 -12.133  -2.468  1.00  0.00     0.004 C 
BRANCH   4   5
ATOM      5  C   UNL     1       7.720 -12.736  -1.751  1.00  0.00     0.000 C 
BRANCH   5   6
ATOM      6  C   UNL     1       8.105 -13.849  -0.764  1.00  0.00     0.000 C 
BRANCH   6   7
ATOM      7  C   UNL     1       7.670 -15.243  -1.242  1.00  0.00     0.000 C 
BRANCH   7   8
ATOM      8  C   UNL     1       8.796 -15.927  -2.032  1.00  0.00     0.006 C 
BRANCH   8   9
ATOM      9  C   UNL     1       8.292 -16.559  -3.335  1.00  0.00     0.053 C 
BRANCH   9  10
ATOM     10  C   UNL     1       9.415 -17.123  -4.152  1.00  0.00     0.041 C 
ATOM     11  O   UNL     1      10.372 -17.715  -3.587  1.00  0.00    -0.550 OA
ATOM     12  O   UNL     1       9.422 -16.962  -5.531  1.00  0.00    -0.550 OA
ENDBRANCH   9  10
ENDBRANCH   8   9
ENDBRANCH   7   8
ENDBRANCH   6   7
ENDBRANCH   5   6
ENDBRANCH   4   5
ENDBRANCH   3   4
ENDBRANCH   1   3
BRANCH   2  13
ATOM     13  C   UNL     1       8.908 -12.408  -7.062  1.00  0.00     0.027 C 
BRANCH  13  14
ATOM     14  C   UNL     1      10.218 -12.031  -7.775  1.00  0.00     0.004 C 
BRANCH  14  15
ATOM     15  C   UNL     1      11.506 -12.400  -7.011  1.00  0.00     0.000 C 
BRANCH  15  16
ATOM     16  C   UNL     1      12.066 -11.290  -6.105  1.00  0.00     0.000 C 
BRANCH  16  17
ATOM     17  C   UNL     1      13.107 -11.812  -5.098  1.00  0.00    -0.000 C 
BRANCH  17  18
ATOM     18  C   UNL     1      12.473 -12.297  -3.782  1.00  0.00    -0.000 C 
BRANCH  18  19
ATOM     19  C   UNL     1      12.878 -13.721  -3.358  1.00  0.00    -0.003 C 
ATOM     20  C   UNL     1      12.331 -14.800  -4.292  1.00  0.00     0.004 C 
ENDBRANCH  18  19
ENDBRANCH  17  18
ENDBRANCH  16  17
ENDBRANCH  15  16
ENDBRANCH  14  15
ENDBRANCH  13  14
ENDBRANCH   2  13
TORSDOF 15
ENDMDL
MODEL 7
REMARK VINA RESULT:    -5.794      2.735      6.075
REMARK INTER + INTRA:         -13.302
REMARK INTER:                 -10.993
REMARK INTRA:                  -2.309
REMARK UNBOUND:                -2.427
REMARK SMILES CCCCCCCCC=CCCCCCCCC(=O)[O-]
REMARK SMILES IDX 10 1 9 2 11 3 12 4 13 5 14 6 15 7 16 8 17 9 18 10 19 11
REMARK SMILES IDX 20 12 8 13 7 14 6 15 5 16 4 17 3 18 2 19 1 20
REMARK H PARENT
REMARK Flexibility Score: inf
ROOT
ATOM      1  C   UNL     1       7.760 -11.495  -3.138  1.00  0.00    -0.031 C 
ATOM      2  C   UNL     1       9.011 -11.919  -3.404  1.00  0.00    -0.031 C 
ENDROOT
BRANCH   1   3
ATOM      3  C   UNL     1       7.188 -11.270  -1.758  1.00  0.00     0.027 C 
BRANCH   3   4
ATOM      4  C   UNL     1       6.431 -12.494  -1.217  1.00  0.00     0.004 C 
BRANCH   4   5
ATOM      5  C   UNL     1       7.370 -13.515  -0.554  1.00  0.00     0.000 C 
BRANCH   5   6
ATOM      6  C   UNL     1       7.583 -14.770  -1.415  1.00  0.00     0.000 C 
BRANCH   6   7
ATOM      7  C   UNL     1       8.646 -15.715  -0.835  1.00  0.00     0.000 C 
BRANCH   7   8
ATOM      8  C   UNL     1       9.369 -16.479  -1.955  1.00  0.00     0.006 C 
BRANCH   8   9
ATOM      9  C   UNL     1       8.648 -16.355  -3.303  1.00  0.00     0.053 C 
BRANCH   9  10
ATOM     10  C   UNL     1       9.385 -17.068  -4.396  1.00  0.00     0.041 C 
ATOM     11  O   UNL     1       9.900 -18.196  -4.180  1.00  0.00    -0.550 OA
ATOM     12  O   UNL     1       9.533 -16.469  -5.640  1.00  0.00    -0.550 OA
ENDBRANCH   9  10
ENDBRANCH   8   9
ENDBRANCH   7   8
ENDBRANCH   6   7
ENDBRANCH   5   6
ENDBRANCH   4   5
ENDBRANCH   3   4
ENDBRANCH   1   3
BRANCH   2  13
ATOM     13  C   UNL     1      10.057 -12.268  -2.372  1.00  0.00     0.027 C 
BRANCH  13  14
ATOM     14  C   UNL     1      11.050 -13.322  -2.891  1.00  0.00     0.004 C 
BRANCH  14  15
ATOM     15  C   UNL     1      11.290 -13.297  -4.415  1.00  0.00     0.000 C 
BRANCH  15  16
ATOM     16  C   UNL     1      12.311 -12.253  -4.897  1.00  0.00     0.000 C 
BRANCH  16  17
ATOM     17  C   UNL     1      11.820 -11.461  -6.121  1.00  0.00    -0.000 C 
BRANCH  17  18
ATOM     18  C   UNL     1      11.254 -12.366  -7.231  1.00  0.00    -0.000 C 
BRANCH  18  19
ATOM     19  C   UNL     1       9.852 -11.973  -7.730  1.00  0.00    -0.003 C 
ATOM     20  C   UNL     1       8.729 -12.716  -7.007  1.00  0.00     0.004 C 
ENDBRANCH  18  19
ENDBRANCH  17  18
ENDBRANCH  16  17
ENDBRANCH  15  16
ENDBRANCH  14  15
ENDBRANCH  13  14
ENDBRANCH   2  13
TORSDOF 15
ENDMDL
MODEL 8
REMARK VINA RESULT:    -5.784      1.824      3.375
REMARK INTER + INTRA:         -13.283
REMARK INTER:                 -11.013
REMARK INTRA:                  -2.270
REMARK UNBOUND:                -2.427
REMARK SMILES CCCCCCCCC=CCCCCCCCC(=O)[O-]
REMARK SMILES IDX 10 1 9 2 11 3 12 4 13 5 14 6 15 7 16 8 17 9 18 10 19 11
REMARK SMILES IDX 20 12 8 13 7 14 6 15 5 16 4 17 3 18 2 19 1 20
REMARK H PARENT
REMARK Flexibility Score: inf
ROOT
ATOM      1  C   UNL     1       8.880 -12.365  -5.217  1.00  0.00    -0.031 C 
ATOM      2  C   UNL     1       9.055 -13.252  -4.218  1.00  0.00    -0.031 C 
ENDROOT
BRANCH   1   3
ATOM      3  C   UNL     1       8.780 -12.710  -6.685  1.00  0.00     0.027 C 
BRANCH   3   4
ATOM      4  C   UNL     1       9.956 -12.165  -7.510  1.00  0.00     0.004 C 
BRANCH   4   5
ATOM      5  C   UNL     1      11.319 -12.547  -6.905  1.00  0.00     0.000 C 
BRANCH   5   6
ATOM      6  C   UNL     1      12.160 -11.319  -6.520  1.00  0.00     0.000 C 
BRANCH   6   7
ATOM      7  C   UNL     1      12.840 -11.472  -5.152  1.00  0.00     0.000 C 
BRANCH   7   8
ATOM      8  C   UNL     1      12.581 -12.868  -4.564  1.00  0.00     0.006 C 
BRANCH   8   9
ATOM      9  C   UNL     1      12.505 -12.849  -3.033  1.00  0.00     0.053 C 
BRANCH   9  10
ATOM     10  C   UNL     1      13.203 -14.027  -2.426  1.00  0.00     0.041 C 
ATOM     11  O   UNL     1      14.400 -14.279  -2.728  1.00  0.00    -0.550 OA
ATOM     12  O   UNL     1      12.522 -14.868  -1.555  1.00  0.00    -0.550 OA
ENDBRANCH   9  10
ENDBRANCH   8   9
ENDBRANCH   7   8
ENDBRANCH   6   7
ENDBRANCH   5   6
ENDBRANCH   4   5
ENDBRANCH   3   4
ENDBRANCH   1   3
BRANCH   2  13
ATOM     13  C   UNL     1       9.204 -14.745  -4.387  1.00  0.00     0.027 C 
BRANCH  13  14
ATOM     14  C   UNL     1       8.792 -15.512  -3.118  1.00  0.00     0.004 C 
BRANCH  14  15
ATOM     15  C   UNL     1       8.986 -14.740  -1.797  1.00  0.00     0.000 C 
BRANCH  15  16
ATOM     16  C   UNL     1       7.694 -14.457  -1.012  1.00  0.00     0.000 C 
BRANCH  16  17
ATOM     17  C   UNL     1       7.549 -12.976  -0.618  1.00  0.00    -0.000 C 
BRANCH  17  18
ATOM     18  C   UNL     1       6.352 -12.291  -1.301  1.00  0.00    -0.000 C 
BRANCH  18  19
ATOM     19  C   UNL     1       6.507 -10.771  -1.499  1.00  0.00    -0.003 C 
ATOM     20  C   UNL     1       7.832 -10.387  -2.155  1.00  0.00     0.004 C 
ENDBRANCH  18  19
ENDBRANCH  17  18
ENDBRANCH  16  17
ENDBRANCH  15  16
ENDBRANCH  14  15
ENDBRANCH  13  14
ENDBRANCH   2  13
TORSDOF 15
ENDMDL
MODEL 9
REMARK VINA RESULT:    -5.687      2.184      5.584
REMARK INTER + INTRA:         -13.102
REMARK INTER:                 -10.685
REMARK INTRA:                  -2.416
REMARK UNBOUND:                -2.427
REMARK SMILES CCCCCCCCC=CCCCCCCCC(=O)[O-]
REMARK SMILES IDX 10 1 9 2 11 3 12 4 13 5 14 6 15 7 16 8 17 9 18 10 19 11
REMARK SMILES IDX 20 12 8 13 7 14 6 15 5 16 4 17 3 18 2 19 1 20
REMARK H PARENT
REMARK Flexibility Score: inf
ROOT
ATOM      1  C   UNL     1      11.589 -13.863  -1.361  1.00  0.00    -0.031 C 
ATOM      2  C   UNL     1      11.140 -12.891  -2.179  1.00  0.00    -0.031 C 
ENDROOT
BRANCH   1   3
ATOM      3  C   UNL     1      11.495 -15.346  -1.632  1.00  0.00     0.027 C 
BRANCH   3   4
ATOM      4  C   UNL     1      10.241 -15.989  -1.017  1.00  0.00     0.004 C 
BRANCH   4   5
ATOM      5  C   UNL     1       9.006 -15.838  -1.922  1.00  0.00     0.000 C 
BRANCH   5   6
ATOM      6  C   UNL     1       7.754 -15.404  -1.143  1.00  0.00     0.000 C 
BRANCH   6   7
ATOM      7  C   UNL     1       8.090 -14.600   0.121  1.00  0.00     0.000 C 
BRANCH   7   8
ATOM      8  C   UNL     1       8.033 -13.090  -0.158  1.00  0.00     0.006 C 
BRANCH   8   9
ATOM      9  C   UNL     1       6.740 -12.679  -0.873  1.00  0.00     0.053 C 
BRANCH   9  10
ATOM     10  C   UNL     1       6.357 -11.265  -0.563  1.00  0.00     0.041 C 
ATOM     11  O   UNL     1       5.880 -10.971   0.565  1.00  0.00    -0.550 OA
ATOM     12  O   UNL     1       6.491 -10.279  -1.531  1.00  0.00    -0.550 OA
ENDBRANCH   9  10
ENDBRANCH   8   9
ENDBRANCH   7   8
ENDBRANCH   6   7
ENDBRANCH   5   6
ENDBRANCH   4   5
ENDBRANCH   3   4
ENDBRANCH   1   3
BRANCH   2  13
ATOM     13  C   UNL     1      10.444 -13.110  -3.501  1.00  0.00     0.027 C 
BRANCH  13  14
ATOM     14  C   UNL     1       9.105 -12.356  -3.579  1.00  0.00     0.004 C 
BRANCH  14  15
ATOM     15  C   UNL     1       8.603 -12.062  -5.008  1.00  0.00     0.000 C 
BRANCH  15  16
ATOM     16  C   UNL     1       9.097 -13.041  -6.086  1.00  0.00     0.000 C 
BRANCH  16  17
ATOM     17  C   UNL     1       9.873 -12.341  -7.216  1.00  0.00    -0.000 C 
BRANCH  17  18
ATOM     18  C   UNL     1      11.397 -12.381  -7.007  1.00  0.00    -0.000 C 
BRANCH  18  19
ATOM     19  C   UNL     1      11.974 -11.178  -6.237  1.00  0.00    -0.003 C 
ATOM     20  C   UNL     1      13.093 -11.568  -5.273  1.00  0.00     0.004 C 
ENDBRANCH  18  19
ENDBRANCH  17  18
ENDBRANCH  16  17
ENDBRANCH  15  16
ENDBRANCH  14  15
ENDBRANCH  13  14
ENDBRANCH   2  13
TORSDOF 15
ENDMDL
