MODEL 1
REMARK VINA RESULT:    -5.199      0.000      0.000
REMARK INTER + INTRA:         -11.579
REMARK INTER:                  -9.454
REMARK INTRA:                  -2.125
REMARK UNBOUND:                -2.125
REMARK SMILES CCCCCCCCCCCCCCCC(=O)[O-]
REMARK SMILES IDX 9 1 10 2 11 3 12 4 13 5 14 6 15 7 16 8 17 9 18 10 8 11 7 12
REMARK SMILES IDX 6 13 5 14 4 15 3 16 2 17 1 18
REMARK H PARENT
REMARK Flexibility Score: inf
ROOT
ATOM      1  C   UNL     1      -4.489   7.340 -18.076  1.00  0.00     0.000 C 
ENDROOT
BRANCH   1   2
ATOM      2  C   UNL     1      -4.318   8.705 -18.766  1.00  0.00     0.000 C 
BRANCH   2   3
ATOM      3  C   UNL     1      -5.639   9.259 -19.322  1.00  0.00     0.000 C 
BRANCH   3   4
ATOM      4  C   UNL     1      -6.873   8.615 -18.665  1.00  0.00     0.000 C 
BRANCH   4   5
ATOM      5  C   UNL     1      -7.767   7.883 -19.678  1.00  0.00     0.000 C 
BRANCH   5   6
ATOM      6  C   UNL     1      -7.337   8.127 -21.136  1.00  0.00     0.006 C 
BRANCH   6   7
ATOM      7  C   UNL     1      -6.885   6.835 -21.830  1.00  0.00     0.053 C 
BRANCH   7   8
ATOM      8  C   UNL     1      -6.475   7.080 -23.249  1.00  0.00     0.041 C 
ATOM      9  O   UNL     1      -7.304   7.538 -24.079  1.00  0.00    -0.550 OA
ATOM     10  O   UNL     1      -5.188   6.764 -23.665  1.00  0.00    -0.550 OA
ENDBRANCH   7   8
ENDBRANCH   6   7
ENDBRANCH   5   6
ENDBRANCH   4   5
ENDBRANCH   3   4
ENDBRANCH   2   3
ENDBRANCH   1   2
BRANCH   1  11
ATOM     11  C   UNL     1      -4.393   6.167 -19.075  1.00  0.00     0.000 C 
BRANCH  11  12
ATOM     12  C   UNL     1      -3.516   6.474 -20.301  1.00  0.00    -0.000 C 
BRANCH  12  13
ATOM     13  C   UNL     1      -2.741   5.244 -20.803  1.00  0.00    -0.000 C 
BRANCH  13  14
ATOM     14  C   UNL     1      -2.615   4.150 -19.731  1.00  0.00    -0.000 C 
BRANCH  14  15
ATOM     15  C   UNL     1      -1.182   4.016 -19.188  1.00  0.00    -0.000 C 
BRANCH  15  16
ATOM     16  C   UNL     1      -0.932   4.931 -17.971  1.00  0.00    -0.000 C 
BRANCH  16  17
ATOM     17  C   UNL     1      -0.106   6.185 -18.303  1.00  0.00    -0.003 C 
ATOM     18  C   UNL     1      -0.806   7.485 -17.913  1.00  0.00     0.004 C 
ENDBRANCH  16  17
ENDBRANCH  15  16
ENDBRANCH  14  15
ENDBRANCH  13  14
ENDBRANCH  12  13
ENDBRANCH  11  12
ENDBRANCH   1  11
TORSDOF 14
ENDMDL
MODEL 2
REMARK VINA RESULT:    -5.187      2.042      3.771
REMARK INTER + INTRA:         -11.558
REMARK INTER:                  -9.560
REMARK INTRA:                  -1.998
REMARK UNBOUND:                -2.125
REMARK SMILES CCCCCCCCCCCCCCCC(=O)[O-]
REMARK SMILES IDX 9 1 10 2 11 3 12 4 13 5 14 6 15 7 16 8 17 9 18 10 8 11 7 12
REMARK SMILES IDX 6 13 5 14 4 15 3 16 2 17 1 18
REMARK H PARENT
REMARK Flexibility Score: inf
ROOT
ATOM      1  C   UNL     1      -2.655   5.640 -20.800  1.00  0.00     0.000 C 
ENDROOT
BRANCH   1   2
ATOM      2  C   UNL     1      -3.517   5.660 -22.075  1.00  0.00     0.000 C 
BRANCH   2   3
ATOM      3  C   UNL     1      -4.353   6.943 -22.208  1.00  0.00     0.000 C 
BRANCH   3   4
ATOM      4  C   UNL     1      -5.536   6.779 -23.179  1.00  0.00     0.000 C 
BRANCH   4   5
ATOM      5  C   UNL     1      -6.895   6.987 -22.493  1.00  0.00     0.000 C 
BRANCH   5   6
ATOM      6  C   UNL     1      -6.769   7.194 -20.972  1.00  0.00     0.006 C 
BRANCH   6   7
ATOM      7  C   UNL     1      -7.434   8.497 -20.508  1.00  0.00     0.053 C 
BRANCH   7   8
ATOM      8  C   UNL     1      -6.423   9.539 -20.143  1.00  0.00     0.041 C 
ATOM      9  O   UNL     1      -5.626   9.982 -21.011  1.00  0.00    -0.550 OA
ATOM     10  O   UNL     1      -6.334   9.992 -18.832  1.00  0.00    -0.550 OA
ENDBRANCH   7   8
ENDBRANCH   6   7
ENDBRANCH   5   6
ENDBRANCH   4   5
ENDBRANCH   3   4
ENDBRANCH   2   3
ENDBRANCH   1   2
BRANCH   1  11
ATOM     11  C   UNL     1      -2.678   4.263 -20.103  1.00  0.00     0.000 C 
BRANCH  11  12
ATOM     12  C   UNL     1      -1.565   4.085 -19.057  1.00  0.00    -0.000 C 
BRANCH  12  13
ATOM     13  C   UNL     1      -0.704   5.347 -18.881  1.00  0.00    -0.000 C 
BRANCH  13  14
ATOM     14  C   UNL     1      -0.849   5.967 -17.482  1.00  0.00    -0.000 C 
BRANCH  14  15
ATOM     15  C   UNL     1      -2.279   5.849 -16.927  1.00  0.00    -0.000 C 
BRANCH  15  16
ATOM     16  C   UNL     1      -3.029   7.197 -16.958  1.00  0.00    -0.000 C 
BRANCH  16  17
ATOM     17  C   UNL     1      -4.128   7.265 -18.031  1.00  0.00    -0.003 C 
ATOM     18  C   UNL     1      -5.095   6.084 -17.975  1.00  0.00     0.004 C 
ENDBRANCH  16  17
ENDBRANCH  15  16
ENDBRANCH  14  15
ENDBRANCH  13  14
ENDBRANCH  12  13
ENDBRANCH  11  12
ENDBRANCH   1  11
TORSDOF 14
ENDMDL
MODEL 3
REMARK VINA RESULT:    -5.155      1.861      3.504
REMARK INTER + INTRA:         -11.499
REMARK INTER:                  -9.158
REMARK INTRA:                  -2.341
REMARK UNBOUND:                -2.125
REMARK SMILES CCCCCCCCCCCCCCCC(=O)[O-]
REMARK SMILES IDX 9 1 10 2 11 3 12 4 13 5 14 6 15 7 16 8 17 9 18 10 8 11 7 12
REMARK SMILES IDX 6 13 5 14 4 15 3 16 2 17 1 18
REMARK H PARENT
REMARK Flexibility Score: inf
ROOT
ATOM      1  C   UNL     1      -2.739   7.294 -17.267  1.00  0.00     0.000 C 
ENDROOT
BRANCH   1   2
ATOM      2  C   UNL     1      -3.161   6.129 -16.353  1.00  0.00     0.000 C 
BRANCH   2   3
ATOM      3  C   UNL     1      -4.687   5.965 -16.266  1.00  0.00     0.000 C 
BRANCH   3   4
ATOM      4  C   UNL     1      -5.340   5.767 -17.646  1.00  0.00     0.000 C 
BRANCH   4   5
ATOM      5  C   UNL     1      -6.831   6.140 -17.652  1.00  0.00     0.000 C 
BRANCH   5   6
ATOM      6  C   UNL     1      -7.068   7.640 -17.904  1.00  0.00     0.006 C 
BRANCH   6   7
ATOM      7  C   UNL     1      -6.050   8.230 -18.889  1.00  0.00     0.053 C 
BRANCH   7   8
ATOM      8  C   UNL     1      -6.666   8.509 -20.225  1.00  0.00     0.041 C 
ATOM      9  O   UNL     1      -7.860   8.182 -20.454  1.00  0.00    -0.550 OA
ATOM     10  O   UNL     1      -5.908   9.097 -21.230  1.00  0.00    -0.550 OA
ENDBRANCH   7   8
ENDBRANCH   6   7
ENDBRANCH   5   6
ENDBRANCH   4   5
ENDBRANCH   3   4
ENDBRANCH   2   3
ENDBRANCH   1   2
BRANCH   1  11
ATOM     11  C   UNL     1      -1.275   7.163 -17.738  1.00  0.00     0.000 C 
BRANCH  11  12
ATOM     12  C   UNL     1      -0.653   5.789 -17.436  1.00  0.00    -0.000 C 
BRANCH  12  13
ATOM     13  C   UNL     1      -0.490   4.918 -18.693  1.00  0.00    -0.000 C 
BRANCH  13  14
ATOM     14  C   UNL     1      -1.495   3.755 -18.737  1.00  0.00    -0.000 C 
BRANCH  14  15
ATOM     15  C   UNL     1      -2.734   4.076 -19.590  1.00  0.00    -0.000 C 
BRANCH  15  16
ATOM     16  C   UNL     1      -2.450   5.172 -20.640  1.00  0.00    -0.000 C 
BRANCH  16  17
ATOM     17  C   UNL     1      -3.614   6.160 -20.827  1.00  0.00    -0.003 C 
ATOM     18  C   UNL     1      -4.153   6.186 -22.256  1.00  0.00     0.004 C 
ENDBRANCH  16  17
ENDBRANCH  15  16
ENDBRANCH  14  15
ENDBRANCH  13  14
ENDBRANCH  12  13
ENDBRANCH  11  12
ENDBRANCH   1  11
TORSDOF 14
ENDMDL
MODEL 4
REMARK VINA RESULT:    -5.149      2.656      3.994
REMARK INTER + INTRA:         -11.488
REMARK INTER:                  -9.505
REMARK INTRA:                  -1.982
REMARK UNBOUND:                -2.125
REMARK SMILES CCCCCCCCCCCCCCCC(=O)[O-]
REMARK SMILES IDX 9 1 10 2 11 3 12 4 13 5 14 6 15 7 16 8 17 9 18 10 8 11 7 12
REMARK SMILES IDX 6 13 5 14 4 15 3 16 2 17 1 18
REMARK H PARENT
REMARK Flexibility Score: inf
ROOT
ATOM      1  C   UNL     1      -3.523   5.996 -22.285  1.00  0.00     0.000 C 
ENDROOT
BRANCH   1   2
ATOM      2  C   UNL     1      -4.441   7.224 -22.419  1.00  0.00     0.000 C 
BRANCH   2   3
ATOM      3  C   UNL     1      -5.699   6.936 -23.254  1.00  0.00     0.000 C 
BRANCH   3   4
ATOM      4  C   UNL     1      -6.946   6.700 -22.382  1.00  0.00     0.000 C 
BRANCH   4   5
ATOM      5  C   UNL     1      -7.165   7.819 -21.351  1.00  0.00     0.000 C 
BRANCH   5   6
ATOM      6  C   UNL     1      -7.709   7.294 -20.010  1.00  0.00     0.006 C 
BRANCH   6   7
ATOM      7  C   UNL     1      -7.259   8.159 -18.825  1.00  0.00     0.053 C 
BRANCH   7   8
ATOM      8  C   UNL     1      -7.311   7.403 -17.533  1.00  0.00     0.041 C 
ATOM      9  O   UNL     1      -7.098   6.162 -17.516  1.00  0.00    -0.550 OA
ATOM     10  O   UNL     1      -7.633   8.063 -16.354  1.00  0.00    -0.550 OA
ENDBRANCH   7   8
ENDBRANCH   6   7
ENDBRANCH   5   6
ENDBRANCH   4   5
ENDBRANCH   3   4
ENDBRANCH   2   3
ENDBRANCH   1   2
BRANCH   1  11
ATOM     11  C   UNL     1      -3.145   5.709 -20.816  1.00  0.00     0.000 C 
BRANCH  11  12
ATOM     12  C   UNL     1      -4.090   6.370 -19.798  1.00  0.00    -0.000 C 
BRANCH  12  13
ATOM     13  C   UNL     1      -3.363   7.336 -18.849  1.00  0.00    -0.000 C 
BRANCH  13  14
ATOM     14  C   UNL     1      -3.543   6.956 -17.370  1.00  0.00    -0.000 C 
BRANCH  14  15
ATOM     15  C   UNL     1      -2.570   5.852 -16.921  1.00  0.00    -0.000 C 
BRANCH  15  16
ATOM     16  C   UNL     1      -1.136   6.096 -17.436  1.00  0.00    -0.000 C 
BRANCH  16  17
ATOM     17  C   UNL     1      -0.627   4.996 -18.383  1.00  0.00    -0.003 C 
ATOM     18  C   UNL     1      -1.434   3.702 -18.287  1.00  0.00     0.004 C 
ENDBRANCH  16  17
ENDBRANCH  15  16
ENDBRANCH  14  15
ENDBRANCH  13  14
ENDBRANCH  12  13
ENDBRANCH  11  12
ENDBRANCH   1  11
TORSDOF 14
ENDMDL
MODEL 5
REMARK VINA RESULT:    -5.143      2.461      5.272
REMARK INTER + INTRA:         -11.477
REMARK INTER:                  -9.387
REMARK INTRA:                  -2.091
REMARK UNBOUND:                -2.125
REMARK SMILES CCCCCCCCCCCCCCCC(=O)[O-]
REMARK SMILES IDX 9 1 10 2 11 3 12 4 13 5 14 6 15 7 16 8 17 9 18 10 8 11 7 12
REMARK SMILES IDX 6 13 5 14 4 15 3 16 2 17 1 18
REMARK H PARENT
REMARK Flexibility Score: inf
ROOT
ATOM      1  C   UNL     1      -0.497   4.666 -18.731  1.00  0.00     0.000 C 
ENDROOT
BRANCH   1   2
ATOM      2  C   UNL     1      -0.489   5.624 -17.526  1.00  0.00     0.000 C 
BRANCH   2   3
ATOM      3  C   UNL     1      -0.748   7.085 -17.928  1.00  0.00     0.000 C 
BRANCH   3   4
ATOM      4  C   UNL     1      -2.177   7.547 -17.589  1.00  0.00     0.000 C 
BRANCH   4   5
ATOM      5  C   UNL     1      -2.885   6.601 -16.606  1.00  0.00     0.000 C 
BRANCH   5   6
ATOM      6  C   UNL     1      -4.254   6.122 -17.122  1.00  0.00     0.006 C 
BRANCH   6   7
ATOM      7  C   UNL     1      -5.075   7.267 -17.730  1.00  0.00     0.053 C 
BRANCH   7   8
ATOM      8  C   UNL     1      -6.544   6.980 -17.690  1.00  0.00     0.041 C 
ATOM      9  O   UNL     1      -6.959   5.791 -17.712  1.00  0.00    -0.550 OA
ATOM     10  O   UNL     1      -7.457   8.027 -17.667  1.00  0.00    -0.550 OA
ENDBRANCH   7   8
ENDBRANCH   6   7
ENDBRANCH   5   6
ENDBRANCH   4   5
ENDBRANCH   3   4
ENDBRANCH   2   3
ENDBRANCH   1   2
BRANCH   1  11
ATOM     11  C   UNL     1      -1.759   3.776 -18.759  1.00  0.00     0.000 C 
BRANCH  11  12
ATOM     12  C   UNL     1      -2.742   4.139 -19.884  1.00  0.00    -0.000 C 
BRANCH  12  13
ATOM     13  C   UNL     1      -2.342   5.419 -20.635  1.00  0.00    -0.000 C 
BRANCH  13  14
ATOM     14  C   UNL     1      -3.558   6.265 -21.047  1.00  0.00    -0.000 C 
BRANCH  14  15
ATOM     15  C   UNL     1      -3.973   6.031 -22.510  1.00  0.00    -0.000 C 
BRANCH  15  16
ATOM     16  C   UNL     1      -5.255   6.805 -22.882  1.00  0.00    -0.000 C 
BRANCH  16  17
ATOM     17  C   UNL     1      -5.805   7.672 -21.737  1.00  0.00    -0.003 C 
ATOM     18  C   UNL     1      -7.189   7.231 -21.264  1.00  0.00     0.004 C 
ENDBRANCH  16  17
ENDBRANCH  15  16
ENDBRANCH  14  15
ENDBRANCH  13  14
ENDBRANCH  12  13
ENDBRANCH  11  12
ENDBRANCH   1  11
TORSDOF 14
ENDMDL
MODEL 6
REMARK VINA RESULT:    -5.127      2.847      6.172
REMARK INTER + INTRA:         -11.448
REMARK INTER:                  -9.392
REMARK INTRA:                  -2.055
REMARK UNBOUND:                -2.125
REMARK SMILES CCCCCCCCCCCCCCCC(=O)[O-]
REMARK SMILES IDX 9 1 10 2 11 3 12 4 13 5 14 6 15 7 16 8 17 9 18 10 8 11 7 12
REMARK SMILES IDX 6 13 5 14 4 15 3 16 2 17 1 18
REMARK H PARENT
REMARK Flexibility Score: inf
ROOT
ATOM      1  C   UNL     1      -3.412   5.701 -21.960  1.00  0.00     0.000 C 
ENDROOT
BRANCH   1   2
ATOM      2  C   UNL     1      -3.112   5.656 -20.451  1.00  0.00     0.000 C 
BRANCH   2   3
ATOM      3  C   UNL     1      -2.713   4.253 -19.967  1.00  0.00     0.000 C 
BRANCH   3   4
ATOM      4  C   UNL     1      -1.344   4.238 -19.263  1.00  0.00     0.000 C 
BRANCH   4   5
ATOM      5  C   UNL     1      -0.756   5.646 -19.086  1.00  0.00     0.000 C 
BRANCH   5   6
ATOM      6  C   UNL     1      -0.821   6.138 -17.628  1.00  0.00     0.006 C 
BRANCH   6   7
ATOM      7  C   UNL     1      -1.890   7.221 -17.430  1.00  0.00     0.053 C 
BRANCH   7   8
ATOM      8  C   UNL     1      -3.007   6.745 -16.553  1.00  0.00     0.041 C 
ATOM      9  O   UNL     1      -3.447   5.571 -16.667  1.00  0.00    -0.550 OA
ATOM     10  O   UNL     1      -3.588   7.612 -15.636  1.00  0.00    -0.550 OA
ENDBRANCH   7   8
ENDBRANCH   6   7
ENDBRANCH   5   6
ENDBRANCH   4   5
ENDBRANCH   3   4
ENDBRANCH   2   3
ENDBRANCH   1   2
BRANCH   1  11
ATOM     11  C   UNL     1      -4.129   7.005 -22.372  1.00  0.00     0.000 C 
BRANCH  11  12
ATOM     12  C   UNL     1      -5.361   6.774 -23.262  1.00  0.00    -0.000 C 
BRANCH  12  13
ATOM     13  C   UNL     1      -6.679   6.779 -22.470  1.00  0.00    -0.000 C 
BRANCH  13  14
ATOM     14  C   UNL     1      -6.676   7.808 -21.328  1.00  0.00    -0.000 C 
BRANCH  14  15
ATOM     15  C   UNL     1      -7.166   7.216 -19.996  1.00  0.00    -0.000 C 
BRANCH  15  16
ATOM     16  C   UNL     1      -6.079   7.263 -18.902  1.00  0.00    -0.000 C 
BRANCH  16  17
ATOM     17  C   UNL     1      -5.101   8.440 -19.057  1.00  0.00    -0.003 C 
ATOM     18  C   UNL     1      -5.429   9.616 -18.138  1.00  0.00     0.004 C 
ENDBRANCH  16  17
ENDBRANCH  15  16
ENDBRANCH  14  15
ENDBRANCH  13  14
ENDBRANCH  12  13
ENDBRANCH  11  12
ENDBRANCH   1  11
TORSDOF 14
ENDMDL
MODEL 7
REMARK VINA RESULT:    -5.126      2.910      5.520
REMARK INTER + INTRA:         -11.446
REMARK INTER:                  -9.138
REMARK INTRA:                  -2.308
REMARK UNBOUND:                -2.125
REMARK SMILES CCCCCCCCCCCCCCCC(=O)[O-]
REMARK SMILES IDX 9 1 10 2 11 3 12 4 13 5 14 6 15 7 16 8 17 9 18 10 8 11 7 12
REMARK SMILES IDX 6 13 5 14 4 15 3 16 2 17 1 18
REMARK H PARENT
REMARK Flexibility Score: inf
ROOT
ATOM      1  C   UNL     1      -6.710   7.844 -21.543  1.00  0.00     0.000 C 
ENDROOT
BRANCH   1   2
ATOM      2  C   UNL     1      -5.978   6.852 -22.465  1.00  0.00     0.000 C 
BRANCH   2   3
ATOM      3  C   UNL     1      -4.449   6.952 -22.349  1.00  0.00     0.000 C 
BRANCH   3   4
ATOM      4  C   UNL     1      -3.788   5.595 -22.052  1.00  0.00     0.000 C 
BRANCH   4   5
ATOM      5  C   UNL     1      -2.730   5.684 -20.941  1.00  0.00     0.000 C 
BRANCH   5   6
ATOM      6  C   UNL     1      -2.749   4.463 -20.003  1.00  0.00     0.006 C 
BRANCH   6   7
ATOM      7  C   UNL     1      -1.382   4.213 -19.352  1.00  0.00     0.053 C 
BRANCH   7   8
ATOM      8  C   UNL     1      -1.014   5.302 -18.392  1.00  0.00     0.041 C 
ATOM      9  O   UNL     1      -1.585   5.379 -17.273  1.00  0.00    -0.550 OA
ATOM     10  O   UNL     1      -0.069   6.254 -18.751  1.00  0.00    -0.550 OA
ENDBRANCH   7   8
ENDBRANCH   6   7
ENDBRANCH   5   6
ENDBRANCH   4   5
ENDBRANCH   3   4
ENDBRANCH   2   3
ENDBRANCH   1   2
BRANCH   1  11
ATOM     11  C   UNL     1      -7.405   7.136 -20.361  1.00  0.00     0.000 C 
BRANCH  11  12
ATOM     12  C   UNL     1      -7.700   8.068 -19.173  1.00  0.00    -0.000 C 
BRANCH  12  13
ATOM     13  C   UNL     1      -7.200   7.504 -17.833  1.00  0.00    -0.000 C 
BRANCH  13  14
ATOM     14  C   UNL     1      -6.511   6.139 -17.990  1.00  0.00    -0.000 C 
BRANCH  14  15
ATOM     15  C   UNL     1      -5.029   6.174 -17.581  1.00  0.00    -0.000 C 
BRANCH  15  16
ATOM     16  C   UNL     1      -4.492   7.617 -17.462  1.00  0.00    -0.000 C 
BRANCH  16  17
ATOM     17  C   UNL     1      -3.626   8.052 -18.655  1.00  0.00    -0.003 C 
ATOM     18  C   UNL     1      -4.144   9.314 -19.343  1.00  0.00     0.004 C 
ENDBRANCH  16  17
ENDBRANCH  15  16
ENDBRANCH  14  15
ENDBRANCH  13  14
ENDBRANCH  12  13
ENDBRANCH  11  12
ENDBRANCH   1  11
TORSDOF 14
ENDMDL
MODEL 8
REMARK VINA RESULT:    -5.102      2.620      3.744
REMARK INTER + INTRA:         -11.403
REMARK INTER:                  -9.591
REMARK INTRA:                  -1.812
REMARK UNBOUND:                -2.125
REMARK SMILES CCCCCCCCCCCCCCCC(=O)[O-]
REMARK SMILES IDX 9 1 10 2 11 3 12 4 13 5 14 6 15 7 16 8 17 9 18 10 8 11 7 12
REMARK SMILES IDX 6 13 5 14 4 15 3 16 2 17 1 18
REMARK H PARENT
REMARK Flexibility Score: inf
ROOT
ATOM      1  C   UNL     1      -4.392   7.126 -22.307  1.00  0.00     0.000 C 
ENDROOT
BRANCH   1   2
ATOM      2  C   UNL     1      -5.630   6.789 -23.158  1.00  0.00     0.000 C 
BRANCH   2   3
ATOM      3  C   UNL     1      -6.937   6.839 -22.350  1.00  0.00     0.000 C 
BRANCH   3   4
ATOM      4  C   UNL     1      -6.832   7.746 -21.111  1.00  0.00     0.000 C 
BRANCH   4   5
ATOM      5  C   UNL     1      -7.419   7.092 -19.850  1.00  0.00     0.000 C 
BRANCH   5   6
ATOM      6  C   UNL     1      -6.485   7.206 -18.631  1.00  0.00     0.006 C 
BRANCH   6   7
ATOM      7  C   UNL     1      -5.286   8.124 -18.906  1.00  0.00     0.053 C 
BRANCH   7   8
ATOM      8  C   UNL     1      -5.117   9.154 -17.832  1.00  0.00     0.041 C 
ATOM      9  O   UNL     1      -6.125   9.645 -17.260  1.00  0.00    -0.550 OA
ATOM     10  O   UNL     1      -3.846   9.601 -17.491  1.00  0.00    -0.550 OA
ENDBRANCH   7   8
ENDBRANCH   6   7
ENDBRANCH   5   6
ENDBRANCH   4   5
ENDBRANCH   3   4
ENDBRANCH   2   3
ENDBRANCH   1   2
BRANCH   1  11
ATOM     11  C   UNL     1      -3.477   5.900 -22.100  1.00  0.00     0.000 C 
BRANCH  11  12
ATOM     12  C   UNL     1      -2.830   5.844 -20.706  1.00  0.00    -0.000 C 
BRANCH  12  13
ATOM     13  C   UNL     1      -2.706   4.412 -20.162  1.00  0.00    -0.000 C 
BRANCH  13  14
ATOM     14  C   UNL     1      -1.303   4.110 -19.610  1.00  0.00    -0.000 C 
BRANCH  14  15
ATOM     15  C   UNL     1      -1.200   4.350 -18.094  1.00  0.00    -0.000 C 
BRANCH  15  16
ATOM     16  C   UNL     1      -0.712   5.776 -17.762  1.00  0.00    -0.000 C 
BRANCH  16  17
ATOM     17  C   UNL     1      -1.829   6.710 -17.269  1.00  0.00    -0.003 C 
ATOM     18  C   UNL     1      -3.024   5.959 -16.686  1.00  0.00     0.004 C 
ENDBRANCH  16  17
ENDBRANCH  15  16
ENDBRANCH  14  15
ENDBRANCH  13  14
ENDBRANCH  12  13
ENDBRANCH  11  12
ENDBRANCH   1  11
TORSDOF 14
ENDMDL
MODEL 9
REMARK VINA RESULT:    -5.050      2.989      6.137
REMARK INTER + INTRA:         -11.308
REMARK INTER:                  -9.391
REMARK INTRA:                  -1.917
REMARK UNBOUND:                -2.125
REMARK SMILES CCCCCCCCCCCCCCCC(=O)[O-]
REMARK SMILES IDX 9 1 10 2 11 3 12 4 13 5 14 6 15 7 16 8 17 9 18 10 8 11 7 12
REMARK SMILES IDX 6 13 5 14 4 15 3 16 2 17 1 18
REMARK H PARENT
REMARK Flexibility Score: inf
ROOT
ATOM      1  C   UNL     1      -4.325   7.171 -22.360  1.00  0.00     0.000 C 
ENDROOT
BRANCH   1   2
ATOM      2  C   UNL     1      -3.336   6.005 -22.180  1.00  0.00     0.000 C 
BRANCH   2   3
ATOM      3  C   UNL     1      -3.141   5.614 -20.706  1.00  0.00     0.000 C 
BRANCH   3   4
ATOM      4  C   UNL     1      -4.033   6.433 -19.755  1.00  0.00     0.000 C 
BRANCH   4   5
ATOM      5  C   UNL     1      -4.298   5.709 -18.426  1.00  0.00     0.000 C 
BRANCH   5   6
ATOM      6  C   UNL     1      -3.652   6.420 -17.222  1.00  0.00     0.006 C 
BRANCH   6   7
ATOM      7  C   UNL     1      -2.501   5.605 -16.618  1.00  0.00     0.053 C 
BRANCH   7   8
ATOM      8  C   UNL     1      -1.273   5.656 -17.475  1.00  0.00     0.041 C 
ATOM      9  O   UNL     1      -0.869   6.755 -17.938  1.00  0.00    -0.550 OA
ATOM     10  O   UNL     1      -0.598   4.485 -17.794  1.00  0.00    -0.550 OA
ENDBRANCH   7   8
ENDBRANCH   6   7
ENDBRANCH   5   6
ENDBRANCH   4   5
ENDBRANCH   3   4
ENDBRANCH   2   3
ENDBRANCH   1   2
BRANCH   1  11
ATOM     11  C   UNL     1      -5.558   6.764 -23.196  1.00  0.00     0.000 C 
BRANCH  11  12
ATOM     12  C   UNL     1      -6.884   6.862 -22.423  1.00  0.00    -0.000 C 
BRANCH  12  13
ATOM     13  C   UNL     1      -6.889   7.999 -21.388  1.00  0.00    -0.000 C 
BRANCH  13  14
ATOM     14  C   UNL     1      -8.027   7.859 -20.365  1.00  0.00    -0.000 C 
BRANCH  14  15
ATOM     15  C   UNL     1      -7.514   7.536 -18.951  1.00  0.00    -0.000 C 
BRANCH  15  16
ATOM     16  C   UNL     1      -6.627   8.663 -18.382  1.00  0.00    -0.000 C 
BRANCH  16  17
ATOM     17  C   UNL     1      -6.610   8.717 -16.845  1.00  0.00    -0.003 C 
ATOM     18  C   UNL     1      -7.668   7.822 -16.203  1.00  0.00     0.004 C 
ENDBRANCH  16  17
ENDBRANCH  15  16
ENDBRANCH  14  15
ENDBRANCH  13  14
ENDBRANCH  12  13
ENDBRANCH  11  12
ENDBRANCH   1  11
TORSDOF 14
ENDMDL
