MODEL 1
REMARK VINA RESULT:    -1.270      0.000      0.000
REMARK INTER + INTRA:          -1.382
REMARK INTER:                  -1.382
REMARK INTRA:                   0.000
REMARK UNBOUND:                 0.000
REMARK SMILES [NH3+]CC(=O)[O-]
REMARK SMILES IDX 2 1 1 2 3 6 4 7 5 8
REMARK H PARENT 1 3 1 4 1 5
REMARK Flexibility Score: inf
ROOT
ATOM      1  C   UNL     1      -1.430  -2.891 -11.046  1.00  0.00     0.312 C 
ENDROOT
BRANCH   1   2
ATOM      2  N   UNL     1      -1.383  -2.932  -9.585  1.00  0.00    -0.353 N 
ATOM      3  H   UNL     1      -1.661  -2.005  -9.191  1.00  0.00     0.344 HD
ATOM      4  H   UNL     1      -0.407  -3.152  -9.281  1.00  0.00     0.344 HD
ATOM      5  H   UNL     1      -2.025  -3.676  -9.227  1.00  0.00     0.344 HD
ENDBRANCH   1   2
BRANCH   1   6
ATOM      6  C   UNL     1      -1.916  -4.196 -11.596  1.00  0.00     0.096 C 
ATOM      7  O   UNL     1      -2.572  -4.986 -10.867  1.00  0.00    -0.544 OA
ATOM      8  O   UNL     1      -1.688  -4.517 -12.928  1.00  0.00    -0.544 OA
ENDBRANCH   1   6
TORSDOF 2
ENDMDL
MODEL 2
REMARK VINA RESULT:    -1.113     10.430     10.664
REMARK INTER + INTRA:          -1.211
REMARK INTER:                  -1.211
REMARK INTRA:                   0.000
REMARK UNBOUND:                 0.000
REMARK SMILES [NH3+]CC(=O)[O-]
REMARK SMILES IDX 2 1 1 2 3 6 4 7 5 8
REMARK H PARENT 1 3 1 4 1 5
REMARK Flexibility Score: inf
ROOT
ATOM      1  C   UNL     1      -3.472   4.067 -18.021  1.00  0.00     0.312 C 
ENDROOT
BRANCH   1   2
ATOM      2  N   UNL     1      -2.590   5.220 -17.845  1.00  0.00    -0.353 N 
ATOM      3  H   UNL     1      -2.655   5.852 -18.675  1.00  0.00     0.344 HD
ATOM      4  H   UNL     1      -1.604   4.885 -17.751  1.00  0.00     0.344 HD
ATOM      5  H   UNL     1      -2.853   5.744 -16.979  1.00  0.00     0.344 HD
ENDBRANCH   1   2
BRANCH   1   6
ATOM      6  C   UNL     1      -4.602   4.112 -17.040  1.00  0.00     0.096 C 
ATOM      7  O   UNL     1      -5.781   3.890 -17.422  1.00  0.00    -0.544 OA
ATOM      8  O   UNL     1      -4.345   4.347 -15.695  1.00  0.00    -0.544 OA
ENDBRANCH   1   6
TORSDOF 2
ENDMDL
MODEL 3
REMARK VINA RESULT:    -0.886      6.890      7.179
REMARK INTER + INTRA:          -0.964
REMARK INTER:                  -0.964
REMARK INTRA:                   0.000
REMARK UNBOUND:                 0.000
REMARK SMILES [NH3+]CC(=O)[O-]
REMARK SMILES IDX 2 1 1 2 3 6 4 7 5 8
REMARK H PARENT 1 3 1 4 1 5
REMARK Flexibility Score: inf
ROOT
ATOM      1  C   UNL     1       1.643  -0.127  -8.417  1.00  0.00     0.312 C 
ENDROOT
BRANCH   1   2
ATOM      2  N   UNL     1       2.762   0.446  -9.164  1.00  0.00    -0.353 N 
ATOM      3  H   UNL     1       3.622   0.457  -8.569  1.00  0.00     0.344 HD
ATOM      4  H   UNL     1       2.526   1.428  -9.434  1.00  0.00     0.344 HD
ATOM      5  H   UNL     1       2.938  -0.111 -10.031  1.00  0.00     0.344 HD
ENDBRANCH   1   2
BRANCH   1   6
ATOM      6  C   UNL     1       1.710   0.272  -6.976  1.00  0.00     0.096 C 
ATOM      7  O   UNL     1       0.823   1.018  -6.483  1.00  0.00    -0.544 OA
ATOM      8  O   UNL     1       2.724  -0.222  -6.165  1.00  0.00    -0.544 OA
ENDBRANCH   1   6
TORSDOF 2
ENDMDL
MODEL 4
REMARK VINA RESULT:    -0.881      6.013      6.328
REMARK INTER + INTRA:          -0.958
REMARK INTER:                  -0.958
REMARK INTRA:                   0.000
REMARK UNBOUND:                 0.000
REMARK SMILES [NH3+]CC(=O)[O-]
REMARK SMILES IDX 2 1 1 2 3 6 4 7 5 8
REMARK H PARENT 1 3 1 4 1 5
REMARK Flexibility Score: inf
ROOT
ATOM      1  C   UNL     1       1.617   0.106  -7.177  1.00  0.00     0.312 C 
ENDROOT
BRANCH   1   2
ATOM      2  N   UNL     1       2.827  -0.271  -6.446  1.00  0.00    -0.353 N 
ATOM      3  H   UNL     1       3.403  -0.927  -7.021  1.00  0.00     0.344 HD
ATOM      4  H   UNL     1       2.554  -0.750  -5.558  1.00  0.00     0.344 HD
ATOM      5  H   UNL     1       3.385   0.581  -6.213  1.00  0.00     0.344 HD
ENDBRANCH   1   2
BRANCH   1   6
ATOM      6  C   UNL     1       1.801  -0.105  -8.647  1.00  0.00     0.096 C 
ATOM      7  O   UNL     1       2.738   0.474  -9.258  1.00  0.00    -0.544 OA
ATOM      8  O   UNL     1       0.969  -0.981  -9.333  1.00  0.00    -0.544 OA
ENDBRANCH   1   6
TORSDOF 2
ENDMDL
MODEL 5
REMARK VINA RESULT:    -0.414     11.397     11.827
REMARK INTER + INTRA:          -0.451
REMARK INTER:                  -0.451
REMARK INTRA:                   0.000
REMARK UNBOUND:                 0.000
REMARK SMILES [NH3+]CC(=O)[O-]
REMARK SMILES IDX 2 1 1 2 3 6 4 7 5 8
REMARK H PARENT 1 3 1 4 1 5
REMARK Flexibility Score: inf
ROOT
ATOM      1  C   UNL     1      -2.309   4.615  -4.689  1.00  0.00     0.312 C 
ENDROOT
BRANCH   1   2
ATOM      2  N   UNL     1      -1.315   3.799  -5.387  1.00  0.00    -0.353 N 
ATOM      3  H   UNL     1      -0.849   3.148  -4.714  1.00  0.00     0.344 HD
ATOM      4  H   UNL     1      -0.592   4.427  -5.807  1.00  0.00     0.344 HD
ATOM      5  H   UNL     1      -1.773   3.252  -6.151  1.00  0.00     0.344 HD
ENDBRANCH   1   2
BRANCH   1   6
ATOM      6  C   UNL     1      -1.646   5.528  -3.706  1.00  0.00     0.096 C 
ATOM      7  O   UNL     1      -0.909   5.056  -2.800  1.00  0.00    -0.544 OA
ATOM      8  O   UNL     1      -1.803   6.904  -3.820  1.00  0.00    -0.544 OA
ENDBRANCH   1   6
TORSDOF 2
ENDMDL
MODEL 6
REMARK VINA RESULT:    -0.346      6.820      7.112
REMARK INTER + INTRA:          -0.377
REMARK INTER:                  -0.377
REMARK INTRA:                   0.000
REMARK UNBOUND:                 0.000
REMARK SMILES [NH3+]CC(=O)[O-]
REMARK SMILES IDX 2 1 1 2 3 6 4 7 5 8
REMARK H PARENT 1 3 1 4 1 5
REMARK Flexibility Score: inf
ROOT
ATOM      1  C   UNL     1       2.857  -0.284  -6.398  1.00  0.00     0.312 C 
ENDROOT
BRANCH   1   2
ATOM      2  N   UNL     1       4.100  -0.072  -7.138  1.00  0.00    -0.353 N 
ATOM      3  H   UNL     1       3.910   0.475  -8.008  1.00  0.00     0.344 HD
ATOM      4  H   UNL     1       4.502  -1.001  -7.403  1.00  0.00     0.344 HD
ATOM      5  H   UNL     1       4.790   0.438  -6.541  1.00  0.00     0.344 HD
ENDBRANCH   1   2
BRANCH   1   6
ATOM      6  C   UNL     1       1.676   0.138  -7.216  1.00  0.00     0.096 C 
ATOM      7  O   UNL     1       0.777   0.857  -6.706  1.00  0.00    -0.544 OA
ATOM      8  O   UNL     1       1.596  -0.220  -8.556  1.00  0.00    -0.544 OA
ENDBRANCH   1   6
TORSDOF 2
ENDMDL
MODEL 7
REMARK VINA RESULT:    -0.260      2.263      2.727
REMARK INTER + INTRA:          -0.283
REMARK INTER:                  -0.283
REMARK INTRA:                   0.000
REMARK UNBOUND:                 0.000
REMARK SMILES [NH3+]CC(=O)[O-]
REMARK SMILES IDX 2 1 1 2 3 6 4 7 5 8
REMARK H PARENT 1 3 1 4 1 5
REMARK Flexibility Score: inf
ROOT
ATOM      1  C   UNL     1      -2.300  -5.470 -10.963  1.00  0.00     0.312 C 
ENDROOT
BRANCH   1   2
ATOM      2  N   UNL     1      -1.794  -6.594 -11.751  1.00  0.00    -0.353 N 
ATOM      3  H   UNL     1      -2.556  -7.292 -11.909  1.00  0.00     0.344 HD
ATOM      4  H   UNL     1      -1.015  -7.055 -11.229  1.00  0.00     0.344 HD
ATOM      5  H   UNL     1      -1.431  -6.252 -12.670  1.00  0.00     0.344 HD
ENDBRANCH   1   2
BRANCH   1   6
ATOM      6  C   UNL     1      -1.950  -4.168 -11.615  1.00  0.00     0.096 C 
ATOM      7  O   UNL     1      -2.101  -4.021 -12.856  1.00  0.00    -0.544 OA
ATOM      8  O   UNL     1      -1.505  -3.102 -10.843  1.00  0.00    -0.544 OA
ENDBRANCH   1   6
TORSDOF 2
ENDMDL
MODEL 8
REMARK VINA RESULT:    -0.151      2.301      2.476
REMARK INTER + INTRA:          -0.164
REMARK INTER:                  -0.164
REMARK INTRA:                   0.000
REMARK UNBOUND:                 0.000
REMARK SMILES [NH3+]CC(=O)[O-]
REMARK SMILES IDX 2 1 1 2 3 6 4 7 5 8
REMARK H PARENT 1 3 1 4 1 5
REMARK Flexibility Score: inf
ROOT
ATOM      1  C   UNL     1      -1.917  -4.035 -12.452  1.00  0.00     0.312 C 
ENDROOT
BRANCH   1   2
ATOM      2  N   UNL     1      -1.646  -5.451 -12.694  1.00  0.00    -0.353 N 
ATOM      3  H   UNL     1      -0.669  -5.575 -13.045  1.00  0.00     0.344 HD
ATOM      4  H   UNL     1      -2.313  -5.808 -13.416  1.00  0.00     0.344 HD
ATOM      5  H   UNL     1      -1.778  -5.997 -11.812  1.00  0.00     0.344 HD
ENDBRANCH   1   2
BRANCH   1   6
ATOM      6  C   UNL     1      -1.832  -3.724 -10.990  1.00  0.00     0.096 C 
ATOM      7  O   UNL     1      -2.303  -4.528 -10.143  1.00  0.00    -0.544 OA
ATOM      8  O   UNL     1      -1.188  -2.570 -10.561  1.00  0.00    -0.544 OA
ENDBRANCH   1   6
TORSDOF 2
ENDMDL
MODEL 9
REMARK VINA RESULT:     0.198     10.190     10.601
REMARK INTER + INTRA:           0.215
REMARK INTER:                   0.215
REMARK INTRA:                   0.000
REMARK UNBOUND:                 0.000
REMARK SMILES [NH3+]CC(=O)[O-]
REMARK SMILES IDX 2 1 1 2 3 6 4 7 5 8
REMARK H PARENT 1 3 1 4 1 5
REMARK Flexibility Score: inf
ROOT
ATOM      1  C   UNL     1      -4.820   4.658 -17.092  1.00  0.00     0.312 C 
ENDROOT
BRANCH   1   2
ATOM      2  N   UNL     1      -5.181   3.591 -16.159  1.00  0.00    -0.353 N 
ATOM      3  H   UNL     1      -5.873   3.944 -15.460  1.00  0.00     0.344 HD
ATOM      4  H   UNL     1      -4.322   3.273 -15.655  1.00  0.00     0.344 HD
ATOM      5  H   UNL     1      -5.587   2.780 -16.681  1.00  0.00     0.344 HD
ENDBRANCH   1   2
BRANCH   1   6
ATOM      6  C   UNL     1      -3.559   4.316 -17.823  1.00  0.00     0.096 C 
ATOM      7  O   UNL     1      -2.738   5.222 -18.125  1.00  0.00    -0.544 OA
ATOM      8  O   UNL     1      -3.268   2.992 -18.125  1.00  0.00    -0.544 OA
ENDBRANCH   1   6
TORSDOF 2
ENDMDL
