MODEL 1
REMARK VINA RESULT:    -5.216      0.000      0.000
REMARK INTER + INTRA:         -11.331
REMARK INTER:                  -9.485
REMARK INTRA:                  -1.846
REMARK UNBOUND:                -1.846
REMARK SMILES CCCCCCCCCCCCCCCC(=O)[O-]
REMARK SMILES IDX 9 1 10 2 11 3 12 4 13 5 14 6 15 7 16 8 17 9 18 10 8 11 7 12
REMARK SMILES IDX 6 13 5 14 4 15 3 16 2 17 1 18
REMARK H PARENT
REMARK Flexibility Score: inf
ROOT
ATOM      1  C   UNL     1      20.074  20.893   5.528  1.00  0.00     0.000 C 
ENDROOT
BRANCH   1   2
ATOM      2  C   UNL     1      21.451  21.417   5.975  1.00  0.00     0.000 C 
BRANCH   2   3
ATOM      3  C   UNL     1      21.351  22.560   7.000  1.00  0.00     0.000 C 
BRANCH   3   4
ATOM      4  C   UNL     1      21.567  22.085   8.447  1.00  0.00     0.000 C 
BRANCH   4   5
ATOM      5  C   UNL     1      21.279  23.142   9.532  1.00  0.00     0.000 C 
BRANCH   5   6
ATOM      6  C   UNL     1      20.064  22.806  10.422  1.00  0.00     0.006 C 
BRANCH   6   7
ATOM      7  C   UNL     1      19.218  21.664   9.844  1.00  0.00     0.053 C 
BRANCH   7   8
ATOM      8  C   UNL     1      18.033  21.397  10.716  1.00  0.00     0.041 C 
ATOM      9  O   UNL     1      17.770  22.165  11.679  1.00  0.00    -0.550 OA
ATOM     10  O   UNL     1      17.189  20.329  10.437  1.00  0.00    -0.550 OA
ENDBRANCH   7   8
ENDBRANCH   6   7
ENDBRANCH   5   6
ENDBRANCH   4   5
ENDBRANCH   3   4
ENDBRANCH   2   3
ENDBRANCH   1   2
BRANCH   1  11
ATOM     11  C   UNL     1      19.061  21.978   5.122  1.00  0.00     0.000 C 
BRANCH  11  12
ATOM     12  C   UNL     1      17.832  22.026   6.043  1.00  0.00    -0.000 C 
BRANCH  12  13
ATOM     13  C   UNL     1      17.247  23.445   6.101  1.00  0.00    -0.000 C 
BRANCH  13  14
ATOM     14  C   UNL     1      17.039  23.940   7.542  1.00  0.00    -0.000 C 
BRANCH  14  15
ATOM     15  C   UNL     1      18.180  24.848   8.027  1.00  0.00    -0.000 C 
BRANCH  15  16
ATOM     16  C   UNL     1      17.920  25.335   9.460  1.00  0.00    -0.000 C 
BRANCH  16  17
ATOM     17  C   UNL     1      18.895  26.440   9.895  1.00  0.00    -0.003 C 
ATOM     18  C   UNL     1      19.245  27.401   8.759  1.00  0.00     0.004 C 
ENDBRANCH  16  17
ENDBRANCH  15  16
ENDBRANCH  14  15
ENDBRANCH  13  14
ENDBRANCH  12  13
ENDBRANCH  11  12
ENDBRANCH   1  11
TORSDOF 14
ENDMDL
MODEL 2
REMARK VINA RESULT:    -5.210      2.534      5.978
REMARK INTER + INTRA:         -11.320
REMARK INTER:                  -9.415
REMARK INTRA:                  -1.905
REMARK UNBOUND:                -1.846
REMARK SMILES CCCCCCCCCCCCCCCC(=O)[O-]
REMARK SMILES IDX 9 1 10 2 11 3 12 4 13 5 14 6 15 7 16 8 17 9 18 10 8 11 7 12
REMARK SMILES IDX 6 13 5 14 4 15 3 16 2 17 1 18
REMARK H PARENT
REMARK Flexibility Score: inf
ROOT
ATOM      1  C   UNL     1      19.385  22.440  10.679  1.00  0.00     0.000 C 
ENDROOT
BRANCH   1   2
ATOM      2  C   UNL     1      18.790  21.458   9.655  1.00  0.00     0.000 C 
BRANCH   2   3
ATOM      3  C   UNL     1      17.510  21.991   8.989  1.00  0.00     0.000 C 
BRANCH   3   4
ATOM      4  C   UNL     1      17.756  22.529   7.568  1.00  0.00     0.000 C 
BRANCH   4   5
ATOM      5  C   UNL     1      17.027  23.846   7.232  1.00  0.00     0.000 C 
BRANCH   5   6
ATOM      6  C   UNL     1      17.095  24.900   8.358  1.00  0.00     0.006 C 
BRANCH   6   7
ATOM      7  C   UNL     1      18.467  25.583   8.433  1.00  0.00     0.053 C 
BRANCH   7   8
ATOM      8  C   UNL     1      18.330  26.976   8.958  1.00  0.00     0.041 C 
ATOM      9  O   UNL     1      19.356  27.660   9.214  1.00  0.00    -0.550 OA
ATOM     10  O   UNL     1      17.071  27.538   9.121  1.00  0.00    -0.550 OA
ENDBRANCH   7   8
ENDBRANCH   6   7
ENDBRANCH   5   6
ENDBRANCH   4   5
ENDBRANCH   3   4
ENDBRANCH   2   3
ENDBRANCH   1   2
BRANCH   1  11
ATOM     11  C   UNL     1      20.617  23.226  10.193  1.00  0.00     0.000 C 
BRANCH  11  12
ATOM     12  C   UNL     1      21.415  22.481   9.112  1.00  0.00    -0.000 C 
BRANCH  12  13
ATOM     13  C   UNL     1      21.291  23.190   7.755  1.00  0.00    -0.000 C 
BRANCH  13  14
ATOM     14  C   UNL     1      21.372  22.214   6.569  1.00  0.00    -0.000 C 
BRANCH  14  15
ATOM     15  C   UNL     1      21.224  20.747   6.998  1.00  0.00    -0.000 C 
BRANCH  15  16
ATOM     16  C   UNL     1      21.991  19.818   6.044  1.00  0.00    -0.000 C 
BRANCH  16  17
ATOM     17  C   UNL     1      23.424  19.536   6.519  1.00  0.00    -0.003 C 
ATOM     18  C   UNL     1      24.112  18.440   5.706  1.00  0.00     0.004 C 
ENDBRANCH  16  17
ENDBRANCH  15  16
ENDBRANCH  14  15
ENDBRANCH  13  14
ENDBRANCH  12  13
ENDBRANCH  11  12
ENDBRANCH   1  11
TORSDOF 14
ENDMDL
MODEL 3
REMARK VINA RESULT:    -5.166      2.878      4.736
REMARK INTER + INTRA:         -11.240
REMARK INTER:                  -9.311
REMARK INTRA:                  -1.929
REMARK UNBOUND:                -1.846
REMARK SMILES CCCCCCCCCCCCCCCC(=O)[O-]
REMARK SMILES IDX 9 1 10 2 11 3 12 4 13 5 14 6 15 7 16 8 17 9 18 10 8 11 7 12
REMARK SMILES IDX 6 13 5 14 4 15 3 16 2 17 1 18
REMARK H PARENT
REMARK Flexibility Score: inf
ROOT
ATOM      1  C   UNL     1      20.822  22.031   8.260  1.00  0.00     0.000 C 
ENDROOT
BRANCH   1   2
ATOM      2  C   UNL     1      20.727  22.774   6.916  1.00  0.00     0.000 C 
BRANCH   2   3
ATOM      3  C   UNL     1      19.523  22.328   6.070  1.00  0.00     0.000 C 
BRANCH   3   4
ATOM      4  C   UNL     1      19.934  21.541   4.814  1.00  0.00     0.000 C 
BRANCH   4   5
ATOM      5  C   UNL     1      21.444  21.257   4.686  1.00  0.00     0.000 C 
BRANCH   5   6
ATOM      6  C   UNL     1      21.791  19.755   4.604  1.00  0.00     0.006 C 
BRANCH   6   7
ATOM      7  C   UNL     1      21.856  19.097   5.989  1.00  0.00     0.053 C 
BRANCH   7   8
ATOM      8  C   UNL     1      23.222  19.251   6.578  1.00  0.00     0.041 C 
ATOM      9  O   UNL     1      24.228  18.801   5.970  1.00  0.00    -0.550 OA
ATOM     10  O   UNL     1      23.390  19.933   7.776  1.00  0.00    -0.550 OA
ENDBRANCH   7   8
ENDBRANCH   6   7
ENDBRANCH   5   6
ENDBRANCH   4   5
ENDBRANCH   3   4
ENDBRANCH   2   3
ENDBRANCH   1   2
BRANCH   1  11
ATOM     11  C   UNL     1      21.486  22.824   9.401  1.00  0.00     0.000 C 
BRANCH  11  12
ATOM     12  C   UNL     1      20.468  23.456  10.363  1.00  0.00    -0.000 C 
BRANCH  12  13
ATOM     13  C   UNL     1      19.131  22.702  10.318  1.00  0.00    -0.000 C 
BRANCH  13  14
ATOM     14  C   UNL     1      17.921  23.646  10.233  1.00  0.00    -0.000 C 
BRANCH  14  15
ATOM     15  C   UNL     1      17.342  23.741   8.814  1.00  0.00    -0.000 C 
BRANCH  15  16
ATOM     16  C   UNL     1      17.824  25.018   8.110  1.00  0.00    -0.000 C 
BRANCH  16  17
ATOM     17  C   UNL     1      17.822  26.242   9.039  1.00  0.00    -0.003 C 
ATOM     18  C   UNL     1      19.046  27.137   8.842  1.00  0.00     0.004 C 
ENDBRANCH  16  17
ENDBRANCH  15  16
ENDBRANCH  14  15
ENDBRANCH  13  14
ENDBRANCH  12  13
ENDBRANCH  11  12
ENDBRANCH   1  11
TORSDOF 14
ENDMDL
MODEL 4
REMARK VINA RESULT:    -5.091      2.481      4.606
REMARK INTER + INTRA:         -11.104
REMARK INTER:                  -9.497
REMARK INTRA:                  -1.607
REMARK UNBOUND:                -1.846
REMARK SMILES CCCCCCCCCCCCCCCC(=O)[O-]
REMARK SMILES IDX 9 1 10 2 11 3 12 4 13 5 14 6 15 7 16 8 17 9 18 10 8 11 7 12
REMARK SMILES IDX 6 13 5 14 4 15 3 16 2 17 1 18
REMARK H PARENT
REMARK Flexibility Score: inf
ROOT
ATOM      1  C   UNL     1      20.440  21.007   5.324  1.00  0.00     0.000 C 
ENDROOT
BRANCH   1   2
ATOM      2  C   UNL     1      19.328  21.895   4.737  1.00  0.00     0.000 C 
BRANCH   2   3
ATOM      3  C   UNL     1      18.116  22.033   5.674  1.00  0.00     0.000 C 
BRANCH   3   4
ATOM      4  C   UNL     1      17.941  23.461   6.218  1.00  0.00     0.000 C 
BRANCH   4   5
ATOM      5  C   UNL     1      17.267  23.556   7.601  1.00  0.00     0.000 C 
BRANCH   5   6
ATOM      6  C   UNL     1      17.190  24.994   8.159  1.00  0.00     0.006 C 
BRANCH   6   7
ATOM      7  C   UNL     1      18.577  25.564   8.486  1.00  0.00     0.053 C 
BRANCH   7   8
ATOM      8  C   UNL     1      18.509  27.051   8.634  1.00  0.00     0.041 C 
ATOM      9  O   UNL     1      19.557  27.714   8.851  1.00  0.00    -0.550 OA
ATOM     10  O   UNL     1      17.296  27.711   8.485  1.00  0.00    -0.550 OA
ENDBRANCH   7   8
ENDBRANCH   6   7
ENDBRANCH   5   6
ENDBRANCH   4   5
ENDBRANCH   3   4
ENDBRANCH   2   3
ENDBRANCH   1   2
BRANCH   1  11
ATOM     11  C   UNL     1      21.518  21.755   6.130  1.00  0.00     0.000 C 
BRANCH  11  12
ATOM     12  C   UNL     1      21.350  21.597   7.649  1.00  0.00    -0.000 C 
BRANCH  12  13
ATOM     13  C   UNL     1      21.256  22.968   8.335  1.00  0.00    -0.000 C 
BRANCH  13  14
ATOM     14  C   UNL     1      21.103  22.856   9.861  1.00  0.00    -0.000 C 
BRANCH  14  15
ATOM     15  C   UNL     1      19.677  23.168  10.338  1.00  0.00    -0.000 C 
BRANCH  15  16
ATOM     16  C   UNL     1      19.019  21.922  10.949  1.00  0.00    -0.000 C 
BRANCH  16  17
ATOM     17  C   UNL     1      17.485  21.968  10.878  1.00  0.00    -0.003 C 
ATOM     18  C   UNL     1      16.875  22.934  11.894  1.00  0.00     0.004 C 
ENDBRANCH  16  17
ENDBRANCH  15  16
ENDBRANCH  14  15
ENDBRANCH  13  14
ENDBRANCH  12  13
ENDBRANCH  11  12
ENDBRANCH   1  11
TORSDOF 14
ENDMDL
MODEL 5
REMARK VINA RESULT:    -4.996      2.469      5.561
REMARK INTER + INTRA:         -10.932
REMARK INTER:                  -8.837
REMARK INTRA:                  -2.094
REMARK UNBOUND:                -1.846
REMARK SMILES CCCCCCCCCCCCCCCC(=O)[O-]
REMARK SMILES IDX 9 1 10 2 11 3 12 4 13 5 14 6 15 7 16 8 17 9 18 10 8 11 7 12
REMARK SMILES IDX 6 13 5 14 4 15 3 16 2 17 1 18
REMARK H PARENT
REMARK Flexibility Score: inf
ROOT
ATOM      1  C   UNL     1      20.519  23.110  10.537  1.00  0.00     0.000 C 
ENDROOT
BRANCH   1   2
ATOM      2  C   UNL     1      19.033  22.711  10.551  1.00  0.00     0.000 C 
BRANCH   2   3
ATOM      3  C   UNL     1      18.542  22.185   9.191  1.00  0.00     0.000 C 
BRANCH   3   4
ATOM      4  C   UNL     1      17.160  22.736   8.801  1.00  0.00     0.000 C 
BRANCH   4   5
ATOM      5  C   UNL     1      17.143  23.629   7.544  1.00  0.00     0.000 C 
BRANCH   5   6
ATOM      6  C   UNL     1      17.804  25.008   7.750  1.00  0.00     0.006 C 
BRANCH   6   7
ATOM      7  C   UNL     1      17.269  25.729   8.995  1.00  0.00     0.053 C 
BRANCH   7   8
ATOM      8  C   UNL     1      17.721  27.154   9.010  1.00  0.00     0.041 C 
ATOM      9  O   UNL     1      16.876  28.087   8.992  1.00  0.00    -0.550 OA
ATOM     10  O   UNL     1      19.075  27.454   9.092  1.00  0.00    -0.550 OA
ENDBRANCH   7   8
ENDBRANCH   6   7
ENDBRANCH   5   6
ENDBRANCH   4   5
ENDBRANCH   3   4
ENDBRANCH   2   3
ENDBRANCH   1   2
BRANCH   1  11
ATOM     11  C   UNL     1      21.158  23.205   9.139  1.00  0.00     0.000 C 
BRANCH  11  12
ATOM     12  C   UNL     1      22.152  22.069   8.855  1.00  0.00    -0.000 C 
BRANCH  12  13
ATOM     13  C   UNL     1      21.764  21.309   7.578  1.00  0.00    -0.000 C 
BRANCH  13  14
ATOM     14  C   UNL     1      21.156  22.227   6.505  1.00  0.00    -0.000 C 
BRANCH  14  15
ATOM     15  C   UNL     1      20.552  21.445   5.329  1.00  0.00    -0.000 C 
BRANCH  15  16
ATOM     16  C   UNL     1      19.139  21.952   5.002  1.00  0.00    -0.000 C 
BRANCH  16  17
ATOM     17  C   UNL     1      18.056  20.897   5.272  1.00  0.00    -0.003 C 
ATOM     18  C   UNL     1      18.485  19.858   6.308  1.00  0.00     0.004 C 
ENDBRANCH  16  17
ENDBRANCH  15  16
ENDBRANCH  14  15
ENDBRANCH  13  14
ENDBRANCH  12  13
ENDBRANCH  11  12
ENDBRANCH   1  11
TORSDOF 14
ENDMDL
MODEL 6
REMARK VINA RESULT:    -4.959      2.748      4.424
REMARK INTER + INTRA:         -10.864
REMARK INTER:                  -8.907
REMARK INTRA:                  -1.957
REMARK UNBOUND:                -1.846
REMARK SMILES CCCCCCCCCCCCCCCC(=O)[O-]
REMARK SMILES IDX 9 1 10 2 11 3 12 4 13 5 14 6 15 7 16 8 17 9 18 10 8 11 7 12
REMARK SMILES IDX 6 13 5 14 4 15 3 16 2 17 1 18
REMARK H PARENT
REMARK Flexibility Score: inf
ROOT
ATOM      1  C   UNL     1      20.574  23.212  10.165  1.00  0.00     0.000 C 
ENDROOT
BRANCH   1   2
ATOM      2  C   UNL     1      20.673  23.427   8.644  1.00  0.00     0.000 C 
BRANCH   2   3
ATOM      3  C   UNL     1      21.659  22.459   7.967  1.00  0.00     0.000 C 
BRANCH   3   4
ATOM      4  C   UNL     1      21.208  22.037   6.558  1.00  0.00     0.000 C 
BRANCH   4   5
ATOM      5  C   UNL     1      19.791  22.497   6.159  1.00  0.00     0.000 C 
BRANCH   5   6
ATOM      6  C   UNL     1      19.287  21.884   4.835  1.00  0.00     0.006 C 
BRANCH   6   7
ATOM      7  C   UNL     1      20.383  21.096   4.105  1.00  0.00     0.053 C 
BRANCH   7   8
ATOM      8  C   UNL     1      20.158  19.625   4.255  1.00  0.00     0.041 C 
ATOM      9  O   UNL     1      19.071  19.109   3.883  1.00  0.00    -0.550 OA
ATOM     10  O   UNL     1      21.166  18.815   4.762  1.00  0.00    -0.550 OA
ENDBRANCH   7   8
ENDBRANCH   6   7
ENDBRANCH   5   6
ENDBRANCH   4   5
ENDBRANCH   3   4
ENDBRANCH   2   3
ENDBRANCH   1   2
BRANCH   1  11
ATOM     11  C   UNL     1      19.345  22.412  10.635  1.00  0.00     0.000 C 
BRANCH  11  12
ATOM     12  C   UNL     1      18.425  21.992   9.478  1.00  0.00    -0.000 C 
BRANCH  12  13
ATOM     13  C   UNL     1      17.167  22.871   9.433  1.00  0.00    -0.000 C 
BRANCH  13  14
ATOM     14  C   UNL     1      16.966  23.547   8.066  1.00  0.00    -0.000 C 
BRANCH  14  15
ATOM     15  C   UNL     1      17.315  25.042   8.087  1.00  0.00    -0.000 C 
BRANCH  15  16
ATOM     16  C   UNL     1      17.443  25.554   9.530  1.00  0.00    -0.000 C 
BRANCH  16  17
ATOM     17  C   UNL     1      18.762  26.302   9.777  1.00  0.00    -0.003 C 
ATOM     18  C   UNL     1      19.144  27.225   8.620  1.00  0.00     0.004 C 
ENDBRANCH  16  17
ENDBRANCH  15  16
ENDBRANCH  14  15
ENDBRANCH  13  14
ENDBRANCH  12  13
ENDBRANCH  11  12
ENDBRANCH   1  11
TORSDOF 14
ENDMDL
MODEL 7
REMARK VINA RESULT:    -4.918      2.345      4.741
REMARK INTER + INTRA:         -10.788
REMARK INTER:                  -8.718
REMARK INTRA:                  -2.071
REMARK UNBOUND:                -1.846
REMARK SMILES CCCCCCCCCCCCCCCC(=O)[O-]
REMARK SMILES IDX 9 1 10 2 11 3 12 4 13 5 14 6 15 7 16 8 17 9 18 10 8 11 7 12
REMARK SMILES IDX 6 13 5 14 4 15 3 16 2 17 1 18
REMARK H PARENT
REMARK Flexibility Score: inf
ROOT
ATOM      1  C   UNL     1      18.034  20.822   8.272  1.00  0.00     0.000 C 
ENDROOT
BRANCH   1   2
ATOM      2  C   UNL     1      17.451  20.372   9.623  1.00  0.00     0.000 C 
BRANCH   2   3
ATOM      3  C   UNL     1      18.016  21.168  10.812  1.00  0.00     0.000 C 
BRANCH   3   4
ATOM      4  C   UNL     1      19.032  22.241  10.384  1.00  0.00     0.000 C 
BRANCH   4   5
ATOM      5  C   UNL     1      18.488  23.683  10.358  1.00  0.00     0.000 C 
BRANCH   5   6
ATOM      6  C   UNL     1      19.263  24.624   9.411  1.00  0.00     0.006 C 
BRANCH   6   7
ATOM      7  C   UNL     1      18.333  25.380   8.453  1.00  0.00     0.053 C 
BRANCH   7   8
ATOM      8  C   UNL     1      18.056  26.756   8.969  1.00  0.00     0.041 C 
ATOM      9  O   UNL     1      16.875  27.110   9.224  1.00  0.00    -0.550 OA
ATOM     10  O   UNL     1      19.105  27.632   9.213  1.00  0.00    -0.550 OA
ENDBRANCH   7   8
ENDBRANCH   6   7
ENDBRANCH   5   6
ENDBRANCH   4   5
ENDBRANCH   3   4
ENDBRANCH   2   3
ENDBRANCH   1   2
BRANCH   1  11
ATOM     11  C   UNL     1      17.129  21.755   7.446  1.00  0.00     0.000 C 
BRANCH  11  12
ATOM     12  C   UNL     1      17.636  21.966   6.011  1.00  0.00    -0.000 C 
BRANCH  12  13
ATOM     13  C   UNL     1      19.019  22.636   6.012  1.00  0.00    -0.000 C 
BRANCH  13  14
ATOM     14  C   UNL     1      20.081  21.801   5.279  1.00  0.00    -0.000 C 
BRANCH  14  15
ATOM     15  C   UNL     1      21.404  21.711   6.056  1.00  0.00    -0.000 C 
BRANCH  15  16
ATOM     16  C   UNL     1      21.328  22.521   7.359  1.00  0.00    -0.000 C 
BRANCH  16  17
ATOM     17  C   UNL     1      22.099  21.859   8.511  1.00  0.00    -0.003 C 
ATOM     18  C   UNL     1      22.870  20.615   8.071  1.00  0.00     0.004 C 
ENDBRANCH  16  17
ENDBRANCH  15  16
ENDBRANCH  14  15
ENDBRANCH  13  14
ENDBRANCH  12  13
ENDBRANCH  11  12
ENDBRANCH   1  11
TORSDOF 14
ENDMDL
MODEL 8
REMARK VINA RESULT:    -4.908      1.647      3.749
REMARK INTER + INTRA:         -10.770
REMARK INTER:                  -8.707
REMARK INTRA:                  -2.063
REMARK UNBOUND:                -1.846
REMARK SMILES CCCCCCCCCCCCCCCC(=O)[O-]
REMARK SMILES IDX 9 1 10 2 11 3 12 4 13 5 14 6 15 7 16 8 17 9 18 10 8 11 7 12
REMARK SMILES IDX 6 13 5 14 4 15 3 16 2 17 1 18
REMARK H PARENT
REMARK Flexibility Score: inf
ROOT
ATOM      1  C   UNL     1      21.398  23.103   9.340  1.00  0.00     0.000 C 
ENDROOT
BRANCH   1   2
ATOM      2  C   UNL     1      20.980  22.090   8.259  1.00  0.00     0.000 C 
BRANCH   2   3
ATOM      3  C   UNL     1      20.633  22.758   6.917  1.00  0.00     0.000 C 
BRANCH   3   4
ATOM      4  C   UNL     1      20.768  21.800   5.721  1.00  0.00     0.000 C 
BRANCH   4   5
ATOM      5  C   UNL     1      19.498  21.644   4.861  1.00  0.00     0.000 C 
BRANCH   5   6
ATOM      6  C   UNL     1      18.188  21.639   5.679  1.00  0.00     0.006 C 
BRANCH   6   7
ATOM      7  C   UNL     1      17.571  20.238   5.777  1.00  0.00     0.053 C 
BRANCH   7   8
ATOM      8  C   UNL     1      18.152  19.490   6.935  1.00  0.00     0.041 C 
ATOM      9  O   UNL     1      19.204  18.815   6.788  1.00  0.00    -0.550 OA
ATOM     10  O   UNL     1      17.559  19.576   8.188  1.00  0.00    -0.550 OA
ENDBRANCH   7   8
ENDBRANCH   6   7
ENDBRANCH   5   6
ENDBRANCH   4   5
ENDBRANCH   3   4
ENDBRANCH   2   3
ENDBRANCH   1   2
BRANCH   1  11
ATOM     11  C   UNL     1      20.424  23.234  10.525  1.00  0.00     0.000 C 
BRANCH  11  12
ATOM     12  C   UNL     1      19.180  22.343  10.381  1.00  0.00    -0.000 C 
BRANCH  12  13
ATOM     13  C   UNL     1      17.912  23.196  10.226  1.00  0.00    -0.000 C 
BRANCH  13  14
ATOM     14  C   UNL     1      17.193  22.951   8.889  1.00  0.00    -0.000 C 
BRANCH  14  15
ATOM     15  C   UNL     1      16.887  24.254   8.134  1.00  0.00    -0.000 C 
BRANCH  15  16
ATOM     16  C   UNL     1      18.116  25.176   8.115  1.00  0.00    -0.000 C 
BRANCH  16  17
ATOM     17  C   UNL     1      17.812  26.576   8.670  1.00  0.00    -0.003 C 
ATOM     18  C   UNL     1      19.075  27.354   9.037  1.00  0.00     0.004 C 
ENDBRANCH  16  17
ENDBRANCH  15  16
ENDBRANCH  14  15
ENDBRANCH  13  14
ENDBRANCH  12  13
ENDBRANCH  11  12
ENDBRANCH   1  11
TORSDOF 14
ENDMDL
MODEL 9
REMARK VINA RESULT:    -3.876      1.944      3.832
REMARK INTER + INTRA:          -8.894
REMARK INTER:                  -7.060
REMARK INTRA:                  -1.834
REMARK UNBOUND:                -1.846
REMARK SMILES CCCCCCCCCCCCCCCC(=O)[O-]
REMARK SMILES IDX 9 1 10 2 11 3 12 4 13 5 14 6 15 7 16 8 17 9 18 10 8 11 7 12
REMARK SMILES IDX 6 13 5 14 4 15 3 16 2 17 1 18
REMARK H PARENT
REMARK Flexibility Score: inf
ROOT
ATOM      1  C   UNL     1      16.875  21.339   8.422  1.00  0.00     0.000 C 
ENDROOT
BRANCH   1   2
ATOM      2  C   UNL     1      17.014  21.393   6.890  1.00  0.00     0.000 C 
BRANCH   2   3
ATOM      3  C   UNL     1      17.243  22.820   6.361  1.00  0.00     0.000 C 
BRANCH   3   4
ATOM      4  C   UNL     1      18.706  23.277   6.490  1.00  0.00     0.000 C 
BRANCH   4   5
ATOM      5  C   UNL     1      19.750  22.293   5.926  1.00  0.00     0.000 C 
BRANCH   5   6
ATOM      6  C   UNL     1      21.141  22.415   6.584  1.00  0.00     0.006 C 
BRANCH   6   7
ATOM      7  C   UNL     1      21.134  23.370   7.785  1.00  0.00     0.053 C 
BRANCH   7   8
ATOM      8  C   UNL     1      21.484  22.635   9.040  1.00  0.00     0.041 C 
ATOM      9  O   UNL     1      21.929  21.459   8.981  1.00  0.00    -0.550 OA
ATOM     10  O   UNL     1      21.366  23.266  10.272  1.00  0.00    -0.550 OA
ENDBRANCH   7   8
ENDBRANCH   6   7
ENDBRANCH   5   6
ENDBRANCH   4   5
ENDBRANCH   3   4
ENDBRANCH   2   3
ENDBRANCH   1   2
BRANCH   1  11
ATOM     11  C   UNL     1      18.158  20.955   9.183  1.00  0.00     0.000 C 
BRANCH  11  12
ATOM     12  C   UNL     1      18.077  21.260  10.686  1.00  0.00    -0.000 C 
BRANCH  12  13
ATOM     13  C   UNL     1      17.368  22.599  10.936  1.00  0.00    -0.000 C 
BRANCH  13  14
ATOM     14  C   UNL     1      18.093  23.784  10.277  1.00  0.00    -0.000 C 
BRANCH  14  15
ATOM     15  C   UNL     1      17.235  25.058  10.242  1.00  0.00    -0.000 C 
BRANCH  15  16
ATOM     16  C   UNL     1      17.152  25.622   8.815  1.00  0.00    -0.000 C 
BRANCH  16  17
ATOM     17  C   UNL     1      17.616  27.084   8.729  1.00  0.00    -0.003 C 
ATOM     18  C   UNL     1      19.074  27.267   9.153  1.00  0.00     0.004 C 
ENDBRANCH  16  17
ENDBRANCH  15  16
ENDBRANCH  14  15
ENDBRANCH  13  14
ENDBRANCH  12  13
ENDBRANCH  11  12
ENDBRANCH   1  11
TORSDOF 14
ENDMDL
