MODEL 1
REMARK VINA RESULT:    -3.603      0.000      0.000
REMARK INTER + INTRA:          -6.684
REMARK INTER:                  -5.498
REMARK INTRA:                  -1.186
REMARK UNBOUND:                -1.186
REMARK SMILES CCCCCCCCCCC(=O)[O-]
REMARK SMILES IDX 7 1 8 2 9 3 10 4 11 5 12 6 13 7 6 8 5 9 4 10 3 11 2 12 1 13
REMARK H PARENT
REMARK Flexibility Score: inf
ROOT
ATOM      1  C   UNL     1      -5.196  26.481  57.852  1.00  0.00     0.000 C 
ENDROOT
BRANCH   1   2
ATOM      2  C   UNL     1      -4.924  25.063  58.385  1.00  0.00     0.000 C 
BRANCH   2   3
ATOM      3  C   UNL     1      -5.684  23.982  57.602  1.00  0.00     0.006 C 
BRANCH   3   4
ATOM      4  C   UNL     1      -6.428  24.548  56.386  1.00  0.00     0.053 C 
BRANCH   4   5
ATOM      5  C   UNL     1      -7.906  24.410  56.567  1.00  0.00     0.041 C 
ATOM      6  O   UNL     1      -8.523  25.177  57.354  1.00  0.00    -0.550 OA
ATOM      7  O   UNL     1      -8.597  23.401  55.907  1.00  0.00    -0.550 OA
ENDBRANCH   4   5
ENDBRANCH   3   4
ENDBRANCH   2   3
ENDBRANCH   1   2
BRANCH   1   8
ATOM      8  C   UNL     1      -3.910  27.230  57.471  1.00  0.00     0.000 C 
BRANCH   8   9
ATOM      9  C   UNL     1      -2.645  26.544  58.015  1.00  0.00    -0.000 C 
BRANCH   9  10
ATOM     10  C   UNL     1      -1.633  26.209  56.908  1.00  0.00    -0.000 C 
BRANCH  10  11
ATOM     11  C   UNL     1      -1.562  24.701  56.605  1.00  0.00    -0.000 C 
BRANCH  11  12
ATOM     12  C   UNL     1      -2.620  24.257  55.582  1.00  0.00    -0.003 C 
ATOM     13  C   UNL     1      -2.879  22.751  55.617  1.00  0.00     0.004 C 
ENDBRANCH  11  12
ENDBRANCH  10  11
ENDBRANCH   9  10
ENDBRANCH   8   9
ENDBRANCH   1   8
TORSDOF 9
ENDMDL
MODEL 2
REMARK VINA RESULT:    -3.540      3.861      5.904
REMARK INTER + INTRA:          -6.588
REMARK INTER:                  -5.588
REMARK INTRA:                  -1.000
REMARK UNBOUND:                -1.186
REMARK SMILES CCCCCCCCCCC(=O)[O-]
REMARK SMILES IDX 7 1 8 2 9 3 10 4 11 5 12 6 13 7 6 8 5 9 4 10 3 11 2 12 1 13
REMARK H PARENT
REMARK Flexibility Score: inf
ROOT
ATOM      1  C   UNL     1      -3.861  25.672  57.213  1.00  0.00     0.000 C 
ENDROOT
BRANCH   1   2
ATOM      2  C   UNL     1      -4.444  27.070  56.938  1.00  0.00     0.000 C 
BRANCH   2   3
ATOM      3  C   UNL     1      -3.838  28.152  57.845  1.00  0.00     0.006 C 
BRANCH   3   4
ATOM      4  C   UNL     1      -3.111  27.562  59.060  1.00  0.00     0.053 C 
BRANCH   4   5
ATOM      5  C   UNL     1      -2.147  28.557  59.625  1.00  0.00     0.041 C 
ATOM      6  O   UNL     1      -0.957  28.591  59.213  1.00  0.00    -0.550 OA
ATOM      7  O   UNL     1      -2.547  29.413  60.643  1.00  0.00    -0.550 OA
ENDBRANCH   4   5
ENDBRANCH   3   4
ENDBRANCH   2   3
ENDBRANCH   1   2
BRANCH   1   8
ATOM      8  C   UNL     1      -4.460  24.590  56.301  1.00  0.00     0.000 C 
BRANCH   8   9
ATOM      9  C   UNL     1      -5.185  23.487  57.091  1.00  0.00    -0.000 C 
BRANCH   9  10
ATOM     10  C   UNL     1      -6.069  24.050  58.215  1.00  0.00    -0.000 C 
BRANCH  10  11
ATOM     11  C   UNL     1      -7.326  24.760  57.682  1.00  0.00    -0.000 C 
BRANCH  11  12
ATOM     12  C   UNL     1      -7.724  25.972  58.538  1.00  0.00    -0.003 C 
ATOM     13  C   UNL     1      -6.921  26.068  59.835  1.00  0.00     0.004 C 
ENDBRANCH  11  12
ENDBRANCH  10  11
ENDBRANCH   9  10
ENDBRANCH   8   9
ENDBRANCH   1   8
TORSDOF 9
ENDMDL
MODEL 3
REMARK VINA RESULT:    -3.496      1.591      2.298
REMARK INTER + INTRA:          -6.521
REMARK INTER:                  -5.598
REMARK INTRA:                  -0.922
REMARK UNBOUND:                -1.186
REMARK SMILES CCCCCCCCCCC(=O)[O-]
REMARK SMILES IDX 7 1 8 2 9 3 10 4 11 5 12 6 13 7 6 8 5 9 4 10 3 11 2 12 1 13
REMARK H PARENT
REMARK Flexibility Score: inf
ROOT
ATOM      1  C   UNL     1      -2.465  26.790  58.232  1.00  0.00     0.000 C 
ENDROOT
BRANCH   1   2
ATOM      2  C   UNL     1      -3.386  25.849  59.030  1.00  0.00     0.000 C 
BRANCH   2   3
ATOM      3  C   UNL     1      -4.853  26.304  59.013  1.00  0.00     0.006 C 
BRANCH   3   4
ATOM      4  C   UNL     1      -5.773  25.298  58.310  1.00  0.00     0.053 C 
BRANCH   4   5
ATOM      5  C   UNL     1      -6.876  26.011  57.593  1.00  0.00     0.041 C 
ATOM      6  O   UNL     1      -7.897  26.395  58.223  1.00  0.00    -0.550 OA
ATOM      7  O   UNL     1      -6.800  26.208  56.220  1.00  0.00    -0.550 OA
ENDBRANCH   4   5
ENDBRANCH   3   4
ENDBRANCH   2   3
ENDBRANCH   1   2
BRANCH   1   8
ATOM      8  C   UNL     1      -2.314  26.365  56.763  1.00  0.00     0.000 C 
BRANCH   8   9
ATOM      9  C   UNL     1      -1.306  25.216  56.582  1.00  0.00    -0.000 C 
BRANCH   9  10
ATOM     10  C   UNL     1      -1.893  24.035  55.793  1.00  0.00    -0.000 C 
BRANCH  10  11
ATOM     11  C   UNL     1      -3.412  24.163  55.575  1.00  0.00    -0.000 C 
BRANCH  11  12
ATOM     12  C   UNL     1      -4.180  22.920  56.051  1.00  0.00    -0.003 C 
ATOM     13  C   UNL     1      -3.438  21.618  55.753  1.00  0.00     0.004 C 
ENDBRANCH  11  12
ENDBRANCH  10  11
ENDBRANCH   9  10
ENDBRANCH   8   9
ENDBRANCH   1   8
TORSDOF 9
ENDMDL
MODEL 4
REMARK VINA RESULT:    -3.491      1.813      2.906
REMARK INTER + INTRA:          -6.514
REMARK INTER:                  -5.346
REMARK INTRA:                  -1.168
REMARK UNBOUND:                -1.186
REMARK SMILES CCCCCCCCCCC(=O)[O-]
REMARK SMILES IDX 7 1 8 2 9 3 10 4 11 5 12 6 13 7 6 8 5 9 4 10 3 11 2 12 1 13
REMARK H PARENT
REMARK Flexibility Score: inf
ROOT
ATOM      1  C   UNL     1      -2.949  26.256  58.891  1.00  0.00     0.000 C 
ENDROOT
BRANCH   1   2
ATOM      2  C   UNL     1      -4.401  25.886  59.241  1.00  0.00     0.000 C 
BRANCH   2   3
ATOM      3  C   UNL     1      -5.108  25.131  58.105  1.00  0.00     0.006 C 
BRANCH   3   4
ATOM      4  C   UNL     1      -6.505  24.639  58.504  1.00  0.00     0.053 C 
BRANCH   4   5
ATOM      5  C   UNL     1      -7.559  25.514  57.903  1.00  0.00     0.041 C 
ATOM      6  O   UNL     1      -7.602  26.741  58.186  1.00  0.00    -0.550 OA
ATOM      7  O   UNL     1      -8.526  24.965  57.070  1.00  0.00    -0.550 OA
ENDBRANCH   4   5
ENDBRANCH   3   4
ENDBRANCH   2   3
ENDBRANCH   1   2
BRANCH   1   8
ATOM      8  C   UNL     1      -2.565  25.861  57.456  1.00  0.00     0.000 C 
BRANCH   8   9
ATOM      9  C   UNL     1      -1.657  26.902  56.780  1.00  0.00    -0.000 C 
BRANCH   9  10
ATOM     10  C   UNL     1      -2.381  27.688  55.674  1.00  0.00    -0.000 C 
BRANCH  10  11
ATOM     11  C   UNL     1      -3.759  27.095  55.330  1.00  0.00    -0.000 C 
BRANCH  11  12
ATOM     12  C   UNL     1      -4.894  28.120  55.481  1.00  0.00    -0.003 C 
ATOM     13  C   UNL     1      -4.946  28.741  56.876  1.00  0.00     0.004 C 
ENDBRANCH  11  12
ENDBRANCH  10  11
ENDBRANCH   9  10
ENDBRANCH   8   9
ENDBRANCH   1   8
TORSDOF 9
ENDMDL
MODEL 5
REMARK VINA RESULT:    -3.476      1.630      3.038
REMARK INTER + INTRA:          -6.491
REMARK INTER:                  -5.266
REMARK INTRA:                  -1.225
REMARK UNBOUND:                -1.186
REMARK SMILES CCCCCCCCCCC(=O)[O-]
REMARK SMILES IDX 7 1 8 2 9 3 10 4 11 5 12 6 13 7 6 8 5 9 4 10 3 11 2 12 1 13
REMARK H PARENT
REMARK Flexibility Score: inf
ROOT
ATOM      1  C   UNL     1      -4.222  23.253  55.307  1.00  0.00     0.000 C 
ENDROOT
BRANCH   1   2
ATOM      2  C   UNL     1      -4.881  23.390  56.691  1.00  0.00     0.000 C 
BRANCH   2   3
ATOM      3  C   UNL     1      -6.029  24.410  56.701  1.00  0.00     0.006 C 
BRANCH   3   4
ATOM      4  C   UNL     1      -6.762  24.461  58.047  1.00  0.00     0.053 C 
BRANCH   4   5
ATOM      5  C   UNL     1      -7.463  25.772  58.212  1.00  0.00     0.041 C 
ATOM      6  O   UNL     1      -6.913  26.838  57.826  1.00  0.00    -0.550 OA
ATOM      7  O   UNL     1      -8.701  25.825  58.839  1.00  0.00    -0.550 OA
ENDBRANCH   4   5
ENDBRANCH   3   4
ENDBRANCH   2   3
ENDBRANCH   1   2
BRANCH   1   8
ATOM      8  C   UNL     1      -3.144  24.318  55.055  1.00  0.00     0.000 C 
BRANCH   8   9
ATOM      9  C   UNL     1      -1.965  24.208  56.038  1.00  0.00    -0.000 C 
BRANCH   9  10
ATOM     10  C   UNL     1      -1.725  25.510  56.819  1.00  0.00    -0.000 C 
BRANCH  10  11
ATOM     11  C   UNL     1      -2.899  26.498  56.701  1.00  0.00    -0.000 C 
BRANCH  11  12
ATOM     12  C   UNL     1      -3.340  27.052  58.065  1.00  0.00    -0.003 C 
ATOM     13  C   UNL     1      -3.526  25.957  59.115  1.00  0.00     0.004 C 
ENDBRANCH  11  12
ENDBRANCH  10  11
ENDBRANCH   9  10
ENDBRANCH   8   9
ENDBRANCH   1   8
TORSDOF 9
ENDMDL
MODEL 6
REMARK VINA RESULT:    -3.428      3.847      5.260
REMARK INTER + INTRA:          -6.417
REMARK INTER:                  -5.625
REMARK INTRA:                  -0.792
REMARK UNBOUND:                -1.186
REMARK SMILES CCCCCCCCCCC(=O)[O-]
REMARK SMILES IDX 7 1 8 2 9 3 10 4 11 5 12 6 13 7 6 8 5 9 4 10 3 11 2 12 1 13
REMARK H PARENT
REMARK Flexibility Score: inf
ROOT
ATOM      1  C   UNL     1      -5.380  28.323  57.021  1.00  0.00     0.000 C 
ENDROOT
BRANCH   1   2
ATOM      2  C   UNL     1      -4.618  28.872  55.801  1.00  0.00     0.000 C 
BRANCH   2   3
ATOM      3  C   UNL     1      -5.451  29.874  54.988  1.00  0.00     0.006 C 
BRANCH   3   4
ATOM      4  C   UNL     1      -5.851  31.109  55.805  1.00  0.00     0.053 C 
BRANCH   4   5
ATOM      5  C   UNL     1      -7.180  31.627  55.354  1.00  0.00     0.041 C 
ATOM      6  O   UNL     1      -8.167  31.608  56.136  1.00  0.00    -0.550 OA
ATOM      7  O   UNL     1      -7.342  32.084  54.052  1.00  0.00    -0.550 OA
ENDBRANCH   4   5
ENDBRANCH   3   4
ENDBRANCH   2   3
ENDBRANCH   1   2
BRANCH   1   8
ATOM      8  C   UNL     1      -5.220  26.803  57.185  1.00  0.00     0.000 C 
BRANCH   8   9
ATOM      9  C   UNL     1      -4.896  26.396  58.632  1.00  0.00    -0.000 C 
BRANCH   9  10
ATOM     10  C   UNL     1      -3.393  26.166  58.858  1.00  0.00    -0.000 C 
BRANCH  10  11
ATOM     11  C   UNL     1      -2.643  27.459  59.225  1.00  0.00    -0.000 C 
BRANCH  11  12
ATOM     12  C   UNL     1      -1.673  27.909  58.120  1.00  0.00    -0.003 C 
ATOM     13  C   UNL     1      -1.445  26.832  57.060  1.00  0.00     0.004 C 
ENDBRANCH  11  12
ENDBRANCH  10  11
ENDBRANCH   9  10
ENDBRANCH   8   9
ENDBRANCH   1   8
TORSDOF 9
ENDMDL
MODEL 7
REMARK VINA RESULT:    -3.425      3.936      5.510
REMARK INTER + INTRA:          -6.413
REMARK INTER:                  -5.719
REMARK INTRA:                  -0.695
REMARK UNBOUND:                -1.186
REMARK SMILES CCCCCCCCCCC(=O)[O-]
REMARK SMILES IDX 7 1 8 2 9 3 10 4 11 5 12 6 13 7 6 8 5 9 4 10 3 11 2 12 1 13
REMARK H PARENT
REMARK Flexibility Score: inf
ROOT
ATOM      1  C   UNL     1      -3.945  28.479  56.674  1.00  0.00     0.000 C 
ENDROOT
BRANCH   1   2
ATOM      2  C   UNL     1      -5.317  29.176  56.633  1.00  0.00     0.000 C 
BRANCH   2   3
ATOM      3  C   UNL     1      -5.557  29.930  55.316  1.00  0.00     0.006 C 
BRANCH   3   4
ATOM      4  C   UNL     1      -5.819  31.426  55.533  1.00  0.00     0.053 C 
BRANCH   4   5
ATOM      5  C   UNL     1      -7.236  31.763  55.192  1.00  0.00     0.041 C 
ATOM      6  O   UNL     1      -8.159  31.530  56.017  1.00  0.00    -0.550 OA
ATOM      7  O   UNL     1      -7.545  32.289  53.943  1.00  0.00    -0.550 OA
ENDBRANCH   4   5
ENDBRANCH   3   4
ENDBRANCH   2   3
ENDBRANCH   1   2
BRANCH   1   8
ATOM      8  C   UNL     1      -3.479  28.170  58.105  1.00  0.00     0.000 C 
BRANCH   8   9
ATOM      9  C   UNL     1      -3.226  26.670  58.333  1.00  0.00    -0.000 C 
BRANCH   9  10
ATOM     10  C   UNL     1      -4.371  25.988  59.101  1.00  0.00    -0.000 C 
BRANCH  10  11
ATOM     11  C   UNL     1      -5.134  24.964  58.243  1.00  0.00    -0.000 C 
BRANCH  11  12
ATOM     12  C   UNL     1      -6.657  25.069  58.417  1.00  0.00    -0.003 C 
ATOM     13  C   UNL     1      -7.132  26.510  58.602  1.00  0.00     0.004 C 
ENDBRANCH  11  12
ENDBRANCH  10  11
ENDBRANCH   9  10
ENDBRANCH   8   9
ENDBRANCH   1   8
TORSDOF 9
ENDMDL
MODEL 8
REMARK VINA RESULT:    -3.402      1.976      3.481
REMARK INTER + INTRA:          -6.377
REMARK INTER:                  -5.391
REMARK INTRA:                  -0.986
REMARK UNBOUND:                -1.186
REMARK SMILES CCCCCCCCCCC(=O)[O-]
REMARK SMILES IDX 7 1 8 2 9 3 10 4 11 5 12 6 13 7 6 8 5 9 4 10 3 11 2 12 1 13
REMARK H PARENT
REMARK Flexibility Score: inf
ROOT
ATOM      1  C   UNL     1      -3.201  25.955  58.917  1.00  0.00     0.000 C 
ENDROOT
BRANCH   1   2
ATOM      2  C   UNL     1      -4.538  26.261  59.615  1.00  0.00     0.000 C 
BRANCH   2   3
ATOM      3  C   UNL     1      -5.736  26.180  58.657  1.00  0.00     0.006 C 
BRANCH   3   4
ATOM      4  C   UNL     1      -5.499  25.205  57.497  1.00  0.00     0.053 C 
BRANCH   4   5
ATOM      5  C   UNL     1      -6.425  24.035  57.599  1.00  0.00     0.041 C 
ATOM      6  O   UNL     1      -6.372  23.270  58.599  1.00  0.00    -0.550 OA
ATOM      7  O   UNL     1      -7.313  23.759  56.567  1.00  0.00    -0.550 OA
ENDBRANCH   4   5
ENDBRANCH   3   4
ENDBRANCH   2   3
ENDBRANCH   1   2
BRANCH   1   8
ATOM      8  C   UNL     1      -2.441  27.226  58.507  1.00  0.00     0.000 C 
BRANCH   8   9
ATOM      9  C   UNL     1      -1.712  27.070  57.162  1.00  0.00    -0.000 C 
BRANCH   9  10
ATOM     10  C   UNL     1      -2.609  27.413  55.961  1.00  0.00    -0.000 C 
BRANCH  10  11
ATOM     11  C   UNL     1      -3.769  28.351  56.336  1.00  0.00    -0.000 C 
BRANCH  11  12
ATOM     12  C   UNL     1      -3.430  29.831  56.094  1.00  0.00    -0.003 C 
ATOM     13  C   UNL     1      -3.584  30.685  57.352  1.00  0.00     0.004 C 
ENDBRANCH  11  12
ENDBRANCH  10  11
ENDBRANCH   9  10
ENDBRANCH   8   9
ENDBRANCH   1   8
TORSDOF 9
ENDMDL
MODEL 9
REMARK VINA RESULT:    -3.393      3.760      5.459
REMARK INTER + INTRA:          -6.364
REMARK INTER:                  -5.428
REMARK INTRA:                  -0.936
REMARK UNBOUND:                -1.186
REMARK SMILES CCCCCCCCCCC(=O)[O-]
REMARK SMILES IDX 7 1 8 2 9 3 10 4 11 5 12 6 13 7 6 8 5 9 4 10 3 11 2 12 1 13
REMARK H PARENT
REMARK Flexibility Score: inf
ROOT
ATOM      1  C   UNL     1      -5.281  26.610  58.630  1.00  0.00     0.000 C 
ENDROOT
BRANCH   1   2
ATOM      2  C   UNL     1      -4.062  25.957  59.305  1.00  0.00     0.000 C 
BRANCH   2   3
ATOM      3  C   UNL     1      -2.733  26.381  58.661  1.00  0.00     0.006 C 
BRANCH   3   4
ATOM      4  C   UNL     1      -2.696  27.875  58.315  1.00  0.00     0.053 C 
BRANCH   4   5
ATOM      5  C   UNL     1      -1.921  28.632  59.347  1.00  0.00     0.041 C 
ATOM      6  O   UNL     1      -0.666  28.703  59.272  1.00  0.00    -0.550 OA
ATOM      7  O   UNL     1      -2.581  29.217  60.420  1.00  0.00    -0.550 OA
ENDBRANCH   4   5
ENDBRANCH   3   4
ENDBRANCH   2   3
ENDBRANCH   1   2
BRANCH   1   8
ATOM      8  C   UNL     1      -6.613  26.161  59.250  1.00  0.00     0.000 C 
BRANCH   8   9
ATOM      9  C   UNL     1      -7.606  25.636  58.199  1.00  0.00    -0.000 C 
BRANCH   9  10
ATOM     10  C   UNL     1      -7.064  24.419  57.431  1.00  0.00    -0.000 C 
BRANCH  10  11
ATOM     11  C   UNL     1      -6.845  24.712  55.935  1.00  0.00    -0.000 C 
BRANCH  11  12
ATOM     12  C   UNL     1      -5.384  24.507  55.505  1.00  0.00    -0.003 C 
ATOM     13  C   UNL     1      -4.629  23.542  56.417  1.00  0.00     0.004 C 
ENDBRANCH  11  12
ENDBRANCH  10  11
ENDBRANCH   9  10
ENDBRANCH   8   9
ENDBRANCH   1   8
TORSDOF 9
ENDMDL
