MODEL 1
REMARK VINA RESULT:    -5.095      0.000      0.000
REMARK INTER + INTRA:          -5.476
REMARK INTER:                  -5.392
REMARK INTRA:                  -0.083
REMARK UNBOUND:                -0.083
REMARK SMILES C=C(C)[C@H]1CC=C(C)CC1
REMARK SMILES IDX 8 1 7 2 6 3 5 4 4 5 10 6 9 7 2 8 1 9 3 10
REMARK H PARENT
REMARK Flexibility Score: inf
ROOT
ATOM      1  C   UNL     1      24.179   4.260  14.066  1.00  0.00     0.039 C 
ATOM      2  C   UNL     1      24.638   3.091  13.240  1.00  0.00    -0.077 C 
ATOM      3  C   UNL     1      23.939   1.944  13.245  1.00  0.00    -0.027 C 
ATOM      4  C   UNL     1      24.417   0.770  12.432  1.00  0.00     0.035 C 
ATOM      5  C   UNL     1      25.958   0.570  12.523  1.00  0.00     0.018 C 
ATOM      6  C   UNL     1      26.756   1.889  12.763  1.00  0.00     0.013 C 
ATOM      7  C   UNL     1      25.928   3.145  12.458  1.00  0.00     0.031 C 
ENDROOT
BRANCH   5   8
ATOM      8  C   UNL     1      26.318  -0.486  13.563  1.00  0.00    -0.077 C 
ATOM      9  C   UNL     1      27.304  -1.369  13.338  1.00  0.00     0.008 C 
ATOM     10  C   UNL     1      25.573  -0.551  14.871  1.00  0.00     0.039 C 
ENDBRANCH   5   8
TORSDOF 1
ENDMDL
MODEL 2
REMARK VINA RESULT:    -4.839      1.323      3.987
REMARK INTER + INTRA:          -5.206
REMARK INTER:                  -5.032
REMARK INTRA:                  -0.173
REMARK UNBOUND:                -0.083
REMARK SMILES C=C(C)[C@H]1CC=C(C)CC1
REMARK SMILES IDX 8 1 7 2 6 3 5 4 4 5 10 6 9 7 2 8 1 9 3 10
REMARK H PARENT
REMARK Flexibility Score: inf
ROOT
ATOM      1  C   UNL     1      25.641  -1.262  16.760  1.00  0.00     0.039 C 
ATOM      2  C   UNL     1      25.657  -0.942  15.290  1.00  0.00    -0.077 C 
ATOM      3  C   UNL     1      26.804  -1.015  14.595  1.00  0.00    -0.027 C 
ATOM      4  C   UNL     1      26.817  -0.673  13.129  1.00  0.00     0.035 C 
ATOM      5  C   UNL     1      25.963   0.589  12.805  1.00  0.00     0.018 C 
ATOM      6  C   UNL     1      24.760   0.807  13.775  1.00  0.00     0.013 C 
ATOM      7  C   UNL     1      24.417  -0.451  14.583  1.00  0.00     0.031 C 
ENDROOT
BRANCH   5   8
ATOM      8  C   UNL     1      26.833   1.838  12.720  1.00  0.00    -0.077 C 
ATOM      9  C   UNL     1      26.285   3.048  12.522  1.00  0.00     0.008 C 
ATOM     10  C   UNL     1      28.329   1.735  12.863  1.00  0.00     0.039 C 
ENDBRANCH   5   8
TORSDOF 1
ENDMDL
MODEL 3
REMARK VINA RESULT:    -4.727      1.181      4.111
REMARK INTER + INTRA:          -5.086
REMARK INTER:                  -4.861
REMARK INTRA:                  -0.225
REMARK UNBOUND:                -0.083
REMARK SMILES C=C(C)[C@H]1CC=C(C)CC1
REMARK SMILES IDX 8 1 7 2 6 3 5 4 4 5 10 6 9 7 2 8 1 9 3 10
REMARK H PARENT
REMARK Flexibility Score: inf
ROOT
ATOM      1  C   UNL     1      27.350  -1.498  13.436  1.00  0.00     0.039 C 
ATOM      2  C   UNL     1      26.879  -0.284  12.684  1.00  0.00    -0.077 C 
ATOM      3  C   UNL     1      26.998   0.937  13.231  1.00  0.00    -0.027 C 
ATOM      4  C   UNL     1      26.504   2.147  12.482  1.00  0.00     0.035 C 
ATOM      5  C   UNL     1      25.133   1.898  11.787  1.00  0.00     0.018 C 
ATOM      6  C   UNL     1      24.895   0.414  11.366  1.00  0.00     0.013 C 
ATOM      7  C   UNL     1      26.189  -0.411  11.347  1.00  0.00     0.031 C 
ENDROOT
BRANCH   5   8
ATOM      8  C   UNL     1      23.979   2.420  12.636  1.00  0.00    -0.077 C 
ATOM      9  C   UNL     1      24.138   3.488  13.434  1.00  0.00     0.008 C 
ATOM     10  C   UNL     1      22.633   1.746  12.587  1.00  0.00     0.039 C 
ENDBRANCH   5   8
TORSDOF 1
ENDMDL
MODEL 4
REMARK VINA RESULT:    -4.700      1.190      2.175
REMARK INTER + INTRA:          -5.058
REMARK INTER:                  -4.950
REMARK INTRA:                  -0.108
REMARK UNBOUND:                -0.083
REMARK SMILES C=C(C)[C@H]1CC=C(C)CC1
REMARK SMILES IDX 8 1 7 2 6 3 5 4 4 5 10 6 9 7 2 8 1 9 3 10
REMARK H PARENT
REMARK Flexibility Score: inf
ROOT
ATOM      1  C   UNL     1      23.332   3.239  12.251  1.00  0.00     0.039 C 
ATOM      2  C   UNL     1      24.543   2.598  12.871  1.00  0.00    -0.077 C 
ATOM      3  C   UNL     1      25.705   2.556  12.198  1.00  0.00    -0.027 C 
ATOM      4  C   UNL     1      26.907   1.893  12.817  1.00  0.00     0.035 C 
ATOM      5  C   UNL     1      26.547   0.561  13.538  1.00  0.00     0.018 C 
ATOM      6  C   UNL     1      25.097   0.522  14.113  1.00  0.00     0.013 C 
ATOM      7  C   UNL     1      24.464   1.916  14.216  1.00  0.00     0.031 C 
ENDROOT
BRANCH   5   8
ATOM      8  C   UNL     1      26.815  -0.643  12.641  1.00  0.00    -0.077 C 
ATOM      9  C   UNL     1      27.522  -1.694  13.089  1.00  0.00     0.008 C 
ATOM     10  C   UNL     1      26.281  -0.677  11.233  1.00  0.00     0.039 C 
ENDBRANCH   5   8
TORSDOF 1
ENDMDL
MODEL 5
REMARK VINA RESULT:    -4.661      1.238      4.148
REMARK INTER + INTRA:          -5.017
REMARK INTER:                  -4.789
REMARK INTRA:                  -0.228
REMARK UNBOUND:                -0.083
REMARK SMILES C=C(C)[C@H]1CC=C(C)CC1
REMARK SMILES IDX 8 1 7 2 6 3 5 4 4 5 10 6 9 7 2 8 1 9 3 10
REMARK H PARENT
REMARK Flexibility Score: inf
ROOT
ATOM      1  C   UNL     1      28.190  -0.397  13.726  1.00  0.00     0.039 C 
ATOM      2  C   UNL     1      26.737  -0.256  13.365  1.00  0.00    -0.077 C 
ATOM      3  C   UNL     1      26.375  -0.057  12.087  1.00  0.00    -0.027 C 
ATOM      4  C   UNL     1      24.919   0.104  11.735  1.00  0.00     0.035 C 
ATOM      5  C   UNL     1      24.157   1.002  12.754  1.00  0.00     0.018 C 
ATOM      6  C   UNL     1      24.738   0.953  14.202  1.00  0.00     0.013 C 
ATOM      7  C   UNL     1      25.664  -0.249  14.428  1.00  0.00     0.031 C 
ENDROOT
BRANCH   5   8
ATOM      8  C   UNL     1      24.049   2.438  12.254  1.00  0.00    -0.077 C 
ATOM      9  C   UNL     1      23.888   3.458  13.113  1.00  0.00     0.008 C 
ATOM     10  C   UNL     1      24.127   2.738  10.780  1.00  0.00     0.039 C 
ENDBRANCH   5   8
TORSDOF 1
ENDMDL
MODEL 6
REMARK VINA RESULT:    -4.570      1.458      2.686
REMARK INTER + INTRA:          -4.921
REMARK INTER:                  -4.787
REMARK INTRA:                  -0.134
REMARK UNBOUND:                -0.083
REMARK SMILES C=C(C)[C@H]1CC=C(C)CC1
REMARK SMILES IDX 8 1 7 2 6 3 5 4 4 5 10 6 9 7 2 8 1 9 3 10
REMARK H PARENT
REMARK Flexibility Score: inf
ROOT
ATOM      1  C   UNL     1      24.007   2.663  10.027  1.00  0.00     0.039 C 
ATOM      2  C   UNL     1      24.059   2.437  11.513  1.00  0.00    -0.077 C 
ATOM      3  C   UNL     1      25.187   2.694  12.196  1.00  0.00    -0.027 C 
ATOM      4  C   UNL     1      25.239   2.445  13.680  1.00  0.00     0.035 C 
ATOM      5  C   UNL     1      24.548   1.110  14.084  1.00  0.00     0.018 C 
ATOM      6  C   UNL     1      23.384   0.686  13.136  1.00  0.00     0.013 C 
ATOM      7  C   UNL     1      22.888   1.840  12.255  1.00  0.00     0.031 C 
ENDROOT
BRANCH   5   8
ATOM      8  C   UNL     1      25.566  -0.015  14.240  1.00  0.00    -0.077 C 
ATOM      9  C   UNL     1      25.660  -0.706  15.388  1.00  0.00     0.008 C 
ATOM     10  C   UNL     1      26.483  -0.375  13.100  1.00  0.00     0.039 C 
ENDBRANCH   5   8
TORSDOF 1
ENDMDL
MODEL 7
REMARK VINA RESULT:    -4.448      7.415      8.666
REMARK INTER + INTRA:          -4.791
REMARK INTER:                  -4.710
REMARK INTRA:                  -0.081
REMARK UNBOUND:                -0.083
REMARK SMILES C=C(C)[C@H]1CC=C(C)CC1
REMARK SMILES IDX 8 1 7 2 6 3 5 4 4 5 10 6 9 7 2 8 1 9 3 10
REMARK H PARENT
REMARK Flexibility Score: inf
ROOT
ATOM      1  C   UNL     1      26.549  -1.490   4.799  1.00  0.00     0.039 C 
ATOM      2  C   UNL     1      27.446  -0.636   5.652  1.00  0.00    -0.077 C 
ATOM      3  C   UNL     1      28.235   0.291   5.083  1.00  0.00    -0.027 C 
ATOM      4  C   UNL     1      29.148   1.128   5.941  1.00  0.00     0.035 C 
ATOM      5  C   UNL     1      29.853   0.294   7.050  1.00  0.00     0.018 C 
ATOM      6  C   UNL     1      29.028  -0.937   7.540  1.00  0.00     0.013 C 
ATOM      7  C   UNL     1      27.548  -0.853   7.142  1.00  0.00     0.031 C 
ENDROOT
BRANCH   5   8
ATOM      8  C   UNL     1      31.256  -0.122   6.622  1.00  0.00    -0.077 C 
ATOM      9  C   UNL     1      32.199  -0.412   7.534  1.00  0.00     0.008 C 
ATOM     10  C   UNL     1      31.608  -0.222   5.160  1.00  0.00     0.039 C 
ENDBRANCH   5   8
TORSDOF 1
ENDMDL
MODEL 8
REMARK VINA RESULT:    -4.421      1.692      3.637
REMARK INTER + INTRA:          -4.762
REMARK INTER:                  -4.690
REMARK INTRA:                  -0.072
REMARK UNBOUND:                -0.083
REMARK SMILES C=C(C)[C@H]1CC=C(C)CC1
REMARK SMILES IDX 8 1 7 2 6 3 5 4 4 5 10 6 9 7 2 8 1 9 3 10
REMARK H PARENT
REMARK Flexibility Score: inf
ROOT
ATOM      1  C   UNL     1      24.958  -0.529  15.546  1.00  0.00     0.039 C 
ATOM      2  C   UNL     1      25.669  -0.198  14.263  1.00  0.00    -0.077 C 
ATOM      3  C   UNL     1      26.819  -0.818  13.949  1.00  0.00    -0.027 C 
ATOM      4  C   UNL     1      27.536  -0.466  12.672  1.00  0.00     0.035 C 
ATOM      5  C   UNL     1      27.551   1.067  12.400  1.00  0.00     0.018 C 
ATOM      6  C   UNL     1      26.320   1.827  12.985  1.00  0.00     0.013 C 
ATOM      7  C   UNL     1      25.161   0.887  13.345  1.00  0.00     0.031 C 
ENDROOT
BRANCH   5   8
ATOM      8  C   UNL     1      28.858   1.699  12.866  1.00  0.00    -0.077 C 
ATOM      9  C   UNL     1      29.664   1.060  13.731  1.00  0.00     0.008 C 
ATOM     10  C   UNL     1      29.272   3.055  12.357  1.00  0.00     0.039 C 
ENDBRANCH   5   8
TORSDOF 1
ENDMDL
MODEL 9
REMARK VINA RESULT:    -4.410      7.356      8.752
REMARK INTER + INTRA:          -4.751
REMARK INTER:                  -4.509
REMARK INTRA:                  -0.242
REMARK UNBOUND:                -0.083
REMARK SMILES C=C(C)[C@H]1CC=C(C)CC1
REMARK SMILES IDX 8 1 7 2 6 3 5 4 4 5 10 6 9 7 2 8 1 9 3 10
REMARK H PARENT
REMARK Flexibility Score: inf
ROOT
ATOM      1  C   UNL     1      31.829  -0.703   7.572  1.00  0.00     0.039 C 
ATOM      2  C   UNL     1      30.407  -0.279   7.329  1.00  0.00    -0.077 C 
ATOM      3  C   UNL     1      29.402  -1.153   7.505  1.00  0.00    -0.027 C 
ATOM      4  C   UNL     1      27.982  -0.728   7.240  1.00  0.00     0.035 C 
ATOM      5  C   UNL     1      27.849   0.135   5.950  1.00  0.00     0.018 C 
ATOM      6  C   UNL     1      29.123   0.973   5.614  1.00  0.00     0.013 C 
ATOM      7  C   UNL     1      30.080   1.099   6.807  1.00  0.00     0.031 C 
ENDROOT
BRANCH   5   8
ATOM      8  C   UNL     1      27.420  -0.713   4.758  1.00  0.00    -0.077 C 
ATOM      9  C   UNL     1      26.359  -1.533   4.841  1.00  0.00     0.008 C 
ATOM     10  C   UNL     1      28.179  -0.640   3.459  1.00  0.00     0.039 C 
ENDBRANCH   5   8
TORSDOF 1
ENDMDL
