MODEL 1
REMARK VINA RESULT:    -5.818      0.000      0.000
REMARK INTER + INTRA:          -6.249
REMARK INTER:                  -6.158
REMARK INTRA:                  -0.091
REMARK UNBOUND:                -0.091
REMARK SMILES C=C(C)[C@H]1CC=C(C)C(=O)C1
REMARK SMILES IDX 8 1 7 2 6 3 5 4 4 5 11 6 9 7 10 8 2 9 1 10 3 11
REMARK H PARENT
REMARK Flexibility Score: inf
ROOT
ATOM      1  C   UNL     1     -32.965 -26.114  22.600  1.00  0.00     0.048 C 
ATOM      2  C   UNL     1     -32.756 -24.687  22.174  1.00  0.00    -0.012 C 
ATOM      3  C   UNL     1     -33.749 -24.020  21.559  1.00  0.00    -0.019 C 
ATOM      4  C   UNL     1     -33.589 -22.597  21.096  1.00  0.00     0.036 C 
ATOM      5  C   UNL     1     -32.646 -21.813  22.028  1.00  0.00     0.025 C 
ATOM      6  C   UNL     1     -31.294 -22.541  22.158  1.00  0.00     0.089 C 
ATOM      7  C   UNL     1     -31.503 -23.980  22.541  1.00  0.00     0.158 C 
ATOM      8  O   UNL     1     -30.585 -24.593  23.149  1.00  0.00    -0.295 OA
ENDROOT
BRANCH   5   9
ATOM      9  C   UNL     1     -32.461 -20.378  21.557  1.00  0.00    -0.077 C 
ATOM     10  C   UNL     1     -32.175 -19.410  22.443  1.00  0.00     0.008 C 
ATOM     11  C   UNL     1     -32.591 -20.006  20.100  1.00  0.00     0.039 C 
ENDBRANCH   5   9
TORSDOF 1
ENDMDL
MODEL 2
REMARK VINA RESULT:    -5.442      1.349      2.001
REMARK INTER + INTRA:          -5.851
REMARK INTER:                  -5.753
REMARK INTRA:                  -0.098
REMARK UNBOUND:                -0.091
REMARK SMILES C=C(C)[C@H]1CC=C(C)C(=O)C1
REMARK SMILES IDX 8 1 7 2 6 3 5 4 4 5 11 6 9 7 10 8 2 9 1 10 3 11
REMARK H PARENT
REMARK Flexibility Score: inf
ROOT
ATOM      1  C   UNL     1     -32.019 -26.125  22.749  1.00  0.00     0.048 C 
ATOM      2  C   UNL     1     -32.219 -24.653  22.518  1.00  0.00    -0.012 C 
ATOM      3  C   UNL     1     -31.336 -23.771  23.019  1.00  0.00    -0.019 C 
ATOM      4  C   UNL     1     -31.497 -22.286  22.833  1.00  0.00     0.036 C 
ATOM      5  C   UNL     1     -32.169 -21.965  21.485  1.00  0.00     0.025 C 
ATOM      6  C   UNL     1     -33.507 -22.718  21.361  1.00  0.00     0.089 C 
ATOM      7  C   UNL     1     -33.317 -24.184  21.636  1.00  0.00     0.158 C 
ATOM      8  O   UNL     1     -34.125 -25.012  21.135  1.00  0.00    -0.295 OA
ENDROOT
BRANCH   5   9
ATOM      9  C   UNL     1     -32.354 -20.467  21.296  1.00  0.00    -0.077 C 
ATOM     10  C   UNL     1     -32.266 -19.639  22.349  1.00  0.00     0.008 C 
ATOM     11  C   UNL     1     -32.638 -19.875  19.937  1.00  0.00     0.039 C 
ENDBRANCH   5   9
TORSDOF 1
ENDMDL
MODEL 3
REMARK VINA RESULT:    -5.346      2.127      4.681
REMARK INTER + INTRA:          -5.750
REMARK INTER:                  -5.660
REMARK INTRA:                  -0.090
REMARK UNBOUND:                -0.091
REMARK SMILES C=C(C)[C@H]1CC=C(C)C(=O)C1
REMARK SMILES IDX 8 1 7 2 6 3 5 4 4 5 11 6 9 7 10 8 2 9 1 10 3 11
REMARK H PARENT
REMARK Flexibility Score: inf
ROOT
ATOM      1  C   UNL     1     -32.042 -17.779  20.577  1.00  0.00     0.048 C 
ATOM      2  C   UNL     1     -32.249 -19.178  21.088  1.00  0.00    -0.012 C 
ATOM      3  C   UNL     1     -32.670 -20.141  20.249  1.00  0.00    -0.019 C 
ATOM      4  C   UNL     1     -32.910 -21.554  20.710  1.00  0.00     0.036 C 
ATOM      5  C   UNL     1     -31.938 -21.940  21.841  1.00  0.00     0.025 C 
ATOM      6  C   UNL     1     -32.031 -20.926  22.996  1.00  0.00     0.089 C 
ATOM      7  C   UNL     1     -31.869 -19.522  22.481  1.00  0.00     0.158 C 
ATOM      8  O   UNL     1     -31.440 -18.628  23.260  1.00  0.00    -0.295 OA
ENDROOT
BRANCH   5   9
ATOM      9  C   UNL     1     -32.186 -23.361  22.328  1.00  0.00    -0.077 C 
ATOM     10  C   UNL     1     -31.160 -24.114  22.756  1.00  0.00     0.008 C 
ATOM     11  C   UNL     1     -33.572 -23.956  22.346  1.00  0.00     0.039 C 
ENDBRANCH   5   9
TORSDOF 1
ENDMDL
MODEL 4
REMARK VINA RESULT:    -5.285      2.411      5.078
REMARK INTER + INTRA:          -5.684
REMARK INTER:                  -5.595
REMARK INTRA:                  -0.090
REMARK UNBOUND:                -0.091
REMARK SMILES C=C(C)[C@H]1CC=C(C)C(=O)C1
REMARK SMILES IDX 8 1 7 2 6 3 5 4 4 5 11 6 9 7 10 8 2 9 1 10 3 11
REMARK H PARENT
REMARK Flexibility Score: inf
ROOT
ATOM      1  C   UNL     1     -32.583 -17.307  21.019  1.00  0.00     0.048 C 
ATOM      2  C   UNL     1     -32.442 -18.774  21.320  1.00  0.00    -0.012 C 
ATOM      3  C   UNL     1     -32.166 -19.176  22.573  1.00  0.00    -0.019 C 
ATOM      4  C   UNL     1     -31.997 -20.629  22.927  1.00  0.00     0.036 C 
ATOM      5  C   UNL     1     -32.899 -21.521  22.052  1.00  0.00     0.025 C 
ATOM      6  C   UNL     1     -32.634 -21.249  20.560  1.00  0.00     0.089 C 
ATOM      7  C   UNL     1     -32.731 -19.778  20.265  1.00  0.00     0.158 C 
ATOM      8  O   UNL     1     -33.025 -19.403  19.098  1.00  0.00    -0.295 OA
ENDROOT
BRANCH   5   9
ATOM      9  C   UNL     1     -32.721 -22.995  22.389  1.00  0.00    -0.077 C 
ATOM     10  C   UNL     1     -33.766 -23.834  22.311  1.00  0.00     0.008 C 
ATOM     11  C   UNL     1     -31.383 -23.548  22.813  1.00  0.00     0.039 C 
ENDBRANCH   5   9
TORSDOF 1
ENDMDL
MODEL 5
REMARK VINA RESULT:    -5.112      2.011      4.671
REMARK INTER + INTRA:          -5.502
REMARK INTER:                  -5.405
REMARK INTRA:                  -0.097
REMARK UNBOUND:                -0.091
REMARK SMILES C=C(C)[C@H]1CC=C(C)C(=O)C1
REMARK SMILES IDX 8 1 7 2 6 3 5 4 4 5 11 6 9 7 10 8 2 9 1 10 3 11
REMARK H PARENT
REMARK Flexibility Score: inf
ROOT
ATOM      1  C   UNL     1     -32.072 -19.088  22.626  1.00  0.00     0.048 C 
ATOM      2  C   UNL     1     -32.232 -20.559  22.355  1.00  0.00    -0.012 C 
ATOM      3  C   UNL     1     -32.022 -21.447  23.341  1.00  0.00    -0.019 C 
ATOM      4  C   UNL     1     -32.151 -22.931  23.121  1.00  0.00     0.036 C 
ATOM      5  C   UNL     1     -33.233 -23.244  22.070  1.00  0.00     0.025 C 
ATOM      6  C   UNL     1     -32.946 -22.482  20.763  1.00  0.00     0.089 C 
ATOM      7  C   UNL     1     -32.742 -21.018  21.038  1.00  0.00     0.158 C 
ATOM      8  O   UNL     1     -32.974 -20.183  20.122  1.00  0.00    -0.295 OA
ENDROOT
BRANCH   5   9
ATOM      9  C   UNL     1     -33.358 -24.740  21.825  1.00  0.00    -0.077 C 
ATOM     10  C   UNL     1     -34.107 -25.197  20.808  1.00  0.00     0.008 C 
ATOM     11  C   UNL     1     -32.653 -25.743  22.706  1.00  0.00     0.039 C 
ENDBRANCH   5   9
TORSDOF 1
ENDMDL
MODEL 6
REMARK VINA RESULT:    -5.072      2.393      4.737
REMARK INTER + INTRA:          -5.460
REMARK INTER:                  -5.362
REMARK INTRA:                  -0.098
REMARK UNBOUND:                -0.091
REMARK SMILES C=C(C)[C@H]1CC=C(C)C(=O)C1
REMARK SMILES IDX 8 1 7 2 6 3 5 4 4 5 11 6 9 7 10 8 2 9 1 10 3 11
REMARK H PARENT
REMARK Flexibility Score: inf
ROOT
ATOM      1  C   UNL     1     -34.101 -23.469  21.835  1.00  0.00     0.048 C 
ATOM      2  C   UNL     1     -32.865 -24.227  22.231  1.00  0.00    -0.012 C 
ATOM      3  C   UNL     1     -32.747 -25.528  21.912  1.00  0.00    -0.019 C 
ATOM      4  C   UNL     1     -31.539 -26.340  22.298  1.00  0.00     0.036 C 
ATOM      5  C   UNL     1     -30.268 -25.470  22.311  1.00  0.00     0.025 C 
ATOM      6  C   UNL     1     -30.466 -24.246  23.225  1.00  0.00     0.089 C 
ATOM      7  C   UNL     1     -31.726 -23.512  22.860  1.00  0.00     0.158 C 
ATOM      8  O   UNL     1     -31.820 -22.283  23.127  1.00  0.00    -0.295 OA
ENDROOT
BRANCH   5   9
ATOM      9  C   UNL     1     -29.044 -26.277  22.719  1.00  0.00    -0.077 C 
ATOM     10  C   UNL     1     -28.067 -25.701  23.439  1.00  0.00     0.008 C 
ATOM     11  C   UNL     1     -28.894 -27.728  22.334  1.00  0.00     0.039 C 
ENDBRANCH   5   9
TORSDOF 1
ENDMDL
MODEL 7
REMARK VINA RESULT:    -5.050      2.593      5.075
REMARK INTER + INTRA:          -5.436
REMARK INTER:                  -5.338
REMARK INTRA:                  -0.098
REMARK UNBOUND:                -0.091
REMARK SMILES C=C(C)[C@H]1CC=C(C)C(=O)C1
REMARK SMILES IDX 8 1 7 2 6 3 5 4 4 5 11 6 9 7 10 8 2 9 1 10 3 11
REMARK H PARENT
REMARK Flexibility Score: inf
ROOT
ATOM      1  C   UNL     1     -33.924 -23.104  22.623  1.00  0.00     0.048 C 
ATOM      2  C   UNL     1     -32.662 -23.914  22.509  1.00  0.00    -0.012 C 
ATOM      3  C   UNL     1     -31.509 -23.429  23.000  1.00  0.00    -0.019 C 
ATOM      4  C   UNL     1     -30.213 -24.189  22.897  1.00  0.00     0.036 C 
ATOM      5  C   UNL     1     -30.456 -25.709  22.961  1.00  0.00     0.025 C 
ATOM      6  C   UNL     1     -31.470 -26.135  21.883  1.00  0.00     0.089 C 
ATOM      7  C   UNL     1     -32.715 -25.296  21.968  1.00  0.00     0.158 C 
ATOM      8  O   UNL     1     -33.803 -25.767  21.539  1.00  0.00    -0.295 OA
ENDROOT
BRANCH   5   9
ATOM      9  C   UNL     1     -29.154 -26.487  22.838  1.00  0.00    -0.077 C 
ATOM     10  C   UNL     1     -29.130 -27.660  22.184  1.00  0.00     0.008 C 
ATOM     11  C   UNL     1     -27.869 -25.971  23.438  1.00  0.00     0.039 C 
ENDBRANCH   5   9
TORSDOF 1
ENDMDL
MODEL 8
REMARK VINA RESULT:    -4.531      1.699      2.901
REMARK INTER + INTRA:          -4.887
REMARK INTER:                  -4.800
REMARK INTRA:                  -0.088
REMARK UNBOUND:                -0.091
REMARK SMILES C=C(C)[C@H]1CC=C(C)C(=O)C1
REMARK SMILES IDX 8 1 7 2 6 3 5 4 4 5 11 6 9 7 10 8 2 9 1 10 3 11
REMARK H PARENT
REMARK Flexibility Score: inf
ROOT
ATOM      1  C   UNL     1     -33.539 -23.403  21.513  1.00  0.00     0.048 C 
ATOM      2  C   UNL     1     -32.927 -22.029  21.521  1.00  0.00    -0.012 C 
ATOM      3  C   UNL     1     -33.058 -21.232  20.446  1.00  0.00    -0.019 C 
ATOM      4  C   UNL     1     -32.452 -19.855  20.393  1.00  0.00     0.036 C 
ATOM      5  C   UNL     1     -32.428 -19.206  21.790  1.00  0.00     0.025 C 
ATOM      6  C   UNL     1     -31.707 -20.123  22.795  1.00  0.00     0.089 C 
ATOM      7  C   UNL     1     -32.289 -21.510  22.756  1.00  0.00     0.158 C 
ATOM      8  O   UNL     1     -32.196 -22.242  23.778  1.00  0.00    -0.295 OA
ENDROOT
BRANCH   5   9
ATOM      9  C   UNL     1     -31.798 -17.821  21.751  1.00  0.00    -0.077 C 
ATOM     10  C   UNL     1     -32.575 -16.730  21.655  1.00  0.00     0.008 C 
ATOM     11  C   UNL     1     -30.302 -17.635  21.819  1.00  0.00     0.039 C 
ENDBRANCH   5   9
TORSDOF 1
ENDMDL
MODEL 9
REMARK VINA RESULT:    -4.386      2.779      5.527
REMARK INTER + INTRA:          -4.733
REMARK INTER:                  -4.641
REMARK INTRA:                  -0.092
REMARK UNBOUND:                -0.091
REMARK SMILES C=C(C)[C@H]1CC=C(C)C(=O)C1
REMARK SMILES IDX 8 1 7 2 6 3 5 4 4 5 11 6 9 7 10 8 2 9 1 10 3 11
REMARK H PARENT
REMARK Flexibility Score: inf
ROOT
ATOM      1  C   UNL     1     -30.498 -16.377  20.979  1.00  0.00     0.048 C 
ATOM      2  C   UNL     1     -30.888 -17.788  21.323  1.00  0.00    -0.012 C 
ATOM      3  C   UNL     1     -31.525 -18.044  22.479  1.00  0.00    -0.019 C 
ATOM      4  C   UNL     1     -31.922 -19.439  22.881  1.00  0.00     0.036 C 
ATOM      5  C   UNL     1     -32.271 -20.293  21.648  1.00  0.00     0.025 C 
ATOM      6  C   UNL     1     -31.103 -20.285  20.644  1.00  0.00     0.089 C 
ATOM      7  C   UNL     1     -30.683 -18.876  20.333  1.00  0.00     0.158 C 
ATOM      8  O   UNL     1     -30.118 -18.632  19.233  1.00  0.00    -0.295 OA
ENDROOT
BRANCH   5   9
ATOM      9  C   UNL     1     -32.656 -21.712  22.042  1.00  0.00    -0.077 C 
ATOM     10  C   UNL     1     -33.345 -22.485  21.188  1.00  0.00     0.008 C 
ATOM     11  C   UNL     1     -32.277 -22.284  23.386  1.00  0.00     0.039 C 
ENDBRANCH   5   9
TORSDOF 1
ENDMDL
