MODEL 1
REMARK VINA RESULT:    -5.345      0.000      0.000
REMARK INTER + INTRA:          -6.759
REMARK INTER:                  -6.438
REMARK INTRA:                  -0.321
REMARK UNBOUND:                -0.321
REMARK SMILES O=c1c(O)c(-c2ccc(O)c(O)c2)oc2cc(O)cc(O)c12
REMARK SMILES IDX 5 1 3 2 2 3 1 4 22 5 20 6 19 7 17 8 16 9 15 10 14 11 6 12
REMARK SMILES IDX 7 13 8 14 9 15 13 16 11 17 10 18 12 20 4 22 21 24 18 26
REMARK H PARENT 10 19 12 21 4 23 21 25 18 27
REMARK Flexibility Score: inf
ROOT
ATOM      1  C   UNL     1      18.899  53.299  42.439  1.00  0.00     0.180 A 
ATOM      2  C   UNL     1      19.587  52.109  42.148  1.00  0.00     0.208 A 
ATOM      3  C   UNL     1      20.722  51.776  42.905  1.00  0.00     0.238 A 
ATOM      4  O   UNL     1      21.302  50.681  42.676  1.00  0.00    -0.285 OA
ATOM      5  C   UNL     1      21.164  52.645  43.932  1.00  0.00     0.111 A 
ATOM      6  C   UNL     1      22.325  52.427  44.734  1.00  0.00     0.134 A 
ATOM      7  C   UNL     1      22.594  53.286  45.806  1.00  0.00     0.093 A 
ATOM      8  C   UNL     1      21.780  54.391  46.066  1.00  0.00     0.123 A 
ATOM      9  C   UNL     1      20.679  54.646  45.251  1.00  0.00     0.094 A 
ATOM     10  C   UNL     1      20.365  53.786  44.196  1.00  0.00     0.146 A 
ATOM     11  O   UNL     1      19.300  54.060  43.451  1.00  0.00    -0.452 OA
ENDROOT
BRANCH   1  12
ATOM     12  C   UNL     1      17.710  53.729  41.669  1.00  0.00     0.025 A 
ATOM     13  C   UNL     1      17.882  54.457  40.480  1.00  0.00     0.016 A 
ATOM     14  C   UNL     1      16.775  54.854  39.727  1.00  0.00     0.051 A 
ATOM     15  C   UNL     1      15.481  54.517  40.142  1.00  0.00     0.157 A 
ATOM     16  C   UNL     1      16.409  53.375  42.071  1.00  0.00     0.062 A 
ATOM     17  C   UNL     1      15.297  53.773  41.314  1.00  0.00     0.158 A 
BRANCH  15  18
ATOM     18  O   UNL     1      14.373  54.914  39.395  1.00  0.00    -0.504 OA
ATOM     19  H   UNL     1      14.092  55.885  39.339  1.00  0.00     0.293 HD
ENDBRANCH  15  18
BRANCH  17  20
ATOM     20  O   UNL     1      14.009  53.427  41.718  1.00  0.00    -0.504 OA
ATOM     21  H   UNL     1      13.315  53.103  41.054  1.00  0.00     0.293 HD
ENDBRANCH  17  20
ENDBRANCH   1  12
BRANCH   2  22
ATOM     22  O   UNL     1      19.121  51.254  41.145  1.00  0.00    -0.502 OA
ATOM     23  H   UNL     1      19.693  50.519  40.747  1.00  0.00     0.293 HD
ENDBRANCH   2  22
BRANCH   6  24
ATOM     24  O   UNL     1      23.253  51.407  44.503  1.00  0.00    -0.507 OA
ATOM     25  H   UNL     1      23.029  50.424  44.469  1.00  0.00     0.293 HD
ENDBRANCH   6  24
BRANCH   8  26
ATOM     26  O   UNL     1      22.063  55.250  47.125  1.00  0.00    -0.508 OA
ATOM     27  H   UNL     1      21.773  55.037  48.072  1.00  0.00     0.293 HD
ENDBRANCH   8  26
TORSDOF 6
ENDMDL
MODEL 2
REMARK VINA RESULT:    -4.800      1.735      7.093
REMARK INTER + INTRA:          -6.102
REMARK INTER:                  -5.860
REMARK INTRA:                  -0.242
REMARK UNBOUND:                -0.321
REMARK SMILES O=c1c(O)c(-c2ccc(O)c(O)c2)oc2cc(O)cc(O)c12
REMARK SMILES IDX 5 1 3 2 2 3 1 4 22 5 20 6 19 7 17 8 16 9 15 10 14 11 6 12
REMARK SMILES IDX 7 13 8 14 9 15 13 16 11 17 10 18 12 20 4 22 21 24 18 26
REMARK H PARENT 10 19 12 21 4 23 21 25 18 27
REMARK Flexibility Score: inf
ROOT
ATOM      1  C   UNL     1      19.243  53.017  42.518  1.00  0.00     0.180 A 
ATOM      2  C   UNL     1      19.204  53.967  41.483  1.00  0.00     0.208 A 
ATOM      3  C   UNL     1      18.081  54.011  40.641  1.00  0.00     0.238 A 
ATOM      4  O   UNL     1      18.027  54.900  39.751  1.00  0.00    -0.285 OA
ATOM      5  C   UNL     1      17.019  53.095  40.835  1.00  0.00     0.111 A 
ATOM      6  C   UNL     1      15.851  53.023  40.016  1.00  0.00     0.134 A 
ATOM      7  C   UNL     1      14.806  52.165  40.379  1.00  0.00     0.093 A 
ATOM      8  C   UNL     1      14.913  51.330  41.493  1.00  0.00     0.123 A 
ATOM      9  C   UNL     1      16.074  51.349  42.263  1.00  0.00     0.094 A 
ATOM     10  C   UNL     1      17.119  52.221  41.947  1.00  0.00     0.146 A 
ATOM     11  O   UNL     1      18.203  52.215  42.715  1.00  0.00    -0.452 OA
ENDROOT
BRANCH   1  12
ATOM     12  C   UNL     1      20.403  52.893  43.429  1.00  0.00     0.025 A 
ATOM     13  C   UNL     1      20.595  53.851  44.438  1.00  0.00     0.016 A 
ATOM     14  C   UNL     1      21.671  53.742  45.323  1.00  0.00     0.051 A 
ATOM     15  C   UNL     1      22.561  52.665  45.222  1.00  0.00     0.157 A 
ATOM     16  C   UNL     1      21.288  51.802  43.346  1.00  0.00     0.062 A 
ATOM     17  C   UNL     1      22.367  51.691  44.235  1.00  0.00     0.158 A 
BRANCH  15  18
ATOM     18  O   UNL     1      23.637  52.554  46.101  1.00  0.00    -0.504 OA
ATOM     19  H   UNL     1      24.542  52.953  45.883  1.00  0.00     0.293 HD
ENDBRANCH  15  18
BRANCH  17  20
ATOM     20  O   UNL     1      23.246  50.614  44.146  1.00  0.00    -0.504 OA
ATOM     21  H   UNL     1      23.732  50.395  43.283  1.00  0.00     0.293 HD
ENDBRANCH  17  20
ENDBRANCH   1  12
BRANCH   2  22
ATOM     22  O   UNL     1      20.253  54.877  41.324  1.00  0.00    -0.502 OA
ATOM     23  H   UNL     1      20.816  55.199  42.101  1.00  0.00     0.293 HD
ENDBRANCH   2  22
BRANCH   6  24
ATOM     24  O   UNL     1      15.682  53.748  38.832  1.00  0.00    -0.507 OA
ATOM     25  H   UNL     1      14.900  54.354  38.637  1.00  0.00     0.293 HD
ENDBRANCH   6  24
BRANCH   8  26
ATOM     26  O   UNL     1      13.875  50.467  41.837  1.00  0.00    -0.508 OA
ATOM     27  H   UNL     1      13.795  49.544  41.427  1.00  0.00     0.293 HD
ENDBRANCH   8  26
TORSDOF 6
ENDMDL
MODEL 3
REMARK VINA RESULT:    -4.759      2.120      7.107
REMARK INTER + INTRA:          -6.053
REMARK INTER:                  -5.754
REMARK INTRA:                  -0.299
REMARK UNBOUND:                -0.321
REMARK SMILES O=c1c(O)c(-c2ccc(O)c(O)c2)oc2cc(O)cc(O)c12
REMARK SMILES IDX 5 1 3 2 2 3 1 4 22 5 20 6 19 7 17 8 16 9 15 10 14 11 6 12
REMARK SMILES IDX 7 13 8 14 9 15 13 16 11 17 10 18 12 20 4 22 21 24 18 26
REMARK H PARENT 10 19 12 21 4 23 21 25 18 27
REMARK Flexibility Score: inf
ROOT
ATOM      1  C   UNL     1      17.344  53.347  41.777  1.00  0.00     0.180 A 
ATOM      2  C   UNL     1      17.057  52.678  40.574  1.00  0.00     0.208 A 
ATOM      3  C   UNL     1      16.109  53.230  39.697  1.00  0.00     0.238 A 
ATOM      4  O   UNL     1      15.897  52.656  38.597  1.00  0.00    -0.285 OA
ATOM      5  C   UNL     1      15.449  54.435  40.041  1.00  0.00     0.111 A 
ATOM      6  C   UNL     1      14.441  55.062  39.247  1.00  0.00     0.134 A 
ATOM      7  C   UNL     1      13.950  56.318  39.622  1.00  0.00     0.093 A 
ATOM      8  C   UNL     1      14.381  56.939  40.796  1.00  0.00     0.123 A 
ATOM      9  C   UNL     1      15.320  56.307  41.609  1.00  0.00     0.094 A 
ATOM     10  C   UNL     1      15.856  55.070  41.242  1.00  0.00     0.146 A 
ATOM     11  O   UNL     1      16.756  54.508  42.040  1.00  0.00    -0.452 OA
ENDROOT
BRANCH   1  12
ATOM     12  C   UNL     1      18.313  52.814  42.762  1.00  0.00     0.025 A 
ATOM     13  C   UNL     1      17.847  52.054  43.847  1.00  0.00     0.016 A 
ATOM     14  C   UNL     1      18.745  51.524  44.777  1.00  0.00     0.051 A 
ATOM     15  C   UNL     1      20.121  51.732  44.626  1.00  0.00     0.157 A 
ATOM     16  C   UNL     1      19.698  53.003  42.603  1.00  0.00     0.062 A 
ATOM     17  C   UNL     1      20.599  52.469  43.536  1.00  0.00     0.158 A 
BRANCH  15  18
ATOM     18  O   UNL     1      21.021  51.207  45.553  1.00  0.00    -0.504 OA
ATOM     19  H   UNL     1      21.042  50.217  45.767  1.00  0.00     0.293 HD
ENDBRANCH  15  18
BRANCH  17  20
ATOM     20  O   UNL     1      21.971  52.663  43.381  1.00  0.00    -0.504 OA
ATOM     21  H   UNL     1      22.553  51.979  42.910  1.00  0.00     0.293 HD
ENDBRANCH  17  20
ENDBRANCH   1  12
BRANCH   2  22
ATOM     22  O   UNL     1      17.738  51.503  40.243  1.00  0.00    -0.502 OA
ATOM     23  H   UNL     1      17.418  50.875  39.515  1.00  0.00     0.293 HD
ENDBRANCH   2  22
BRANCH   6  24
ATOM     24  O   UNL     1      13.875  54.485  38.106  1.00  0.00    -0.507 OA
ATOM     25  H   UNL     1      14.374  53.904  37.449  1.00  0.00     0.293 HD
ENDBRANCH   6  24
BRANCH   8  26
ATOM     26  O   UNL     1      13.875  58.182  41.171  1.00  0.00    -0.508 OA
ATOM     27  H   UNL     1      12.943  58.279  41.558  1.00  0.00     0.293 HD
ENDBRANCH   8  26
TORSDOF 6
ENDMDL
MODEL 4
REMARK VINA RESULT:    -4.738      2.065      7.524
REMARK INTER + INTRA:          -6.028
REMARK INTER:                  -6.000
REMARK INTRA:                  -0.028
REMARK UNBOUND:                -0.321
REMARK SMILES O=c1c(O)c(-c2ccc(O)c(O)c2)oc2cc(O)cc(O)c12
REMARK SMILES IDX 5 1 3 2 2 3 1 4 22 5 20 6 19 7 17 8 16 9 15 10 14 11 6 12
REMARK SMILES IDX 7 13 8 14 9 15 13 16 11 17 10 18 12 20 4 22 21 24 18 26
REMARK H PARENT 10 19 12 21 4 23 21 25 18 27
REMARK Flexibility Score: inf
ROOT
ATOM      1  C   UNL     1      18.777  52.078  42.009  1.00  0.00     0.180 A 
ATOM      2  C   UNL     1      18.201  53.273  42.474  1.00  0.00     0.208 A 
ATOM      3  C   UNL     1      17.143  53.846  41.750  1.00  0.00     0.238 A 
ATOM      4  O   UNL     1      16.595  54.886  42.202  1.00  0.00    -0.285 OA
ATOM      5  C   UNL     1      16.686  53.227  40.561  1.00  0.00     0.111 A 
ATOM      6  C   UNL     1      15.649  53.743  39.726  1.00  0.00     0.134 A 
ATOM      7  C   UNL     1      15.191  52.981  38.645  1.00  0.00     0.093 A 
ATOM      8  C   UNL     1      15.776  51.752  38.330  1.00  0.00     0.123 A 
ATOM      9  C   UNL     1      16.829  51.269  39.104  1.00  0.00     0.094 A 
ATOM     10  C   UNL     1      17.284  51.990  40.210  1.00  0.00     0.146 A 
ATOM     11  O   UNL     1      18.283  51.487  40.927  1.00  0.00    -0.452 OA
ENDROOT
BRANCH   1  12
ATOM     12  C   UNL     1      19.911  51.427  42.704  1.00  0.00     0.025 A 
ATOM     13  C   UNL     1      19.861  50.049  42.966  1.00  0.00     0.016 A 
ATOM     14  C   UNL     1      20.929  49.410  43.602  1.00  0.00     0.051 A 
ATOM     15  C   UNL     1      22.067  50.137  43.971  1.00  0.00     0.157 A 
ATOM     16  C   UNL     1      21.065  52.149  43.058  1.00  0.00     0.062 A 
ATOM     17  C   UNL     1      22.138  51.508  43.695  1.00  0.00     0.158 A 
BRANCH  15  18
ATOM     18  O   UNL     1      23.134  49.504  44.608  1.00  0.00    -0.504 OA
ATOM     19  H   UNL     1      23.238  48.497  44.590  1.00  0.00     0.293 HD
ENDBRANCH  15  18
BRANCH  17  20
ATOM     20  O   UNL     1      23.278  52.226  44.051  1.00  0.00    -0.504 OA
ATOM     21  H   UNL     1      23.288  53.241  44.051  1.00  0.00     0.293 HD
ENDBRANCH  17  20
ENDBRANCH   1  12
BRANCH   2  22
ATOM     22  O   UNL     1      18.652  53.854  43.663  1.00  0.00    -0.502 OA
ATOM     23  H   UNL     1      19.607  53.760  43.987  1.00  0.00     0.293 HD
ENDBRANCH   2  22
BRANCH   6  24
ATOM     24  O   UNL     1      15.061  55.000  39.899  1.00  0.00    -0.507 OA
ATOM     25  H   UNL     1      14.474  55.457  39.218  1.00  0.00     0.293 HD
ENDBRANCH   6  24
BRANCH   8  26
ATOM     26  O   UNL     1      15.325  51.008  37.243  1.00  0.00    -0.508 OA
ATOM     27  H   UNL     1      15.019  50.047  37.349  1.00  0.00     0.293 HD
ENDBRANCH   8  26
TORSDOF 6
ENDMDL
MODEL 5
REMARK VINA RESULT:    -4.693      1.851      6.825
REMARK INTER + INTRA:          -5.974
REMARK INTER:                  -5.664
REMARK INTRA:                  -0.310
REMARK UNBOUND:                -0.321
REMARK SMILES O=c1c(O)c(-c2ccc(O)c(O)c2)oc2cc(O)cc(O)c12
REMARK SMILES IDX 5 1 3 2 2 3 1 4 22 5 20 6 19 7 17 8 16 9 15 10 14 11 6 12
REMARK SMILES IDX 7 13 8 14 9 15 13 16 11 17 10 18 12 20 4 22 21 24 18 26
REMARK H PARENT 10 19 12 21 4 23 21 25 18 27
REMARK Flexibility Score: inf
ROOT
ATOM      1  C   UNL     1      18.911  52.470  42.578  1.00  0.00     0.180 A 
ATOM      2  C   UNL     1      18.654  51.535  41.559  1.00  0.00     0.208 A 
ATOM      3  C   UNL     1      17.641  51.808  40.625  1.00  0.00     0.238 A 
ATOM      4  O   UNL     1      17.453  50.993  39.683  1.00  0.00    -0.285 OA
ATOM      5  C   UNL     1      16.888  53.002  40.730  1.00  0.00     0.111 A 
ATOM      6  C   UNL     1      15.812  53.360  39.863  1.00  0.00     0.134 A 
ATOM      7  C   UNL     1      15.224  54.625  39.980  1.00  0.00     0.093 A 
ATOM      8  C   UNL     1      15.628  55.519  40.974  1.00  0.00     0.123 A 
ATOM      9  C   UNL     1      16.637  55.154  41.863  1.00  0.00     0.094 A 
ATOM     10  C   UNL     1      17.268  53.913  41.748  1.00  0.00     0.146 A 
ATOM     11  O   UNL     1      18.232  53.610  42.610  1.00  0.00    -0.452 OA
ENDROOT
BRANCH   1  12
ATOM     12  C   UNL     1      19.944  52.242  43.613  1.00  0.00     0.025 A 
ATOM     13  C   UNL     1      19.580  51.656  44.836  1.00  0.00     0.016 A 
ATOM     14  C   UNL     1      20.543  51.412  45.819  1.00  0.00     0.051 A 
ATOM     15  C   UNL     1      21.885  51.736  45.587  1.00  0.00     0.157 A 
ATOM     16  C   UNL     1      21.298  52.546  43.377  1.00  0.00     0.062 A 
ATOM     17  C   UNL     1      22.265  52.300  44.362  1.00  0.00     0.158 A 
BRANCH  15  18
ATOM     18  O   UNL     1      22.849  51.496  46.565  1.00  0.00    -0.504 OA
ATOM     19  H   UNL     1      22.706  51.777  47.528  1.00  0.00     0.293 HD
ENDBRANCH  15  18
BRANCH  17  20
ATOM     20  O   UNL     1      23.603  52.607  44.129  1.00  0.00    -0.504 OA
ATOM     21  H   UNL     1      24.135  53.185  44.773  1.00  0.00     0.293 HD
ENDBRANCH  17  20
ENDBRANCH   1  12
BRANCH   2  22
ATOM     22  O   UNL     1      19.425  50.373  41.460  1.00  0.00    -0.502 OA
ATOM     23  H   UNL     1      19.408  49.647  42.166  1.00  0.00     0.293 HD
ENDBRANCH   2  22
BRANCH   6  24
ATOM     24  O   UNL     1      15.271  52.506  38.897  1.00  0.00    -0.507 OA
ATOM     25  H   UNL     1      14.284  52.376  38.734  1.00  0.00     0.293 HD
ENDBRANCH   6  24
BRANCH   8  26
ATOM     26  O   UNL     1      15.026  56.769  41.094  1.00  0.00    -0.508 OA
ATOM     27  H   UNL     1      14.671  57.266  40.285  1.00  0.00     0.293 HD
ENDBRANCH   8  26
TORSDOF 6
ENDMDL
MODEL 6
REMARK VINA RESULT:    -4.602      1.859      3.110
REMARK INTER + INTRA:          -5.864
REMARK INTER:                  -5.583
REMARK INTRA:                  -0.281
REMARK UNBOUND:                -0.321
REMARK SMILES O=c1c(O)c(-c2ccc(O)c(O)c2)oc2cc(O)cc(O)c12
REMARK SMILES IDX 5 1 3 2 2 3 1 4 22 5 20 6 19 7 17 8 16 9 15 10 14 11 6 12
REMARK SMILES IDX 7 13 8 14 9 15 13 16 11 17 10 18 12 20 4 22 21 24 18 26
REMARK H PARENT 10 19 12 21 4 23 21 25 18 27
REMARK Flexibility Score: inf
ROOT
ATOM      1  C   UNL     1      18.624  52.581  41.879  1.00  0.00     0.180 A 
ATOM      2  C   UNL     1      18.769  53.772  42.612  1.00  0.00     0.208 A 
ATOM      3  C   UNL     1      19.811  53.872  43.548  1.00  0.00     0.238 A 
ATOM      4  O   UNL     1      19.969  54.961  44.162  1.00  0.00    -0.285 OA
ATOM      5  C   UNL     1      20.685  52.777  43.750  1.00  0.00     0.111 A 
ATOM      6  C   UNL     1      21.749  52.754  44.702  1.00  0.00     0.134 A 
ATOM      7  C   UNL     1      22.630  51.666  44.725  1.00  0.00     0.093 A 
ATOM      8  C   UNL     1      22.447  50.572  43.877  1.00  0.00     0.123 A 
ATOM      9  C   UNL     1      21.375  50.559  42.986  1.00  0.00     0.094 A 
ATOM     10  C   UNL     1      20.501  51.645  42.915  1.00  0.00     0.146 A 
ATOM     11  O   UNL     1      19.499  51.596  42.044  1.00  0.00    -0.452 OA
ENDROOT
BRANCH   1  12
ATOM     12  C   UNL     1      17.536  52.392  40.893  1.00  0.00     0.025 A 
ATOM     13  C   UNL     1      17.663  52.945  39.608  1.00  0.00     0.016 A 
ATOM     14  C   UNL     1      16.657  52.760  38.656  1.00  0.00     0.051 A 
ATOM     15  C   UNL     1      15.519  52.007  38.968  1.00  0.00     0.157 A 
ATOM     16  C   UNL     1      16.400  51.619  41.195  1.00  0.00     0.062 A 
ATOM     17  C   UNL     1      15.391  51.431  40.239  1.00  0.00     0.158 A 
BRANCH  15  18
ATOM     18  O   UNL     1      14.513  51.822  38.021  1.00  0.00    -0.504 OA
ATOM     19  H   UNL     1      14.723  51.752  37.033  1.00  0.00     0.293 HD
ENDBRANCH  15  18
BRANCH  17  20
ATOM     20  O   UNL     1      14.264  50.671  40.542  1.00  0.00    -0.504 OA
ATOM     21  H   UNL     1      13.534  50.507  39.856  1.00  0.00     0.293 HD
ENDBRANCH  17  20
ENDBRANCH   1  12
BRANCH   2  22
ATOM     22  O   UNL     1      17.910  54.850  42.380  1.00  0.00    -0.502 OA
ATOM     23  H   UNL     1      17.176  54.820  41.683  1.00  0.00     0.293 HD
ENDBRANCH   2  22
BRANCH   6  24
ATOM     24  O   UNL     1      21.965  53.753  45.656  1.00  0.00    -0.507 OA
ATOM     25  H   UNL     1      22.584  53.667  46.447  1.00  0.00     0.293 HD
ENDBRANCH   6  24
BRANCH   8  26
ATOM     26  O   UNL     1      23.319  49.486  43.918  1.00  0.00    -0.508 OA
ATOM     27  H   UNL     1      23.476  48.965  44.773  1.00  0.00     0.293 HD
ENDBRANCH   8  26
TORSDOF 6
ENDMDL
MODEL 7
REMARK VINA RESULT:    -4.499      1.593      7.052
REMARK INTER + INTRA:          -5.740
REMARK INTER:                  -5.488
REMARK INTRA:                  -0.253
REMARK UNBOUND:                -0.321
REMARK SMILES O=c1c(O)c(-c2ccc(O)c(O)c2)oc2cc(O)cc(O)c12
REMARK SMILES IDX 5 1 3 2 2 3 1 4 22 5 20 6 19 7 17 8 16 9 15 10 14 11 6 12
REMARK SMILES IDX 7 13 8 14 9 15 13 16 11 17 10 18 12 20 4 22 21 24 18 26
REMARK H PARENT 10 19 12 21 4 23 21 25 18 27
REMARK Flexibility Score: inf
ROOT
ATOM      1  C   UNL     1      19.400  53.109  43.698  1.00  0.00     0.180 A 
ATOM      2  C   UNL     1      18.217  52.708  44.342  1.00  0.00     0.208 A 
ATOM      3  C   UNL     1      17.006  52.756  43.633  1.00  0.00     0.238 A 
ATOM      4  O   UNL     1      15.958  52.343  44.197  1.00  0.00    -0.285 OA
ATOM      5  C   UNL     1      16.990  53.221  42.296  1.00  0.00     0.111 A 
ATOM      6  C   UNL     1      15.814  53.352  41.497  1.00  0.00     0.134 A 
ATOM      7  C   UNL     1      15.933  53.698  40.145  1.00  0.00     0.093 A 
ATOM      8  C   UNL     1      17.179  53.983  39.581  1.00  0.00     0.123 A 
ATOM      9  C   UNL     1      18.327  53.917  40.369  1.00  0.00     0.094 A 
ATOM     10  C   UNL     1      18.243  53.538  41.711  1.00  0.00     0.146 A 
ATOM     11  O   UNL     1      19.363  53.478  42.423  1.00  0.00    -0.452 OA
ENDROOT
BRANCH   1  12
ATOM     12  C   UNL     1      20.711  53.109  44.387  1.00  0.00     0.025 A 
ATOM     13  C   UNL     1      21.699  52.192  43.993  1.00  0.00     0.016 A 
ATOM     14  C   UNL     1      22.950  52.189  44.615  1.00  0.00     0.051 A 
ATOM     15  C   UNL     1      23.236  53.111  45.629  1.00  0.00     0.157 A 
ATOM     16  C   UNL     1      21.010  54.047  45.392  1.00  0.00     0.062 A 
ATOM     17  C   UNL     1      22.267  54.045  46.016  1.00  0.00     0.158 A 
BRANCH  15  18
ATOM     18  O   UNL     1      24.482  53.109  46.254  1.00  0.00    -0.504 OA
ATOM     19  H   UNL     1      25.111  53.901  46.183  1.00  0.00     0.293 HD
ENDBRANCH  15  18
BRANCH  17  20
ATOM     20  O   UNL     1      22.560  54.970  47.015  1.00  0.00    -0.504 OA
ATOM     21  H   UNL     1      22.092  55.869  47.059  1.00  0.00     0.293 HD
ENDBRANCH  17  20
ENDBRANCH   1  12
BRANCH   2  22
ATOM     22  O   UNL     1      18.258  52.230  45.655  1.00  0.00    -0.502 OA
ATOM     23  H   UNL     1      19.108  51.879  46.080  1.00  0.00     0.293 HD
ENDBRANCH   2  22
BRANCH   6  24
ATOM     24  O   UNL     1      14.516  53.179  41.985  1.00  0.00    -0.507 OA
ATOM     25  H   UNL     1      14.144  52.309  42.333  1.00  0.00     0.293 HD
ENDBRANCH   6  24
BRANCH   8  26
ATOM     26  O   UNL     1      17.287  54.343  38.240  1.00  0.00    -0.508 OA
ATOM     27  H   UNL     1      17.727  55.211  37.959  1.00  0.00     0.293 HD
ENDBRANCH   8  26
TORSDOF 6
ENDMDL
MODEL 8
REMARK VINA RESULT:    -4.325      2.048      2.996
REMARK INTER + INTRA:          -5.530
REMARK INTER:                  -5.236
REMARK INTRA:                  -0.294
REMARK UNBOUND:                -0.321
REMARK SMILES O=c1c(O)c(-c2ccc(O)c(O)c2)oc2cc(O)cc(O)c12
REMARK SMILES IDX 5 1 3 2 2 3 1 4 22 5 20 6 19 7 17 8 16 9 15 10 14 11 6 12
REMARK SMILES IDX 7 13 8 14 9 15 13 16 11 17 10 18 12 20 4 22 21 24 18 26
REMARK H PARENT 10 19 12 21 4 23 21 25 18 27
REMARK Flexibility Score: inf
ROOT
ATOM      1  C   UNL     1      17.109  53.092  42.538  1.00  0.00     0.180 A 
ATOM      2  C   UNL     1      16.518  52.590  43.710  1.00  0.00     0.208 A 
ATOM      3  C   UNL     1      17.346  52.144  44.753  1.00  0.00     0.238 A 
ATOM      4  O   UNL     1      16.811  51.746  45.822  1.00  0.00    -0.285 OA
ATOM      5  C   UNL     1      18.753  52.191  44.605  1.00  0.00     0.111 A 
ATOM      6  C   UNL     1      19.687  51.727  45.581  1.00  0.00     0.134 A 
ATOM      7  C   UNL     1      21.056  51.942  45.383  1.00  0.00     0.093 A 
ATOM      8  C   UNL     1      21.529  52.545  44.215  1.00  0.00     0.123 A 
ATOM      9  C   UNL     1      20.629  52.947  43.230  1.00  0.00     0.094 A 
ATOM     10  C   UNL     1      19.255  52.778  43.415  1.00  0.00     0.146 A 
ATOM     11  O   UNL     1      18.431  53.185  42.456  1.00  0.00    -0.452 OA
ENDROOT
BRANCH   1  12
ATOM     12  C   UNL     1      16.303  53.558  41.387  1.00  0.00     0.025 A 
ATOM     13  C   UNL     1      16.071  52.688  40.309  1.00  0.00     0.016 A 
ATOM     14  C   UNL     1      15.295  53.099  39.222  1.00  0.00     0.051 A 
ATOM     15  C   UNL     1      14.728  54.379  39.204  1.00  0.00     0.157 A 
ATOM     16  C   UNL     1      15.713  54.835  41.374  1.00  0.00     0.062 A 
ATOM     17  C   UNL     1      14.933  55.247  40.284  1.00  0.00     0.158 A 
BRANCH  15  18
ATOM     18  O   UNL     1      13.955  54.794  38.121  1.00  0.00    -0.504 OA
ATOM     19  H   UNL     1      13.530  54.127  37.487  1.00  0.00     0.293 HD
ENDBRANCH  15  18
BRANCH  17  20
ATOM     20  O   UNL     1      14.355  56.515  40.269  1.00  0.00    -0.504 OA
ATOM     21  H   UNL     1      14.210  57.022  39.403  1.00  0.00     0.293 HD
ENDBRANCH  17  20
ENDBRANCH   1  12
BRANCH   2  22
ATOM     22  O   UNL     1      15.127  52.574  43.845  1.00  0.00    -0.502 OA
ATOM     23  H   UNL     1      14.551  51.834  43.461  1.00  0.00     0.293 HD
ENDBRANCH   2  22
BRANCH   6  24
ATOM     24  O   UNL     1      19.325  51.031  46.739  1.00  0.00    -0.507 OA
ATOM     25  H   UNL     1      18.806  51.427  47.507  1.00  0.00     0.293 HD
ENDBRANCH   6  24
BRANCH   8  26
ATOM     26  O   UNL     1      22.894  52.741  44.019  1.00  0.00    -0.508 OA
ATOM     27  H   UNL     1      23.241  53.397  43.328  1.00  0.00     0.293 HD
ENDBRANCH   8  26
TORSDOF 6
ENDMDL
MODEL 9
REMARK VINA RESULT:    -4.259      1.918      7.275
REMARK INTER + INTRA:          -5.452
REMARK INTER:                  -5.352
REMARK INTRA:                  -0.100
REMARK UNBOUND:                -0.321
REMARK SMILES O=c1c(O)c(-c2ccc(O)c(O)c2)oc2cc(O)cc(O)c12
REMARK SMILES IDX 5 1 3 2 2 3 1 4 22 5 20 6 19 7 17 8 16 9 15 10 14 11 6 12
REMARK SMILES IDX 7 13 8 14 9 15 13 16 11 17 10 18 12 20 4 22 21 24 18 26
REMARK H PARENT 10 19 12 21 4 23 21 25 18 27
REMARK Flexibility Score: inf
ROOT
ATOM      1  C   UNL     1      18.812  52.397  43.011  1.00  0.00     0.180 A 
ATOM      2  C   UNL     1      17.638  52.570  43.765  1.00  0.00     0.208 A 
ATOM      3  C   UNL     1      16.397  52.545  43.109  1.00  0.00     0.238 A 
ATOM      4  O   UNL     1      15.347  52.645  43.797  1.00  0.00    -0.285 OA
ATOM      5  C   UNL     1      16.345  52.363  41.706  1.00  0.00     0.111 A 
ATOM      6  C   UNL     1      15.145  52.362  40.932  1.00  0.00     0.134 A 
ATOM      7  C   UNL     1      15.203  52.044  39.570  1.00  0.00     0.093 A 
ATOM      8  C   UNL     1      16.423  51.791  38.940  1.00  0.00     0.123 A 
ATOM      9  C   UNL     1      17.606  51.849  39.674  1.00  0.00     0.094 A 
ATOM     10  C   UNL     1      17.577  52.128  41.042  1.00  0.00     0.146 A 
ATOM     11  O   UNL     1      18.727  52.163  41.706  1.00  0.00    -0.452 OA
ENDROOT
BRANCH   1  12
ATOM     12  C   UNL     1      20.157  52.436  43.628  1.00  0.00     0.025 A 
ATOM     13  C   UNL     1      20.565  53.585  44.324  1.00  0.00     0.016 A 
ATOM     14  C   UNL     1      21.822  53.635  44.932  1.00  0.00     0.051 A 
ATOM     15  C   UNL     1      22.682  52.533  44.866  1.00  0.00     0.157 A 
ATOM     16  C   UNL     1      21.017  51.323  43.582  1.00  0.00     0.062 A 
ATOM     17  C   UNL     1      22.278  51.373  44.194  1.00  0.00     0.158 A 
BRANCH  15  18
ATOM     18  O   UNL     1      23.938  52.580  45.470  1.00  0.00    -0.504 OA
ATOM     19  H   UNL     1      24.101  52.175  46.384  1.00  0.00     0.293 HD
ENDBRANCH  15  18
BRANCH  17  20
ATOM     20  O   UNL     1      23.131  50.272  44.142  1.00  0.00    -0.504 OA
ATOM     21  H   UNL     1      23.393  49.846  43.260  1.00  0.00     0.293 HD
ENDBRANCH  17  20
ENDBRANCH   1  12
BRANCH   2  22
ATOM     22  O   UNL     1      17.710  52.724  45.152  1.00  0.00    -0.502 OA
ATOM     23  H   UNL     1      18.206  52.071  45.747  1.00  0.00     0.293 HD
ENDBRANCH   2  22
BRANCH   6  24
ATOM     24  O   UNL     1      13.886  52.691  41.444  1.00  0.00    -0.507 OA
ATOM     25  H   UNL     1      13.302  53.435  41.097  1.00  0.00     0.293 HD
ENDBRANCH   6  24
BRANCH   8  26
ATOM     26  O   UNL     1      16.473  51.492  37.580  1.00  0.00    -0.508 OA
ATOM     27  H   UNL     1      15.683  51.668  36.970  1.00  0.00     0.293 HD
ENDBRANCH   8  26
TORSDOF 6
ENDMDL
