MODEL 1
REMARK VINA RESULT:    -3.332      0.000      0.000
REMARK INTER + INTRA:          -3.993
REMARK INTER:                  -3.917
REMARK INTRA:                  -0.076
REMARK UNBOUND:                -0.076
REMARK SMILES CCCCC(=O)[O-]
REMARK SMILES IDX 4 1 5 2 6 3 7 4 3 5 2 6 1 7
REMARK H PARENT
REMARK Flexibility Score: inf
ROOT
ATOM      1  C   UNL     1       6.971  -8.044   4.804  1.00  0.00     0.053 C 
ENDROOT
BRANCH   1   2
ATOM      2  C   UNL     1       7.815  -7.829   3.584  1.00  0.00     0.041 C 
ATOM      3  O   UNL     1       7.331  -7.257   2.572  1.00  0.00    -0.550 OA
ATOM      4  O   UNL     1       9.125  -8.289   3.554  1.00  0.00    -0.550 OA
ENDBRANCH   1   2
BRANCH   1   5
ATOM      5  C   UNL     1       7.445  -7.188   5.989  1.00  0.00     0.006 C 
BRANCH   5   6
ATOM      6  C   UNL     1       8.065  -7.996   7.142  1.00  0.00    -0.003 C 
ATOM      7  C   UNL     1       8.298  -9.463   6.783  1.00  0.00     0.004 C 
ENDBRANCH   5   6
ENDBRANCH   1   5
TORSDOF 3
ENDMDL
MODEL 2
REMARK VINA RESULT:    -3.251     13.488     14.324
REMARK INTER + INTRA:          -3.896
REMARK INTER:                  -3.800
REMARK INTRA:                  -0.097
REMARK UNBOUND:                -0.076
REMARK SMILES CCCCC(=O)[O-]
REMARK SMILES IDX 4 1 5 2 6 3 7 4 3 5 2 6 1 7
REMARK H PARENT
REMARK Flexibility Score: inf
ROOT
ATOM      1  C   UNL     1      -0.211  -0.862  -4.409  1.00  0.00     0.053 C 
ENDROOT
BRANCH   1   2
ATOM      2  C   UNL     1       0.997  -1.539  -4.981  1.00  0.00     0.041 C 
ATOM      3  O   UNL     1       1.018  -1.876  -6.195  1.00  0.00    -0.550 OA
ATOM      4  O   UNL     1       2.084  -1.828  -4.168  1.00  0.00    -0.550 OA
ENDBRANCH   1   2
BRANCH   1   5
ATOM      5  C   UNL     1       0.077   0.599  -4.025  1.00  0.00     0.006 C 
BRANCH   5   6
ATOM      6  C   UNL     1       0.976   1.347  -5.024  1.00  0.00    -0.003 C 
ATOM      7  C   UNL     1       2.221   1.946  -4.371  1.00  0.00     0.004 C 
ENDBRANCH   5   6
ENDBRANCH   1   5
TORSDOF 3
ENDMDL
MODEL 3
REMARK VINA RESULT:    -3.188     13.345     14.470
REMARK INTER + INTRA:          -3.822
REMARK INTER:                  -3.706
REMARK INTRA:                  -0.116
REMARK UNBOUND:                -0.076
REMARK SMILES CCCCC(=O)[O-]
REMARK SMILES IDX 4 1 5 2 6 3 7 4 3 5 2 6 1 7
REMARK H PARENT
REMARK Flexibility Score: inf
ROOT
ATOM      1  C   UNL     1      -0.084  -0.875  -4.188  1.00  0.00     0.053 C 
ENDROOT
BRANCH   1   2
ATOM      2  C   UNL     1       1.059  -1.594  -4.838  1.00  0.00     0.041 C 
ATOM      3  O   UNL     1       2.007  -2.040  -4.138  1.00  0.00    -0.550 OA
ATOM      4  O   UNL     1       1.093  -1.743  -6.218  1.00  0.00    -0.550 OA
ENDBRANCH   1   2
BRANCH   1   5
ATOM      5  C   UNL     1      -0.100   0.620  -4.545  1.00  0.00     0.006 C 
BRANCH   5   6
ATOM      6  C   UNL     1       1.253   1.328  -4.357  1.00  0.00    -0.003 C 
ATOM      7  C   UNL     1       1.700   2.095  -5.600  1.00  0.00     0.004 C 
ENDBRANCH   5   6
ENDBRANCH   1   5
TORSDOF 3
ENDMDL
MODEL 4
REMARK VINA RESULT:    -3.181     17.952     19.211
REMARK INTER + INTRA:          -3.815
REMARK INTER:                  -3.708
REMARK INTRA:                  -0.107
REMARK UNBOUND:                -0.076
REMARK SMILES CCCCC(=O)[O-]
REMARK SMILES IDX 4 1 5 2 6 3 7 4 3 5 2 6 1 7
REMARK H PARENT
REMARK Flexibility Score: inf
ROOT
ATOM      1  C   UNL     1      -7.195  -6.387  -5.725  1.00  0.00     0.053 C 
ENDROOT
BRANCH   1   2
ATOM      2  C   UNL     1      -6.637  -5.545  -4.618  1.00  0.00     0.041 C 
ATOM      3  O   UNL     1      -6.216  -6.086  -3.562  1.00  0.00    -0.550 OA
ATOM      4  O   UNL     1      -6.613  -4.161  -4.739  1.00  0.00    -0.550 OA
ENDBRANCH   1   2
BRANCH   1   5
ATOM      5  C   UNL     1      -7.563  -5.545  -6.957  1.00  0.00     0.006 C 
BRANCH   5   6
ATOM      6  C   UNL     1      -9.073  -5.300  -7.125  1.00  0.00    -0.003 C 
ATOM      7  C   UNL     1      -9.482  -3.864  -6.797  1.00  0.00     0.004 C 
ENDBRANCH   5   6
ENDBRANCH   1   5
TORSDOF 3
ENDMDL
MODEL 5
REMARK VINA RESULT:    -3.167      3.139      3.964
REMARK INTER + INTRA:          -3.798
REMARK INTER:                  -3.772
REMARK INTRA:                  -0.026
REMARK UNBOUND:                -0.076
REMARK SMILES CCCCC(=O)[O-]
REMARK SMILES IDX 4 1 5 2 6 3 7 4 3 5 2 6 1 7
REMARK H PARENT
REMARK Flexibility Score: inf
ROOT
ATOM      1  C   UNL     1       8.261  -8.370   6.347  1.00  0.00     0.053 C 
ENDROOT
BRANCH   1   2
ATOM      2  C   UNL     1       8.320  -8.609   7.825  1.00  0.00     0.041 C 
ATOM      3  O   UNL     1       7.838  -9.665   8.315  1.00  0.00    -0.550 OA
ATOM      4  O   UNL     1       8.876  -7.652   8.664  1.00  0.00    -0.550 OA
ENDBRANCH   1   2
BRANCH   1   5
ATOM      5  C   UNL     1       7.280  -7.243   5.985  1.00  0.00     0.006 C 
BRANCH   5   6
ATOM      6  C   UNL     1       7.241  -6.898   4.486  1.00  0.00    -0.003 C 
ATOM      7  C   UNL     1       7.943  -7.941   3.618  1.00  0.00     0.004 C 
ENDBRANCH   5   6
ENDBRANCH   1   5
TORSDOF 3
ENDMDL
MODEL 6
REMARK VINA RESULT:    -3.150     11.621     12.854
REMARK INTER + INTRA:          -3.779
REMARK INTER:                  -3.701
REMARK INTRA:                  -0.078
REMARK UNBOUND:                -0.076
REMARK SMILES CCCCC(=O)[O-]
REMARK SMILES IDX 4 1 5 2 6 3 7 4 3 5 2 6 1 7
REMARK H PARENT
REMARK Flexibility Score: inf
ROOT
ATOM      1  C   UNL     1       5.278  -0.076  -2.885  1.00  0.00     0.053 C 
ENDROOT
BRANCH   1   2
ATOM      2  C   UNL     1       4.788  -1.099  -3.864  1.00  0.00     0.041 C 
ATOM      3  O   UNL     1       5.564  -1.556  -4.744  1.00  0.00    -0.550 OA
ATOM      4  O   UNL     1       3.466  -1.523  -3.825  1.00  0.00    -0.550 OA
ENDBRANCH   1   2
BRANCH   1   5
ATOM      5  C   UNL     1       5.546   1.281  -3.557  1.00  0.00     0.006 C 
BRANCH   5   6
ATOM      6  C   UNL     1       4.287   1.965  -4.118  1.00  0.00    -0.003 C 
ATOM      7  C   UNL     1       4.166   3.428  -3.694  1.00  0.00     0.004 C 
ENDBRANCH   5   6
ENDBRANCH   1   5
TORSDOF 3
ENDMDL
MODEL 7
REMARK VINA RESULT:    -3.092      1.302      2.144
REMARK INTER + INTRA:          -3.710
REMARK INTER:                  -3.623
REMARK INTRA:                  -0.088
REMARK UNBOUND:                -0.076
REMARK SMILES CCCCC(=O)[O-]
REMARK SMILES IDX 4 1 5 2 6 3 7 4 3 5 2 6 1 7
REMARK H PARENT
REMARK Flexibility Score: inf
ROOT
ATOM      1  C   UNL     1       9.086  -8.741   4.285  1.00  0.00     0.053 C 
ENDROOT
BRANCH   1   2
ATOM      2  C   UNL     1       8.329  -8.781   2.992  1.00  0.00     0.041 C 
ATOM      3  O   UNL     1       8.391  -9.799   2.254  1.00  0.00    -0.550 OA
ATOM      4  O   UNL     1       7.582  -7.682   2.589  1.00  0.00    -0.550 OA
ENDBRANCH   1   2
BRANCH   1   5
ATOM      5  C   UNL     1       8.190  -9.079   5.487  1.00  0.00     0.006 C 
BRANCH   5   6
ATOM      6  C   UNL     1       7.967  -7.904   6.456  1.00  0.00    -0.003 C 
ATOM      7  C   UNL     1       6.973  -6.873   5.922  1.00  0.00     0.004 C 
ENDBRANCH   5   6
ENDBRANCH   1   5
TORSDOF 3
ENDMDL
MODEL 8
REMARK VINA RESULT:    -3.026     11.640     13.165
REMARK INTER + INTRA:          -3.633
REMARK INTER:                  -3.612
REMARK INTRA:                  -0.021
REMARK UNBOUND:                -0.076
REMARK SMILES CCCCC(=O)[O-]
REMARK SMILES IDX 4 1 5 2 6 3 7 4 3 5 2 6 1 7
REMARK H PARENT
REMARK Flexibility Score: inf
ROOT
ATOM      1  C   UNL     1       4.177   0.365  -4.117  1.00  0.00     0.053 C 
ENDROOT
BRANCH   1   2
ATOM      2  C   UNL     1       4.616  -1.034  -3.809  1.00  0.00     0.041 C 
ATOM      3  O   UNL     1       5.377  -1.648  -4.603  1.00  0.00    -0.550 OA
ATOM      4  O   UNL     1       4.160  -1.670  -2.662  1.00  0.00    -0.550 OA
ENDBRANCH   1   2
BRANCH   1   5
ATOM      5  C   UNL     1       2.858   0.392  -4.907  1.00  0.00     0.006 C 
BRANCH   5   6
ATOM      6  C   UNL     1       1.838   1.424  -4.394  1.00  0.00    -0.003 C 
ATOM      7  C   UNL     1       0.415   0.871  -4.328  1.00  0.00     0.004 C 
ENDBRANCH   5   6
ENDBRANCH   1   5
TORSDOF 3
ENDMDL
MODEL 9
REMARK VINA RESULT:    -3.020     12.967     14.033
REMARK INTER + INTRA:          -3.626
REMARK INTER:                  -3.503
REMARK INTRA:                  -0.122
REMARK UNBOUND:                -0.076
REMARK SMILES CCCCC(=O)[O-]
REMARK SMILES IDX 4 1 5 2 6 3 7 4 3 5 2 6 1 7
REMARK H PARENT
REMARK Flexibility Score: inf
ROOT
ATOM      1  C   UNL     1       0.821   0.418  -5.200  1.00  0.00     0.053 C 
ENDROOT
BRANCH   1   2
ATOM      2  C   UNL     1       1.467  -0.922  -5.376  1.00  0.00     0.041 C 
ATOM      3  O   UNL     1       1.151  -1.654  -6.351  1.00  0.00    -0.550 OA
ATOM      4  O   UNL     1       2.393  -1.376  -4.446  1.00  0.00    -0.550 OA
ENDBRANCH   1   2
BRANCH   1   5
ATOM      5  C   UNL     1       0.002   0.496  -3.901  1.00  0.00     0.006 C 
BRANCH   5   6
ATOM      6  C   UNL     1      -0.976  -0.676  -3.702  1.00  0.00    -0.003 C 
ATOM      7  C   UNL     1      -0.672  -1.497  -2.450  1.00  0.00     0.004 C 
ENDBRANCH   5   6
ENDBRANCH   1   5
TORSDOF 3
ENDMDL
