MODEL 1
REMARK VINA RESULT:    -7.036      0.000      0.000
REMARK INTER + INTRA:          -9.448
REMARK INTER:                  -8.887
REMARK INTRA:                  -0.560
REMARK UNBOUND:                -0.560
REMARK SMILES Oc1cc(O)cc(CCc2ccccc2O)c1
REMARK SMILES IDX 9 1 10 2 12 3 13 4 11 5 14 6 15 7 16 8 8 10 7 11 6 12 17 13
REMARK SMILES IDX 4 14 2 15 3 16 5 17 1 19
REMARK H PARENT 16 9 5 18 1 20
REMARK Flexibility Score: inf
ROOT
ATOM      1  C   UNL     1     -25.725  61.168  31.056  1.00  0.00     0.044 C 
ENDROOT
BRANCH   1   2
ATOM      2  C   UNL     1     -26.006  61.264  32.534  1.00  0.00    -0.006 A 
ATOM      3  C   UNL     1     -25.294  60.882  34.828  1.00  0.00     0.001 A 
ATOM      4  C   UNL     1     -26.462  61.488  35.296  1.00  0.00     0.004 A 
ATOM      5  C   UNL     1     -25.064  60.773  33.455  1.00  0.00     0.007 A 
ATOM      6  C   UNL     1     -27.398  61.993  34.392  1.00  0.00     0.046 A 
ATOM      7  C   UNL     1     -27.175  61.890  33.011  1.00  0.00     0.118 A 
BRANCH   7   8
ATOM      8  O   UNL     1     -28.109  62.409  32.114  1.00  0.00    -0.508 OA
ATOM      9  H   UNL     1     -28.240  63.408  32.002  1.00  0.00     0.293 HD
ENDBRANCH   7   8
ENDBRANCH   1   2
BRANCH   1  10
ATOM     10  C   UNL     1     -25.017  62.432  30.559  1.00  0.00     0.040 C 
BRANCH  10  11
ATOM     11  C   UNL     1     -23.607  62.116  30.136  1.00  0.00    -0.040 A 
ATOM     12  C   UNL     1     -22.557  62.186  31.065  1.00  0.00     0.050 A 
ATOM     13  C   UNL     1     -23.322  61.805  28.796  1.00  0.00     0.050 A 
ATOM     14  C   UNL     1     -21.240  61.926  30.665  1.00  0.00     0.119 A 
ATOM     15  C   UNL     1     -22.005  61.546  28.395  1.00  0.00     0.119 A 
ATOM     16  C   UNL     1     -20.968  61.603  29.332  1.00  0.00     0.092 A 
BRANCH  14  17
ATOM     17  O   UNL     1     -20.193  61.987  31.584  1.00  0.00    -0.508 OA
ATOM     18  H   UNL     1     -20.044  62.805  32.163  1.00  0.00     0.293 HD
ENDBRANCH  14  17
BRANCH  15  19
ATOM     19  O   UNL     1     -21.716  61.230  27.069  1.00  0.00    -0.508 OA
ATOM     20  H   UNL     1     -22.416  60.832  26.455  1.00  0.00     0.293 HD
ENDBRANCH  15  19
ENDBRANCH  10  11
ENDBRANCH   1  10
TORSDOF 6
ENDMDL
MODEL 2
REMARK VINA RESULT:    -7.011      0.039      2.031
REMARK INTER + INTRA:          -9.416
REMARK INTER:                  -8.860
REMARK INTRA:                  -0.556
REMARK UNBOUND:                -0.560
REMARK SMILES Oc1cc(O)cc(CCc2ccccc2O)c1
REMARK SMILES IDX 9 1 10 2 12 3 13 4 11 5 14 6 15 7 16 8 8 10 7 11 6 12 17 13
REMARK SMILES IDX 4 14 2 15 3 16 5 17 1 19
REMARK H PARENT 16 9 5 18 1 20
REMARK Flexibility Score: inf
ROOT
ATOM      1  C   UNL     1     -25.700  61.157  31.075  1.00  0.00     0.044 C 
ENDROOT
BRANCH   1   2
ATOM      2  C   UNL     1     -26.001  61.256  32.549  1.00  0.00    -0.006 A 
ATOM      3  C   UNL     1     -25.314  60.890  34.853  1.00  0.00     0.001 A 
ATOM      4  C   UNL     1     -26.494  61.485  35.304  1.00  0.00     0.004 A 
ATOM      5  C   UNL     1     -25.066  60.778  33.483  1.00  0.00     0.007 A 
ATOM      6  C   UNL     1     -27.424  61.978  34.386  1.00  0.00     0.046 A 
ATOM      7  C   UNL     1     -27.182  61.872  33.008  1.00  0.00     0.118 A 
BRANCH   7   8
ATOM      8  O   UNL     1     -28.110  62.378  32.097  1.00  0.00    -0.508 OA
ATOM      9  H   UNL     1     -27.915  62.411  31.104  1.00  0.00     0.293 HD
ENDBRANCH   7   8
ENDBRANCH   1   2
BRANCH   1  10
ATOM     10  C   UNL     1     -25.030  62.440  30.575  1.00  0.00     0.040 C 
BRANCH  10  11
ATOM     11  C   UNL     1     -23.612  62.165  30.149  1.00  0.00    -0.040 A 
ATOM     12  C   UNL     1     -23.328  61.811  28.821  1.00  0.00     0.050 A 
ATOM     13  C   UNL     1     -22.570  62.204  31.090  1.00  0.00     0.050 A 
ATOM     14  C   UNL     1     -22.014  61.522  28.431  1.00  0.00     0.119 A 
ATOM     15  C   UNL     1     -21.255  61.914  30.702  1.00  0.00     0.119 A 
ATOM     16  C   UNL     1     -20.981  61.578  29.372  1.00  0.00     0.092 A 
BRANCH  14  17
ATOM     17  O   UNL     1     -21.724  61.177  27.112  1.00  0.00    -0.508 OA
ATOM     18  H   UNL     1     -21.213  60.332  26.886  1.00  0.00     0.293 HD
ENDBRANCH  14  17
BRANCH  15  19
ATOM     19  O   UNL     1     -20.215  61.958  31.628  1.00  0.00    -0.508 OA
ATOM     20  H   UNL     1     -19.815  61.112  32.015  1.00  0.00     0.293 HD
ENDBRANCH  15  19
ENDBRANCH  10  11
ENDBRANCH   1  10
TORSDOF 6
ENDMDL
MODEL 3
REMARK VINA RESULT:    -6.523      2.040      6.139
REMARK INTER + INTRA:          -8.799
REMARK INTER:                  -8.216
REMARK INTRA:                  -0.583
REMARK UNBOUND:                -0.560
REMARK SMILES Oc1cc(O)cc(CCc2ccccc2O)c1
REMARK SMILES IDX 9 1 10 2 12 3 13 4 11 5 14 6 15 7 16 8 8 10 7 11 6 12 17 13
REMARK SMILES IDX 4 14 2 15 3 16 5 17 1 19
REMARK H PARENT 16 9 5 18 1 20
REMARK Flexibility Score: inf
ROOT
ATOM      1  C   UNL     1     -24.011  61.412  28.478  1.00  0.00     0.044 C 
ENDROOT
BRANCH   1   2
ATOM      2  C   UNL     1     -22.605  61.597  28.990  1.00  0.00    -0.006 A 
ATOM      3  C   UNL     1     -21.090  61.965  30.857  1.00  0.00     0.001 A 
ATOM      4  C   UNL     1     -19.997  61.879  29.993  1.00  0.00     0.004 A 
ATOM      5  C   UNL     1     -22.388  61.821  30.361  1.00  0.00     0.007 A 
ATOM      6  C   UNL     1     -20.198  61.641  28.632  1.00  0.00     0.046 A 
ATOM      7  C   UNL     1     -21.498  61.494  28.124  1.00  0.00     0.118 A 
BRANCH   7   8
ATOM      8  O   UNL     1     -21.690  61.244  26.765  1.00  0.00    -0.508 OA
ATOM      9  H   UNL     1     -20.951  60.863  26.186  1.00  0.00     0.293 HD
ENDBRANCH   7   8
ENDBRANCH   1   2
BRANCH   1  10
ATOM     10  C   UNL     1     -24.490  59.979  28.729  1.00  0.00     0.040 C 
BRANCH  10  11
ATOM     11  C   UNL     1     -25.129  59.866  30.088  1.00  0.00    -0.040 A 
ATOM     12  C   UNL     1     -26.148  60.754  30.466  1.00  0.00     0.050 A 
ATOM     13  C   UNL     1     -24.672  58.908  31.007  1.00  0.00     0.050 A 
ATOM     14  C   UNL     1     -26.721  60.671  31.742  1.00  0.00     0.119 A 
ATOM     15  C   UNL     1     -25.243  58.825  32.284  1.00  0.00     0.119 A 
ATOM     16  C   UNL     1     -26.268  59.704  32.646  1.00  0.00     0.092 A 
BRANCH  14  17
ATOM     17  O   UNL     1     -27.737  61.545  32.123  1.00  0.00    -0.508 OA
ATOM     18  H   UNL     1     -28.711  61.269  32.094  1.00  0.00     0.293 HD
ENDBRANCH  14  17
BRANCH  15  19
ATOM     19  O   UNL     1     -24.800  57.873  33.200  1.00  0.00    -0.508 OA
ATOM     20  H   UNL     1     -25.215  56.950  33.247  1.00  0.00     0.293 HD
ENDBRANCH  15  19
ENDBRANCH  10  11
ENDBRANCH   1  10
TORSDOF 6
ENDMDL
MODEL 4
REMARK VINA RESULT:    -6.397      1.690      6.133
REMARK INTER + INTRA:          -8.640
REMARK INTER:                  -8.134
REMARK INTRA:                  -0.506
REMARK UNBOUND:                -0.560
REMARK SMILES Oc1cc(O)cc(CCc2ccccc2O)c1
REMARK SMILES IDX 9 1 10 2 12 3 13 4 11 5 14 6 15 7 16 8 8 10 7 11 6 12 17 13
REMARK SMILES IDX 4 14 2 15 3 16 5 17 1 19
REMARK H PARENT 16 9 5 18 1 20
REMARK Flexibility Score: inf
ROOT
ATOM      1  C   UNL     1     -24.719  62.431  30.034  1.00  0.00     0.044 C 
ENDROOT
BRANCH   1   2
ATOM      2  C   UNL     1     -23.377  62.005  29.495  1.00  0.00    -0.006 A 
ATOM      3  C   UNL     1     -22.006  61.297  27.614  1.00  0.00     0.001 A 
ATOM      4  C   UNL     1     -20.879  61.274  28.439  1.00  0.00     0.004 A 
ATOM      5  C   UNL     1     -23.249  61.664  28.137  1.00  0.00     0.007 A 
ATOM      6  C   UNL     1     -20.990  61.625  29.785  1.00  0.00     0.046 A 
ATOM      7  C   UNL     1     -22.234  61.997  30.319  1.00  0.00     0.118 A 
BRANCH   7   8
ATOM      8  O   UNL     1     -22.335  62.359  31.663  1.00  0.00    -0.508 OA
ATOM      9  H   UNL     1     -23.196  62.727  32.050  1.00  0.00     0.293 HD
ENDBRANCH   7   8
ENDBRANCH   1   2
BRANCH   1  10
ATOM     10  C   UNL     1     -25.536  61.211  30.470  1.00  0.00     0.040 C 
BRANCH  10  11
ATOM     11  C   UNL     1     -25.723  61.206  31.964  1.00  0.00    -0.040 A 
ATOM     12  C   UNL     1     -24.820  60.516  32.788  1.00  0.00     0.050 A 
ATOM     13  C   UNL     1     -26.834  61.844  32.540  1.00  0.00     0.050 A 
ATOM     14  C   UNL     1     -25.013  60.483  34.176  1.00  0.00     0.119 A 
ATOM     15  C   UNL     1     -27.028  61.811  33.927  1.00  0.00     0.119 A 
ATOM     16  C   UNL     1     -26.114  61.134  34.741  1.00  0.00     0.092 A 
BRANCH  14  17
ATOM     17  O   UNL     1     -24.117  59.806  35.001  1.00  0.00    -0.508 OA
ATOM     18  H   UNL     1     -23.131  60.038  35.016  1.00  0.00     0.293 HD
ENDBRANCH  14  17
BRANCH  15  19
ATOM     19  O   UNL     1     -28.123  62.448  34.506  1.00  0.00    -0.508 OA
ATOM     20  H   UNL     1     -28.045  62.939  35.389  1.00  0.00     0.293 HD
ENDBRANCH  15  19
ENDBRANCH  10  11
ENDBRANCH   1  10
TORSDOF 6
ENDMDL
MODEL 5
REMARK VINA RESULT:    -6.395     17.640     20.565
REMARK INTER + INTRA:          -8.638
REMARK INTER:                  -8.137
REMARK INTRA:                  -0.501
REMARK UNBOUND:                -0.560
REMARK SMILES Oc1cc(O)cc(CCc2ccccc2O)c1
REMARK SMILES IDX 9 1 10 2 12 3 13 4 11 5 14 6 15 7 16 8 8 10 7 11 6 12 17 13
REMARK SMILES IDX 4 14 2 15 3 16 5 17 1 19
REMARK H PARENT 16 9 5 18 1 20
REMARK Flexibility Score: inf
ROOT
ATOM      1  C   UNL     1     -12.722  45.859  24.122  1.00  0.00     0.044 C 
ENDROOT
BRANCH   1   2
ATOM      2  C   UNL     1     -12.949  45.003  22.901  1.00  0.00    -0.006 A 
ATOM      3  C   UNL     1     -14.329  43.405  21.694  1.00  0.00     0.001 A 
ATOM      4  C   UNL     1     -13.442  43.447  20.616  1.00  0.00     0.004 A 
ATOM      5  C   UNL     1     -14.088  44.182  22.830  1.00  0.00     0.007 A 
ATOM      6  C   UNL     1     -12.316  44.270  20.668  1.00  0.00     0.046 A 
ATOM      7  C   UNL     1     -12.066  45.055  21.804  1.00  0.00     0.118 A 
BRANCH   7   8
ATOM      8  O   UNL     1     -10.945  45.885  21.844  1.00  0.00    -0.508 OA
ATOM      9  H   UNL     1     -10.020  45.520  22.041  1.00  0.00     0.293 HD
ENDBRANCH   7   8
ENDBRANCH   1   2
BRANCH   1  10
ATOM     10  C   UNL     1     -13.908  45.750  25.084  1.00  0.00     0.040 C 
BRANCH  10  11
ATOM     11  C   UNL     1     -14.355  47.117  25.531  1.00  0.00    -0.040 A 
ATOM     12  C   UNL     1     -15.356  47.250  26.506  1.00  0.00     0.050 A 
ATOM     13  C   UNL     1     -13.815  48.268  24.935  1.00  0.00     0.050 A 
ATOM     14  C   UNL     1     -15.797  48.520  26.899  1.00  0.00     0.119 A 
ATOM     15  C   UNL     1     -14.256  49.539  25.326  1.00  0.00     0.119 A 
ATOM     16  C   UNL     1     -15.242  49.661  26.310  1.00  0.00     0.092 A 
BRANCH  14  17
ATOM     17  O   UNL     1     -16.785  48.660  27.871  1.00  0.00    -0.508 OA
ATOM     18  H   UNL     1     -16.557  48.693  28.857  1.00  0.00     0.293 HD
ENDBRANCH  14  17
BRANCH  15  19
ATOM     19  O   UNL     1     -13.719  50.686  24.745  1.00  0.00    -0.508 OA
ATOM     20  H   UNL     1     -14.223  51.206  24.037  1.00  0.00     0.293 HD
ENDBRANCH  15  19
ENDBRANCH  10  11
ENDBRANCH   1  10
TORSDOF 6
ENDMDL
MODEL 6
REMARK VINA RESULT:    -6.382     17.626     20.580
REMARK INTER + INTRA:          -8.621
REMARK INTER:                  -8.115
REMARK INTRA:                  -0.507
REMARK UNBOUND:                -0.560
REMARK SMILES Oc1cc(O)cc(CCc2ccccc2O)c1
REMARK SMILES IDX 9 1 10 2 12 3 13 4 11 5 14 6 15 7 16 8 8 10 7 11 6 12 17 13
REMARK SMILES IDX 4 14 2 15 3 16 5 17 1 19
REMARK H PARENT 16 9 5 18 1 20
REMARK Flexibility Score: inf
ROOT
ATOM      1  C   UNL     1     -12.738  45.855  24.138  1.00  0.00     0.044 C 
ENDROOT
BRANCH   1   2
ATOM      2  C   UNL     1     -12.987  45.004  22.918  1.00  0.00    -0.006 A 
ATOM      3  C   UNL     1     -14.407  43.440  21.712  1.00  0.00     0.001 A 
ATOM      4  C   UNL     1     -13.520  43.460  20.633  1.00  0.00     0.004 A 
ATOM      5  C   UNL     1     -14.145  44.211  22.848  1.00  0.00     0.007 A 
ATOM      6  C   UNL     1     -12.374  44.256  20.684  1.00  0.00     0.046 A 
ATOM      7  C   UNL     1     -12.104  45.034  21.820  1.00  0.00     0.118 A 
BRANCH   7   8
ATOM      8  O   UNL     1     -10.963  45.837  21.858  1.00  0.00    -0.508 OA
ATOM      9  H   UNL     1     -10.776  46.528  21.141  1.00  0.00     0.293 HD
ENDBRANCH   7   8
ENDBRANCH   1   2
BRANCH   1  10
ATOM     10  C   UNL     1     -13.909  45.746  25.118  1.00  0.00     0.040 C 
BRANCH  10  11
ATOM     11  C   UNL     1     -14.387  47.114  25.527  1.00  0.00    -0.040 A 
ATOM     12  C   UNL     1     -13.833  48.261  24.936  1.00  0.00     0.050 A 
ATOM     13  C   UNL     1     -15.348  47.255  26.540  1.00  0.00     0.050 A 
ATOM     14  C   UNL     1     -14.253  49.536  25.339  1.00  0.00     0.119 A 
ATOM     15  C   UNL     1     -15.768  48.530  26.944  1.00  0.00     0.119 A 
ATOM     16  C   UNL     1     -15.222  49.666  26.339  1.00  0.00     0.092 A 
BRANCH  14  17
ATOM     17  O   UNL     1     -13.713  50.679  24.753  1.00  0.00    -0.508 OA
ATOM     18  H   UNL     1     -14.162  51.135  23.967  1.00  0.00     0.293 HD
ENDBRANCH  14  17
BRANCH  15  19
ATOM     19  O   UNL     1     -16.726  48.677  27.945  1.00  0.00    -0.508 OA
ATOM     20  H   UNL     1     -16.493  48.559  28.923  1.00  0.00     0.293 HD
ENDBRANCH  15  19
ENDBRANCH  10  11
ENDBRANCH   1  10
TORSDOF 6
ENDMDL
MODEL 7
REMARK VINA RESULT:    -6.368      1.820      2.420
REMARK INTER + INTRA:          -8.603
REMARK INTER:                  -8.060
REMARK INTRA:                  -0.543
REMARK UNBOUND:                -0.560
REMARK SMILES Oc1cc(O)cc(CCc2ccccc2O)c1
REMARK SMILES IDX 9 1 10 2 12 3 13 4 11 5 14 6 15 7 16 8 8 10 7 11 6 12 17 13
REMARK SMILES IDX 4 14 2 15 3 16 5 17 1 19
REMARK H PARENT 16 9 5 18 1 20
REMARK Flexibility Score: inf
ROOT
ATOM      1  C   UNL     1     -25.125  62.256  30.585  1.00  0.00     0.044 C 
ENDROOT
BRANCH   1   2
ATOM      2  C   UNL     1     -25.376  61.666  31.949  1.00  0.00    -0.006 A 
ATOM      3  C   UNL     1     -24.544  60.470  33.897  1.00  0.00     0.001 A 
ATOM      4  C   UNL     1     -25.785  60.612  34.520  1.00  0.00     0.004 A 
ATOM      5  C   UNL     1     -24.337  60.997  32.619  1.00  0.00     0.007 A 
ATOM      6  C   UNL     1     -26.821  61.288  33.871  1.00  0.00     0.046 A 
ATOM      7  C   UNL     1     -26.623  61.821  32.589  1.00  0.00     0.118 A 
BRANCH   7   8
ATOM      8  O   UNL     1     -27.658  62.506  31.952  1.00  0.00    -0.508 OA
ATOM      9  H   UNL     1     -27.530  63.444  31.590  1.00  0.00     0.293 HD
ENDBRANCH   7   8
ENDBRANCH   1   2
BRANCH   1  10
ATOM     10  C   UNL     1     -25.574  61.287  29.487  1.00  0.00     0.040 C 
BRANCH  10  11
ATOM     11  C   UNL     1     -24.386  60.767  28.722  1.00  0.00    -0.040 A 
ATOM     12  C   UNL     1     -23.412  61.655  28.239  1.00  0.00     0.050 A 
ATOM     13  C   UNL     1     -24.273  59.396  28.437  1.00  0.00     0.050 A 
ATOM     14  C   UNL     1     -22.324  61.176  27.498  1.00  0.00     0.119 A 
ATOM     15  C   UNL     1     -23.185  58.917  27.696  1.00  0.00     0.119 A 
ATOM     16  C   UNL     1     -22.212  59.808  27.232  1.00  0.00     0.092 A 
BRANCH  14  17
ATOM     17  O   UNL     1     -21.350  62.051  27.021  1.00  0.00    -0.508 OA
ATOM     18  H   UNL     1     -21.262  62.258  26.033  1.00  0.00     0.293 HD
ENDBRANCH  14  17
BRANCH  15  19
ATOM     19  O   UNL     1     -23.061  57.557  27.415  1.00  0.00    -0.508 OA
ATOM     20  H   UNL     1     -22.745  56.899  28.116  1.00  0.00     0.293 HD
ENDBRANCH  15  19
ENDBRANCH  10  11
ENDBRANCH   1  10
TORSDOF 6
ENDMDL
MODEL 8
REMARK VINA RESULT:    -6.336      1.811      2.562
REMARK INTER + INTRA:          -8.563
REMARK INTER:                  -8.041
REMARK INTRA:                  -0.522
REMARK UNBOUND:                -0.560
REMARK SMILES Oc1cc(O)cc(CCc2ccccc2O)c1
REMARK SMILES IDX 9 1 10 2 12 3 13 4 11 5 14 6 15 7 16 8 8 10 7 11 6 12 17 13
REMARK SMILES IDX 4 14 2 15 3 16 5 17 1 19
REMARK H PARENT 16 9 5 18 1 20
REMARK Flexibility Score: inf
ROOT
ATOM      1  C   UNL     1     -25.032  62.223  30.632  1.00  0.00     0.044 C 
ENDROOT
BRANCH   1   2
ATOM      2  C   UNL     1     -25.324  61.624  31.984  1.00  0.00    -0.006 A 
ATOM      3  C   UNL     1     -24.555  60.396  33.938  1.00  0.00     0.001 A 
ATOM      4  C   UNL     1     -25.808  60.554  34.536  1.00  0.00     0.004 A 
ATOM      5  C   UNL     1     -24.311  60.932  32.671  1.00  0.00     0.007 A 
ATOM      6  C   UNL     1     -26.817  61.253  33.870  1.00  0.00     0.046 A 
ATOM      7  C   UNL     1     -26.581  61.795  32.598  1.00  0.00     0.118 A 
BRANCH   7   8
ATOM      8  O   UNL     1     -27.590  62.503  31.945  1.00  0.00    -0.508 OA
ATOM      9  H   UNL     1     -27.566  62.661  30.944  1.00  0.00     0.293 HD
ENDBRANCH   7   8
ENDBRANCH   1   2
BRANCH   1  10
ATOM     10  C   UNL     1     -25.538  61.305  29.516  1.00  0.00     0.040 C 
BRANCH  10  11
ATOM     11  C   UNL     1     -24.387  60.779  28.700  1.00  0.00    -0.040 A 
ATOM     12  C   UNL     1     -24.265  59.402  28.453  1.00  0.00     0.050 A 
ATOM     13  C   UNL     1     -23.395  61.655  28.228  1.00  0.00     0.050 A 
ATOM     14  C   UNL     1     -23.176  58.908  27.723  1.00  0.00     0.119 A 
ATOM     15  C   UNL     1     -22.305  61.161  27.499  1.00  0.00     0.119 A 
ATOM     16  C   UNL     1     -22.202  59.790  27.245  1.00  0.00     0.092 A 
BRANCH  14  17
ATOM     17  O   UNL     1     -23.053  57.543  27.469  1.00  0.00    -0.508 OA
ATOM     18  H   UNL     1     -23.694  57.059  26.853  1.00  0.00     0.293 HD
ENDBRANCH  14  17
BRANCH  15  19
ATOM     19  O   UNL     1     -21.322  62.025  27.021  1.00  0.00    -0.508 OA
ATOM     20  H   UNL     1     -21.546  62.961  26.707  1.00  0.00     0.293 HD
ENDBRANCH  15  19
ENDBRANCH  10  11
ENDBRANCH   1  10
TORSDOF 6
ENDMDL
MODEL 9
REMARK VINA RESULT:    -6.286      2.630      4.835
REMARK INTER + INTRA:          -8.501
REMARK INTER:                  -7.939
REMARK INTRA:                  -0.562
REMARK UNBOUND:                -0.560
REMARK SMILES Oc1cc(O)cc(CCc2ccccc2O)c1
REMARK SMILES IDX 9 1 10 2 12 3 13 4 11 5 14 6 15 7 16 8 8 10 7 11 6 12 17 13
REMARK SMILES IDX 4 14 2 15 3 16 5 17 1 19
REMARK H PARENT 16 9 5 18 1 20
REMARK Flexibility Score: inf
ROOT
ATOM      1  C   UNL     1     -20.671  61.627  31.912  1.00  0.00     0.044 C 
ENDROOT
BRANCH   1   2
ATOM      2  C   UNL     1     -20.859  61.639  33.408  1.00  0.00    -0.006 A 
ATOM      3  C   UNL     1     -22.345  61.529  35.331  1.00  0.00     0.001 A 
ATOM      4  C   UNL     1     -21.245  61.590  36.190  1.00  0.00     0.004 A 
ATOM      5  C   UNL     1     -22.154  61.550  33.947  1.00  0.00     0.007 A 
ATOM      6  C   UNL     1     -19.953  61.663  35.667  1.00  0.00     0.046 A 
ATOM      7  C   UNL     1     -19.751  61.683  34.278  1.00  0.00     0.118 A 
BRANCH   7   8
ATOM      8  O   UNL     1     -18.456  61.744  33.763  1.00  0.00    -0.508 OA
ATOM      9  H   UNL     1     -17.677  62.074  34.321  1.00  0.00     0.293 HD
ENDBRANCH   7   8
ENDBRANCH   1   2
BRANCH   1  10
ATOM     10  C   UNL     1     -21.592  62.653  31.245  1.00  0.00     0.040 C 
BRANCH  10  11
ATOM     11  C   UNL     1     -22.531  61.975  30.283  1.00  0.00    -0.040 A 
ATOM     12  C   UNL     1     -23.910  61.949  30.541  1.00  0.00     0.050 A 
ATOM     13  C   UNL     1     -22.028  61.315  29.150  1.00  0.00     0.050 A 
ATOM     14  C   UNL     1     -24.782  61.290  29.665  1.00  0.00     0.119 A 
ATOM     15  C   UNL     1     -22.899  60.654  28.273  1.00  0.00     0.119 A 
ATOM     16  C   UNL     1     -24.273  60.647  28.531  1.00  0.00     0.092 A 
BRANCH  14  17
ATOM     17  O   UNL     1     -26.153  61.265  29.911  1.00  0.00    -0.508 OA
ATOM     18  H   UNL     1     -26.523  61.043  30.827  1.00  0.00     0.293 HD
ENDBRANCH  14  17
BRANCH  15  19
ATOM     19  O   UNL     1     -22.408  60.003  27.143  1.00  0.00    -0.508 OA
ATOM     20  H   UNL     1     -22.614  60.335  26.209  1.00  0.00     0.293 HD
ENDBRANCH  15  19
ENDBRANCH  10  11
ENDBRANCH   1  10
TORSDOF 6
ENDMDL
