MODEL 1
REMARK VINA RESULT:    -3.937      0.000      0.000
REMARK INTER + INTRA:          -4.461
REMARK INTER:                  -4.397
REMARK INTRA:                  -0.064
REMARK UNBOUND:                -0.064
REMARK SMILES COc1ccc(C(=O)[O-])cc1
REMARK SMILES IDX 6 1 5 2 10 3 4 4 11 5 3 6 7 7 8 8 9 9 2 10 1 11
REMARK H PARENT
REMARK Flexibility Score: inf
ROOT
ATOM      1  C   UNL     1     171.866 184.618  32.699  1.00  0.00    -0.003 A 
ATOM      2  C   UNL     1     171.722 185.908  33.237  1.00  0.00     0.014 A 
ATOM      3  C   UNL     1     170.940 184.174  31.738  1.00  0.00     0.014 A 
ATOM      4  C   UNL     1     170.674 186.738  32.824  1.00  0.00     0.047 A 
ATOM      5  C   UNL     1     169.894 185.006  31.326  1.00  0.00     0.047 A 
ATOM      6  C   UNL     1     169.751 186.289  31.861  1.00  0.00     0.118 A 
ENDROOT
BRANCH   1   7
ATOM      7  C   UNL     1     172.975 183.743  33.139  1.00  0.00     0.071 C 
ATOM      8  O   UNL     1     173.125 183.465  34.358  1.00  0.00    -0.545 OA
ATOM      9  O   UNL     1     173.866 183.215  32.212  1.00  0.00    -0.545 OA
ENDBRANCH   1   7
BRANCH   6  10
ATOM     10  O   UNL     1     168.684 187.083  31.414  1.00  0.00    -0.497 OA
ATOM     11  C   UNL     1     167.919 186.815  30.243  1.00  0.00     0.278 C 
ENDBRANCH   6  10
TORSDOF 2
ENDMDL
MODEL 2
REMARK VINA RESULT:    -3.849      0.252      1.769
REMARK INTER + INTRA:          -4.363
REMARK INTER:                  -4.304
REMARK INTRA:                  -0.059
REMARK UNBOUND:                -0.064
REMARK SMILES COc1ccc(C(=O)[O-])cc1
REMARK SMILES IDX 6 1 5 2 10 3 4 4 11 5 3 6 7 7 8 8 9 9 2 10 1 11
REMARK H PARENT
REMARK Flexibility Score: inf
ROOT
ATOM      1  C   UNL     1     171.974 184.481  32.690  1.00  0.00    -0.003 A 
ATOM      2  C   UNL     1     171.004 184.099  31.747  1.00  0.00     0.014 A 
ATOM      3  C   UNL     1     171.892 185.758  33.272  1.00  0.00     0.014 A 
ATOM      4  C   UNL     1     169.973 184.975  31.394  1.00  0.00     0.047 A 
ATOM      5  C   UNL     1     170.859 186.633  32.918  1.00  0.00     0.047 A 
ATOM      6  C   UNL     1     169.894 186.253  31.981  1.00  0.00     0.118 A 
ENDROOT
BRANCH   1   7
ATOM      7  C   UNL     1     173.064 183.552  33.059  1.00  0.00     0.071 C 
ATOM      8  O   UNL     1     173.914 183.188  32.203  1.00  0.00    -0.545 OA
ATOM      9  O   UNL     1     173.167 183.069  34.359  1.00  0.00    -0.545 OA
ENDBRANCH   1   7
BRANCH   6  10
ATOM     10  O   UNL     1     168.879 187.167  31.661  1.00  0.00    -0.497 OA
ATOM     11  C   UNL     1     167.904 186.961  30.644  1.00  0.00     0.278 C 
ENDBRANCH   6  10
TORSDOF 2
ENDMDL
MODEL 3
REMARK VINA RESULT:    -3.769      0.829      1.276
REMARK INTER + INTRA:          -4.273
REMARK INTER:                  -4.215
REMARK INTRA:                  -0.059
REMARK UNBOUND:                -0.064
REMARK SMILES COc1ccc(C(=O)[O-])cc1
REMARK SMILES IDX 6 1 5 2 10 3 4 4 11 5 3 6 7 7 8 8 9 9 2 10 1 11
REMARK H PARENT
REMARK Flexibility Score: inf
ROOT
ATOM      1  C   UNL     1     172.015 184.450  32.755  1.00  0.00    -0.003 A 
ATOM      2  C   UNL     1     171.894 185.697  33.390  1.00  0.00     0.014 A 
ATOM      3  C   UNL     1     171.083 184.097  31.763  1.00  0.00     0.014 A 
ATOM      4  C   UNL     1     170.862 186.575  33.041  1.00  0.00     0.047 A 
ATOM      5  C   UNL     1     170.052 184.977  31.415  1.00  0.00     0.047 A 
ATOM      6  C   UNL     1     169.932 186.218  32.047  1.00  0.00     0.118 A 
ENDROOT
BRANCH   1   7
ATOM      7  C   UNL     1     173.107 183.523  33.128  1.00  0.00     0.071 C 
ATOM      8  O   UNL     1     173.930 183.122  32.263  1.00  0.00    -0.545 OA
ATOM      9  O   UNL     1     173.239 183.083  34.440  1.00  0.00    -0.545 OA
ENDBRANCH   1   7
BRANCH   6  10
ATOM     10  O   UNL     1     168.881 187.063  31.661  1.00  0.00    -0.497 OA
ATOM     11  C   UNL     1     168.356 188.112  32.469  1.00  0.00     0.278 C 
ENDBRANCH   6  10
TORSDOF 2
ENDMDL
MODEL 4
REMARK VINA RESULT:    -3.752      0.942      4.842
REMARK INTER + INTRA:          -4.255
REMARK INTER:                  -4.186
REMARK INTRA:                  -0.068
REMARK UNBOUND:                -0.064
REMARK SMILES COc1ccc(C(=O)[O-])cc1
REMARK SMILES IDX 6 1 5 2 10 3 4 4 11 5 3 6 7 7 8 8 9 9 2 10 1 11
REMARK H PARENT
REMARK Flexibility Score: inf
ROOT
ATOM      1  C   UNL     1     169.474 186.264  31.568  1.00  0.00    -0.003 A 
ATOM      2  C   UNL     1     170.236 186.915  32.553  1.00  0.00     0.014 A 
ATOM      3  C   UNL     1     169.846 184.970  31.164  1.00  0.00     0.014 A 
ATOM      4  C   UNL     1     171.348 186.286  33.123  1.00  0.00     0.047 A 
ATOM      5  C   UNL     1     170.957 184.342  31.736  1.00  0.00     0.047 A 
ATOM      6  C   UNL     1     171.715 184.989  32.716  1.00  0.00     0.118 A 
ENDROOT
BRANCH   1   7
ATOM      7  C   UNL     1     168.300 186.934  30.967  1.00  0.00     0.071 C 
ATOM      8  O   UNL     1     167.856 186.566  29.847  1.00  0.00    -0.545 OA
ATOM      9  O   UNL     1     167.670 187.980  31.632  1.00  0.00    -0.545 OA
ENDBRANCH   1   7
BRANCH   6  10
ATOM     10  O   UNL     1     172.821 184.316  33.258  1.00  0.00    -0.497 OA
ATOM     11  C   UNL     1     173.462 183.203  32.644  1.00  0.00     0.278 C 
ENDBRANCH   6  10
TORSDOF 2
ENDMDL
MODEL 5
REMARK VINA RESULT:    -3.752      0.937      4.975
REMARK INTER + INTRA:          -4.254
REMARK INTER:                  -4.192
REMARK INTRA:                  -0.062
REMARK UNBOUND:                -0.064
REMARK SMILES COc1ccc(C(=O)[O-])cc1
REMARK SMILES IDX 6 1 5 2 10 3 4 4 11 5 3 6 7 7 8 8 9 9 2 10 1 11
REMARK H PARENT
REMARK Flexibility Score: inf
ROOT
ATOM      1  C   UNL     1     169.495 186.332  31.668  1.00  0.00    -0.003 A 
ATOM      2  C   UNL     1     169.772 185.014  31.270  1.00  0.00     0.014 A 
ATOM      3  C   UNL     1     170.346 186.956  32.598  1.00  0.00     0.014 A 
ATOM      4  C   UNL     1     170.877 184.332  31.789  1.00  0.00     0.047 A 
ATOM      5  C   UNL     1     171.451 186.273  33.115  1.00  0.00     0.047 A 
ATOM      6  C   UNL     1     171.727 184.962  32.719  1.00  0.00     0.118 A 
ENDROOT
BRANCH   1   7
ATOM      7  C   UNL     1     168.324 187.049  31.118  1.00  0.00     0.071 C 
ATOM      8  O   UNL     1     167.641 187.817  31.847  1.00  0.00    -0.545 OA
ATOM      9  O   UNL     1     167.961 186.886  29.785  1.00  0.00    -0.545 OA
ENDBRANCH   1   7
BRANCH   6  10
ATOM     10  O   UNL     1     172.848 184.321  33.268  1.00  0.00    -0.497 OA
ATOM     11  C   UNL     1     173.478 183.178  32.700  1.00  0.00     0.278 C 
ENDBRANCH   6  10
TORSDOF 2
ENDMDL
MODEL 6
REMARK VINA RESULT:    -3.549      1.729      2.200
REMARK INTER + INTRA:          -4.027
REMARK INTER:                  -3.965
REMARK INTRA:                  -0.062
REMARK UNBOUND:                -0.064
REMARK SMILES COc1ccc(C(=O)[O-])cc1
REMARK SMILES IDX 6 1 5 2 10 3 4 4 11 5 3 6 7 7 8 8 9 9 2 10 1 11
REMARK H PARENT
REMARK Flexibility Score: inf
ROOT
ATOM      1  C   UNL     1     170.185 184.638  32.644  1.00  0.00    -0.003 A 
ATOM      2  C   UNL     1     170.696 185.063  31.407  1.00  0.00     0.014 A 
ATOM      3  C   UNL     1     168.795 184.659  32.851  1.00  0.00     0.014 A 
ATOM      4  C   UNL     1     169.835 185.501  30.395  1.00  0.00     0.047 A 
ATOM      5  C   UNL     1     167.935 185.096  31.838  1.00  0.00     0.047 A 
ATOM      6  C   UNL     1     168.443 185.519  30.606  1.00  0.00     0.118 A 
ENDROOT
BRANCH   1   7
ATOM      7  C   UNL     1     171.100 184.178  33.713  1.00  0.00     0.071 C 
ATOM      8  O   UNL     1     170.646 183.641  34.758  1.00  0.00    -0.545 OA
ATOM      9  O   UNL     1     172.476 184.331  33.575  1.00  0.00    -0.545 OA
ENDBRANCH   1   7
BRANCH   6  10
ATOM     10  O   UNL     1     167.538 185.947  29.624  1.00  0.00    -0.497 OA
ATOM     11  C   UNL     1     167.612 187.203  28.957  1.00  0.00     0.278 C 
ENDBRANCH   6  10
TORSDOF 2
ENDMDL
MODEL 7
REMARK VINA RESULT:    -3.509      2.180      5.196
REMARK INTER + INTRA:          -3.983
REMARK INTER:                  -3.931
REMARK INTRA:                  -0.052
REMARK UNBOUND:                -0.064
REMARK SMILES COc1ccc(C(=O)[O-])cc1
REMARK SMILES IDX 6 1 5 2 10 3 4 4 11 5 3 6 7 7 8 8 9 9 2 10 1 11
REMARK H PARENT
REMARK Flexibility Score: inf
ROOT
ATOM      1  C   UNL     1     168.514 185.745  30.645  1.00  0.00    -0.003 A 
ATOM      2  C   UNL     1     169.855 185.385  30.428  1.00  0.00     0.014 A 
ATOM      3  C   UNL     1     167.910 185.414  31.870  1.00  0.00     0.014 A 
ATOM      4  C   UNL     1     170.577 184.707  31.416  1.00  0.00     0.047 A 
ATOM      5  C   UNL     1     168.634 184.737  32.857  1.00  0.00     0.047 A 
ATOM      6  C   UNL     1     169.968 184.379  32.641  1.00  0.00     0.118 A 
ENDROOT
BRANCH   1   7
ATOM      7  C   UNL     1     167.753 186.460  29.597  1.00  0.00     0.071 C 
ATOM      8  O   UNL     1     167.600 187.709  29.655  1.00  0.00    -0.545 OA
ATOM      9  O   UNL     1     167.197 185.761  28.530  1.00  0.00    -0.545 OA
ENDBRANCH   1   7
BRANCH   6  10
ATOM     10  O   UNL     1     170.649 183.702  33.663  1.00  0.00    -0.497 OA
ATOM     11  C   UNL     1     170.547 182.302  33.906  1.00  0.00     0.278 C 
ENDBRANCH   6  10
TORSDOF 2
ENDMDL
MODEL 8
REMARK VINA RESULT:    -3.329      7.040      8.839
REMARK INTER + INTRA:          -3.782
REMARK INTER:                  -3.720
REMARK INTRA:                  -0.062
REMARK UNBOUND:                -0.064
REMARK SMILES COc1ccc(C(=O)[O-])cc1
REMARK SMILES IDX 6 1 5 2 10 3 4 4 11 5 3 6 7 7 8 8 9 9 2 10 1 11
REMARK H PARENT
REMARK Flexibility Score: inf
ROOT
ATOM      1  C   UNL     1     163.047 181.273  31.065  1.00  0.00    -0.003 A 
ATOM      2  C   UNL     1     163.130 182.099  29.931  1.00  0.00     0.014 A 
ATOM      3  C   UNL     1     163.963 181.463  32.114  1.00  0.00     0.014 A 
ATOM      4  C   UNL     1     164.108 183.095  29.847  1.00  0.00     0.047 A 
ATOM      5  C   UNL     1     164.940 182.460  32.029  1.00  0.00     0.047 A 
ATOM      6  C   UNL     1     165.022 183.282  30.901  1.00  0.00     0.118 A 
ENDROOT
BRANCH   1   7
ATOM      7  C   UNL     1     162.011 180.220  31.148  1.00  0.00     0.071 C 
ATOM      8  O   UNL     1     160.799 180.524  31.308  1.00  0.00    -0.545 OA
ATOM      9  O   UNL     1     162.363 178.878  31.050  1.00  0.00    -0.545 OA
ENDBRANCH   1   7
BRANCH   6  10
ATOM     10  O   UNL     1     166.021 184.267  30.866  1.00  0.00    -0.497 OA
ATOM     11  C   UNL     1     166.803 184.658  31.990  1.00  0.00     0.278 C 
ENDBRANCH   6  10
TORSDOF 2
ENDMDL
MODEL 9
REMARK VINA RESULT:    -3.186      2.553      3.093
REMARK INTER + INTRA:          -3.623
REMARK INTER:                  -3.571
REMARK INTRA:                  -0.051
REMARK UNBOUND:                -0.064
REMARK SMILES COc1ccc(C(=O)[O-])cc1
REMARK SMILES IDX 6 1 5 2 10 3 4 4 11 5 3 6 7 7 8 8 9 9 2 10 1 11
REMARK H PARENT
REMARK Flexibility Score: inf
ROOT
ATOM      1  C   UNL     1     169.959 184.942  32.394  1.00  0.00    -0.003 A 
ATOM      2  C   UNL     1     169.366 185.457  31.229  1.00  0.00     0.014 A 
ATOM      3  C   UNL     1     169.141 184.337  33.364  1.00  0.00     0.014 A 
ATOM      4  C   UNL     1     167.983 185.368  31.037  1.00  0.00     0.047 A 
ATOM      5  C   UNL     1     167.759 184.248  33.170  1.00  0.00     0.047 A 
ATOM      6  C   UNL     1     167.169 184.760  32.010  1.00  0.00     0.118 A 
ENDROOT
BRANCH   1   7
ATOM      7  C   UNL     1     171.422 185.040  32.594  1.00  0.00     0.071 C 
ATOM      8  O   UNL     1     172.190 184.147  32.148  1.00  0.00    -0.545 OA
ATOM      9  O   UNL     1     171.968 186.121  33.278  1.00  0.00    -0.545 OA
ENDBRANCH   1   7
BRANCH   6  10
ATOM     10  O   UNL     1     165.778 184.646  31.864  1.00  0.00    -0.497 OA
ATOM     11  C   UNL     1     165.137 183.774  30.939  1.00  0.00     0.278 C 
ENDBRANCH   6  10
TORSDOF 2
ENDMDL
