MODEL 1
REMARK VINA RESULT:    -5.948      0.000      0.000
REMARK INTER + INTRA:          -9.573
REMARK INTER:                  -8.730
REMARK INTRA:                  -0.842
REMARK UNBOUND:                -0.842
REMARK SMILES CC(C)(O)CC[C@@H](O)[C@](C)(O)[C@@H]1CC[C@]2(O)C3=CC(=O)[C@H]4C[C@@H](O)[C@H](O)C[C@@]4(C)[C@H]3CC[C@]12C
REMARK SMILES IDX 6 1 7 2 9 3 10 4 12 5 34 6 33 7 32 8 15 9 31 10 17 11 14 12
REMARK SMILES IDX 13 13 30 14 18 15 28 16 19 17 21 18 27 19 29 20 20 21 22 22
REMARK SMILES IDX 25 23 23 24 16 25 26 27 24 29 11 31 8 33 5 35 2 36 1 37 3 38
REMARK SMILES IDX 4 39
REMARK H PARENT 16 26 26 28 24 30 11 32 8 34 4 40
REMARK Flexibility Score: inf
ROOT
ATOM      1  C   UNL     1      24.903 -13.675  45.829  1.00  0.00     0.038 C 
ENDROOT
BRANCH   1   2
ATOM      2  C   UNL     1      24.194 -14.560  44.765  1.00  0.00     0.146 C 
BRANCH   2   3
ATOM      3  C   UNL     1      22.914 -15.312  45.283  1.00  0.00     0.091 C 
ATOM      4  C   UNL     1      22.554 -14.790  46.707  1.00  0.00     0.045 C 
BRANCH   3   5
ATOM      5  C   UNL     1      21.623 -15.190  44.358  1.00  0.00     0.032 C 
ATOM      6  C   UNL     1      20.027 -13.532  45.536  1.00  0.00     0.015 C 
ATOM      7  C   UNL     1      20.730 -13.905  44.205  1.00  0.00     0.006 C 
ATOM      8  C   UNL     1      21.503 -12.674  43.651  1.00  0.00     0.011 C 
ATOM      9  C   UNL     1      19.697 -14.395  43.136  1.00  0.00     0.092 C 
ATOM     10  C   UNL     1      20.575 -11.530  43.258  1.00  0.00     0.009 C 
ATOM     11  C   UNL     1      18.958 -13.280  42.369  1.00  0.00    -0.031 C 
ATOM     12  C   UNL     1      20.558 -15.236  42.153  1.00  0.00     0.041 C 
ATOM     13  C   UNL     1      21.788 -15.718  42.927  1.00  0.00     0.010 C 
ATOM     14  C   UNL     1      19.613 -11.925  42.118  1.00  0.00     0.025 C 
ATOM     15  C   UNL     1      17.872 -13.610  41.642  1.00  0.00     0.050 C 
ATOM     16  C   UNL     1      18.571 -10.786  41.769  1.00  0.00    -0.013 C 
ATOM     17  C   UNL     1      17.240 -12.689  40.691  1.00  0.00     0.159 C 
ATOM     18  C   UNL     1      17.696 -11.255  40.552  1.00  0.00     0.070 C 
ATOM     19  C   UNL     1      17.657 -10.471  43.001  1.00  0.00     0.042 C 
ATOM     20  C   UNL     1      19.366  -9.512  41.358  1.00  0.00     0.013 C 
ATOM     21  O   UNL     1      16.347 -13.142  39.923  1.00  0.00    -0.295 OA
ATOM     22  C   UNL     1      16.488 -10.319  40.282  1.00  0.00     0.047 C 
ATOM     23  C   UNL     1      16.452  -9.557  42.702  1.00  0.00     0.143 C 
ATOM     24  C   UNL     1      15.614 -10.088  41.526  1.00  0.00     0.143 C 
BRANCH   9  25
ATOM     25  O   UNL     1      18.755 -15.221  43.805  1.00  0.00    -0.385 OA
ATOM     26  H   UNL     1      18.382 -14.757  44.593  1.00  0.00     0.211 HD
ENDBRANCH   9  25
BRANCH  23  27
ATOM     27  O   UNL     1      16.892  -8.248  42.435  1.00  0.00    -0.390 OA
ATOM     28  H   UNL     1      16.340  -7.902  41.686  1.00  0.00     0.211 HD
ENDBRANCH  23  27
BRANCH  24  29
ATOM     29  O   UNL     1      14.963 -11.281  41.883  1.00  0.00    -0.390 OA
ATOM     30  H   UNL     1      14.648 -11.701  41.042  1.00  0.00     0.211 HD
ENDBRANCH  24  29
ENDBRANCH   3   5
BRANCH   3  31
ATOM     31  O   UNL     1      23.204 -16.694  45.368  1.00  0.00    -0.387 OA
ATOM     32  H   UNL     1      23.424 -17.044  44.466  1.00  0.00     0.211 HD
ENDBRANCH   3  31
ENDBRANCH   2   3
BRANCH   2  33
ATOM     33  O   UNL     1      25.124 -15.456  44.211  1.00  0.00    -0.390 OA
ATOM     34  H   UNL     1      25.670 -14.952  43.552  1.00  0.00     0.211 HD
ENDBRANCH   2  33
ENDBRANCH   1   2
BRANCH   1  35
ATOM     35  C   UNL     1      24.822 -12.179  45.463  1.00  0.00     0.037 C 
BRANCH  35  36
ATOM     36  C   UNL     1      24.443 -11.259  46.660  1.00  0.00     0.059 C 
ATOM     37  C   UNL     1      25.123 -11.733  47.956  1.00  0.00     0.042 C 
ATOM     38  C   UNL     1      22.916 -11.297  46.865  1.00  0.00     0.042 C 
BRANCH  36  39
ATOM     39  O   UNL     1      24.844  -9.932  46.410  1.00  0.00    -0.390 OA
ATOM     40  H   UNL     1      25.010  -9.492  47.287  1.00  0.00     0.211 HD
ENDBRANCH  36  39
ENDBRANCH  35  36
ENDBRANCH   1  35
TORSDOF 11
ENDMDL
MODEL 2
REMARK VINA RESULT:    -5.941      2.210      4.379
REMARK INTER + INTRA:          -9.562
REMARK INTER:                  -9.101
REMARK INTRA:                  -0.461
REMARK UNBOUND:                -0.842
REMARK SMILES CC(C)(O)CC[C@@H](O)[C@](C)(O)[C@@H]1CC[C@]2(O)C3=CC(=O)[C@H]4C[C@@H](O)[C@H](O)C[C@@]4(C)[C@H]3CC[C@]12C
REMARK SMILES IDX 6 1 7 2 9 3 10 4 12 5 34 6 33 7 32 8 15 9 31 10 17 11 14 12
REMARK SMILES IDX 13 13 30 14 18 15 28 16 19 17 21 18 27 19 29 20 20 21 22 22
REMARK SMILES IDX 25 23 23 24 16 25 26 27 24 29 11 31 8 33 5 35 2 36 1 37 3 38
REMARK SMILES IDX 4 39
REMARK H PARENT 16 26 26 28 24 30 11 32 8 34 4 40
REMARK Flexibility Score: inf
ROOT
ATOM      1  C   UNL     1      24.513 -15.478  46.825  1.00  0.00     0.038 C 
ENDROOT
BRANCH   1   2
ATOM      2  C   UNL     1      23.259 -14.611  46.519  1.00  0.00     0.146 C 
BRANCH   2   3
ATOM      3  C   UNL     1      23.464 -13.065  46.719  1.00  0.00     0.091 C 
ATOM      4  C   UNL     1      24.908 -12.803  47.243  1.00  0.00     0.045 C 
BRANCH   3   5
ATOM      5  C   UNL     1      23.225 -12.166  45.426  1.00  0.00     0.032 C 
ATOM      6  C   UNL     1      21.885 -13.617  43.757  1.00  0.00     0.015 C 
ATOM      7  C   UNL     1      21.972 -12.247  44.479  1.00  0.00     0.006 C 
ATOM      8  C   UNL     1      20.627 -11.941  45.200  1.00  0.00     0.011 C 
ATOM      9  C   UNL     1      22.296 -11.094  43.471  1.00  0.00     0.092 C 
ATOM     10  C   UNL     1      19.471 -11.759  44.224  1.00  0.00     0.009 C 
ATOM     11  C   UNL     1      21.088 -10.542  42.686  1.00  0.00    -0.031 C 
ATOM     12  C   UNL     1      22.901  -9.981  44.369  1.00  0.00     0.041 C 
ATOM     13  C   UNL     1      23.468 -10.663  45.617  1.00  0.00     0.010 C 
ATOM     14  C   UNL     1      19.684 -10.556  43.282  1.00  0.00     0.025 C 
ATOM     15  C   UNL     1      21.322  -9.755  41.617  1.00  0.00     0.050 C 
ATOM     16  C   UNL     1      18.545 -10.415  42.193  1.00  0.00    -0.013 C 
ATOM     17  C   UNL     1      20.266  -8.987  40.947  1.00  0.00     0.159 C 
ATOM     18  C   UNL     1      18.814  -9.123  41.342  1.00  0.00     0.070 C 
ATOM     19  C   UNL     1      18.505 -11.675  41.264  1.00  0.00     0.042 C 
ATOM     20  C   UNL     1      17.184 -10.258  42.934  1.00  0.00     0.013 C 
ATOM     21  O   UNL     1      20.604  -8.138  40.077  1.00  0.00    -0.295 OA
ATOM     22  C   UNL     1      17.895  -9.020  40.095  1.00  0.00     0.047 C 
ATOM     23  C   UNL     1      17.603 -11.540  40.021  1.00  0.00     0.143 C 
ATOM     24  C   UNL     1      17.939 -10.277  39.209  1.00  0.00     0.143 C 
BRANCH   9  25
ATOM     25  O   UNL     1      23.271 -11.587  42.564  1.00  0.00    -0.385 OA
ATOM     26  H   UNL     1      23.735 -10.841  42.110  1.00  0.00     0.211 HD
ENDBRANCH   9  25
BRANCH  23  27
ATOM     27  O   UNL     1      16.250 -11.527  40.405  1.00  0.00    -0.390 OA
ATOM     28  H   UNL     1      15.941 -10.585  40.355  1.00  0.00     0.211 HD
ENDBRANCH  23  27
BRANCH  24  29
ATOM     29  O   UNL     1      19.203 -10.397  38.609  1.00  0.00    -0.390 OA
ATOM     30  H   UNL     1      19.508 -11.329  38.762  1.00  0.00     0.211 HD
ENDBRANCH  24  29
ENDBRANCH   3   5
BRANCH   3  31
ATOM     31  O   UNL     1      22.541 -12.608  47.688  1.00  0.00    -0.387 OA
ATOM     32  H   UNL     1      21.846 -13.301  47.840  1.00  0.00     0.211 HD
ENDBRANCH   3  31
ENDBRANCH   2   3
BRANCH   2  33
ATOM     33  O   UNL     1      22.171 -15.084  47.273  1.00  0.00    -0.390 OA
ATOM     34  H   UNL     1      22.527 -15.406  48.142  1.00  0.00     0.211 HD
ENDBRANCH   2  33
ENDBRANCH   1   2
BRANCH   1  35
ATOM     35  C   UNL     1      24.180 -16.984  46.790  1.00  0.00     0.037 C 
BRANCH  35  36
ATOM     36  C   UNL     1      23.868 -17.526  45.365  1.00  0.00     0.059 C 
ATOM     37  C   UNL     1      24.080 -19.048  45.294  1.00  0.00     0.042 C 
ATOM     38  C   UNL     1      24.809 -16.850  44.349  1.00  0.00     0.042 C 
BRANCH  36  39
ATOM     39  O   UNL     1      22.532 -17.249  45.013  1.00  0.00    -0.390 OA
ATOM     40  H   UNL     1      22.542 -16.590  44.269  1.00  0.00     0.211 HD
ENDBRANCH  36  39
ENDBRANCH  35  36
ENDBRANCH   1  35
TORSDOF 11
ENDMDL
MODEL 3
REMARK VINA RESULT:    -5.919      1.723      2.910
REMARK INTER + INTRA:          -9.529
REMARK INTER:                  -8.422
REMARK INTRA:                  -1.107
REMARK UNBOUND:                -0.842
REMARK SMILES CC(C)(O)CC[C@@H](O)[C@](C)(O)[C@@H]1CC[C@]2(O)C3=CC(=O)[C@H]4C[C@@H](O)[C@H](O)C[C@@]4(C)[C@H]3CC[C@]12C
REMARK SMILES IDX 6 1 7 2 9 3 10 4 12 5 34 6 33 7 32 8 15 9 31 10 17 11 14 12
REMARK SMILES IDX 13 13 30 14 18 15 28 16 19 17 21 18 27 19 29 20 20 21 22 22
REMARK SMILES IDX 25 23 23 24 16 25 26 27 24 29 11 31 8 33 5 35 2 36 1 37 3 38
REMARK SMILES IDX 4 39
REMARK H PARENT 16 26 26 28 24 30 11 32 8 34 4 40
REMARK Flexibility Score: inf
ROOT
ATOM      1  C   UNL     1      23.780 -13.896  47.012  1.00  0.00     0.038 C 
ENDROOT
BRANCH   1   2
ATOM      2  C   UNL     1      23.787 -15.158  46.104  1.00  0.00     0.146 C 
BRANCH   2   3
ATOM      3  C   UNL     1      22.877 -15.052  44.825  1.00  0.00     0.091 C 
ATOM      4  C   UNL     1      22.129 -16.403  44.614  1.00  0.00     0.045 C 
BRANCH   3   5
ATOM      5  C   UNL     1      21.801 -13.876  44.842  1.00  0.00     0.032 C 
ATOM      6  C   UNL     1      22.510 -12.204  43.002  1.00  0.00     0.015 C 
ATOM      7  C   UNL     1      21.345 -13.042  43.590  1.00  0.00     0.006 C 
ATOM      8  C   UNL     1      20.696 -13.906  42.470  1.00  0.00     0.011 C 
ATOM      9  C   UNL     1      20.254 -12.123  44.236  1.00  0.00     0.092 C 
ATOM     10  C   UNL     1      20.022 -13.058  41.397  1.00  0.00     0.009 C 
ATOM     11  C   UNL     1      19.241 -11.505  43.251  1.00  0.00    -0.031 C 
ATOM     12  C   UNL     1      19.523 -13.066  45.231  1.00  0.00     0.041 C 
ATOM     13  C   UNL     1      20.500 -14.188  45.594  1.00  0.00     0.010 C 
ATOM     14  C   UNL     1      18.855 -12.221  41.960  1.00  0.00     0.025 C 
ATOM     15  C   UNL     1      18.455 -10.500  43.685  1.00  0.00     0.050 C 
ATOM     16  C   UNL     1      18.213 -11.256  40.883  1.00  0.00    -0.013 C 
ATOM     17  C   UNL     1      17.303 -10.003  42.922  1.00  0.00     0.159 C 
ATOM     18  C   UNL     1      16.992 -10.512  41.534  1.00  0.00     0.070 C 
ATOM     19  C   UNL     1      19.266 -10.218  40.367  1.00  0.00     0.042 C 
ATOM     20  C   UNL     1      17.700 -12.127  39.699  1.00  0.00     0.013 C 
ATOM     21  O   UNL     1      16.519  -9.191  43.485  1.00  0.00    -0.295 OA
ATOM     22  C   UNL     1      16.440  -9.367  40.642  1.00  0.00     0.047 C 
ATOM     23  C   UNL     1      18.689  -9.080  39.502  1.00  0.00     0.143 C 
ATOM     24  C   UNL     1      17.523  -8.365  40.208  1.00  0.00     0.143 C 
BRANCH   9  25
ATOM     25  O   UNL     1      20.932 -11.090  44.936  1.00  0.00    -0.385 OA
ATOM     26  H   UNL     1      21.049 -10.296  44.359  1.00  0.00     0.211 HD
ENDBRANCH   9  25
BRANCH  23  27
ATOM     27  O   UNL     1      18.270  -9.582  38.257  1.00  0.00    -0.390 OA
ATOM     28  H   UNL     1      17.510  -9.021  37.956  1.00  0.00     0.211 HD
ENDBRANCH  23  27
BRANCH  24  29
ATOM     29  O   UNL     1      17.987  -7.646  41.321  1.00  0.00    -0.390 OA
ATOM     30  H   UNL     1      17.317  -6.939  41.508  1.00  0.00     0.211 HD
ENDBRANCH  24  29
ENDBRANCH   3   5
BRANCH   3  31
ATOM     31  O   UNL     1      23.701 -14.811  43.702  1.00  0.00    -0.387 OA
ATOM     32  H   UNL     1      24.262 -14.008  43.866  1.00  0.00     0.211 HD
ENDBRANCH   3  31
ENDBRANCH   2   3
BRANCH   2  33
ATOM     33  O   UNL     1      23.457 -16.287  46.873  1.00  0.00    -0.390 OA
ATOM     34  H   UNL     1      24.307 -16.708  47.166  1.00  0.00     0.211 HD
ENDBRANCH   2  33
ENDBRANCH   1   2
BRANCH   1  35
ATOM     35  C   UNL     1      24.753 -12.819  46.489  1.00  0.00     0.037 C 
BRANCH  35  36
ATOM     36  C   UNL     1      24.312 -11.363  46.815  1.00  0.00     0.059 C 
ATOM     37  C   UNL     1      24.559 -10.430  45.616  1.00  0.00     0.042 C 
ATOM     38  C   UNL     1      25.125 -10.844  48.017  1.00  0.00     0.042 C 
BRANCH  36  39
ATOM     39  O   UNL     1      22.940 -11.322  47.132  1.00  0.00    -0.390 OA
ATOM     40  H   UNL     1      22.856 -11.111  48.100  1.00  0.00     0.211 HD
ENDBRANCH  36  39
ENDBRANCH  35  36
ENDBRANCH   1  35
TORSDOF 11
ENDMDL
MODEL 4
REMARK VINA RESULT:    -5.859      1.843      3.467
REMARK INTER + INTRA:          -9.442
REMARK INTER:                  -8.278
REMARK INTRA:                  -1.164
REMARK UNBOUND:                -0.842
REMARK SMILES CC(C)(O)CC[C@@H](O)[C@](C)(O)[C@@H]1CC[C@]2(O)C3=CC(=O)[C@H]4C[C@@H](O)[C@H](O)C[C@@]4(C)[C@H]3CC[C@]12C
REMARK SMILES IDX 6 1 7 2 9 3 10 4 12 5 34 6 33 7 32 8 15 9 31 10 17 11 14 12
REMARK SMILES IDX 13 13 30 14 18 15 28 16 19 17 21 18 27 19 29 20 20 21 22 22
REMARK SMILES IDX 25 23 23 24 16 25 26 27 24 29 11 31 8 33 5 35 2 36 1 37 3 38
REMARK SMILES IDX 4 39
REMARK H PARENT 16 26 26 28 24 30 11 32 8 34 4 40
REMARK Flexibility Score: inf
ROOT
ATOM      1  C   UNL     1      22.986 -14.541  46.674  1.00  0.00     0.038 C 
ENDROOT
BRANCH   1   2
ATOM      2  C   UNL     1      23.564 -13.251  47.321  1.00  0.00     0.146 C 
BRANCH   2   3
ATOM      3  C   UNL     1      23.144 -11.913  46.610  1.00  0.00     0.091 C 
ATOM      4  C   UNL     1      24.345 -10.920  46.634  1.00  0.00     0.045 C 
BRANCH   3   5
ATOM      5  C   UNL     1      22.641 -12.062  45.105  1.00  0.00     0.032 C 
ATOM      6  C   UNL     1      20.305 -13.165  45.215  1.00  0.00     0.015 C 
ATOM      7  C   UNL     1      21.143 -11.995  44.634  1.00  0.00     0.006 C 
ATOM      8  C   UNL     1      20.451 -10.639  44.953  1.00  0.00     0.011 C 
ATOM      9  C   UNL     1      21.319 -12.137  43.085  1.00  0.00     0.092 C 
ATOM     10  C   UNL     1      19.102 -10.494  44.258  1.00  0.00     0.009 C 
ATOM     11  C   UNL     1      20.133 -11.638  42.235  1.00  0.00    -0.031 C 
ATOM     12  C   UNL     1      22.586 -11.291  42.781  1.00  0.00     0.041 C 
ATOM     13  C   UNL     1      23.409 -11.228  44.071  1.00  0.00     0.010 C 
ATOM     14  C   UNL     1      19.234 -10.505  42.721  1.00  0.00     0.025 C 
ATOM     15  C   UNL     1      20.091 -11.974  40.931  1.00  0.00     0.050 C 
ATOM     16  C   UNL     1      17.835 -10.462  41.982  1.00  0.00    -0.013 C 
ATOM     17  C   UNL     1      19.152 -11.365  39.981  1.00  0.00     0.159 C 
ATOM     18  C   UNL     1      18.082 -10.399  40.432  1.00  0.00     0.070 C 
ATOM     19  C   UNL     1      16.978 -11.722  42.341  1.00  0.00     0.042 C 
ATOM     20  C   UNL     1      17.092  -9.169  42.428  1.00  0.00     0.013 C 
ATOM     21  O   UNL     1      19.307 -11.604  38.752  1.00  0.00    -0.295 OA
ATOM     22  C   UNL     1      16.782 -10.596  39.607  1.00  0.00     0.047 C 
ATOM     23  C   UNL     1      15.704 -11.907  41.492  1.00  0.00     0.143 C 
ATOM     24  C   UNL     1      16.015 -11.873  39.986  1.00  0.00     0.143 C 
BRANCH   9  25
ATOM     25  O   UNL     1      21.559 -13.510  42.811  1.00  0.00    -0.385 OA
ATOM     26  H   UNL     1      20.870 -13.870  42.201  1.00  0.00     0.211 HD
ENDBRANCH   9  25
BRANCH  23  27
ATOM     27  O   UNL     1      14.758 -10.918  41.817  1.00  0.00    -0.390 OA
ATOM     28  H   UNL     1      14.084 -10.908  41.089  1.00  0.00     0.211 HD
ENDBRANCH  23  27
BRANCH  24  29
ATOM     29  O   UNL     1      16.754 -13.007  39.609  1.00  0.00    -0.390 OA
ATOM     30  H   UNL     1      17.603 -12.681  39.215  1.00  0.00     0.211 HD
ENDBRANCH  24  29
ENDBRANCH   3   5
BRANCH   3  31
ATOM     31  O   UNL     1      22.068 -11.338  47.325  1.00  0.00    -0.387 OA
ATOM     32  H   UNL     1      21.325 -11.993  47.392  1.00  0.00     0.211 HD
ENDBRANCH   3  31
ENDBRANCH   2   3
BRANCH   2  33
ATOM     33  O   UNL     1      24.962 -13.363  47.413  1.00  0.00    -0.390 OA
ATOM     34  H   UNL     1      25.163 -14.039  48.111  1.00  0.00     0.211 HD
ENDBRANCH   2  33
ENDBRANCH   1   2
BRANCH   1  35
ATOM     35  C   UNL     1      24.109 -15.498  46.224  1.00  0.00     0.037 C 
BRANCH  35  36
ATOM     36  C   UNL     1      24.164 -15.722  44.685  1.00  0.00     0.059 C 
ATOM     37  C   UNL     1      24.755 -17.102  44.349  1.00  0.00     0.042 C 
ATOM     38  C   UNL     1      25.054 -14.637  44.047  1.00  0.00     0.042 C 
BRANCH  36  39
ATOM     39  O   UNL     1      22.872 -15.647  44.129  1.00  0.00    -0.390 OA
ATOM     40  H   UNL     1      22.221 -15.567  44.876  1.00  0.00     0.211 HD
ENDBRANCH  36  39
ENDBRANCH  35  36
ENDBRANCH   1  35
TORSDOF 11
ENDMDL
MODEL 5
REMARK VINA RESULT:    -5.858      1.850      3.610
REMARK INTER + INTRA:          -9.440
REMARK INTER:                  -8.524
REMARK INTRA:                  -0.916
REMARK UNBOUND:                -0.842
REMARK SMILES CC(C)(O)CC[C@@H](O)[C@](C)(O)[C@@H]1CC[C@]2(O)C3=CC(=O)[C@H]4C[C@@H](O)[C@H](O)C[C@@]4(C)[C@H]3CC[C@]12C
REMARK SMILES IDX 6 1 7 2 9 3 10 4 12 5 34 6 33 7 32 8 15 9 31 10 17 11 14 12
REMARK SMILES IDX 13 13 30 14 18 15 28 16 19 17 21 18 27 19 29 20 20 21 22 22
REMARK SMILES IDX 25 23 23 24 16 25 26 27 24 29 11 31 8 33 5 35 2 36 1 37 3 38
REMARK SMILES IDX 4 39
REMARK H PARENT 16 26 26 28 24 30 11 32 8 34 4 40
REMARK Flexibility Score: inf
ROOT
ATOM      1  C   UNL     1      23.361 -13.579  44.748  1.00  0.00     0.038 C 
ENDROOT
BRANCH   1   2
ATOM      2  C   UNL     1      22.456 -14.843  44.799  1.00  0.00     0.146 C 
BRANCH   2   3
ATOM      3  C   UNL     1      21.155 -14.755  43.920  1.00  0.00     0.091 C 
ATOM      4  C   UNL     1      20.072 -15.708  44.511  1.00  0.00     0.045 C 
BRANCH   3   5
ATOM      5  C   UNL     1      20.522 -13.301  43.771  1.00  0.00     0.032 C 
ATOM      6  C   UNL     1      20.530 -12.750  41.245  1.00  0.00     0.015 C 
ATOM      7  C   UNL     1      19.681 -12.795  42.542  1.00  0.00     0.006 C 
ATOM      8  C   UNL     1      18.382 -13.616  42.297  1.00  0.00     0.011 C 
ATOM      9  C   UNL     1      19.303 -11.355  43.023  1.00  0.00     0.092 C 
ATOM     10  C   UNL     1      17.455 -12.953  41.285  1.00  0.00     0.009 C 
ATOM     11  C   UNL     1      18.089 -10.718  42.317  1.00  0.00    -0.031 C 
ATOM     12  C   UNL     1      19.001 -11.541  44.536  1.00  0.00     0.041 C 
ATOM     13  C   UNL     1      19.758 -12.788  44.999  1.00  0.00     0.010 C 
ATOM     14  C   UNL     1      16.953 -11.576  41.767  1.00  0.00     0.025 C 
ATOM     15  C   UNL     1      17.873  -9.397  42.475  1.00  0.00     0.050 C 
ATOM     16  C   UNL     1      16.075 -10.827  40.685  1.00  0.00    -0.013 C 
ATOM     17  C   UNL     1      16.632  -8.736  42.054  1.00  0.00     0.159 C 
ATOM     18  C   UNL     1      15.553  -9.479  41.301  1.00  0.00     0.070 C 
ATOM     19  C   UNL     1      16.910 -10.542  39.391  1.00  0.00     0.042 C 
ATOM     20  C   UNL     1      14.855 -11.731  40.342  1.00  0.00     0.013 C 
ATOM     21  O   UNL     1      16.442  -7.540  42.406  1.00  0.00    -0.295 OA
ATOM     22  C   UNL     1      14.884  -8.556  40.248  1.00  0.00     0.047 C 
ATOM     23  C   UNL     1      16.233  -9.605  38.372  1.00  0.00     0.143 C 
ATOM     24  C   UNL     1      15.778  -8.288  39.025  1.00  0.00     0.143 C 
BRANCH   9  25
ATOM     25  O   UNL     1      20.447 -10.533  42.841  1.00  0.00    -0.385 OA
ATOM     26  H   UNL     1      21.102 -10.681  43.567  1.00  0.00     0.211 HD
ENDBRANCH   9  25
BRANCH  23  27
ATOM     27  O   UNL     1      15.139 -10.253  37.770  1.00  0.00    -0.390 OA
ATOM     28  H   UNL     1      15.407 -10.476  36.841  1.00  0.00     0.211 HD
ENDBRANCH  23  27
BRANCH  24  29
ATOM     29  O   UNL     1      16.888  -7.515  39.402  1.00  0.00    -0.390 OA
ATOM     30  H   UNL     1      17.535  -7.552  38.652  1.00  0.00     0.211 HD
ENDBRANCH  24  29
ENDBRANCH   3   5
BRANCH   3  31
ATOM     31  O   UNL     1      21.466 -15.182  42.608  1.00  0.00    -0.387 OA
ATOM     32  H   UNL     1      20.645 -15.167  42.050  1.00  0.00     0.211 HD
ENDBRANCH   3  31
ENDBRANCH   2   3
BRANCH   2  33
ATOM     33  O   UNL     1      22.149 -15.141  46.138  1.00  0.00    -0.390 OA
ATOM     34  H   UNL     1      21.884 -14.293  46.580  1.00  0.00     0.211 HD
ENDBRANCH   2  33
ENDBRANCH   1   2
BRANCH   1  35
ATOM     35  C   UNL     1      24.162 -13.405  46.056  1.00  0.00     0.037 C 
BRANCH  35  36
ATOM     36  C   UNL     1      23.662 -12.231  46.946  1.00  0.00     0.059 C 
ATOM     37  C   UNL     1      22.928 -11.174  46.104  1.00  0.00     0.042 C 
ATOM     38  C   UNL     1      24.871 -11.563  47.630  1.00  0.00     0.042 C 
BRANCH  36  39
ATOM     39  O   UNL     1      22.775 -12.704  47.934  1.00  0.00    -0.390 OA
ATOM     40  H   UNL     1      23.203 -13.481  48.383  1.00  0.00     0.211 HD
ENDBRANCH  36  39
ENDBRANCH  35  36
ENDBRANCH   1  35
TORSDOF 11
ENDMDL
MODEL 6
REMARK VINA RESULT:    -5.795     12.373     14.864
REMARK INTER + INTRA:          -9.348
REMARK INTER:                  -8.544
REMARK INTRA:                  -0.804
REMARK UNBOUND:                -0.842
REMARK SMILES CC(C)(O)CC[C@@H](O)[C@](C)(O)[C@@H]1CC[C@]2(O)C3=CC(=O)[C@H]4C[C@@H](O)[C@H](O)C[C@@]4(C)[C@H]3CC[C@]12C
REMARK SMILES IDX 6 1 7 2 9 3 10 4 12 5 34 6 33 7 32 8 15 9 31 10 17 11 14 12
REMARK SMILES IDX 13 13 30 14 18 15 28 16 19 17 21 18 27 19 29 20 20 21 22 22
REMARK SMILES IDX 25 23 23 24 16 25 26 27 24 29 11 31 8 33 5 35 2 36 1 37 3 38
REMARK SMILES IDX 4 39
REMARK H PARENT 16 26 26 28 24 30 11 32 8 34 4 40
REMARK Flexibility Score: inf
ROOT
ATOM      1  C   UNL     1      14.427  -8.172  33.056  1.00  0.00     0.038 C 
ENDROOT
BRANCH   1   2
ATOM      2  C   UNL     1      13.551  -7.107  32.339  1.00  0.00     0.146 C 
BRANCH   2   3
ATOM      3  C   UNL     1      13.600  -5.673  32.985  1.00  0.00     0.091 C 
ATOM      4  C   UNL     1      13.905  -4.621  31.875  1.00  0.00     0.045 C 
BRANCH   3   5
ATOM      5  C   UNL     1      12.284  -5.223  33.761  1.00  0.00     0.032 C 
ATOM      6  C   UNL     1      12.036  -6.819  35.779  1.00  0.00     0.015 C 
ATOM      7  C   UNL     1      12.056  -5.340  35.312  1.00  0.00     0.006 C 
ATOM      8  C   UNL     1      13.085  -4.532  36.155  1.00  0.00     0.011 C 
ATOM      9  C   UNL     1      10.642  -4.684  35.448  1.00  0.00     0.092 C 
ATOM     10  C   UNL     1      12.690  -4.439  37.624  1.00  0.00     0.009 C 
ATOM     11  C   UNL     1      10.280  -4.176  36.858  1.00  0.00    -0.031 C 
ATOM     12  C   UNL     1      10.693  -3.494  34.451  1.00  0.00     0.041 C 
ATOM     13  C   UNL     1      11.751  -3.830  33.397  1.00  0.00     0.010 C 
ATOM     14  C   UNL     1      11.356  -3.689  37.824  1.00  0.00     0.025 C 
ATOM     15  C   UNL     1       8.996  -3.856  37.117  1.00  0.00     0.050 C 
ATOM     16  C   UNL     1      10.877  -3.675  39.333  1.00  0.00    -0.013 C 
ATOM     17  C   UNL     1       8.581  -3.144  38.331  1.00  0.00     0.159 C 
ATOM     18  C   UNL     1       9.560  -2.826  39.437  1.00  0.00     0.070 C 
ATOM     19  C   UNL     1      10.624  -5.131  39.849  1.00  0.00     0.042 C 
ATOM     20  C   UNL     1      11.987  -2.993  40.185  1.00  0.00     0.013 C 
ATOM     21  O   UNL     1       7.394  -2.724  38.402  1.00  0.00    -0.295 OA
ATOM     22  C   UNL     1       8.876  -2.946  40.826  1.00  0.00     0.047 C 
ATOM     23  C   UNL     1       9.923  -5.223  41.220  1.00  0.00     0.143 C 
ATOM     24  C   UNL     1       8.622  -4.403  41.249  1.00  0.00     0.143 C 
BRANCH   9  25
ATOM     25  O   UNL     1       9.686  -5.646  35.026  1.00  0.00    -0.385 OA
ATOM     26  H   UNL     1       9.056  -5.250  34.375  1.00  0.00     0.211 HD
ENDBRANCH   9  25
BRANCH  23  27
ATOM     27  O   UNL     1      10.793  -4.793  42.238  1.00  0.00    -0.390 OA
ATOM     28  H   UNL     1      10.282  -4.168  42.814  1.00  0.00     0.211 HD
ENDBRANCH  23  27
BRANCH  24  29
ATOM     29  O   UNL     1       7.654  -4.984  40.414  1.00  0.00    -0.390 OA
ATOM     30  H   UNL     1       7.563  -4.395  39.622  1.00  0.00     0.211 HD
ENDBRANCH  24  29
ENDBRANCH   3   5
BRANCH   3  31
ATOM     31  O   UNL     1      14.645  -5.641  33.937  1.00  0.00    -0.387 OA
ATOM     32  H   UNL     1      15.332  -4.982  33.656  1.00  0.00     0.211 HD
ENDBRANCH   3  31
ENDBRANCH   2   3
BRANCH   2  33
ATOM     33  O   UNL     1      12.231  -7.578  32.243  1.00  0.00    -0.390 OA
ATOM     34  H   UNL     1      12.247  -8.402  31.689  1.00  0.00     0.211 HD
ENDBRANCH   2  33
ENDBRANCH   1   2
BRANCH   1  35
ATOM     35  C   UNL     1      14.440  -9.506  32.280  1.00  0.00     0.037 C 
BRANCH  35  36
ATOM     36  C   UNL     1      13.642 -10.645  32.976  1.00  0.00     0.059 C 
ATOM     37  C   UNL     1      13.719 -10.517  34.507  1.00  0.00     0.042 C 
ATOM     38  C   UNL     1      14.237 -12.006  32.566  1.00  0.00     0.042 C 
BRANCH  36  39
ATOM     39  O   UNL     1      12.286 -10.601  32.597  1.00  0.00    -0.390 OA
ATOM     40  H   UNL     1      11.849 -11.433  32.924  1.00  0.00     0.211 HD
ENDBRANCH  36  39
ENDBRANCH  35  36
ENDBRANCH   1  35
TORSDOF 11
ENDMDL
MODEL 7
REMARK VINA RESULT:    -5.640      1.913      3.043
REMARK INTER + INTRA:          -9.120
REMARK INTER:                  -8.415
REMARK INTRA:                  -0.706
REMARK UNBOUND:                -0.842
REMARK SMILES CC(C)(O)CC[C@@H](O)[C@](C)(O)[C@@H]1CC[C@]2(O)C3=CC(=O)[C@H]4C[C@@H](O)[C@H](O)C[C@@]4(C)[C@H]3CC[C@]12C
REMARK SMILES IDX 6 1 7 2 9 3 10 4 12 5 34 6 33 7 32 8 15 9 31 10 17 11 14 12
REMARK SMILES IDX 13 13 30 14 18 15 28 16 19 17 21 18 27 19 29 20 20 21 22 22
REMARK SMILES IDX 25 23 23 24 16 25 26 27 24 29 11 31 8 33 5 35 2 36 1 37 3 38
REMARK SMILES IDX 4 39
REMARK H PARENT 16 26 26 28 24 30 11 32 8 34 4 40
REMARK Flexibility Score: inf
ROOT
ATOM      1  C   UNL     1      22.706 -14.003  46.864  1.00  0.00     0.038 C 
ENDROOT
BRANCH   1   2
ATOM      2  C   UNL     1      22.533 -14.770  45.522  1.00  0.00     0.146 C 
BRANCH   2   3
ATOM      3  C   UNL     1      21.130 -14.585  44.835  1.00  0.00     0.091 C 
ATOM      4  C   UNL     1      20.104 -14.076  45.893  1.00  0.00     0.045 C 
BRANCH   3   5
ATOM      5  C   UNL     1      21.100 -13.595  43.587  1.00  0.00     0.032 C 
ATOM      6  C   UNL     1      18.752 -13.816  42.528  1.00  0.00     0.015 C 
ATOM      7  C   UNL     1      19.831 -12.835  43.058  1.00  0.00     0.006 C 
ATOM      8  C   UNL     1      19.202 -11.871  44.105  1.00  0.00     0.011 C 
ATOM      9  C   UNL     1      20.458 -11.999  41.892  1.00  0.00     0.092 C 
ATOM     10  C   UNL     1      18.150 -10.952  43.494  1.00  0.00     0.009 C 
ATOM     11  C   UNL     1      19.640 -10.771  41.442  1.00  0.00    -0.031 C 
ATOM     12  C   UNL     1      21.829 -11.545  42.464  1.00  0.00     0.041 C 
ATOM     13  C   UNL     1      22.221 -12.547  43.553  1.00  0.00     0.010 C 
ATOM     14  C   UNL     1      18.743 -10.017  42.420  1.00  0.00     0.025 C 
ATOM     15  C   UNL     1      19.968 -10.171  40.281  1.00  0.00     0.050 C 
ATOM     16  C   UNL     1      17.647  -9.131  41.700  1.00  0.00    -0.013 C 
ATOM     17  C   UNL     1      19.425  -8.869  39.876  1.00  0.00     0.159 C 
ATOM     18  C   UNL     1      18.361  -8.166  40.688  1.00  0.00     0.070 C 
ATOM     19  C   UNL     1      16.609 -10.031  40.949  1.00  0.00     0.042 C 
ATOM     20  C   UNL     1      16.925  -8.279  42.786  1.00  0.00     0.013 C 
ATOM     21  O   UNL     1      19.925  -8.300  38.868  1.00  0.00    -0.295 OA
ATOM     22  C   UNL     1      17.364  -7.424  39.758  1.00  0.00     0.047 C 
ATOM     23  C   UNL     1      15.645  -9.273  40.016  1.00  0.00     0.143 C 
ATOM     24  C   UNL     1      16.403  -8.374  39.023  1.00  0.00     0.143 C 
BRANCH   9  25
ATOM     25  O   UNL     1      20.644 -12.879  40.793  1.00  0.00    -0.385 OA
ATOM     26  H   UNL     1      21.162 -13.675  41.066  1.00  0.00     0.211 HD
ENDBRANCH   9  25
BRANCH  23  27
ATOM     27  O   UNL     1      14.740  -8.506  40.773  1.00  0.00    -0.390 OA
ATOM     28  H   UNL     1      15.247  -8.127  41.537  1.00  0.00     0.211 HD
ENDBRANCH  23  27
BRANCH  24  29
ATOM     29  O   UNL     1      17.114  -9.154  38.096  1.00  0.00    -0.390 OA
ATOM     30  H   UNL     1      17.827  -8.576  37.719  1.00  0.00     0.211 HD
ENDBRANCH  24  29
ENDBRANCH   3   5
BRANCH   3  31
ATOM     31  O   UNL     1      20.695 -15.839  44.350  1.00  0.00    -0.387 OA
ATOM     32  H   UNL     1      19.728 -15.794  44.130  1.00  0.00     0.211 HD
ENDBRANCH   3  31
ENDBRANCH   2   3
BRANCH   2  33
ATOM     33  O   UNL     1      22.828 -16.129  45.721  1.00  0.00    -0.390 OA
ATOM     34  H   UNL     1      22.256 -16.653  45.103  1.00  0.00     0.211 HD
ENDBRANCH   2  33
ENDBRANCH   1   2
BRANCH   1  35
ATOM     35  C   UNL     1      24.093 -13.333  46.956  1.00  0.00     0.037 C 
BRANCH  35  36
ATOM     36  C   UNL     1      24.039 -11.778  46.988  1.00  0.00     0.059 C 
ATOM     37  C   UNL     1      22.586 -11.276  46.931  1.00  0.00     0.042 C 
ATOM     38  C   UNL     1      24.800 -11.219  45.770  1.00  0.00     0.042 C 
BRANCH  36  39
ATOM     39  O   UNL     1      24.630 -11.288  48.169  1.00  0.00    -0.390 OA
ATOM     40  H   UNL     1      25.046 -10.409  47.960  1.00  0.00     0.211 HD
ENDBRANCH  36  39
ENDBRANCH  35  36
ENDBRANCH   1  35
TORSDOF 11
ENDMDL
MODEL 8
REMARK VINA RESULT:    -5.607     12.506     14.683
REMARK INTER + INTRA:          -9.072
REMARK INTER:                  -8.203
REMARK INTRA:                  -0.869
REMARK UNBOUND:                -0.842
REMARK SMILES CC(C)(O)CC[C@@H](O)[C@](C)(O)[C@@H]1CC[C@]2(O)C3=CC(=O)[C@H]4C[C@@H](O)[C@H](O)C[C@@]4(C)[C@H]3CC[C@]12C
REMARK SMILES IDX 6 1 7 2 9 3 10 4 12 5 34 6 33 7 32 8 15 9 31 10 17 11 14 12
REMARK SMILES IDX 13 13 30 14 18 15 28 16 19 17 21 18 27 19 29 20 20 21 22 22
REMARK SMILES IDX 25 23 23 24 16 25 26 27 24 29 11 31 8 33 5 35 2 36 1 37 3 38
REMARK SMILES IDX 4 39
REMARK H PARENT 16 26 26 28 24 30 11 32 8 34 4 40
REMARK Flexibility Score: inf
ROOT
ATOM      1  C   UNL     1      10.120  -5.179  42.040  1.00  0.00     0.038 C 
ENDROOT
BRANCH   1   2
ATOM      2  C   UNL     1      10.082  -4.016  41.009  1.00  0.00     0.146 C 
BRANCH   2   3
ATOM      3  C   UNL     1      11.359  -3.098  41.006  1.00  0.00     0.091 C 
ATOM      4  C   UNL     1      12.184  -3.362  42.302  1.00  0.00     0.045 C 
BRANCH   3   5
ATOM      5  C   UNL     1      12.324  -3.267  39.749  1.00  0.00     0.032 C 
ATOM      6  C   UNL     1      11.984  -5.677  38.878  1.00  0.00     0.015 C 
ATOM      7  C   UNL     1      12.040  -4.174  38.498  1.00  0.00     0.006 C 
ATOM      8  C   UNL     1      10.751  -3.776  37.721  1.00  0.00     0.011 C 
ATOM      9  C   UNL     1      13.295  -3.857  37.618  1.00  0.00     0.092 C 
ATOM     10  C   UNL     1      10.640  -4.483  36.375  1.00  0.00     0.009 C 
ATOM     11  C   UNL     1      13.150  -4.176  36.116  1.00  0.00    -0.031 C 
ATOM     12  C   UNL     1      13.509  -2.332  37.821  1.00  0.00     0.041 C 
ATOM     13  C   UNL     1      12.872  -1.959  39.162  1.00  0.00     0.010 C 
ATOM     14  C   UNL     1      11.793  -4.109  35.421  1.00  0.00     0.025 C 
ATOM     15  C   UNL     1      14.260  -4.192  35.352  1.00  0.00     0.050 C 
ATOM     16  C   UNL     1      11.753  -4.913  34.059  1.00  0.00    -0.013 C 
ATOM     17  C   UNL     1      14.218  -4.243  33.886  1.00  0.00     0.159 C 
ATOM     18  C   UNL     1      12.916  -4.404  33.135  1.00  0.00     0.070 C 
ATOM     19  C   UNL     1      11.900  -6.450  34.316  1.00  0.00     0.042 C 
ATOM     20  C   UNL     1      10.391  -4.619  33.365  1.00  0.00     0.013 C 
ATOM     21  O   UNL     1      15.293  -4.069  33.250  1.00  0.00    -0.295 OA
ATOM     22  C   UNL     1      13.116  -5.289  31.875  1.00  0.00     0.047 C 
ATOM     23  C   UNL     1      12.120  -7.305  33.052  1.00  0.00     0.143 C 
ATOM     24  C   UNL     1      13.294  -6.780  32.208  1.00  0.00     0.143 C 
BRANCH   9  25
ATOM     25  O   UNL     1      14.386  -4.589  38.159  1.00  0.00    -0.385 OA
ATOM     26  H   UNL     1      14.161  -4.941  39.054  1.00  0.00     0.211 HD
ENDBRANCH   9  25
BRANCH  23  27
ATOM     27  O   UNL     1      10.944  -7.339  32.281  1.00  0.00    -0.390 OA
ATOM     28  H   UNL     1      11.025  -8.106  31.657  1.00  0.00     0.211 HD
ENDBRANCH  23  27
BRANCH  24  29
ATOM     29  O   UNL     1      14.512  -6.980  32.880  1.00  0.00    -0.390 OA
ATOM     30  H   UNL     1      14.298  -7.426  33.739  1.00  0.00     0.211 HD
ENDBRANCH  24  29
ENDBRANCH   3   5
BRANCH   3  31
ATOM     31  O   UNL     1      10.945  -1.746  41.001  1.00  0.00    -0.387 OA
ATOM     32  H   UNL     1      10.022  -1.679  41.360  1.00  0.00     0.211 HD
ENDBRANCH   3  31
ENDBRANCH   2   3
BRANCH   2  33
ATOM     33  O   UNL     1       8.912  -3.262  41.201  1.00  0.00    -0.390 OA
ATOM     34  H   UNL     1       8.881  -2.995  42.157  1.00  0.00     0.211 HD
ENDBRANCH   2  33
ENDBRANCH   1   2
BRANCH   1  35
ATOM     35  C   UNL     1       9.470  -6.458  41.473  1.00  0.00     0.037 C 
BRANCH  35  36
ATOM     36  C   UNL     1       8.009  -6.688  41.957  1.00  0.00     0.059 C 
ATOM     37  C   UNL     1       7.878  -6.409  43.464  1.00  0.00     0.042 C 
ATOM     38  C   UNL     1       7.612  -8.153  41.692  1.00  0.00     0.042 C 
BRANCH  36  39
ATOM     39  O   UNL     1       7.122  -5.836  41.271  1.00  0.00    -0.390 OA
ATOM     40  H   UNL     1       7.187  -6.044  40.300  1.00  0.00     0.211 HD
ENDBRANCH  36  39
ENDBRANCH  35  36
ENDBRANCH   1  35
TORSDOF 11
ENDMDL
MODEL 9
REMARK VINA RESULT:    -5.512      1.524      3.107
REMARK INTER + INTRA:          -8.932
REMARK INTER:                  -8.092
REMARK INTRA:                  -0.840
REMARK UNBOUND:                -0.842
REMARK SMILES CC(C)(O)CC[C@@H](O)[C@](C)(O)[C@@H]1CC[C@]2(O)C3=CC(=O)[C@H]4C[C@@H](O)[C@H](O)C[C@@]4(C)[C@H]3CC[C@]12C
REMARK SMILES IDX 6 1 7 2 9 3 10 4 12 5 34 6 33 7 32 8 15 9 31 10 17 11 14 12
REMARK SMILES IDX 13 13 30 14 18 15 28 16 19 17 21 18 27 19 29 20 20 21 22 22
REMARK SMILES IDX 25 23 23 24 16 25 26 27 24 29 11 31 8 33 5 35 2 36 1 37 3 38
REMARK SMILES IDX 4 39
REMARK H PARENT 16 26 26 28 24 30 11 32 8 34 4 40
REMARK Flexibility Score: inf
ROOT
ATOM      1  C   UNL     1      24.563 -13.039  46.459  1.00  0.00     0.038 C 
ENDROOT
BRANCH   1   2
ATOM      2  C   UNL     1      23.878 -11.681  46.142  1.00  0.00     0.146 C 
BRANCH   2   3
ATOM      3  C   UNL     1      23.600 -11.425  44.615  1.00  0.00     0.091 C 
ATOM      4  C   UNL     1      24.887 -11.749  43.798  1.00  0.00     0.045 C 
BRANCH   3   5
ATOM      5  C   UNL     1      22.385 -12.245  43.990  1.00  0.00     0.032 C 
ATOM      6  C   UNL     1      20.222 -11.195  44.940  1.00  0.00     0.015 C 
ATOM      7  C   UNL     1      20.965 -11.658  43.659  1.00  0.00     0.006 C 
ATOM      8  C   UNL     1      20.996 -10.503  42.618  1.00  0.00     0.011 C 
ATOM      9  C   UNL     1      20.274 -12.912  43.025  1.00  0.00     0.092 C 
ATOM     10  C   UNL     1      19.606 -10.135  42.112  1.00  0.00     0.009 C 
ATOM     11  C   UNL     1      19.047 -12.615  42.139  1.00  0.00    -0.031 C 
ATOM     12  C   UNL     1      21.400 -13.559  42.174  1.00  0.00     0.041 C 
ATOM     13  C   UNL     1      22.736 -13.115  42.776  1.00  0.00     0.010 C 
ATOM     14  C   UNL     1      18.927 -11.303  41.368  1.00  0.00     0.025 C 
ATOM     15  C   UNL     1      18.244 -13.639  41.788  1.00  0.00     0.050 C 
ATOM     16  C   UNL     1      17.442 -10.974  40.929  1.00  0.00    -0.013 C 
ATOM     17  C   UNL     1      17.199 -13.518  40.765  1.00  0.00     0.159 C 
ATOM     18  C   UNL     1      16.872 -12.192  40.118  1.00  0.00     0.070 C 
ATOM     19  C   UNL     1      16.543 -10.690  42.179  1.00  0.00     0.042 C 
ATOM     20  C   UNL     1      17.478  -9.723  40.004  1.00  0.00     0.013 C 
ATOM     21  O   UNL     1      16.623 -14.569  40.371  1.00  0.00    -0.295 OA
ATOM     22  C   UNL     1      15.348 -12.075  39.847  1.00  0.00     0.047 C 
ATOM     23  C   UNL     1      15.031 -10.600  41.887  1.00  0.00     0.143 C 
ATOM     24  C   UNL     1      14.526 -11.837  41.124  1.00  0.00     0.143 C 
BRANCH   9  25
ATOM     25  O   UNL     1      19.898 -13.772  44.090  1.00  0.00    -0.385 OA
ATOM     26  H   UNL     1      20.613 -13.820  44.770  1.00  0.00     0.211 HD
ENDBRANCH   9  25
BRANCH  23  27
ATOM     27  O   UNL     1      14.747  -9.430  41.161  1.00  0.00    -0.390 OA
ATOM     28  H   UNL     1      14.270  -9.706  40.336  1.00  0.00     0.211 HD
ENDBRANCH  23  27
BRANCH  24  29
ATOM     29  O   UNL     1      14.572 -12.976  41.945  1.00  0.00    -0.390 OA
ATOM     30  H   UNL     1      14.213 -12.709  42.830  1.00  0.00     0.211 HD
ENDBRANCH  24  29
ENDBRANCH   3   5
BRANCH   3  31
ATOM     31  O   UNL     1      23.282 -10.059  44.435  1.00  0.00    -0.387 OA
ATOM     32  H   UNL     1      22.387  -9.871  44.822  1.00  0.00     0.211 HD
ENDBRANCH   3  31
ENDBRANCH   2   3
BRANCH   2  33
ATOM     33  O   UNL     1      24.631 -10.636  46.705  1.00  0.00    -0.390 OA
ATOM     34  H   UNL     1      24.016  -9.872  46.858  1.00  0.00     0.211 HD
ENDBRANCH   2  33
ENDBRANCH   1   2
BRANCH   1  35
ATOM     35  C   UNL     1      23.531 -14.109  46.873  1.00  0.00     0.037 C 
BRANCH  35  36
ATOM     36  C   UNL     1      23.742 -15.487  46.181  1.00  0.00     0.059 C 
ATOM     37  C   UNL     1      24.370 -16.501  47.152  1.00  0.00     0.042 C 
ATOM     38  C   UNL     1      24.687 -15.309  44.977  1.00  0.00     0.042 C 
BRANCH  36  39
ATOM     39  O   UNL     1      22.513 -16.007  45.731  1.00  0.00    -0.390 OA
ATOM     40  H   UNL     1      22.450 -15.840  44.753  1.00  0.00     0.211 HD
ENDBRANCH  36  39
ENDBRANCH  35  36
ENDBRANCH   1  35
TORSDOF 11
ENDMDL
