MODEL 1
REMARK VINA RESULT:    -2.882      0.000      0.000
REMARK INTER + INTRA:          -3.352
REMARK INTER:                  -3.303
REMARK INTRA:                  -0.049
REMARK UNBOUND:                -0.049
REMARK SMILES CC(C)[C@H]([NH3+])C(=O)[O-]
REMARK SMILES IDX 4 1 5 2 6 6 7 7 8 8 2 9 1 10 3 11
REMARK H PARENT 5 3 5 4 5 5
REMARK Flexibility Score: inf
ROOT
ATOM      1  C   UNL     1       3.077 -39.777  -6.080  1.00  0.00     0.230 C 
ENDROOT
BRANCH   1   2
ATOM      2  N   UNL     1       3.214 -39.291  -7.462  1.00  0.00    -0.350 N 
ATOM      3  H   UNL     1       3.020 -40.075  -8.127  1.00  0.00     0.345 HD
ATOM      4  H   UNL     1       2.545 -38.515  -7.663  1.00  0.00     0.345 HD
ATOM      5  H   UNL     1       4.190 -38.962  -7.638  1.00  0.00     0.345 HD
ENDBRANCH   1   2
BRANCH   1   6
ATOM      6  C   UNL     1       3.905 -41.020  -5.860  1.00  0.00     0.099 C 
ATOM      7  O   UNL     1       3.557 -42.125  -6.353  1.00  0.00    -0.544 OA
ATOM      8  O   UNL     1       5.040 -40.957  -5.060  1.00  0.00    -0.544 OA
ENDBRANCH   1   6
BRANCH   1   9
ATOM      9  C   UNL     1       1.595 -40.015  -5.661  1.00  0.00     0.047 C 
ATOM     10  C   UNL     1       0.605 -39.959  -6.836  1.00  0.00     0.014 C 
ATOM     11  C   UNL     1       1.152 -39.049  -4.551  1.00  0.00     0.014 C 
ENDBRANCH   1   9
TORSDOF 3
ENDMDL
MODEL 2
REMARK VINA RESULT:    -2.652      2.356      3.047
REMARK INTER + INTRA:          -3.089
REMARK INTER:                  -3.040
REMARK INTRA:                  -0.049
REMARK UNBOUND:                -0.049
REMARK SMILES CC(C)[C@H]([NH3+])C(=O)[O-]
REMARK SMILES IDX 4 1 5 2 6 6 7 7 8 8 2 9 1 10 3 11
REMARK H PARENT 5 3 5 4 5 5
REMARK Flexibility Score: inf
ROOT
ATOM      1  C   UNL     1       1.487 -38.221  -6.458  1.00  0.00     0.230 C 
ENDROOT
BRANCH   1   2
ATOM      2  N   UNL     1       1.122 -37.076  -7.308  1.00  0.00    -0.350 N 
ATOM      3  H   UNL     1       1.383 -36.186  -6.823  1.00  0.00     0.345 HD
ATOM      4  H   UNL     1       1.618 -37.108  -8.227  1.00  0.00     0.345 HD
ATOM      5  H   UNL     1       0.091 -37.056  -7.471  1.00  0.00     0.345 HD
ENDBRANCH   1   2
BRANCH   1   6
ATOM      6  C   UNL     1       1.694 -39.464  -7.287  1.00  0.00     0.099 C 
ATOM      7  O   UNL     1       2.697 -40.204  -7.106  1.00  0.00    -0.544 OA
ATOM      8  O   UNL     1       0.792 -39.774  -8.299  1.00  0.00    -0.544 OA
ENDBRANCH   1   6
BRANCH   1   9
ATOM      9  C   UNL     1       0.464 -38.480  -5.311  1.00  0.00     0.047 C 
ATOM     10  C   UNL     1      -0.472 -37.291  -5.040  1.00  0.00     0.014 C 
ATOM     11  C   UNL     1       1.158 -38.913  -4.011  1.00  0.00     0.014 C 
ENDBRANCH   1   9
TORSDOF 3
ENDMDL
MODEL 3
REMARK VINA RESULT:    -2.639      1.366      1.757
REMARK INTER + INTRA:          -3.074
REMARK INTER:                  -3.017
REMARK INTRA:                  -0.057
REMARK UNBOUND:                -0.049
REMARK SMILES CC(C)[C@H]([NH3+])C(=O)[O-]
REMARK SMILES IDX 4 1 5 2 6 6 7 7 8 8 2 9 1 10 3 11
REMARK H PARENT 5 3 5 4 5 5
REMARK Flexibility Score: inf
ROOT
ATOM      1  C   UNL     1       2.596 -39.952  -6.191  1.00  0.00     0.230 C 
ENDROOT
BRANCH   1   2
ATOM      2  N   UNL     1       1.300 -40.625  -6.375  1.00  0.00    -0.350 N 
ATOM      3  H   UNL     1       1.120 -41.259  -5.563  1.00  0.00     0.345 HD
ATOM      4  H   UNL     1       0.516 -39.937  -6.436  1.00  0.00     0.345 HD
ATOM      5  H   UNL     1       1.313 -41.213  -7.238  1.00  0.00     0.345 HD
ENDBRANCH   1   2
BRANCH   1   6
ATOM      6  C   UNL     1       3.691 -40.953  -5.918  1.00  0.00     0.099 C 
ATOM      7  O   UNL     1       3.625 -42.125  -6.375  1.00  0.00    -0.544 OA
ATOM      8  O   UNL     1       4.764 -40.596  -5.109  1.00  0.00    -0.544 OA
ENDBRANCH   1   6
BRANCH   1   9
ATOM      9  C   UNL     1       2.561 -38.851  -5.088  1.00  0.00     0.047 C 
ATOM     10  C   UNL     1       1.218 -38.767  -4.344  1.00  0.00     0.014 C 
ATOM     11  C   UNL     1       2.945 -37.471  -5.643  1.00  0.00     0.014 C 
ENDBRANCH   1   9
TORSDOF 3
ENDMDL
MODEL 4
REMARK VINA RESULT:    -2.635      1.516      2.025
REMARK INTER + INTRA:          -3.069
REMARK INTER:                  -3.018
REMARK INTRA:                  -0.051
REMARK UNBOUND:                -0.049
REMARK SMILES CC(C)[C@H]([NH3+])C(=O)[O-]
REMARK SMILES IDX 4 1 5 2 6 6 7 7 8 8 2 9 1 10 3 11
REMARK H PARENT 5 3 5 4 5 5
REMARK Flexibility Score: inf
ROOT
ATOM      1  C   UNL     1       2.315 -39.698  -5.426  1.00  0.00     0.230 C 
ENDROOT
BRANCH   1   2
ATOM      2  N   UNL     1       3.206 -38.726  -4.772  1.00  0.00    -0.350 N 
ATOM      3  H   UNL     1       2.657 -38.158  -4.086  1.00  0.00     0.345 HD
ATOM      4  H   UNL     1       3.982 -39.202  -4.260  1.00  0.00     0.345 HD
ATOM      5  H   UNL     1       3.609 -38.068  -5.476  1.00  0.00     0.345 HD
ENDBRANCH   1   2
BRANCH   1   6
ATOM      6  C   UNL     1       3.094 -40.620  -6.332  1.00  0.00     0.099 C 
ATOM      7  O   UNL     1       3.209 -41.845  -6.063  1.00  0.00    -0.544 OA
ATOM      8  O   UNL     1       3.736 -40.104  -7.451  1.00  0.00    -0.544 OA
ENDBRANCH   1   6
BRANCH   1   9
ATOM      9  C   UNL     1       1.139 -39.026  -6.196  1.00  0.00     0.047 C 
ATOM     10  C   UNL     1       0.216 -38.185  -5.299  1.00  0.00     0.014 C 
ATOM     11  C   UNL     1       0.314 -40.050  -6.990  1.00  0.00     0.014 C 
ENDBRANCH   1   9
TORSDOF 3
ENDMDL
MODEL 5
REMARK VINA RESULT:    -2.623      8.905      9.530
REMARK INTER + INTRA:          -3.055
REMARK INTER:                  -2.992
REMARK INTRA:                  -0.063
REMARK UNBOUND:                -0.049
REMARK SMILES CC(C)[C@H]([NH3+])C(=O)[O-]
REMARK SMILES IDX 4 1 5 2 6 6 7 7 8 8 2 9 1 10 3 11
REMARK H PARENT 5 3 5 4 5 5
REMARK Flexibility Score: inf
ROOT
ATOM      1  C   UNL     1      -6.237 -39.607  -2.298  1.00  0.00     0.230 C 
ENDROOT
BRANCH   1   2
ATOM      2  N   UNL     1      -5.746 -38.819  -1.156  1.00  0.00    -0.350 N 
ATOM      3  H   UNL     1      -6.456 -38.841  -0.388  1.00  0.00     0.345 HD
ATOM      4  H   UNL     1      -4.848 -39.201  -0.785  1.00  0.00     0.345 HD
ATOM      5  H   UNL     1      -5.611 -37.821  -1.432  1.00  0.00     0.345 HD
ENDBRANCH   1   2
BRANCH   1   6
ATOM      6  C   UNL     1      -5.718 -41.023  -2.240  1.00  0.00     0.099 C 
ATOM      7  O   UNL     1      -5.360 -41.624  -3.287  1.00  0.00    -0.544 OA
ATOM      8  O   UNL     1      -5.680 -41.692  -1.022  1.00  0.00    -0.544 OA
ENDBRANCH   1   6
BRANCH   1   9
ATOM      9  C   UNL     1      -5.915 -38.952  -3.675  1.00  0.00     0.047 C 
ATOM     10  C   UNL     1      -5.014 -37.711  -3.572  1.00  0.00     0.014 C 
ATOM     11  C   UNL     1      -7.191 -38.615  -4.462  1.00  0.00     0.014 C 
ENDBRANCH   1   9
TORSDOF 3
ENDMDL
MODEL 6
REMARK VINA RESULT:    -2.614      2.340      2.641
REMARK INTER + INTRA:          -3.044
REMARK INTER:                  -2.977
REMARK INTRA:                  -0.067
REMARK UNBOUND:                -0.049
REMARK SMILES CC(C)[C@H]([NH3+])C(=O)[O-]
REMARK SMILES IDX 4 1 5 2 6 6 7 7 8 8 2 9 1 10 3 11
REMARK H PARENT 5 3 5 4 5 5
REMARK Flexibility Score: inf
ROOT
ATOM      1  C   UNL     1       1.176 -39.120  -4.800  1.00  0.00     0.230 C 
ENDROOT
BRANCH   1   2
ATOM      2  N   UNL     1       1.690 -38.447  -3.596  1.00  0.00    -0.350 N 
ATOM      3  H   UNL     1       1.524 -37.417  -3.676  1.00  0.00     0.345 HD
ATOM      4  H   UNL     1       1.214 -38.792  -2.732  1.00  0.00     0.345 HD
ATOM      5  H   UNL     1       2.720 -38.595  -3.506  1.00  0.00     0.345 HD
ENDBRANCH   1   2
BRANCH   1   6
ATOM      6  C   UNL     1       2.292 -39.794  -5.559  1.00  0.00     0.099 C 
ATOM      7  O   UNL     1       2.044 -40.636  -6.462  1.00  0.00    -0.544 OA
ATOM      8  O   UNL     1       3.614 -39.521  -5.227  1.00  0.00    -0.544 OA
ENDBRANCH   1   6
BRANCH   1   9
ATOM      9  C   UNL     1       0.365 -38.169  -5.730  1.00  0.00     0.047 C 
ATOM     10  C   UNL     1       1.245 -37.222  -6.563  1.00  0.00     0.014 C 
ATOM     11  C   UNL     1      -0.687 -37.364  -4.951  1.00  0.00     0.014 C 
ENDBRANCH   1   9
TORSDOF 3
ENDMDL
MODEL 7
REMARK VINA RESULT:    -2.552      3.189      3.550
REMARK INTER + INTRA:          -2.974
REMARK INTER:                  -2.991
REMARK INTRA:                   0.017
REMARK UNBOUND:                -0.049
REMARK SMILES CC(C)[C@H]([NH3+])C(=O)[O-]
REMARK SMILES IDX 4 1 5 2 6 6 7 7 8 8 2 9 1 10 3 11
REMARK H PARENT 5 3 5 4 5 5
REMARK Flexibility Score: inf
ROOT
ATOM      1  C   UNL     1       2.556 -38.469  -4.363  1.00  0.00     0.230 C 
ENDROOT
BRANCH   1   2
ATOM      2  N   UNL     1       2.640 -38.111  -2.938  1.00  0.00    -0.350 N 
ATOM      3  H   UNL     1       2.563 -38.977  -2.356  1.00  0.00     0.345 HD
ATOM      4  H   UNL     1       3.547 -37.643  -2.713  1.00  0.00     0.345 HD
ATOM      5  H   UNL     1       1.851 -37.481  -2.672  1.00  0.00     0.345 HD
ENDBRANCH   1   2
BRANCH   1   6
ATOM      6  C   UNL     1       2.837 -37.272  -5.238  1.00  0.00     0.099 C 
ATOM      7  O   UNL     1       3.237 -37.416  -6.423  1.00  0.00    -0.544 OA
ATOM      8  O   UNL     1       2.702 -35.991  -4.715  1.00  0.00    -0.544 OA
ENDBRANCH   1   6
BRANCH   1   9
ATOM      9  C   UNL     1       1.200 -39.133  -4.746  1.00  0.00     0.047 C 
ATOM     10  C   UNL     1       1.324 -40.198  -5.848  1.00  0.00     0.014 C 
ATOM     11  C   UNL     1       0.142 -38.090  -5.137  1.00  0.00     0.014 C 
ENDBRANCH   1   9
TORSDOF 3
ENDMDL
MODEL 8
REMARK VINA RESULT:    -2.513      1.763      2.465
REMARK INTER + INTRA:          -2.929
REMARK INTER:                  -2.891
REMARK INTRA:                  -0.038
REMARK UNBOUND:                -0.049
REMARK SMILES CC(C)[C@H]([NH3+])C(=O)[O-]
REMARK SMILES IDX 4 1 5 2 6 6 7 7 8 8 2 9 1 10 3 11
REMARK H PARENT 5 3 5 4 5 5
REMARK Flexibility Score: inf
ROOT
ATOM      1  C   UNL     1       3.653 -39.454  -5.213  1.00  0.00     0.230 C 
ENDROOT
BRANCH   1   2
ATOM      2  N   UNL     1       4.920 -38.833  -5.633  1.00  0.00    -0.350 N 
ATOM      3  H   UNL     1       4.832 -38.499  -6.621  1.00  0.00     0.345 HD
ATOM      4  H   UNL     1       5.165 -38.017  -5.030  1.00  0.00     0.345 HD
ATOM      5  H   UNL     1       5.695 -39.532  -5.604  1.00  0.00     0.345 HD
ENDBRANCH   1   2
BRANCH   1   6
ATOM      6  C   UNL     1       3.101 -40.344  -6.299  1.00  0.00     0.099 C 
ATOM      7  O   UNL     1       2.721 -39.864  -7.400  1.00  0.00    -0.544 OA
ATOM      8  O   UNL     1       2.962 -41.708  -6.067  1.00  0.00    -0.544 OA
ENDBRANCH   1   6
BRANCH   1   9
ATOM      9  C   UNL     1       2.587 -38.414  -4.752  1.00  0.00     0.047 C 
ATOM     10  C   UNL     1       3.044 -37.548  -3.566  1.00  0.00     0.014 C 
ATOM     11  C   UNL     1       1.239 -39.077  -4.434  1.00  0.00     0.014 C 
ENDBRANCH   1   9
TORSDOF 3
ENDMDL
MODEL 9
REMARK VINA RESULT:    -2.486      9.293      9.807
REMARK INTER + INTRA:          -2.899
REMARK INTER:                  -2.864
REMARK INTRA:                  -0.035
REMARK UNBOUND:                -0.049
REMARK SMILES CC(C)[C@H]([NH3+])C(=O)[O-]
REMARK SMILES IDX 4 1 5 2 6 6 7 7 8 8 2 9 1 10 3 11
REMARK H PARENT 5 3 5 4 5 5
REMARK Flexibility Score: inf
ROOT
ATOM      1  C   UNL     1      -6.606 -39.735  -2.538  1.00  0.00     0.230 C 
ENDROOT
BRANCH   1   2
ATOM      2  N   UNL     1      -7.702 -40.254  -3.371  1.00  0.00    -0.350 N 
ATOM      3  H   UNL     1      -8.597 -40.216  -2.831  1.00  0.00     0.345 HD
ATOM      4  H   UNL     1      -7.819 -39.692  -4.244  1.00  0.00     0.345 HD
ATOM      5  H   UNL     1      -7.527 -41.253  -3.623  1.00  0.00     0.345 HD
ENDBRANCH   1   2
BRANCH   1   6
ATOM      6  C   UNL     1      -5.741 -38.776  -3.319  1.00  0.00     0.099 C 
ATOM      7  O   UNL     1      -5.300 -39.083  -4.457  1.00  0.00    -0.544 OA
ATOM      8  O   UNL     1      -5.383 -37.557  -2.755  1.00  0.00    -0.544 OA
ENDBRANCH   1   6
BRANCH   1   9
ATOM      9  C   UNL     1      -5.745 -40.860  -1.890  1.00  0.00     0.047 C 
ATOM     10  C   UNL     1      -5.627 -42.123  -2.759  1.00  0.00     0.014 C 
ATOM     11  C   UNL     1      -6.246 -41.231  -0.486  1.00  0.00     0.014 C 
ENDBRANCH   1   9
TORSDOF 3
ENDMDL
