MODEL 1
REMARK VINA RESULT:    -4.006      0.000      0.000
REMARK INTER + INTRA:          -5.108
REMARK INTER:                  -4.826
REMARK INTRA:                  -0.282
REMARK UNBOUND:                -0.282
REMARK SMILES O=c1c(O)c(-c2ccc(O)c(O)c2)oc2cc(O)cc(O)c12
REMARK SMILES IDX 5 1 3 2 2 3 1 4 22 5 20 6 19 7 17 8 16 9 15 10 14 11 6 12
REMARK SMILES IDX 7 13 8 14 9 15 13 16 11 17 10 18 12 20 4 22 21 24 18 26
REMARK H PARENT 10 19 12 21 4 23 21 25 18 27
REMARK Flexibility Score: inf
ROOT
ATOM      1  C   UNL     1       7.398   5.734   8.607  1.00  0.00     0.180 A 
ATOM      2  C   UNL     1       8.383   6.643   8.180  1.00  0.00     0.208 A 
ATOM      3  C   UNL     1       8.338   7.127   6.864  1.00  0.00     0.238 A 
ATOM      4  O   UNL     1       9.190   7.981   6.504  1.00  0.00    -0.285 OA
ATOM      5  C   UNL     1       7.319   6.686   5.984  1.00  0.00     0.111 A 
ATOM      6  C   UNL     1       7.200   7.080   4.618  1.00  0.00     0.134 A 
ATOM      7  C   UNL     1       6.079   6.684   3.880  1.00  0.00     0.093 A 
ATOM      8  C   UNL     1       5.104   5.854   4.440  1.00  0.00     0.123 A 
ATOM      9  C   UNL     1       5.241   5.416   5.755  1.00  0.00     0.094 A 
ATOM     10  C   UNL     1       6.332   5.824   6.528  1.00  0.00     0.146 A 
ATOM     11  O   UNL     1       6.418   5.391   7.779  1.00  0.00    -0.452 OA
ENDROOT
BRANCH   1  12
ATOM     12  C   UNL     1       7.394   5.161   9.972  1.00  0.00     0.025 A 
ATOM     13  C   UNL     1       6.944   5.904  11.077  1.00  0.00     0.016 A 
ATOM     14  C   UNL     1       6.973   5.350  12.360  1.00  0.00     0.051 A 
ATOM     15  C   UNL     1       7.464   4.054  12.560  1.00  0.00     0.157 A 
ATOM     16  C   UNL     1       7.905   3.870  10.181  1.00  0.00     0.062 A 
ATOM     17  C   UNL     1       7.936   3.311  11.464  1.00  0.00     0.158 A 
BRANCH  15  18
ATOM     18  O   UNL     1       7.490   3.504  13.840  1.00  0.00    -0.504 OA
ATOM     19  H   UNL     1       8.291   3.621  14.452  1.00  0.00     0.293 HD
ENDBRANCH  15  18
BRANCH  17  20
ATOM     20  O   UNL     1       8.437   2.021  11.630  1.00  0.00    -0.504 OA
ATOM     21  H   UNL     1       7.837   1.204  11.613  1.00  0.00     0.293 HD
ENDBRANCH  17  20
ENDBRANCH   1  12
BRANCH   2  22
ATOM     22  O   UNL     1       9.367   7.082   9.070  1.00  0.00    -0.502 OA
ATOM     23  H   UNL     1       9.184   7.778   9.783  1.00  0.00     0.293 HD
ENDBRANCH   2  22
BRANCH   6  24
ATOM     24  O   UNL     1       8.163   7.831   3.936  1.00  0.00    -0.507 OA
ATOM     25  H   UNL     1       8.524   8.720   4.246  1.00  0.00     0.293 HD
ENDBRANCH   6  24
BRANCH   8  26
ATOM     26  O   UNL     1       3.999   5.452   3.693  1.00  0.00    -0.508 OA
ATOM     27  H   UNL     1       4.030   5.407   2.681  1.00  0.00     0.293 HD
ENDBRANCH   8  26
TORSDOF 6
ENDMDL
MODEL 2
REMARK VINA RESULT:    -3.805      5.763      9.205
REMARK INTER + INTRA:          -4.865
REMARK INTER:                  -4.580
REMARK INTRA:                  -0.286
REMARK UNBOUND:                -0.282
REMARK SMILES O=c1c(O)c(-c2ccc(O)c(O)c2)oc2cc(O)cc(O)c12
REMARK SMILES IDX 5 1 3 2 2 3 1 4 22 5 20 6 19 7 17 8 16 9 15 10 14 11 6 12
REMARK SMILES IDX 7 13 8 14 9 15 13 16 11 17 10 18 12 20 4 22 21 24 18 26
REMARK H PARENT 10 19 12 21 4 23 21 25 18 27
REMARK Flexibility Score: inf
ROOT
ATOM      1  C   UNL     1      12.651   7.006   5.634  1.00  0.00     0.180 A 
ATOM      2  C   UNL     1      11.735   7.526   6.566  1.00  0.00     0.208 A 
ATOM      3  C   UNL     1      12.186   7.851   7.854  1.00  0.00     0.238 A 
ATOM      4  O   UNL     1      11.375   8.367   8.667  1.00  0.00    -0.285 OA
ATOM      5  C   UNL     1      13.542   7.638   8.201  1.00  0.00     0.111 A 
ATOM      6  C   UNL     1      14.100   7.896   9.490  1.00  0.00     0.134 A 
ATOM      7  C   UNL     1      15.481   7.772   9.682  1.00  0.00     0.093 A 
ATOM      8  C   UNL     1      16.317   7.338   8.649  1.00  0.00     0.123 A 
ATOM      9  C   UNL     1      15.773   7.028   7.404  1.00  0.00     0.094 A 
ATOM     10  C   UNL     1      14.403   7.177   7.172  1.00  0.00     0.146 A 
ATOM     11  O   UNL     1      13.929   6.880   5.969  1.00  0.00    -0.452 OA
ENDROOT
BRANCH   1  12
ATOM     12  C   UNL     1      12.244   6.616   4.265  1.00  0.00     0.025 A 
ATOM     13  C   UNL     1      12.473   7.460   3.164  1.00  0.00     0.016 A 
ATOM     14  C   UNL     1      12.058   7.081   1.885  1.00  0.00     0.051 A 
ATOM     15  C   UNL     1      11.397   5.862   1.688  1.00  0.00     0.157 A 
ATOM     16  C   UNL     1      11.562   5.404   4.065  1.00  0.00     0.062 A 
ATOM     17  C   UNL     1      11.145   5.021   2.785  1.00  0.00     0.158 A 
BRANCH  15  18
ATOM     18  O   UNL     1      10.986   5.486   0.410  1.00  0.00    -0.504 OA
ATOM     19  H   UNL     1      10.031   5.624   0.097  1.00  0.00     0.293 HD
ENDBRANCH  15  18
BRANCH  17  20
ATOM     20  O   UNL     1      10.483   3.804   2.624  1.00  0.00    -0.504 OA
ATOM     21  H   UNL     1       9.561   3.638   3.011  1.00  0.00     0.293 HD
ENDBRANCH  17  20
ENDBRANCH   1  12
BRANCH   2  22
ATOM     22  O   UNL     1      10.406   7.748   6.197  1.00  0.00    -0.502 OA
ATOM     23  H   UNL     1      10.074   7.608   5.250  1.00  0.00     0.293 HD
ENDBRANCH   2  22
BRANCH   6  24
ATOM     24  O   UNL     1      13.343   8.244  10.612  1.00  0.00    -0.507 OA
ATOM     25  H   UNL     1      12.596   8.923  10.614  1.00  0.00     0.293 HD
ENDBRANCH   6  24
BRANCH   8  26
ATOM     26  O   UNL     1      17.687   7.203   8.853  1.00  0.00    -0.508 OA
ATOM     27  H   UNL     1      18.146   6.300   8.800  1.00  0.00     0.293 HD
ENDBRANCH   8  26
TORSDOF 6
ENDMDL
MODEL 3
REMARK VINA RESULT:    -3.799      4.975      9.002
REMARK INTER + INTRA:          -4.858
REMARK INTER:                  -4.543
REMARK INTRA:                  -0.315
REMARK UNBOUND:                -0.282
REMARK SMILES O=c1c(O)c(-c2ccc(O)c(O)c2)oc2cc(O)cc(O)c12
REMARK SMILES IDX 5 1 3 2 2 3 1 4 22 5 20 6 19 7 17 8 16 9 15 10 14 11 6 12
REMARK SMILES IDX 7 13 8 14 9 15 13 16 11 17 10 18 12 20 4 22 21 24 18 26
REMARK H PARENT 10 19 12 21 4 23 21 25 18 27
REMARK Flexibility Score: inf
ROOT
ATOM      1  C   UNL     1      11.431   6.551   4.499  1.00  0.00     0.180 A 
ATOM      2  C   UNL     1      10.440   6.607   5.497  1.00  0.00     0.208 A 
ATOM      3  C   UNL     1      10.782   7.093   6.768  1.00  0.00     0.238 A 
ATOM      4  O   UNL     1       9.880   7.191   7.640  1.00  0.00    -0.285 OA
ATOM      5  C   UNL     1      12.111   7.502   7.033  1.00  0.00     0.111 A 
ATOM      6  C   UNL     1      12.578   7.974   8.297  1.00  0.00     0.134 A 
ATOM      7  C   UNL     1      13.880   8.475   8.409  1.00  0.00     0.093 A 
ATOM      8  C   UNL     1      14.754   8.462   7.318  1.00  0.00     0.123 A 
ATOM      9  C   UNL     1      14.326   7.949   6.096  1.00  0.00     0.094 A 
ATOM     10  C   UNL     1      13.021   7.475   5.944  1.00  0.00     0.146 A 
ATOM     11  O   UNL     1      12.651   7.004   4.760  1.00  0.00    -0.452 OA
ENDROOT
BRANCH   1  12
ATOM     12  C   UNL     1      11.153   6.027   3.143  1.00  0.00     0.025 A 
ATOM     13  C   UNL     1      11.134   4.646   2.880  1.00  0.00     0.016 A 
ATOM     14  C   UNL     1      10.894   4.177   1.586  1.00  0.00     0.051 A 
ATOM     15  C   UNL     1      10.683   5.077   0.535  1.00  0.00     0.157 A 
ATOM     16  C   UNL     1      10.961   6.927   2.081  1.00  0.00     0.062 A 
ATOM     17  C   UNL     1      10.720   6.460   0.783  1.00  0.00     0.158 A 
BRANCH  15  18
ATOM     18  O   UNL     1      10.442   4.605  -0.755  1.00  0.00    -0.504 OA
ATOM     19  H   UNL     1      10.731   5.128  -1.574  1.00  0.00     0.293 HD
ENDBRANCH  15  18
BRANCH  17  20
ATOM     20  O   UNL     1      10.521   7.383  -0.243  1.00  0.00    -0.504 OA
ATOM     21  H   UNL     1       9.644   7.446  -0.747  1.00  0.00     0.293 HD
ENDBRANCH  17  20
ENDBRANCH   1  12
BRANCH   2  22
ATOM     22  O   UNL     1       9.130   6.218   5.208  1.00  0.00    -0.502 OA
ATOM     23  H   UNL     1       8.809   5.263   5.319  1.00  0.00     0.293 HD
ENDBRANCH   2  22
BRANCH   6  24
ATOM     24  O   UNL     1      11.818   7.945   9.470  1.00  0.00    -0.507 OA
ATOM     25  H   UNL     1      10.992   8.501   9.634  1.00  0.00     0.293 HD
ENDBRANCH   6  24
BRANCH   8  26
ATOM     26  O   UNL     1      16.053   8.948   7.443  1.00  0.00    -0.508 OA
ATOM     27  H   UNL     1      16.694   8.957   6.658  1.00  0.00     0.293 HD
ENDBRANCH   8  26
TORSDOF 6
ENDMDL
MODEL 4
REMARK VINA RESULT:    -3.734      2.796      5.307
REMARK INTER + INTRA:          -4.780
REMARK INTER:                  -4.888
REMARK INTRA:                   0.108
REMARK UNBOUND:                -0.282
REMARK SMILES O=c1c(O)c(-c2ccc(O)c(O)c2)oc2cc(O)cc(O)c12
REMARK SMILES IDX 5 1 3 2 2 3 1 4 22 5 20 6 19 7 17 8 16 9 15 10 14 11 6 12
REMARK SMILES IDX 7 13 8 14 9 15 13 16 11 17 10 18 12 20 4 22 21 24 18 26
REMARK H PARENT 10 19 12 21 4 23 21 25 18 27
REMARK Flexibility Score: inf
ROOT
ATOM      1  C   UNL     1       8.528   6.586   7.090  1.00  0.00     0.180 A 
ATOM      2  C   UNL     1       8.103   6.792   8.415  1.00  0.00     0.208 A 
ATOM      3  C   UNL     1       6.728   6.784   8.697  1.00  0.00     0.238 A 
ATOM      4  O   UNL     1       6.356   6.916   9.892  1.00  0.00    -0.285 OA
ATOM      5  C   UNL     1       5.794   6.587   7.651  1.00  0.00     0.111 A 
ATOM      6  C   UNL     1       4.376   6.599   7.817  1.00  0.00     0.134 A 
ATOM      7  C   UNL     1       3.552   6.263   6.737  1.00  0.00     0.093 A 
ATOM      8  C   UNL     1       4.092   5.977   5.480  1.00  0.00     0.123 A 
ATOM      9  C   UNL     1       5.472   6.020   5.294  1.00  0.00     0.094 A 
ATOM     10  C   UNL     1       6.322   6.317   6.362  1.00  0.00     0.146 A 
ATOM     11  O   UNL     1       7.631   6.337   6.144  1.00  0.00    -0.452 OA
ENDROOT
BRANCH   1  12
ATOM     12  C   UNL     1       9.959   6.605   6.711  1.00  0.00     0.025 A 
ATOM     13  C   UNL     1      10.511   5.611   5.884  1.00  0.00     0.016 A 
ATOM     14  C   UNL     1      11.870   5.637   5.560  1.00  0.00     0.051 A 
ATOM     15  C   UNL     1      12.699   6.646   6.066  1.00  0.00     0.157 A 
ATOM     16  C   UNL     1      10.799   7.603   7.232  1.00  0.00     0.062 A 
ATOM     17  C   UNL     1      12.160   7.633   6.909  1.00  0.00     0.158 A 
BRANCH  15  18
ATOM     18  O   UNL     1      14.054   6.670   5.739  1.00  0.00    -0.504 OA
ATOM     19  H   UNL     1      14.420   7.307   5.040  1.00  0.00     0.293 HD
ENDBRANCH  15  18
BRANCH  17  20
ATOM     20  O   UNL     1      12.960   8.647   7.435  1.00  0.00    -0.504 OA
ATOM     21  H   UNL     1      12.576   9.397   7.999  1.00  0.00     0.293 HD
ENDBRANCH  17  20
ENDBRANCH   1  12
BRANCH   2  22
ATOM     22  O   UNL     1       9.042   6.964   9.435  1.00  0.00    -0.502 OA
ATOM     23  H   UNL     1       9.012   6.432  10.296  1.00  0.00     0.293 HD
ENDBRANCH   2  22
BRANCH   6  24
ATOM     24  O   UNL     1       3.733   6.961   9.004  1.00  0.00    -0.507 OA
ATOM     25  H   UNL     1       3.647   6.367   9.816  1.00  0.00     0.293 HD
ENDBRANCH   6  24
BRANCH   8  26
ATOM     26  O   UNL     1       3.263   5.658   4.407  1.00  0.00    -0.508 OA
ATOM     27  H   UNL     1       3.210   6.248   3.584  1.00  0.00     0.293 HD
ENDBRANCH   8  26
TORSDOF 6
ENDMDL
MODEL 5
REMARK VINA RESULT:    -3.677      6.264      9.439
REMARK INTER + INTRA:          -4.712
REMARK INTER:                  -4.430
REMARK INTRA:                  -0.282
REMARK UNBOUND:                -0.282
REMARK SMILES O=c1c(O)c(-c2ccc(O)c(O)c2)oc2cc(O)cc(O)c12
REMARK SMILES IDX 5 1 3 2 2 3 1 4 22 5 20 6 19 7 17 8 16 9 15 10 14 11 6 12
REMARK SMILES IDX 7 13 8 14 9 15 13 16 11 17 10 18 12 20 4 22 21 24 18 26
REMARK H PARENT 10 19 12 21 4 23 21 25 18 27
REMARK Flexibility Score: inf
ROOT
ATOM      1  C   UNL     1      13.435   7.723   7.605  1.00  0.00     0.180 A 
ATOM      2  C   UNL     1      13.212   7.832   8.990  1.00  0.00     0.208 A 
ATOM      3  C   UNL     1      14.316   7.835   9.857  1.00  0.00     0.238 A 
ATOM      4  O   UNL     1      14.114   7.987  11.090  1.00  0.00    -0.285 OA
ATOM      5  C   UNL     1      15.625   7.713   9.334  1.00  0.00     0.111 A 
ATOM      6  C   UNL     1      16.814   7.665  10.123  1.00  0.00     0.134 A 
ATOM      7  C   UNL     1      18.063   7.674   9.492  1.00  0.00     0.093 A 
ATOM      8  C   UNL     1      18.167   7.665   8.099  1.00  0.00     0.123 A 
ATOM      9  C   UNL     1      17.012   7.652   7.319  1.00  0.00     0.094 A 
ATOM     10  C   UNL     1      15.751   7.679   7.920  1.00  0.00     0.146 A 
ATOM     11  O   UNL     1      14.677   7.677   7.141  1.00  0.00    -0.452 OA
ENDROOT
BRANCH   1  12
ATOM     12  C   UNL     1      12.321   7.687   6.630  1.00  0.00     0.025 A 
ATOM     13  C   UNL     1      11.642   8.858   6.251  1.00  0.00     0.016 A 
ATOM     14  C   UNL     1      10.578   8.796   5.347  1.00  0.00     0.051 A 
ATOM     15  C   UNL     1      10.168   7.565   4.820  1.00  0.00     0.157 A 
ATOM     16  C   UNL     1      11.893   6.452   6.115  1.00  0.00     0.062 A 
ATOM     17  C   UNL     1      10.828   6.386   5.209  1.00  0.00     0.158 A 
BRANCH  15  18
ATOM     18  O   UNL     1       9.107   7.507   3.917  1.00  0.00    -0.504 OA
ATOM     19  H   UNL     1       9.133   6.898   3.107  1.00  0.00     0.293 HD
ENDBRANCH  15  18
BRANCH  17  20
ATOM     20  O   UNL     1      10.440   5.144   4.708  1.00  0.00    -0.504 OA
ATOM     21  H   UNL     1      10.109   4.400   5.312  1.00  0.00     0.293 HD
ENDBRANCH  17  20
ENDBRANCH   1  12
BRANCH   2  22
ATOM     22  O   UNL     1      11.913   7.973   9.484  1.00  0.00    -0.502 OA
ATOM     23  H   UNL     1      11.307   7.179   9.652  1.00  0.00     0.293 HD
ENDBRANCH   2  22
BRANCH   6  24
ATOM     24  O   UNL     1      16.820   7.578  11.518  1.00  0.00    -0.507 OA
ATOM     25  H   UNL     1      16.272   6.923  12.057  1.00  0.00     0.293 HD
ENDBRANCH   6  24
BRANCH   8  26
ATOM     26  O   UNL     1      19.414   7.659   7.479  1.00  0.00    -0.508 OA
ATOM     27  H   UNL     1      20.054   6.880   7.582  1.00  0.00     0.293 HD
ENDBRANCH   8  26
TORSDOF 6
ENDMDL
MODEL 6
REMARK VINA RESULT:    -3.668      3.662      6.995
REMARK INTER + INTRA:          -4.700
REMARK INTER:                  -4.415
REMARK INTRA:                  -0.286
REMARK UNBOUND:                -0.282
REMARK SMILES O=c1c(O)c(-c2ccc(O)c(O)c2)oc2cc(O)cc(O)c12
REMARK SMILES IDX 5 1 3 2 2 3 1 4 22 5 20 6 19 7 17 8 16 9 15 10 14 11 6 12
REMARK SMILES IDX 7 13 8 14 9 15 13 16 11 17 10 18 12 20 4 22 21 24 18 26
REMARK H PARENT 10 19 12 21 4 23 21 25 18 27
REMARK Flexibility Score: inf
ROOT
ATOM      1  C   UNL     1       9.700   6.789   6.305  1.00  0.00     0.180 A 
ATOM      2  C   UNL     1      10.603   6.143   5.441  1.00  0.00     0.208 A 
ATOM      3  C   UNL     1      11.981   6.279   5.672  1.00  0.00     0.238 A 
ATOM      4  O   UNL     1      12.782   5.655   4.928  1.00  0.00    -0.285 OA
ATOM      5  C   UNL     1      12.441   7.071   6.752  1.00  0.00     0.111 A 
ATOM      6  C   UNL     1      13.815   7.310   7.055  1.00  0.00     0.134 A 
ATOM      7  C   UNL     1      14.154   8.001   8.224  1.00  0.00     0.093 A 
ATOM      8  C   UNL     1      13.167   8.519   9.067  1.00  0.00     0.123 A 
ATOM      9  C   UNL     1      11.823   8.341   8.749  1.00  0.00     0.094 A 
ATOM     10  C   UNL     1      11.453   7.624   7.608  1.00  0.00     0.146 A 
ATOM     11  O   UNL     1      10.161   7.470   7.347  1.00  0.00    -0.452 OA
ENDROOT
BRANCH   1  12
ATOM     12  C   UNL     1       8.235   6.713   6.111  1.00  0.00     0.025 A 
ATOM     13  C   UNL     1       7.441   5.832   6.866  1.00  0.00     0.016 A 
ATOM     14  C   UNL     1       6.062   5.761   6.647  1.00  0.00     0.051 A 
ATOM     15  C   UNL     1       5.459   6.556   5.665  1.00  0.00     0.157 A 
ATOM     16  C   UNL     1       7.628   7.494   5.113  1.00  0.00     0.062 A 
ATOM     17  C   UNL     1       6.247   7.425   4.892  1.00  0.00     0.158 A 
BRANCH  15  18
ATOM     18  O   UNL     1       4.083   6.484   5.452  1.00  0.00    -0.504 OA
ATOM     19  H   UNL     1       3.671   5.741   4.898  1.00  0.00     0.293 HD
ENDBRANCH  15  18
BRANCH  17  20
ATOM     20  O   UNL     1       5.679   8.226   3.902  1.00  0.00    -0.504 OA
ATOM     21  H   UNL     1       4.996   8.944   4.116  1.00  0.00     0.293 HD
ENDBRANCH  17  20
ENDBRANCH   1  12
BRANCH   2  22
ATOM     22  O   UNL     1      10.128   5.349   4.394  1.00  0.00    -0.502 OA
ATOM     23  H   UNL     1      10.179   4.338   4.413  1.00  0.00     0.293 HD
ENDBRANCH   2  22
BRANCH   6  24
ATOM     24  O   UNL     1      14.875   6.917   6.232  1.00  0.00    -0.507 OA
ATOM     25  H   UNL     1      15.558   7.545   5.834  1.00  0.00     0.293 HD
ENDBRANCH   6  24
BRANCH   8  26
ATOM     26  O   UNL     1      13.514   9.219  10.220  1.00  0.00    -0.508 OA
ATOM     27  H   UNL     1      12.835   9.414  10.947  1.00  0.00     0.293 HD
ENDBRANCH   8  26
TORSDOF 6
ENDMDL
MODEL 7
REMARK VINA RESULT:    -3.645      6.424      9.436
REMARK INTER + INTRA:          -4.672
REMARK INTER:                  -4.370
REMARK INTRA:                  -0.302
REMARK UNBOUND:                -0.282
REMARK SMILES O=c1c(O)c(-c2ccc(O)c(O)c2)oc2cc(O)cc(O)c12
REMARK SMILES IDX 5 1 3 2 2 3 1 4 22 5 20 6 19 7 17 8 16 9 15 10 14 11 6 12
REMARK SMILES IDX 7 13 8 14 9 15 13 16 11 17 10 18 12 20 4 22 21 24 18 26
REMARK H PARENT 10 19 12 21 4 23 21 25 18 27
REMARK Flexibility Score: inf
ROOT
ATOM      1  C   UNL     1      13.847   7.222   6.255  1.00  0.00     0.180 A 
ATOM      2  C   UNL     1      14.938   7.751   5.542  1.00  0.00     0.208 A 
ATOM      3  C   UNL     1      16.170   7.905   6.197  1.00  0.00     0.238 A 
ATOM      4  O   UNL     1      17.156   8.328   5.540  1.00  0.00    -0.285 OA
ATOM      5  C   UNL     1      16.292   7.545   7.561  1.00  0.00     0.111 A 
ATOM      6  C   UNL     1      17.482   7.696   8.336  1.00  0.00     0.134 A 
ATOM      7  C   UNL     1      17.526   7.186   9.639  1.00  0.00     0.093 A 
ATOM      8  C   UNL     1      16.404   6.587  10.218  1.00  0.00     0.123 A 
ATOM      9  C   UNL     1      15.221   6.488   9.490  1.00  0.00     0.094 A 
ATOM     10  C   UNL     1      15.156   6.956   8.174  1.00  0.00     0.146 A 
ATOM     11  O   UNL     1      14.012   6.832   7.513  1.00  0.00    -0.452 OA
ENDROOT
BRANCH   1  12
ATOM     12  C   UNL     1      12.512   7.053   5.639  1.00  0.00     0.025 A 
ATOM     13  C   UNL     1      11.485   7.990   5.848  1.00  0.00     0.016 A 
ATOM     14  C   UNL     1      10.225   7.796   5.277  1.00  0.00     0.051 A 
ATOM     15  C   UNL     1       9.967   6.659   4.500  1.00  0.00     0.157 A 
ATOM     16  C   UNL     1      12.242   5.904   4.877  1.00  0.00     0.062 A 
ATOM     17  C   UNL     1      10.981   5.707   4.302  1.00  0.00     0.158 A 
BRANCH  15  18
ATOM     18  O   UNL     1       8.710   6.470   3.930  1.00  0.00    -0.504 OA
ATOM     19  H   UNL     1       7.859   6.706   4.429  1.00  0.00     0.293 HD
ENDBRANCH  15  18
BRANCH  17  20
ATOM     20  O   UNL     1      10.756   4.561   3.540  1.00  0.00    -0.504 OA
ATOM     21  H   UNL     1      10.439   4.608   2.579  1.00  0.00     0.293 HD
ENDBRANCH  17  20
ENDBRANCH   1  12
BRANCH   2  22
ATOM     22  O   UNL     1      14.801   8.079   4.191  1.00  0.00    -0.502 OA
ATOM     23  H   UNL     1      13.935   7.945   3.684  1.00  0.00     0.293 HD
ENDBRANCH   2  22
BRANCH   6  24
ATOM     24  O   UNL     1      18.627   8.360   7.886  1.00  0.00    -0.507 OA
ATOM     25  H   UNL     1      19.397   7.918   7.407  1.00  0.00     0.293 HD
ENDBRANCH   6  24
BRANCH   8  26
ATOM     26  O   UNL     1      16.453   6.096  11.520  1.00  0.00    -0.508 OA
ATOM     27  H   UNL     1      17.156   5.425  11.808  1.00  0.00     0.293 HD
ENDBRANCH   8  26
TORSDOF 6
ENDMDL
MODEL 8
REMARK VINA RESULT:    -3.636      4.221      7.827
REMARK INTER + INTRA:          -4.661
REMARK INTER:                  -4.359
REMARK INTRA:                  -0.303
REMARK UNBOUND:                -0.282
REMARK SMILES O=c1c(O)c(-c2ccc(O)c(O)c2)oc2cc(O)cc(O)c12
REMARK SMILES IDX 5 1 3 2 2 3 1 4 22 5 20 6 19 7 17 8 16 9 15 10 14 11 6 12
REMARK SMILES IDX 7 13 8 14 9 15 13 16 11 17 10 18 12 20 4 22 21 24 18 26
REMARK H PARENT 10 19 12 21 4 23 21 25 18 27
REMARK Flexibility Score: inf
ROOT
ATOM      1  C   UNL     1      11.092   6.249   4.412  1.00  0.00     0.180 A 
ATOM      2  C   UNL     1      12.170   6.465   5.290  1.00  0.00     0.208 A 
ATOM      3  C   UNL     1      11.905   6.912   6.594  1.00  0.00     0.238 A 
ATOM      4  O   UNL     1      12.868   7.052   7.392  1.00  0.00    -0.285 OA
ATOM      5  C   UNL     1      10.570   7.153   7.000  1.00  0.00     0.111 A 
ATOM      6  C   UNL     1      10.188   7.645   8.285  1.00  0.00     0.134 A 
ATOM      7  C   UNL     1       8.832   7.722   8.620  1.00  0.00     0.093 A 
ATOM      8  C   UNL     1       7.840   7.385   7.694  1.00  0.00     0.123 A 
ATOM      9  C   UNL     1       8.201   6.960   6.418  1.00  0.00     0.094 A 
ATOM     10  C   UNL     1       9.548   6.839   6.065  1.00  0.00     0.146 A 
ATOM     11  O   UNL     1       9.848   6.420   4.843  1.00  0.00    -0.452 OA
ENDROOT
BRANCH   1  12
ATOM     12  C   UNL     1      11.294   5.802   3.015  1.00  0.00     0.025 A 
ATOM     13  C   UNL     1      11.696   6.699   2.010  1.00  0.00     0.016 A 
ATOM     14  C   UNL     1      11.856   6.259   0.693  1.00  0.00     0.051 A 
ATOM     15  C   UNL     1      11.603   4.923   0.358  1.00  0.00     0.157 A 
ATOM     16  C   UNL     1      11.021   4.468   2.670  1.00  0.00     0.062 A 
ATOM     17  C   UNL     1      11.181   4.024   1.352  1.00  0.00     0.158 A 
BRANCH  15  18
ATOM     18  O   UNL     1      11.765   4.487  -0.956  1.00  0.00    -0.504 OA
ATOM     19  H   UNL     1      11.079   3.891  -1.406  1.00  0.00     0.293 HD
ENDBRANCH  15  18
BRANCH  17  20
ATOM     20  O   UNL     1      10.914   2.689   1.050  1.00  0.00    -0.504 OA
ATOM     21  H   UNL     1      11.114   1.939   1.703  1.00  0.00     0.293 HD
ENDBRANCH  17  20
ENDBRANCH   1  12
BRANCH   2  22
ATOM     22  O   UNL     1      13.477   6.200   4.876  1.00  0.00    -0.502 OA
ATOM     23  H   UNL     1      13.710   5.416   4.279  1.00  0.00     0.293 HD
ENDBRANCH   2  22
BRANCH   6  24
ATOM     24  O   UNL     1      11.096   8.095   9.248  1.00  0.00    -0.507 OA
ATOM     25  H   UNL     1      11.146   7.752  10.196  1.00  0.00     0.293 HD
ENDBRANCH   6  24
BRANCH   8  26
ATOM     26  O   UNL     1       6.492   7.479   8.031  1.00  0.00    -0.508 OA
ATOM     27  H   UNL     1       6.063   6.836   8.687  1.00  0.00     0.293 HD
ENDBRANCH   8  26
TORSDOF 6
ENDMDL
MODEL 9
REMARK VINA RESULT:    -3.627      3.959      6.737
REMARK INTER + INTRA:          -4.651
REMARK INTER:                  -4.344
REMARK INTRA:                  -0.307
REMARK UNBOUND:                -0.282
REMARK SMILES O=c1c(O)c(-c2ccc(O)c(O)c2)oc2cc(O)cc(O)c12
REMARK SMILES IDX 5 1 3 2 2 3 1 4 22 5 20 6 19 7 17 8 16 9 15 10 14 11 6 12
REMARK SMILES IDX 7 13 8 14 9 15 13 16 11 17 10 18 12 20 4 22 21 24 18 26
REMARK H PARENT 10 19 12 21 4 23 21 25 18 27
REMARK Flexibility Score: inf
ROOT
ATOM      1  C   UNL     1       8.371   7.336   6.293  1.00  0.00     0.180 A 
ATOM      2  C   UNL     1       8.336   8.372   7.244  1.00  0.00     0.208 A 
ATOM      3  C   UNL     1       9.536   8.791   7.838  1.00  0.00     0.238 A 
ATOM      4  O   UNL     1       9.506   9.754   8.648  1.00  0.00    -0.285 OA
ATOM      5  C   UNL     1      10.754   8.160   7.488  1.00  0.00     0.111 A 
ATOM      6  C   UNL     1      12.025   8.478   8.056  1.00  0.00     0.134 A 
ATOM      7  C   UNL     1      13.181   7.880   7.540  1.00  0.00     0.093 A 
ATOM      8  C   UNL     1      13.107   6.929   6.519  1.00  0.00     0.123 A 
ATOM      9  C   UNL     1      11.866   6.570   5.998  1.00  0.00     0.094 A 
ATOM     10  C   UNL     1      10.697   7.175   6.468  1.00  0.00     0.146 A 
ATOM     11  O   UNL     1       9.537   6.811   5.937  1.00  0.00    -0.452 OA
ENDROOT
BRANCH   1  12
ATOM     12  C   UNL     1       7.144   6.823   5.642  1.00  0.00     0.025 A 
ATOM     13  C   UNL     1       6.290   5.920   6.299  1.00  0.00     0.016 A 
ATOM     14  C   UNL     1       5.151   5.431   5.654  1.00  0.00     0.051 A 
ATOM     15  C   UNL     1       4.855   5.824   4.343  1.00  0.00     0.157 A 
ATOM     16  C   UNL     1       6.855   7.198   4.320  1.00  0.00     0.062 A 
ATOM     17  C   UNL     1       5.714   6.711   3.672  1.00  0.00     0.158 A 
BRANCH  15  18
ATOM     18  O   UNL     1       3.717   5.335   3.704  1.00  0.00    -0.504 OA
ATOM     19  H   UNL     1       3.712   5.130   2.711  1.00  0.00     0.293 HD
ENDBRANCH  15  18
BRANCH  17  20
ATOM     20  O   UNL     1       5.452   7.117   2.364  1.00  0.00    -0.504 OA
ATOM     21  H   UNL     1       5.329   8.092   2.118  1.00  0.00     0.293 HD
ENDBRANCH  17  20
ENDBRANCH   1  12
BRANCH   2  22
ATOM     22  O   UNL     1       7.126   8.995   7.560  1.00  0.00    -0.502 OA
ATOM     23  H   UNL     1       6.234   8.519   7.488  1.00  0.00     0.293 HD
ENDBRANCH   2  22
BRANCH   6  24
ATOM     24  O   UNL     1      12.200   9.344   9.140  1.00  0.00    -0.507 OA
ATOM     25  H   UNL     1      11.469   9.625   9.776  1.00  0.00     0.293 HD
ENDBRANCH   6  24
BRANCH   8  26
ATOM     26  O   UNL     1      14.261   6.329   6.022  1.00  0.00    -0.508 OA
ATOM     27  H   UNL     1      14.220   5.491   5.453  1.00  0.00     0.293 HD
ENDBRANCH   8  26
TORSDOF 6
ENDMDL
