MODEL 1
REMARK VINA RESULT:    -8.204      0.000      0.000
REMARK INTER + INTRA:         -11.852
REMARK INTER:                 -10.842
REMARK INTRA:                  -1.010
REMARK UNBOUND:                -1.010
REMARK SMILES CC[C@H](C=C[C@H](C)[C@H]1CC[C@@H]2C3=CC[C@@H]4C[C@H](O)CC[C@]4(C)[C@H]3CC[C@@]21C)C(C)C
REMARK SMILES IDX 6 1 7 2 5 3 4 4 3 5 2 6 1 7 28 8 29 9 30 10 8 11 9 12 26 13
REMARK SMILES IDX 10 14 11 15 25 16 27 17 12 18 24 19 23 20 13 21 21 22 14 23
REMARK SMILES IDX 15 24 20 25 22 26 16 27 19 28 17 29 18 30
REMARK H PARENT 18 31
REMARK Flexibility Score: inf
ROOT
ATOM      1  C   UNL     1     119.463 129.034 129.606  1.00  0.00     0.012 C 
ATOM      2  C   UNL     1     120.948 128.728 129.886  1.00  0.00     0.012 C 
ENDROOT
BRANCH   1   3
ATOM      3  C   UNL     1     119.358 130.421 129.004  1.00  0.00    -0.028 C 
ATOM      4  C   UNL     1     120.414 131.039 128.447  1.00  0.00    -0.027 C 
BRANCH   4   5
ATOM      5  C   UNL     1     120.315 132.452 127.906  1.00  0.00     0.014 C 
BRANCH   5   6
ATOM      6  C   UNL     1     119.023 133.154 128.404  1.00  0.00     0.004 C 
ATOM      7  C   UNL     1     118.372 134.129 127.417  1.00  0.00     0.004 C 
ENDBRANCH   5   6
BRANCH   5   8
ATOM      8  C   UNL     1     121.654 133.255 128.060  1.00  0.00    -0.011 C 
ATOM      9  C   UNL     1     121.639 134.207 129.264  1.00  0.00     0.008 C 
ATOM     10  C   UNL     1     122.930 132.393 128.064  1.00  0.00     0.008 C 
ENDBRANCH   5   8
ENDBRANCH   4   5
ENDBRANCH   1   3
BRANCH   1  11
ATOM     11  C   UNL     1     118.728 127.992 128.685  1.00  0.00     0.002 C 
ATOM     12  C   UNL     1     119.708 127.016 128.015  1.00  0.00     0.005 C 
ATOM     13  C   UNL     1     117.625 127.084 129.345  1.00  0.00    -0.023 C 
ATOM     14  C   UNL     1     119.610 125.688 128.767  1.00  0.00     0.009 C 
ATOM     15  C   UNL     1     118.369 125.759 129.677  1.00  0.00     0.021 C 
ATOM     16  C   UNL     1     116.428 126.846 128.346  1.00  0.00     0.008 C 
ATOM     17  C   UNL     1     117.012 127.692 130.639  1.00  0.00     0.012 C 
ATOM     18  C   UNL     1     117.475 124.531 129.539  1.00  0.00    -0.067 C 
ATOM     19  C   UNL     1     116.597 125.620 127.430  1.00  0.00     0.009 C 
ATOM     20  C   UNL     1     116.713 124.282 128.228  1.00  0.00     0.021 C 
ATOM     21  C   UNL     1     117.398 123.663 130.562  1.00  0.00    -0.027 C 
ATOM     22  C   UNL     1     115.373 123.386 128.369  1.00  0.00    -0.023 C 
ATOM     23  C   UNL     1     116.473 122.497 130.513  1.00  0.00     0.031 C 
ATOM     24  C   UNL     1     115.148 122.927 129.858  1.00  0.00     0.002 C 
ATOM     25  C   UNL     1     115.537 122.117 127.466  1.00  0.00     0.010 C 
ATOM     26  C   UNL     1     114.094 124.148 127.898  1.00  0.00     0.012 C 
ATOM     27  C   UNL     1     114.068 121.826 130.026  1.00  0.00     0.036 C 
ATOM     28  C   UNL     1     114.411 121.081 127.623  1.00  0.00     0.032 C 
ATOM     29  C   UNL     1     114.241 120.626 129.075  1.00  0.00     0.114 C 
BRANCH  29  30
ATOM     30  O   UNL     1     115.335 119.834 129.454  1.00  0.00    -0.393 OA
ATOM     31  H   UNL     1     116.137 120.233 129.023  1.00  0.00     0.210 HD
ENDBRANCH  29  30
ENDBRANCH   1  11
TORSDOF 6
ENDMDL
MODEL 2
REMARK VINA RESULT:    -7.391      1.270      2.612
REMARK INTER + INTRA:         -10.777
REMARK INTER:                 -10.108
REMARK INTRA:                  -0.669
REMARK UNBOUND:                -1.010
REMARK SMILES CC[C@H](C=C[C@H](C)[C@H]1CC[C@@H]2C3=CC[C@@H]4C[C@H](O)CC[C@]4(C)[C@H]3CC[C@@]21C)C(C)C
REMARK SMILES IDX 6 1 7 2 5 3 4 4 3 5 2 6 1 7 28 8 29 9 30 10 8 11 9 12 26 13
REMARK SMILES IDX 10 14 11 15 25 16 27 17 12 18 24 19 23 20 13 21 21 22 14 23
REMARK SMILES IDX 15 24 20 25 22 26 16 27 19 28 17 29 18 30
REMARK H PARENT 18 31
REMARK Flexibility Score: inf
ROOT
ATOM      1  C   UNL     1     119.969 128.299 129.137  1.00  0.00     0.012 C 
ATOM      2  C   UNL     1     120.390 128.028 127.679  1.00  0.00     0.012 C 
ENDROOT
BRANCH   1   3
ATOM      3  C   UNL     1     119.799 129.793 129.323  1.00  0.00    -0.028 C 
ATOM      4  C   UNL     1     120.490 130.687 128.596  1.00  0.00    -0.027 C 
BRANCH   4   5
ATOM      5  C   UNL     1     120.362 132.179 128.834  1.00  0.00     0.014 C 
BRANCH   5   6
ATOM      6  C   UNL     1     121.757 132.853 128.933  1.00  0.00     0.004 C 
ATOM      7  C   UNL     1     122.871 132.200 128.108  1.00  0.00     0.004 C 
ENDBRANCH   5   6
BRANCH   5   8
ATOM      8  C   UNL     1     119.319 132.857 127.878  1.00  0.00    -0.011 C 
ATOM      9  C   UNL     1     118.018 133.240 128.597  1.00  0.00     0.008 C 
ATOM     10  C   UNL     1     119.862 134.047 127.066  1.00  0.00     0.008 C 
ENDBRANCH   5   8
ENDBRANCH   4   5
ENDBRANCH   1   3
BRANCH   1  11
ATOM     11  C   UNL     1     118.670 127.547 129.610  1.00  0.00     0.002 C 
ATOM     12  C   UNL     1     117.465 127.847 128.703  1.00  0.00     0.005 C 
ATOM     13  C   UNL     1     118.731 125.978 129.714  1.00  0.00    -0.023 C 
ATOM     14  C   UNL     1     117.259 126.625 127.807  1.00  0.00     0.009 C 
ATOM     15  C   UNL     1     118.124 125.482 128.370  1.00  0.00     0.021 C 
ATOM     16  C   UNL     1     117.899 125.471 130.953  1.00  0.00     0.008 C 
ATOM     17  C   UNL     1     120.173 125.423 129.887  1.00  0.00     0.012 C 
ATOM     18  C   UNL     1     117.343 124.181 128.523  1.00  0.00    -0.067 C 
ATOM     19  C   UNL     1     116.416 125.187 130.652  1.00  0.00     0.009 C 
ATOM     20  C   UNL     1     116.222 124.078 129.569  1.00  0.00     0.021 C 
ATOM     21  C   UNL     1     117.628 123.151 127.708  1.00  0.00    -0.027 C 
ATOM     22  C   UNL     1     115.901 122.581 130.091  1.00  0.00    -0.023 C 
ATOM     23  C   UNL     1     116.958 121.831 127.874  1.00  0.00     0.031 C 
ATOM     24  C   UNL     1     116.815 121.519 129.374  1.00  0.00     0.002 C 
ATOM     25  C   UNL     1     114.402 122.262 129.767  1.00  0.00     0.010 C 
ATOM     26  C   UNL     1     116.100 122.432 131.632  1.00  0.00     0.012 C 
ATOM     27  C   UNL     1     116.368 120.049 129.591  1.00  0.00     0.036 C 
ATOM     28  C   UNL     1     113.990 120.808 130.054  1.00  0.00     0.032 C 
ATOM     29  C   UNL     1     114.873 119.799 129.314  1.00  0.00     0.114 C 
BRANCH  29  30
ATOM     30  O   UNL     1     114.597 119.848 127.939  1.00  0.00    -0.393 OA
ATOM     31  H   UNL     1     113.808 119.263 127.787  1.00  0.00     0.210 HD
ENDBRANCH  29  30
ENDBRANCH   1  11
TORSDOF 6
ENDMDL
MODEL 3
REMARK VINA RESULT:    -6.856      5.094      9.003
REMARK INTER + INTRA:         -10.070
REMARK INTER:                  -8.669
REMARK INTRA:                  -1.401
REMARK UNBOUND:                -1.010
REMARK SMILES CC[C@H](C=C[C@H](C)[C@H]1CC[C@@H]2C3=CC[C@@H]4C[C@H](O)CC[C@]4(C)[C@H]3CC[C@@]21C)C(C)C
REMARK SMILES IDX 6 1 7 2 5 3 4 4 3 5 2 6 1 7 28 8 29 9 30 10 8 11 9 12 26 13
REMARK SMILES IDX 10 14 11 15 25 16 27 17 12 18 24 19 23 20 13 21 21 22 14 23
REMARK SMILES IDX 15 24 20 25 22 26 16 27 19 28 17 29 18 30
REMARK H PARENT 18 31
REMARK Flexibility Score: inf
ROOT
ATOM      1  C   UNL     1     116.943 124.720 129.222  1.00  0.00     0.012 C 
ATOM      2  C   UNL     1     116.241 125.873 128.476  1.00  0.00     0.012 C 
ENDROOT
BRANCH   1   3
ATOM      3  C   UNL     1     115.957 124.096 130.189  1.00  0.00    -0.028 C 
ATOM      4  C   UNL     1     115.941 122.776 130.440  1.00  0.00    -0.027 C 
BRANCH   4   5
ATOM      5  C   UNL     1     114.909 122.152 131.359  1.00  0.00     0.014 C 
BRANCH   5   6
ATOM      6  C   UNL     1     113.976 121.185 130.581  1.00  0.00     0.004 C 
ATOM      7  C   UNL     1     114.668 120.254 129.580  1.00  0.00     0.004 C 
ENDBRANCH   5   6
BRANCH   5   8
ATOM      8  C   UNL     1     115.534 121.606 132.690  1.00  0.00    -0.011 C 
ATOM      9  C   UNL     1     114.688 120.495 133.329  1.00  0.00     0.008 C 
ATOM     10  C   UNL     1     117.008 121.174 132.585  1.00  0.00     0.008 C 
ENDBRANCH   5   8
ENDBRANCH   4   5
ENDBRANCH   1   3
BRANCH   1  11
ATOM     11  C   UNL     1     117.568 123.609 128.300  1.00  0.00     0.002 C 
ATOM     12  C   UNL     1     117.575 124.021 126.819  1.00  0.00     0.005 C 
ATOM     13  C   UNL     1     119.040 123.146 128.609  1.00  0.00    -0.023 C 
ATOM     14  C   UNL     1     119.008 124.430 126.471  1.00  0.00     0.009 C 
ATOM     15  C   UNL     1     119.916 123.977 127.630  1.00  0.00     0.021 C 
ATOM     16  C   UNL     1     119.198 121.596 128.363  1.00  0.00     0.008 C 
ATOM     17  C   UNL     1     119.479 123.411 130.077  1.00  0.00     0.012 C 
ATOM     18  C   UNL     1     121.143 123.212 127.144  1.00  0.00    -0.067 C 
ATOM     19  C   UNL     1     119.600 121.218 126.925  1.00  0.00     0.009 C 
ATOM     20  C   UNL     1     120.977 121.824 126.504  1.00  0.00     0.021 C 
ATOM     21  C   UNL     1     122.353 123.786 127.251  1.00  0.00    -0.027 C 
ATOM     22  C   UNL     1     122.272 120.860 126.603  1.00  0.00    -0.023 C 
ATOM     23  C   UNL     1     123.591 123.048 126.875  1.00  0.00     0.031 C 
ATOM     24  C   UNL     1     123.467 121.583 127.331  1.00  0.00     0.002 C 
ATOM     25  C   UNL     1     122.715 120.487 125.148  1.00  0.00     0.010 C 
ATOM     26  C   UNL     1     121.970 119.533 127.368  1.00  0.00     0.012 C 
ATOM     27  C   UNL     1     124.827 120.848 127.199  1.00  0.00     0.036 C 
ATOM     28  C   UNL     1     124.039 119.707 125.072  1.00  0.00     0.032 C 
ATOM     29  C   UNL     1     125.190 120.452 125.755  1.00  0.00     0.114 C 
BRANCH  29  30
ATOM     30  O   UNL     1     125.543 121.577 124.995  1.00  0.00    -0.393 OA
ATOM     31  H   UNL     1     126.504 121.752 125.177  1.00  0.00     0.210 HD
ENDBRANCH  29  30
ENDBRANCH   1  11
TORSDOF 6
ENDMDL
MODEL 4
REMARK VINA RESULT:    -6.787      5.114      9.389
REMARK INTER + INTRA:          -9.979
REMARK INTER:                  -8.709
REMARK INTRA:                  -1.270
REMARK UNBOUND:                -1.010
REMARK SMILES CC[C@H](C=C[C@H](C)[C@H]1CC[C@@H]2C3=CC[C@@H]4C[C@H](O)CC[C@]4(C)[C@H]3CC[C@@]21C)C(C)C
REMARK SMILES IDX 6 1 7 2 5 3 4 4 3 5 2 6 1 7 28 8 29 9 30 10 8 11 9 12 26 13
REMARK SMILES IDX 10 14 11 15 25 16 27 17 12 18 24 19 23 20 13 21 21 22 14 23
REMARK SMILES IDX 15 24 20 25 22 26 16 27 19 28 17 29 18 30
REMARK H PARENT 18 31
REMARK Flexibility Score: inf
ROOT
ATOM      1  C   UNL     1     117.001 124.223 128.083  1.00  0.00     0.012 C 
ATOM      2  C   UNL     1     116.690 125.658 127.611  1.00  0.00     0.012 C 
ENDROOT
BRANCH   1   3
ATOM      3  C   UNL     1     115.702 123.447 128.165  1.00  0.00    -0.028 C 
ATOM      4  C   UNL     1     115.621 122.152 127.815  1.00  0.00    -0.027 C 
BRANCH   4   5
ATOM      5  C   UNL     1     114.303 121.401 127.838  1.00  0.00     0.014 C 
BRANCH   5   6
ATOM      6  C   UNL     1     113.759 121.180 126.401  1.00  0.00     0.004 C 
ATOM      7  C   UNL     1     113.041 122.378 125.769  1.00  0.00     0.004 C 
ENDBRANCH   5   6
BRANCH   5   8
ATOM      8  C   UNL     1     114.337 120.145 128.778  1.00  0.00    -0.011 C 
ATOM      9  C   UNL     1     115.439 119.148 128.392  1.00  0.00     0.008 C 
ATOM     10  C   UNL     1     114.393 120.463 130.283  1.00  0.00     0.008 C 
ENDBRANCH   5   8
ENDBRANCH   4   5
ENDBRANCH   1   3
BRANCH   1  11
ATOM     11  C   UNL     1     118.041 123.439 127.202  1.00  0.00     0.002 C 
ATOM     12  C   UNL     1     118.704 124.339 126.147  1.00  0.00     0.005 C 
ATOM     13  C   UNL     1     119.231 122.721 127.942  1.00  0.00    -0.023 C 
ATOM     14  C   UNL     1     120.110 124.667 126.651  1.00  0.00     0.009 C 
ATOM     15  C   UNL     1     120.410 123.731 127.837  1.00  0.00     0.021 C 
ATOM     16  C   UNL     1     119.573 121.349 127.243  1.00  0.00     0.008 C 
ATOM     17  C   UNL     1     118.932 122.400 129.433  1.00  0.00     0.012 C 
ATOM     18  C   UNL     1     121.765 123.041 127.707  1.00  0.00    -0.067 C 
ATOM     19  C   UNL     1     120.611 121.453 126.110  1.00  0.00     0.009 C 
ATOM     20  C   UNL     1     121.990 121.997 126.603  1.00  0.00     0.021 C 
ATOM     21  C   UNL     1     122.755 123.390 128.545  1.00  0.00    -0.027 C 
ATOM     22  C   UNL     1     123.148 120.910 126.908  1.00  0.00    -0.023 C 
ATOM     23  C   UNL     1     124.068 122.686 128.519  1.00  0.00     0.031 C 
ATOM     24  C   UNL     1     123.833 121.181 128.299  1.00  0.00     0.002 C 
ATOM     25  C   UNL     1     124.230 121.019 125.781  1.00  0.00     0.010 C 
ATOM     26  C   UNL     1     122.606 119.446 126.911  1.00  0.00     0.012 C 
ATOM     27  C   UNL     1     125.141 120.379 128.530  1.00  0.00     0.036 C 
ATOM     28  C   UNL     1     125.484 120.161 126.023  1.00  0.00     0.032 C 
ATOM     29  C   UNL     1     126.149 120.473 127.367  1.00  0.00     0.114 C 
BRANCH  29  30
ATOM     30  O   UNL     1     126.746 121.742 127.316  1.00  0.00    -0.393 OA
ATOM     31  H   UNL     1     126.071 122.357 126.925  1.00  0.00     0.210 HD
ENDBRANCH  29  30
ENDBRANCH   1  11
TORSDOF 6
ENDMDL
MODEL 5
REMARK VINA RESULT:    -6.546      6.473      9.860
REMARK INTER + INTRA:          -9.660
REMARK INTER:                  -8.411
REMARK INTRA:                  -1.249
REMARK UNBOUND:                -1.010
REMARK SMILES CC[C@H](C=C[C@H](C)[C@H]1CC[C@@H]2C3=CC[C@@H]4C[C@H](O)CC[C@]4(C)[C@H]3CC[C@@]21C)C(C)C
REMARK SMILES IDX 6 1 7 2 5 3 4 4 3 5 2 6 1 7 28 8 29 9 30 10 8 11 9 12 26 13
REMARK SMILES IDX 10 14 11 15 25 16 27 17 12 18 24 19 23 20 13 21 21 22 14 23
REMARK SMILES IDX 15 24 20 25 22 26 16 27 19 28 17 29 18 30
REMARK H PARENT 18 31
REMARK Flexibility Score: inf
ROOT
ATOM      1  C   UNL     1     114.815 120.519 131.351  1.00  0.00     0.012 C 
ATOM      2  C   UNL     1     113.724 120.151 132.377  1.00  0.00     0.012 C 
ENDROOT
BRANCH   1   3
ATOM      3  C   UNL     1     114.201 121.404 130.286  1.00  0.00    -0.028 C 
ATOM      4  C   UNL     1     114.524 121.287 128.986  1.00  0.00    -0.027 C 
BRANCH   4   5
ATOM      5  C   UNL     1     113.953 122.220 127.936  1.00  0.00     0.014 C 
BRANCH   5   6
ATOM      6  C   UNL     1     114.842 123.481 127.764  1.00  0.00     0.004 C 
ATOM      7  C   UNL     1     116.354 123.238 127.799  1.00  0.00     0.004 C 
ENDBRANCH   5   6
BRANCH   5   8
ATOM      8  C   UNL     1     113.534 121.470 126.623  1.00  0.00    -0.011 C 
ATOM      9  C   UNL     1     113.545 122.386 125.390  1.00  0.00     0.008 C 
ATOM     10  C   UNL     1     114.310 120.171 126.342  1.00  0.00     0.008 C 
ENDBRANCH   5   8
ENDBRANCH   4   5
ENDBRANCH   1   3
BRANCH   1  11
ATOM     11  C   UNL     1     116.093 121.211 131.954  1.00  0.00     0.002 C 
ATOM     12  C   UNL     1     116.069 121.237 133.491  1.00  0.00     0.005 C 
ATOM     13  C   UNL     1     117.497 120.611 131.571  1.00  0.00    -0.023 C 
ATOM     14  C   UNL     1     117.026 120.147 133.977  1.00  0.00     0.009 C 
ATOM     15  C   UNL     1     117.852 119.678 132.764  1.00  0.00     0.021 C 
ATOM     16  C   UNL     1     118.562 121.760 131.392  1.00  0.00     0.008 C 
ATOM     17  C   UNL     1     117.486 119.802 130.244  1.00  0.00     0.012 C 
ATOM     18  C   UNL     1     119.348 119.643 133.057  1.00  0.00    -0.067 C 
ATOM     19  C   UNL     1     119.308 122.145 132.683  1.00  0.00     0.009 C 
ATOM     20  C   UNL     1     120.115 120.954 133.291  1.00  0.00     0.021 C 
ATOM     21  C   UNL     1     119.966 118.453 133.144  1.00  0.00    -0.027 C 
ATOM     22  C   UNL     1     121.699 120.893 132.970  1.00  0.00    -0.023 C 
ATOM     23  C   UNL     1     121.441 118.364 133.340  1.00  0.00     0.031 C 
ATOM     24  C   UNL     1     122.131 119.453 132.500  1.00  0.00     0.002 C 
ATOM     25  C   UNL     1     122.478 121.253 134.280  1.00  0.00     0.010 C 
ATOM     26  C   UNL     1     122.123 121.911 131.865  1.00  0.00     0.012 C 
ATOM     27  C   UNL     1     123.666 119.232 132.464  1.00  0.00     0.036 C 
ATOM     28  C   UNL     1     124.002 121.075 134.178  1.00  0.00     0.032 C 
ATOM     29  C   UNL     1     124.392 119.655 133.756  1.00  0.00     0.114 C 
BRANCH  29  30
ATOM     30  O   UNL     1     124.126 118.760 134.803  1.00  0.00    -0.393 OA
ATOM     31  H   UNL     1     123.155 118.555 134.761  1.00  0.00     0.210 HD
ENDBRANCH  29  30
ENDBRANCH   1  11
TORSDOF 6
ENDMDL
MODEL 6
REMARK VINA RESULT:    -6.507      3.528      5.767
REMARK INTER + INTRA:          -9.609
REMARK INTER:                  -8.607
REMARK INTRA:                  -1.003
REMARK UNBOUND:                -1.010
REMARK SMILES CC[C@H](C=C[C@H](C)[C@H]1CC[C@@H]2C3=CC[C@@H]4C[C@H](O)CC[C@]4(C)[C@H]3CC[C@@]21C)C(C)C
REMARK SMILES IDX 6 1 7 2 5 3 4 4 3 5 2 6 1 7 28 8 29 9 30 10 8 11 9 12 26 13
REMARK SMILES IDX 10 14 11 15 25 16 27 17 12 18 24 19 23 20 13 21 21 22 14 23
REMARK SMILES IDX 15 24 20 25 22 26 16 27 19 28 17 29 18 30
REMARK H PARENT 18 31
REMARK Flexibility Score: inf
ROOT
ATOM      1  C   UNL     1     116.430 124.758 129.508  1.00  0.00     0.012 C 
ATOM      2  C   UNL     1     115.820 124.845 130.922  1.00  0.00     0.012 C 
ENDROOT
BRANCH   1   3
ATOM      3  C   UNL     1     117.030 126.104 129.156  1.00  0.00    -0.028 C 
ATOM      4  C   UNL     1     117.468 126.960 130.095  1.00  0.00    -0.027 C 
BRANCH   4   5
ATOM      5  C   UNL     1     118.007 128.331 129.736  1.00  0.00     0.014 C 
BRANCH   5   6
ATOM      6  C   UNL     1     117.980 129.282 130.963  1.00  0.00     0.004 C 
ATOM      7  C   UNL     1     117.290 128.733 132.216  1.00  0.00     0.004 C 
ENDBRANCH   5   6
BRANCH   5   8
ATOM      8  C   UNL     1     119.351 128.261 128.930  1.00  0.00    -0.011 C 
ATOM      9  C   UNL     1     120.088 129.608 128.891  1.00  0.00     0.008 C 
ATOM     10  C   UNL     1     120.305 127.131 129.355  1.00  0.00     0.008 C 
ENDBRANCH   5   8
ENDBRANCH   4   5
ENDBRANCH   1   3
BRANCH   1  11
ATOM     11  C   UNL     1     117.501 123.624 129.309  1.00  0.00     0.002 C 
ATOM     12  C   UNL     1     117.870 122.936 130.633  1.00  0.00     0.005 C 
ATOM     13  C   UNL     1     117.149 122.454 128.317  1.00  0.00    -0.023 C 
ATOM     14  C   UNL     1     117.154 121.584 130.655  1.00  0.00     0.009 C 
ATOM     15  C   UNL     1     116.612 121.321 129.238  1.00  0.00     0.021 C 
ATOM     16  C   UNL     1     118.430 121.999 127.518  1.00  0.00     0.008 C 
ATOM     17  C   UNL     1     116.076 122.837 127.259  1.00  0.00     0.012 C 
ATOM     18  C   UNL     1     116.970 119.929 128.727  1.00  0.00    -0.067 C 
ATOM     19  C   UNL     1     119.251 120.893 128.206  1.00  0.00     0.009 C 
ATOM     20  C   UNL     1     118.434 119.578 128.418  1.00  0.00     0.021 C 
ATOM     21  C   UNL     1     115.994 119.015 128.589  1.00  0.00    -0.027 C 
ATOM     22  C   UNL     1     118.647 118.392 127.339  1.00  0.00    -0.023 C 
ATOM     23  C   UNL     1     116.275 117.671 128.011  1.00  0.00     0.031 C 
ATOM     24  C   UNL     1     117.267 117.818 126.844  1.00  0.00     0.002 C 
ATOM     25  C   UNL     1     119.456 117.243 128.030  1.00  0.00     0.010 C 
ATOM     26  C   UNL     1     119.454 118.862 126.088  1.00  0.00     0.012 C 
ATOM     27  C   UNL     1     117.382 116.490 126.048  1.00  0.00     0.036 C 
ATOM     28  C   UNL     1     119.594 115.969 127.179  1.00  0.00     0.032 C 
ATOM     29  C   UNL     1     118.235 115.412 126.744  1.00  0.00     0.114 C 
BRANCH  29  30
ATOM     30  O   UNL     1     117.566 114.875 127.854  1.00  0.00    -0.393 OA
ATOM     31  H   UNL     1     117.318 113.944 127.612  1.00  0.00     0.210 HD
ENDBRANCH  29  30
ENDBRANCH   1  11
TORSDOF 6
ENDMDL
MODEL 7
REMARK VINA RESULT:    -6.505      4.419      7.923
REMARK INTER + INTRA:          -9.607
REMARK INTER:                  -8.863
REMARK INTRA:                  -0.743
REMARK UNBOUND:                -1.010
REMARK SMILES CC[C@H](C=C[C@H](C)[C@H]1CC[C@@H]2C3=CC[C@@H]4C[C@H](O)CC[C@]4(C)[C@H]3CC[C@@]21C)C(C)C
REMARK SMILES IDX 6 1 7 2 5 3 4 4 3 5 2 6 1 7 28 8 29 9 30 10 8 11 9 12 26 13
REMARK SMILES IDX 10 14 11 15 25 16 27 17 12 18 24 19 23 20 13 21 21 22 14 23
REMARK SMILES IDX 15 24 20 25 22 26 16 27 19 28 17 29 18 30
REMARK H PARENT 18 31
REMARK Flexibility Score: inf
ROOT
ATOM      1  C   UNL     1     116.883 125.684 129.043  1.00  0.00     0.012 C 
ATOM      2  C   UNL     1     116.237 126.801 128.199  1.00  0.00     0.012 C 
ENDROOT
BRANCH   1   3
ATOM      3  C   UNL     1     115.852 124.599 129.282  1.00  0.00    -0.028 C 
ATOM      4  C   UNL     1     115.604 124.108 130.508  1.00  0.00    -0.027 C 
BRANCH   4   5
ATOM      5  C   UNL     1     114.618 122.977 130.729  1.00  0.00     0.014 C 
BRANCH   5   6
ATOM      6  C   UNL     1     113.791 122.696 129.446  1.00  0.00     0.004 C 
ATOM      7  C   UNL     1     114.053 121.348 128.767  1.00  0.00     0.004 C 
ENDBRANCH   5   6
BRANCH   5   8
ATOM      8  C   UNL     1     115.268 121.735 131.433  1.00  0.00    -0.011 C 
ATOM      9  C   UNL     1     116.702 122.007 131.909  1.00  0.00     0.008 C 
ATOM     10  C   UNL     1     114.427 121.117 132.565  1.00  0.00     0.008 C 
ENDBRANCH   5   8
ENDBRANCH   4   5
ENDBRANCH   1   3
BRANCH   1  11
ATOM     11  C   UNL     1     118.191 125.057 128.434  1.00  0.00     0.002 C 
ATOM     12  C   UNL     1     119.255 124.779 129.507  1.00  0.00     0.005 C 
ATOM     13  C   UNL     1     118.050 123.711 127.630  1.00  0.00    -0.023 C 
ATOM     14  C   UNL     1     119.242 123.273 129.777  1.00  0.00     0.009 C 
ATOM     15  C   UNL     1     118.407 122.608 128.667  1.00  0.00     0.021 C 
ATOM     16  C   UNL     1     119.034 123.695 126.397  1.00  0.00     0.008 C 
ATOM     17  C   UNL     1     116.622 123.472 127.064  1.00  0.00     0.012 C 
ATOM     18  C   UNL     1     119.121 121.417 128.035  1.00  0.00    -0.067 C 
ATOM     19  C   UNL     1     120.431 123.126 126.705  1.00  0.00     0.009 C 
ATOM     20  C   UNL     1     120.384 121.641 127.189  1.00  0.00     0.021 C 
ATOM     21  C   UNL     1     118.649 120.180 128.263  1.00  0.00    -0.027 C 
ATOM     22  C   UNL     1     120.691 120.494 126.091  1.00  0.00    -0.023 C 
ATOM     23  C   UNL     1     119.255 118.991 127.600  1.00  0.00     0.031 C 
ATOM     24  C   UNL     1     119.612 119.348 126.146  1.00  0.00     0.002 C 
ATOM     25  C   UNL     1     122.097 119.881 126.404  1.00  0.00     0.010 C 
ATOM     26  C   UNL     1     120.726 121.057 124.635  1.00  0.00     0.012 C 
ATOM     27  C   UNL     1     119.996 118.077 125.344  1.00  0.00     0.036 C 
ATOM     28  C   UNL     1     122.459 118.658 125.543  1.00  0.00     0.032 C 
ATOM     29  C   UNL     1     121.411 117.546 125.646  1.00  0.00     0.114 C 
BRANCH  29  30
ATOM     30  O   UNL     1     121.470 116.957 126.919  1.00  0.00    -0.393 OA
ATOM     31  H   UNL     1     121.337 115.981 126.785  1.00  0.00     0.210 HD
ENDBRANCH  29  30
ENDBRANCH   1  11
TORSDOF 6
ENDMDL
MODEL 8
REMARK VINA RESULT:    -6.505     11.193     13.469
REMARK INTER + INTRA:          -9.606
REMARK INTER:                  -8.421
REMARK INTRA:                  -1.186
REMARK UNBOUND:                -1.010
REMARK SMILES CC[C@H](C=C[C@H](C)[C@H]1CC[C@@H]2C3=CC[C@@H]4C[C@H](O)CC[C@]4(C)[C@H]3CC[C@@]21C)C(C)C
REMARK SMILES IDX 6 1 7 2 5 3 4 4 3 5 2 6 1 7 28 8 29 9 30 10 8 11 9 12 26 13
REMARK SMILES IDX 10 14 11 15 25 16 27 17 12 18 24 19 23 20 13 21 21 22 14 23
REMARK SMILES IDX 15 24 20 25 22 26 16 27 19 28 17 29 18 30
REMARK H PARENT 18 31
REMARK Flexibility Score: inf
ROOT
ATOM      1  C   UNL     1     131.096 126.808 132.244  1.00  0.00     0.012 C 
ATOM      2  C   UNL     1     132.470 127.457 132.511  1.00  0.00     0.012 C 
ENDROOT
BRANCH   1   3
ATOM      3  C   UNL     1     130.069 127.907 132.061  1.00  0.00    -0.028 C 
ATOM      4  C   UNL     1     129.017 128.046 132.886  1.00  0.00    -0.027 C 
BRANCH   4   5
ATOM      5  C   UNL     1     127.959 129.108 132.657  1.00  0.00     0.014 C 
BRANCH   5   6
ATOM      6  C   UNL     1     128.300 129.981 131.419  1.00  0.00     0.004 C 
ATOM      7  C   UNL     1     128.203 131.496 131.627  1.00  0.00     0.004 C 
ENDBRANCH   5   6
BRANCH   5   8
ATOM      8  C   UNL     1     126.500 128.536 132.733  1.00  0.00    -0.011 C 
ATOM      9  C   UNL     1     126.458 127.004 132.632  1.00  0.00     0.008 C 
ATOM     10  C   UNL     1     125.674 129.024 133.937  1.00  0.00     0.008 C 
ENDBRANCH   5   8
ENDBRANCH   4   5
ENDBRANCH   1   3
BRANCH   1  11
ATOM     11  C   UNL     1     131.049 125.820 131.021  1.00  0.00     0.002 C 
ATOM     12  C   UNL     1     132.437 125.606 130.395  1.00  0.00     0.005 C 
ATOM     13  C   UNL     1     130.481 124.374 131.273  1.00  0.00    -0.023 C 
ATOM     14  C   UNL     1     132.937 124.237 130.859  1.00  0.00     0.009 C 
ATOM     15  C   UNL     1     131.747 123.499 131.501  1.00  0.00     0.021 C 
ATOM     16  C   UNL     1     129.646 123.881 130.029  1.00  0.00     0.008 C 
ATOM     17  C   UNL     1     129.539 124.283 132.507  1.00  0.00     0.012 C 
ATOM     18  C   UNL     1     131.585 122.080 130.967  1.00  0.00    -0.067 C 
ATOM     19  C   UNL     1     130.474 123.146 128.958  1.00  0.00     0.009 C 
ATOM     20  C   UNL     1     131.160 121.854 129.507  1.00  0.00     0.021 C 
ATOM     21  C   UNL     1     131.855 121.044 131.779  1.00  0.00    -0.027 C 
ATOM     22  C   UNL     1     130.425 120.443 129.213  1.00  0.00    -0.023 C 
ATOM     23  C   UNL     1     131.628 119.640 131.336  1.00  0.00     0.031 C 
ATOM     24  C   UNL     1     130.325 119.569 130.519  1.00  0.00     0.002 C 
ATOM     25  C   UNL     1     131.268 119.666 128.146  1.00  0.00     0.010 C 
ATOM     26  C   UNL     1     128.984 120.630 128.643  1.00  0.00     0.012 C 
ATOM     27  C   UNL     1     129.913 118.095 130.265  1.00  0.00     0.036 C 
ATOM     28  C   UNL     1     130.785 118.229 127.885  1.00  0.00     0.032 C 
ATOM     29  C   UNL     1     130.734 117.393 129.167  1.00  0.00     0.114 C 
BRANCH  29  30
ATOM     30  O   UNL     1     132.039 117.120 129.606  1.00  0.00    -0.393 OA
ATOM     31  H   UNL     1     132.636 117.757 129.131  1.00  0.00     0.210 HD
ENDBRANCH  29  30
ENDBRANCH   1  11
TORSDOF 6
ENDMDL
MODEL 9
REMARK VINA RESULT:    -6.401      5.478      9.735
REMARK INTER + INTRA:          -9.469
REMARK INTER:                  -8.158
REMARK INTRA:                  -1.311
REMARK UNBOUND:                -1.010
REMARK SMILES CC[C@H](C=C[C@H](C)[C@H]1CC[C@@H]2C3=CC[C@@H]4C[C@H](O)CC[C@]4(C)[C@H]3CC[C@@]21C)C(C)C
REMARK SMILES IDX 6 1 7 2 5 3 4 4 3 5 2 6 1 7 28 8 29 9 30 10 8 11 9 12 26 13
REMARK SMILES IDX 10 14 11 15 25 16 27 17 12 18 24 19 23 20 13 21 21 22 14 23
REMARK SMILES IDX 15 24 20 25 22 26 16 27 19 28 17 29 18 30
REMARK H PARENT 18 31
REMARK Flexibility Score: inf
ROOT
ATOM      1  C   UNL     1     118.417 123.306 130.168  1.00  0.00     0.012 C 
ATOM      2  C   UNL     1     117.909 124.755 130.022  1.00  0.00     0.012 C 
ENDROOT
BRANCH   1   3
ATOM      3  C   UNL     1     117.409 122.518 130.978  1.00  0.00    -0.028 C 
ATOM      4  C   UNL     1     116.935 121.329 130.568  1.00  0.00    -0.027 C 
BRANCH   4   5
ATOM      5  C   UNL     1     115.878 120.578 131.353  1.00  0.00     0.014 C 
BRANCH   5   6
ATOM      6  C   UNL     1     115.797 121.091 132.816  1.00  0.00     0.004 C 
ATOM      7  C   UNL     1     115.419 120.043 133.869  1.00  0.00     0.004 C 
ENDBRANCH   5   6
BRANCH   5   8
ATOM      8  C   UNL     1     114.521 120.451 130.577  1.00  0.00    -0.011 C 
ATOM      9  C   UNL     1     113.747 121.777 130.518  1.00  0.00     0.008 C 
ATOM     10  C   UNL     1     114.631 119.824 129.175  1.00  0.00     0.008 C 
ENDBRANCH   5   8
ENDBRANCH   4   5
ENDBRANCH   1   3
BRANCH   1  11
ATOM     11  C   UNL     1     118.717 122.564 128.814  1.00  0.00     0.002 C 
ATOM     12  C   UNL     1     118.608 123.502 127.601  1.00  0.00     0.005 C 
ATOM     13  C   UNL     1     120.114 121.854 128.665  1.00  0.00    -0.023 C 
ATOM     14  C   UNL     1     120.033 123.846 127.166  1.00  0.00     0.009 C 
ATOM     15  C   UNL     1     120.990 122.889 127.902  1.00  0.00     0.021 C 
ATOM     16  C   UNL     1     119.969 120.506 127.859  1.00  0.00     0.008 C 
ATOM     17  C   UNL     1     120.775 121.492 130.025  1.00  0.00     0.012 C 
ATOM     18  C   UNL     1     121.993 122.230 126.961  1.00  0.00    -0.067 C 
ATOM     19  C   UNL     1     120.113 120.656 126.334  1.00  0.00     0.009 C 
ATOM     20  C   UNL     1     121.509 121.216 125.912  1.00  0.00     0.021 C 
ATOM     21  C   UNL     1     123.288 122.579 127.043  1.00  0.00    -0.027 C 
ATOM     22  C   UNL     1     122.620 120.145 125.425  1.00  0.00    -0.023 C 
ATOM     23  C   UNL     1     124.321 121.902 126.210  1.00  0.00     0.031 C 
ATOM     24  C   UNL     1     124.004 120.398 126.130  1.00  0.00     0.002 C 
ATOM     25  C   UNL     1     122.803 120.303 123.877  1.00  0.00     0.010 C 
ATOM     26  C   UNL     1     122.192 118.671 125.710  1.00  0.00     0.012 C 
ATOM     27  C   UNL     1     125.189 119.618 125.501  1.00  0.00     0.036 C 
ATOM     28  C   UNL     1     123.951 119.464 123.289  1.00  0.00     0.032 C 
ATOM     29  C   UNL     1     125.291 119.759 123.970  1.00  0.00     0.114 C 
BRANCH  29  30
ATOM     30  O   UNL     1     125.734 121.040 123.608  1.00  0.00    -0.393 OA
ATOM     31  H   UNL     1     124.992 121.667 123.818  1.00  0.00     0.210 HD
ENDBRANCH  29  30
ENDBRANCH   1  11
TORSDOF 6
ENDMDL
