MODEL 1
REMARK VINA RESULT:    -3.859      0.000      0.000
REMARK INTER + INTRA:          -6.696
REMARK INTER:                  -6.115
REMARK INTRA:                  -0.581
REMARK UNBOUND:                -0.581
REMARK SMILES CCCCCCCCCCCC(=O)[O-]
REMARK SMILES IDX 7 1 8 2 9 3 10 4 11 5 12 6 13 7 14 8 6 9 5 10 4 11 3 12 2 13
REMARK SMILES IDX 1 14
REMARK H PARENT
REMARK Flexibility Score: inf
ROOT
ATOM      1  C   UNL     1      19.197 133.352  61.631  1.00  0.00     0.000 C 
ENDROOT
BRANCH   1   2
ATOM      2  C   UNL     1      17.760 132.978  61.244  1.00  0.00     0.000 C 
BRANCH   2   3
ATOM      3  C   UNL     1      17.543 132.931  59.722  1.00  0.00     0.000 C 
BRANCH   3   4
ATOM      4  C   UNL     1      18.800 133.304  58.907  1.00  0.00     0.006 C 
BRANCH   4   5
ATOM      5  C   UNL     1      18.863 132.558  57.567  1.00  0.00     0.053 C 
BRANCH   5   6
ATOM      6  C   UNL     1      20.183 132.789  56.901  1.00  0.00     0.041 C 
ATOM      7  O   UNL     1      20.905 131.813  56.569  1.00  0.00    -0.550 OA
ATOM      8  O   UNL     1      20.637 134.085  56.691  1.00  0.00    -0.550 OA
ENDBRANCH   5   6
ENDBRANCH   4   5
ENDBRANCH   3   4
ENDBRANCH   2   3
ENDBRANCH   1   2
BRANCH   1   9
ATOM      9  C   UNL     1      19.791 132.324  62.603  1.00  0.00     0.000 C 
BRANCH   9  10
ATOM     10  C   UNL     1      18.843 132.070  63.782  1.00  0.00    -0.000 C 
BRANCH  10  11
ATOM     11  C   UNL     1      18.970 130.625  64.288  1.00  0.00    -0.000 C 
BRANCH  11  12
ATOM     12  C   UNL     1      17.655 129.839  64.172  1.00  0.00    -0.000 C 
BRANCH  12  13
ATOM     13  C   UNL     1      17.881 128.326  64.042  1.00  0.00    -0.003 C 
ATOM     14  C   UNL     1      19.370 127.997  63.977  1.00  0.00     0.004 C 
ENDBRANCH  12  13
ENDBRANCH  11  12
ENDBRANCH  10  11
ENDBRANCH   9  10
ENDBRANCH   1   9
TORSDOF 10
ENDMDL
MODEL 2
REMARK VINA RESULT:    -3.771      1.374      2.404
REMARK INTER + INTRA:          -6.556
REMARK INTER:                  -5.701
REMARK INTRA:                  -0.855
REMARK UNBOUND:                -0.581
REMARK SMILES CCCCCCCCCCCC(=O)[O-]
REMARK SMILES IDX 7 1 8 2 9 3 10 4 11 5 12 6 13 7 14 8 6 9 5 10 4 11 3 12 2 13
REMARK SMILES IDX 1 14
REMARK H PARENT
REMARK Flexibility Score: inf
ROOT
ATOM      1  C   UNL     1      19.166 132.298  64.311  1.00  0.00     0.000 C 
ENDROOT
BRANCH   1   2
ATOM      2  C   UNL     1      19.061 132.163  62.785  1.00  0.00     0.000 C 
BRANCH   2   3
ATOM      3  C   UNL     1      18.469 133.413  62.113  1.00  0.00     0.000 C 
BRANCH   3   4
ATOM      4  C   UNL     1      18.920 133.600  60.648  1.00  0.00     0.006 C 
BRANCH   4   5
ATOM      5  C   UNL     1      17.935 132.968  59.655  1.00  0.00     0.053 C 
BRANCH   5   6
ATOM      6  C   UNL     1      18.612 132.694  58.349  1.00  0.00     0.041 C 
ATOM      7  O   UNL     1      17.950 132.259  57.371  1.00  0.00    -0.550 OA
ATOM      8  O   UNL     1      19.985 132.873  58.227  1.00  0.00    -0.550 OA
ENDBRANCH   5   6
ENDBRANCH   4   5
ENDBRANCH   3   4
ENDBRANCH   2   3
ENDBRANCH   1   2
BRANCH   1   9
ATOM      9  C   UNL     1      18.524 131.095  65.014  1.00  0.00     0.000 C 
BRANCH   9  10
ATOM     10  C   UNL     1      17.557 130.361  64.076  1.00  0.00    -0.000 C 
BRANCH  10  11
ATOM     11  C   UNL     1      17.936 128.877  63.949  1.00  0.00    -0.000 C 
BRANCH  11  12
ATOM     12  C   UNL     1      19.338 128.575  64.500  1.00  0.00    -0.000 C 
BRANCH  12  13
ATOM     13  C   UNL     1      20.252 127.914  63.458  1.00  0.00    -0.003 C 
ATOM     14  C   UNL     1      21.366 128.863  63.023  1.00  0.00     0.004 C 
ENDBRANCH  12  13
ENDBRANCH  11  12
ENDBRANCH  10  11
ENDBRANCH   9  10
ENDBRANCH   1   9
TORSDOF 10
ENDMDL
MODEL 3
REMARK VINA RESULT:    -3.717      4.044      6.194
REMARK INTER + INTRA:          -6.472
REMARK INTER:                  -5.229
REMARK INTRA:                  -1.243
REMARK UNBOUND:                -0.581
REMARK SMILES CCCCCCCCCCCC(=O)[O-]
REMARK SMILES IDX 7 1 8 2 9 3 10 4 11 5 12 6 13 7 14 8 6 9 5 10 4 11 3 12 2 13
REMARK SMILES IDX 1 14
REMARK H PARENT
REMARK Flexibility Score: inf
ROOT
ATOM      1  C   UNL     1      19.044 132.855  62.164  1.00  0.00     0.000 C 
ENDROOT
BRANCH   1   2
ATOM      2  C   UNL     1      19.589 131.927  63.258  1.00  0.00     0.000 C 
BRANCH   2   3
ATOM      3  C   UNL     1      18.877 132.112  64.608  1.00  0.00     0.000 C 
BRANCH   3   4
ATOM      4  C   UNL     1      18.246 130.814  65.157  1.00  0.00     0.006 C 
BRANCH   4   5
ATOM      5  C   UNL     1      17.545 130.002  64.059  1.00  0.00     0.053 C 
BRANCH   5   6
ATOM      6  C   UNL     1      17.683 128.536  64.323  1.00  0.00     0.041 C 
ATOM      7  O   UNL     1      18.725 127.924  63.972  1.00  0.00    -0.550 OA
ATOM      8  O   UNL     1      16.638 127.835  64.912  1.00  0.00    -0.550 OA
ENDBRANCH   5   6
ENDBRANCH   4   5
ENDBRANCH   3   4
ENDBRANCH   2   3
ENDBRANCH   1   2
BRANCH   1   9
ATOM      9  C   UNL     1      17.864 133.685  62.684  1.00  0.00     0.000 C 
BRANCH   9  10
ATOM     10  C   UNL     1      16.802 133.875  61.593  1.00  0.00    -0.000 C 
BRANCH  10  11
ATOM     11  C   UNL     1      16.687 132.622  60.713  1.00  0.00    -0.000 C 
BRANCH  11  12
ATOM     12  C   UNL     1      15.661 131.613  61.252  1.00  0.00    -0.000 C 
BRANCH  12  13
ATOM     13  C   UNL     1      14.440 132.294  61.887  1.00  0.00    -0.003 C 
ATOM     14  C   UNL     1      14.238 131.827  63.326  1.00  0.00     0.004 C 
ENDBRANCH  12  13
ENDBRANCH  11  12
ENDBRANCH  10  11
ENDBRANCH   9  10
ENDBRANCH   1   9
TORSDOF 10
ENDMDL
MODEL 4
REMARK VINA RESULT:    -3.685      3.351      4.391
REMARK INTER + INTRA:          -6.421
REMARK INTER:                  -5.291
REMARK INTRA:                  -1.130
REMARK UNBOUND:                -0.581
REMARK SMILES CCCCCCCCCCCC(=O)[O-]
REMARK SMILES IDX 7 1 8 2 9 3 10 4 11 5 12 6 13 7 14 8 6 9 5 10 4 11 3 12 2 13
REMARK SMILES IDX 1 14
REMARK H PARENT
REMARK Flexibility Score: inf
ROOT
ATOM      1  C   UNL     1      18.970 132.171  64.756  1.00  0.00     0.000 C 
ENDROOT
BRANCH   1   2
ATOM      2  C   UNL     1      19.481 131.984  63.321  1.00  0.00     0.000 C 
BRANCH   2   3
ATOM      3  C   UNL     1      18.655 132.765  62.285  1.00  0.00     0.000 C 
BRANCH   3   4
ATOM      4  C   UNL     1      17.158 132.875  62.644  1.00  0.00     0.006 C 
BRANCH   4   5
ATOM      5  C   UNL     1      16.349 131.677  62.130  1.00  0.00     0.053 C 
BRANCH   5   6
ATOM      6  C   UNL     1      15.667 132.019  60.843  1.00  0.00     0.041 C 
ATOM      7  O   UNL     1      15.881 133.128  60.287  1.00  0.00    -0.550 OA
ATOM      8  O   UNL     1      14.757 131.132  60.282  1.00  0.00    -0.550 OA
ENDBRANCH   5   6
ENDBRANCH   4   5
ENDBRANCH   3   4
ENDBRANCH   2   3
ENDBRANCH   1   2
BRANCH   1   9
ATOM      9  C   UNL     1      18.687 130.818  65.421  1.00  0.00     0.000 C 
BRANCH   9  10
ATOM     10  C   UNL     1      18.848 129.668  64.418  1.00  0.00    -0.000 C 
BRANCH  10  11
ATOM     11  C   UNL     1      17.569 128.820  64.345  1.00  0.00    -0.000 C 
BRANCH  11  12
ATOM     12  C   UNL     1      16.425 129.401  65.190  1.00  0.00    -0.000 C 
BRANCH  12  13
ATOM     13  C   UNL     1      15.605 128.315  65.901  1.00  0.00    -0.003 C 
ATOM     14  C   UNL     1      15.011 128.841  67.205  1.00  0.00     0.004 C 
ENDBRANCH  12  13
ENDBRANCH  11  12
ENDBRANCH  10  11
ENDBRANCH   9  10
ENDBRANCH   1   9
TORSDOF 10
ENDMDL
MODEL 5
REMARK VINA RESULT:    -3.673      5.352      7.324
REMARK INTER + INTRA:          -6.401
REMARK INTER:                  -5.025
REMARK INTRA:                  -1.377
REMARK UNBOUND:                -0.581
REMARK SMILES CCCCCCCCCCCC(=O)[O-]
REMARK SMILES IDX 7 1 8 2 9 3 10 4 11 5 12 6 13 7 14 8 6 9 5 10 4 11 3 12 2 13
REMARK SMILES IDX 1 14
REMARK H PARENT
REMARK Flexibility Score: inf
ROOT
ATOM      1  C   UNL     1      18.901 132.461  65.206  1.00  0.00     0.000 C 
ENDROOT
BRANCH   1   2
ATOM      2  C   UNL     1      18.664 131.379  66.268  1.00  0.00     0.000 C 
BRANCH   2   3
ATOM      3  C   UNL     1      17.307 131.524  66.978  1.00  0.00     0.000 C 
BRANCH   3   4
ATOM      4  C   UNL     1      16.103 131.128  66.097  1.00  0.00     0.006 C 
BRANCH   4   5
ATOM      5  C   UNL     1      16.315 129.776  65.401  1.00  0.00     0.053 C 
BRANCH   5   6
ATOM      6  C   UNL     1      15.540 128.702  66.096  1.00  0.00     0.041 C 
ATOM      7  O   UNL     1      14.802 128.986  67.075  1.00  0.00    -0.550 OA
ATOM      8  O   UNL     1      15.671 127.379  65.693  1.00  0.00    -0.550 OA
ENDBRANCH   5   6
ENDBRANCH   4   5
ENDBRANCH   3   4
ENDBRANCH   2   3
ENDBRANCH   1   2
BRANCH   1   9
ATOM      9  C   UNL     1      19.294 131.836  63.861  1.00  0.00     0.000 C 
BRANCH   9  10
ATOM     10  C   UNL     1      18.446 132.409  62.719  1.00  0.00    -0.000 C 
BRANCH  10  11
ATOM     11  C   UNL     1      17.353 133.343  63.260  1.00  0.00    -0.000 C 
BRANCH  11  12
ATOM     12  C   UNL     1      15.942 132.915  62.829  1.00  0.00    -0.000 C 
BRANCH  12  13
ATOM     13  C   UNL     1      15.915 131.512  62.205  1.00  0.00    -0.003 C 
ATOM     14  C   UNL     1      15.210 131.527  60.851  1.00  0.00     0.004 C 
ENDBRANCH  12  13
ENDBRANCH  11  12
ENDBRANCH  10  11
ENDBRANCH   9  10
ENDBRANCH   1   9
TORSDOF 10
ENDMDL
MODEL 6
REMARK VINA RESULT:    -3.644      3.106      6.393
REMARK INTER + INTRA:          -6.356
REMARK INTER:                  -5.268
REMARK INTRA:                  -1.087
REMARK UNBOUND:                -0.581
REMARK SMILES CCCCCCCCCCCC(=O)[O-]
REMARK SMILES IDX 7 1 8 2 9 3 10 4 11 5 12 6 13 7 14 8 6 9 5 10 4 11 3 12 2 13
REMARK SMILES IDX 1 14
REMARK H PARENT
REMARK Flexibility Score: inf
ROOT
ATOM      1  C   UNL     1      16.275 131.795  59.262  1.00  0.00     0.000 C 
ENDROOT
BRANCH   1   2
ATOM      2  C   UNL     1      16.920 133.014  59.937  1.00  0.00     0.000 C 
BRANCH   2   3
ATOM      3  C   UNL     1      18.426 133.129  59.649  1.00  0.00     0.000 C 
BRANCH   3   4
ATOM      4  C   UNL     1      19.248 133.642  60.851  1.00  0.00     0.006 C 
BRANCH   4   5
ATOM      5  C   UNL     1      18.783 133.023  62.177  1.00  0.00     0.053 C 
BRANCH   5   6
ATOM      6  C   UNL     1      19.844 132.130  62.738  1.00  0.00     0.041 C 
ATOM      7  O   UNL     1      19.612 131.437  63.763  1.00  0.00    -0.550 OA
ATOM      8  O   UNL     1      21.106 132.100  62.157  1.00  0.00    -0.550 OA
ENDBRANCH   5   6
ENDBRANCH   4   5
ENDBRANCH   3   4
ENDBRANCH   2   3
ENDBRANCH   1   2
BRANCH   1   9
ATOM      9  C   UNL     1      15.100 132.218  58.371  1.00  0.00     0.000 C 
BRANCH   9  10
ATOM     10  C   UNL     1      15.306 131.746  56.926  1.00  0.00    -0.000 C 
BRANCH  10  11
ATOM     11  C   UNL     1      16.500 130.784  56.828  1.00  0.00    -0.000 C 
BRANCH  11  12
ATOM     12  C   UNL     1      17.461 131.149  55.685  1.00  0.00    -0.000 C 
BRANCH  12  13
ATOM     13  C   UNL     1      18.700 131.911  56.176  1.00  0.00    -0.003 C 
ATOM     14  C   UNL     1      18.535 133.416  55.974  1.00  0.00     0.004 C 
ENDBRANCH  12  13
ENDBRANCH  11  12
ENDBRANCH  10  11
ENDBRANCH   9  10
ENDBRANCH   1   9
TORSDOF 10
ENDMDL
MODEL 7
REMARK VINA RESULT:    -3.617      5.053      6.589
REMARK INTER + INTRA:          -6.313
REMARK INTER:                  -4.864
REMARK INTRA:                  -1.448
REMARK UNBOUND:                -0.581
REMARK SMILES CCCCCCCCCCCC(=O)[O-]
REMARK SMILES IDX 7 1 8 2 9 3 10 4 11 5 12 6 13 7 14 8 6 9 5 10 4 11 3 12 2 13
REMARK SMILES IDX 1 14
REMARK H PARENT
REMARK Flexibility Score: inf
ROOT
ATOM      1  C   UNL     1      16.610 130.502  56.543  1.00  0.00     0.000 C 
ENDROOT
BRANCH   1   2
ATOM      2  C   UNL     1      17.145 130.827  55.142  1.00  0.00     0.000 C 
BRANCH   2   3
ATOM      3  C   UNL     1      16.074 131.433  54.219  1.00  0.00     0.000 C 
BRANCH   3   4
ATOM      4  C   UNL     1      16.654 132.343  53.115  1.00  0.00     0.006 C 
BRANCH   4   5
ATOM      5  C   UNL     1      17.684 133.338  53.666  1.00  0.00     0.053 C 
BRANCH   5   6
ATOM      6  C   UNL     1      18.069 134.331  52.615  1.00  0.00     0.041 C 
ATOM      7  O   UNL     1      18.039 134.009  51.399  1.00  0.00    -0.550 OA
ATOM      8  O   UNL     1      18.507 135.597  52.982  1.00  0.00    -0.550 OA
ENDBRANCH   5   6
ENDBRANCH   4   5
ENDBRANCH   3   4
ENDBRANCH   2   3
ENDBRANCH   1   2
BRANCH   1   9
ATOM      9  C   UNL     1      15.723 131.637  57.071  1.00  0.00     0.000 C 
BRANCH   9  10
ATOM     10  C   UNL     1      16.506 132.549  58.024  1.00  0.00    -0.000 C 
BRANCH  10  11
ATOM     11  C   UNL     1      16.899 133.862  57.330  1.00  0.00    -0.000 C 
BRANCH  11  12
ATOM     12  C   UNL     1      18.418 134.094  57.322  1.00  0.00    -0.000 C 
BRANCH  12  13
ATOM     13  C   UNL     1      19.205 132.873  57.819  1.00  0.00    -0.003 C 
ATOM     14  C   UNL     1      20.130 132.336  56.729  1.00  0.00     0.004 C 
ENDBRANCH  12  13
ENDBRANCH  11  12
ENDBRANCH  10  11
ENDBRANCH   9  10
ENDBRANCH   1   9
TORSDOF 10
ENDMDL
MODEL 8
REMARK VINA RESULT:    -3.597      3.466      6.503
REMARK INTER + INTRA:          -6.280
REMARK INTER:                  -5.311
REMARK INTRA:                  -0.969
REMARK UNBOUND:                -0.581
REMARK SMILES CCCCCCCCCCCC(=O)[O-]
REMARK SMILES IDX 7 1 8 2 9 3 10 4 11 5 12 6 13 7 14 8 6 9 5 10 4 11 3 12 2 13
REMARK SMILES IDX 1 14
REMARK H PARENT
REMARK Flexibility Score: inf
ROOT
ATOM      1  C   UNL     1      18.849 134.156  57.544  1.00  0.00     0.000 C 
ENDROOT
BRANCH   1   2
ATOM      2  C   UNL     1      19.372 133.134  58.563  1.00  0.00     0.000 C 
BRANCH   2   3
ATOM      3  C   UNL     1      18.552 133.111  59.863  1.00  0.00     0.000 C 
BRANCH   3   4
ATOM      4  C   UNL     1      19.283 133.745  61.066  1.00  0.00     0.006 C 
BRANCH   4   5
ATOM      5  C   UNL     1      20.164 132.731  61.808  1.00  0.00     0.053 C 
BRANCH   5   6
ATOM      6  C   UNL     1      19.496 132.280  63.069  1.00  0.00     0.041 C 
ATOM      7  O   UNL     1      19.676 131.110  63.498  1.00  0.00    -0.550 OA
ATOM      8  O   UNL     1      18.634 133.136  63.743  1.00  0.00    -0.550 OA
ENDBRANCH   5   6
ENDBRANCH   4   5
ENDBRANCH   3   4
ENDBRANCH   2   3
ENDBRANCH   1   2
BRANCH   1   9
ATOM      9  C   UNL     1      18.657 133.511  56.166  1.00  0.00     0.000 C 
BRANCH   9  10
ATOM     10  C   UNL     1      18.918 132.000  56.224  1.00  0.00    -0.000 C 
BRANCH  10  11
ATOM     11  C   UNL     1      17.666 131.210  55.815  1.00  0.00    -0.000 C 
BRANCH  11  12
ATOM     12  C   UNL     1      16.804 130.802  57.020  1.00  0.00    -0.000 C 
BRANCH  12  13
ATOM     13  C   UNL     1      15.508 131.619  57.122  1.00  0.00    -0.003 C 
ATOM     14  C   UNL     1      15.051 132.099  55.747  1.00  0.00     0.004 C 
ENDBRANCH  12  13
ENDBRANCH  11  12
ENDBRANCH  10  11
ENDBRANCH   9  10
ENDBRANCH   1   9
TORSDOF 10
ENDMDL
MODEL 9
REMARK VINA RESULT:    -3.596      3.863      6.693
REMARK INTER + INTRA:          -6.279
REMARK INTER:                  -5.658
REMARK INTRA:                  -0.621
REMARK UNBOUND:                -0.581
REMARK SMILES CCCCCCCCCCCC(=O)[O-]
REMARK SMILES IDX 7 1 8 2 9 3 10 4 11 5 12 6 13 7 14 8 6 9 5 10 4 11 3 12 2 13
REMARK SMILES IDX 1 14
REMARK H PARENT
REMARK Flexibility Score: inf
ROOT
ATOM      1  C   UNL     1      17.437 132.809  62.308  1.00  0.00     0.000 C 
ENDROOT
BRANCH   1   2
ATOM      2  C   UNL     1      18.968 132.760  62.204  1.00  0.00     0.000 C 
BRANCH   2   3
ATOM      3  C   UNL     1      19.614 131.889  63.294  1.00  0.00     0.000 C 
BRANCH   3   4
ATOM      4  C   UNL     1      18.611 131.371  64.347  1.00  0.00     0.006 C 
BRANCH   4   5
ATOM      5  C   UNL     1      18.840 129.892  64.687  1.00  0.00     0.053 C 
BRANCH   5   6
ATOM      6  C   UNL     1      17.588 129.103  64.467  1.00  0.00     0.041 C 
ATOM      7  O   UNL     1      16.508 129.466  65.002  1.00  0.00    -0.550 OA
ATOM      8  O   UNL     1      17.625 127.938  63.711  1.00  0.00    -0.550 OA
ENDBRANCH   5   6
ENDBRANCH   4   5
ENDBRANCH   3   4
ENDBRANCH   2   3
ENDBRANCH   1   2
BRANCH   1   9
ATOM      9  C   UNL     1      16.786 132.610  60.933  1.00  0.00     0.000 C 
BRANCH   9  10
ATOM     10  C   UNL     1      17.707 133.105  59.811  1.00  0.00    -0.000 C 
BRANCH  10  11
ATOM     11  C   UNL     1      17.408 132.376  58.492  1.00  0.00    -0.000 C 
BRANCH  11  12
ATOM     12  C   UNL     1      16.013 131.731  58.476  1.00  0.00    -0.000 C 
BRANCH  12  13
ATOM     13  C   UNL     1      15.578 131.300  57.068  1.00  0.00    -0.003 C 
ATOM     14  C   UNL     1      16.679 130.502  56.374  1.00  0.00     0.004 C 
ENDBRANCH  12  13
ENDBRANCH  11  12
ENDBRANCH  10  11
ENDBRANCH   9  10
ENDBRANCH   1   9
TORSDOF 10
ENDMDL
