MODEL 1
REMARK VINA RESULT:    -4.248      0.000      0.000
REMARK INTER + INTRA:          -5.697
REMARK INTER:                  -5.614
REMARK INTRA:                  -0.083
REMARK UNBOUND:                -0.083
REMARK SMILES C=C[C@@H](O)CCCCC
REMARK SMILES IDX 6 1 7 2 8 3 9 4 5 5 3 6 2 7 1 8 4 9
REMARK H PARENT 4 10
REMARK Flexibility Score: inf
ROOT
ATOM      1  C   UNL     1     142.708 140.284 130.695  1.00  0.00     0.003 C 
ENDROOT
BRANCH   1   2
ATOM      2  C   UNL     1     143.899 139.782 129.861  1.00  0.00    -0.000 C 
BRANCH   2   3
ATOM      3  C   UNL     1     145.253 140.170 130.477  1.00  0.00    -0.003 C 
ATOM      4  C   UNL     1     146.436 139.792 129.585  1.00  0.00     0.004 C 
ENDBRANCH   2   3
ENDBRANCH   1   2
BRANCH   1   5
ATOM      5  C   UNL     1     141.370 140.188 129.940  1.00  0.00     0.036 C 
BRANCH   5   6
ATOM      6  C   UNL     1     140.795 141.558 129.534  1.00  0.00     0.136 C 
BRANCH   6   7
ATOM      7  C   UNL     1     139.466 141.383 128.839  1.00  0.00    -0.004 C 
ATOM      8  C   UNL     1     138.942 142.355 128.089  1.00  0.00     0.007 C 
ENDBRANCH   6   7
BRANCH   6   9
ATOM      9  O   UNL     1     140.623 142.351 130.681  1.00  0.00    -0.389 OA
ATOM     10  H   UNL     1     139.816 142.013 131.151  1.00  0.00     0.211 HD
ENDBRANCH   6   9
ENDBRANCH   5   6
ENDBRANCH   1   5
TORSDOF 6
ENDMDL
MODEL 2
REMARK VINA RESULT:    -4.075     14.642     15.862
REMARK INTER + INTRA:          -5.469
REMARK INTER:                  -4.980
REMARK INTRA:                  -0.489
REMARK UNBOUND:                -0.083
REMARK SMILES C=C[C@@H](O)CCCCC
REMARK SMILES IDX 6 1 7 2 8 3 9 4 5 5 3 6 2 7 1 8 4 9
REMARK H PARENT 4 10
REMARK Flexibility Score: inf
ROOT
ATOM      1  C   UNL     1     134.944 139.354 144.297  1.00  0.00     0.003 C 
ENDROOT
BRANCH   1   2
ATOM      2  C   UNL     1     134.332 139.617 142.910  1.00  0.00    -0.000 C 
BRANCH   2   3
ATOM      3  C   UNL     1     133.713 138.353 142.293  1.00  0.00    -0.003 C 
ATOM      4  C   UNL     1     133.375 138.525 140.812  1.00  0.00     0.004 C 
ENDBRANCH   2   3
ENDBRANCH   1   2
BRANCH   1   5
ATOM      5  C   UNL     1     135.543 137.942 144.426  1.00  0.00     0.036 C 
BRANCH   5   6
ATOM      6  C   UNL     1     137.079 137.935 144.535  1.00  0.00     0.136 C 
BRANCH   6   7
ATOM      7  C   UNL     1     137.701 138.208 143.187  1.00  0.00    -0.004 C 
ATOM      8  C   UNL     1     137.359 137.498 142.108  1.00  0.00     0.007 C 
ENDBRANCH   6   7
BRANCH   6   9
ATOM      9  O   UNL     1     137.487 138.923 145.448  1.00  0.00    -0.389 OA
ATOM     10  H   UNL     1     138.441 138.747 145.660  1.00  0.00     0.211 HD
ENDBRANCH   6   9
ENDBRANCH   5   6
ENDBRANCH   1   5
TORSDOF 6
ENDMDL
MODEL 3
REMARK VINA RESULT:    -3.858     11.634     13.377
REMARK INTER + INTRA:          -5.181
REMARK INTER:                  -4.656
REMARK INTRA:                  -0.525
REMARK UNBOUND:                -0.083
REMARK SMILES C=C[C@@H](O)CCCCC
REMARK SMILES IDX 6 1 7 2 8 3 9 4 5 5 3 6 2 7 1 8 4 9
REMARK H PARENT 4 10
REMARK Flexibility Score: inf
ROOT
ATOM      1  C   UNL     1     147.544 140.856 142.505  1.00  0.00     0.003 C 
ENDROOT
BRANCH   1   2
ATOM      2  C   UNL     1     147.741 139.429 141.966  1.00  0.00    -0.000 C 
BRANCH   2   3
ATOM      3  C   UNL     1     149.203 138.963 142.056  1.00  0.00    -0.003 C 
ATOM      4  C   UNL     1     149.781 138.569 140.697  1.00  0.00     0.004 C 
ENDBRANCH   2   3
ENDBRANCH   1   2
BRANCH   1   5
ATOM      5  C   UNL     1     148.816 141.716 142.391  1.00  0.00     0.036 C 
BRANCH   5   6
ATOM      6  C   UNL     1     148.701 142.845 141.351  1.00  0.00     0.136 C 
BRANCH   6   7
ATOM      7  C   UNL     1     149.004 142.317 139.969  1.00  0.00    -0.004 C 
ATOM      8  C   UNL     1     148.028 141.921 139.148  1.00  0.00     0.007 C 
ENDBRANCH   6   7
BRANCH   6   9
ATOM      9  O   UNL     1     147.399 143.373 141.375  1.00  0.00    -0.389 OA
ATOM     10  H   UNL     1     147.263 143.771 142.275  1.00  0.00     0.211 HD
ENDBRANCH   6   9
ENDBRANCH   5   6
ENDBRANCH   1   5
TORSDOF 6
ENDMDL
MODEL 4
REMARK VINA RESULT:    -3.818     14.773     16.084
REMARK INTER + INTRA:          -5.129
REMARK INTER:                  -4.972
REMARK INTRA:                  -0.157
REMARK UNBOUND:                -0.083
REMARK SMILES C=C[C@@H](O)CCCCC
REMARK SMILES IDX 6 1 7 2 8 3 9 4 5 5 3 6 2 7 1 8 4 9
REMARK H PARENT 4 10
REMARK Flexibility Score: inf
ROOT
ATOM      1  C   UNL     1     134.316 137.570 142.459  1.00  0.00     0.003 C 
ENDROOT
BRANCH   1   2
ATOM      2  C   UNL     1     133.358 138.585 141.811  1.00  0.00    -0.000 C 
BRANCH   2   3
ATOM      3  C   UNL     1     133.280 138.427 140.285  1.00  0.00    -0.003 C 
ATOM      4  C   UNL     1     132.335 137.304 139.856  1.00  0.00     0.004 C 
ENDBRANCH   2   3
ENDBRANCH   1   2
BRANCH   1   5
ATOM      5  C   UNL     1     135.632 138.212 142.933  1.00  0.00     0.036 C 
BRANCH   5   6
ATOM      6  C   UNL     1     135.558 138.779 144.363  1.00  0.00     0.136 C 
BRANCH   6   7
ATOM      7  C   UNL     1     136.865 138.554 145.084  1.00  0.00    -0.004 C 
ATOM      8  C   UNL     1     137.025 137.532 145.929  1.00  0.00     0.007 C 
ENDBRANCH   6   7
BRANCH   6   9
ATOM      9  O   UNL     1     135.284 140.156 144.307  1.00  0.00    -0.389 OA
ATOM     10  H   UNL     1     135.854 140.594 144.992  1.00  0.00     0.211 HD
ENDBRANCH   6   9
ENDBRANCH   5   6
ENDBRANCH   1   5
TORSDOF 6
ENDMDL
MODEL 5
REMARK VINA RESULT:    -3.801      1.721      4.929
REMARK INTER + INTRA:          -5.107
REMARK INTER:                  -4.876
REMARK INTRA:                  -0.230
REMARK UNBOUND:                -0.083
REMARK SMILES C=C[C@@H](O)CCCCC
REMARK SMILES IDX 6 1 7 2 8 3 9 4 5 5 3 6 2 7 1 8 4 9
REMARK H PARENT 4 10
REMARK Flexibility Score: inf
ROOT
ATOM      1  C   UNL     1     141.104 141.757 129.904  1.00  0.00     0.003 C 
ENDROOT
BRANCH   1   2
ATOM      2  C   UNL     1     139.817 141.304 129.193  1.00  0.00    -0.000 C 
BRANCH   2   3
ATOM      3  C   UNL     1     139.245 142.388 128.266  1.00  0.00    -0.003 C 
ATOM      4  C   UNL     1     140.236 143.521 128.002  1.00  0.00     0.004 C 
ENDBRANCH   2   3
ENDBRANCH   1   2
BRANCH   1   5
ATOM      5  C   UNL     1     141.804 140.610 130.655  1.00  0.00     0.036 C 
BRANCH   5   6
ATOM      6  C   UNL     1     142.375 139.525 129.723  1.00  0.00     0.136 C 
BRANCH   6   7
ATOM      7  C   UNL     1     143.878 139.635 129.649  1.00  0.00    -0.004 C 
ATOM      8  C   UNL     1     144.588 140.138 130.662  1.00  0.00     0.007 C 
ENDBRANCH   6   7
BRANCH   6   9
ATOM      9  O   UNL     1     142.021 138.256 130.212  1.00  0.00    -0.389 OA
ATOM     10  H   UNL     1     141.030 138.226 130.253  1.00  0.00     0.211 HD
ENDBRANCH   6   9
ENDBRANCH   5   6
ENDBRANCH   1   5
TORSDOF 6
ENDMDL
MODEL 6
REMARK VINA RESULT:    -3.726     14.470     15.273
REMARK INTER + INTRA:          -5.007
REMARK INTER:                  -4.788
REMARK INTRA:                  -0.219
REMARK UNBOUND:                -0.083
REMARK SMILES C=C[C@@H](O)CCCCC
REMARK SMILES IDX 6 1 7 2 8 3 9 4 5 5 3 6 2 7 1 8 4 9
REMARK H PARENT 4 10
REMARK Flexibility Score: inf
ROOT
ATOM      1  C   UNL     1     134.378 139.145 142.858  1.00  0.00     0.003 C 
ENDROOT
BRANCH   1   2
ATOM      2  C   UNL     1     134.750 139.353 144.337  1.00  0.00    -0.000 C 
BRANCH   2   3
ATOM      3  C   UNL     1     135.545 138.172 144.915  1.00  0.00    -0.003 C 
ATOM      4  C   UNL     1     137.002 138.530 145.210  1.00  0.00     0.004 C 
ENDBRANCH   2   3
ENDBRANCH   1   2
BRANCH   1   5
ATOM      5  C   UNL     1     135.054 137.905 142.244  1.00  0.00     0.036 C 
BRANCH   5   6
ATOM      6  C   UNL     1     134.161 137.155 141.238  1.00  0.00     0.136 C 
BRANCH   6   7
ATOM      7  C   UNL     1     133.324 138.134 140.450  1.00  0.00    -0.004 C 
ATOM      8  C   UNL     1     132.193 137.754 139.850  1.00  0.00     0.007 C 
ENDBRANCH   6   7
BRANCH   6   9
ATOM      9  O   UNL     1     134.968 136.414 140.358  1.00  0.00    -0.389 OA
ATOM     10  H   UNL     1     135.729 136.997 140.100  1.00  0.00     0.211 HD
ENDBRANCH   6   9
ENDBRANCH   5   6
ENDBRANCH   1   5
TORSDOF 6
ENDMDL
MODEL 7
REMARK VINA RESULT:    -3.725      8.320      9.468
REMARK INTER + INTRA:          -5.005
REMARK INTER:                  -4.617
REMARK INTRA:                  -0.388
REMARK UNBOUND:                -0.083
REMARK SMILES C=C[C@@H](O)CCCCC
REMARK SMILES IDX 6 1 7 2 8 3 9 4 5 5 3 6 2 7 1 8 4 9
REMARK H PARENT 4 10
REMARK Flexibility Score: inf
ROOT
ATOM      1  C   UNL     1     148.951 145.167 129.136  1.00  0.00     0.003 C 
ENDROOT
BRANCH   1   2
ATOM      2  C   UNL     1     150.119 144.202 128.871  1.00  0.00    -0.000 C 
BRANCH   2   3
ATOM      3  C   UNL     1     149.857 142.795 129.431  1.00  0.00    -0.003 C 
ATOM      4  C   UNL     1     149.341 142.819 130.870  1.00  0.00     0.004 C 
ENDBRANCH   2   3
ENDBRANCH   1   2
BRANCH   1   5
ATOM      5  C   UNL     1     149.315 146.635 128.849  1.00  0.00     0.036 C 
BRANCH   5   6
ATOM      6  C   UNL     1     149.115 147.564 130.061  1.00  0.00     0.136 C 
BRANCH   6   7
ATOM      7  C   UNL     1     149.172 146.771 131.344  1.00  0.00    -0.004 C 
ATOM      8  C   UNL     1     150.125 146.991 132.254  1.00  0.00     0.007 C 
ENDBRANCH   6   7
BRANCH   6   9
ATOM      9  O   UNL     1     150.122 148.544 130.070  1.00  0.00    -0.389 OA
ATOM     10  H   UNL     1     149.705 149.387 130.387  1.00  0.00     0.211 HD
ENDBRANCH   6   9
ENDBRANCH   5   6
ENDBRANCH   1   5
TORSDOF 6
ENDMDL
MODEL 8
REMARK VINA RESULT:    -3.705     14.549     15.246
REMARK INTER + INTRA:          -4.979
REMARK INTER:                  -4.715
REMARK INTRA:                  -0.265
REMARK UNBOUND:                -0.083
REMARK SMILES C=C[C@@H](O)CCCCC
REMARK SMILES IDX 6 1 7 2 8 3 9 4 5 5 3 6 2 7 1 8 4 9
REMARK H PARENT 4 10
REMARK Flexibility Score: inf
ROOT
ATOM      1  C   UNL     1     134.759 139.163 144.349  1.00  0.00     0.003 C 
ENDROOT
BRANCH   1   2
ATOM      2  C   UNL     1     136.255 138.828 144.488  1.00  0.00    -0.000 C 
BRANCH   2   3
ATOM      3  C   UNL     1     136.889 138.408 143.153  1.00  0.00    -0.003 C 
ATOM      4  C   UNL     1     138.307 137.861 143.319  1.00  0.00     0.004 C 
ENDBRANCH   2   3
ENDBRANCH   1   2
BRANCH   1   5
ATOM      5  C   UNL     1     134.342 139.427 142.891  1.00  0.00     0.036 C 
BRANCH   5   6
ATOM      6  C   UNL     1     133.315 138.412 142.355  1.00  0.00     0.136 C 
BRANCH   6   7
ATOM      7  C   UNL     1     133.536 138.172 140.881  1.00  0.00    -0.004 C 
ATOM      8  C   UNL     1     132.543 137.765 140.087  1.00  0.00     0.007 C 
ENDBRANCH   6   7
BRANCH   6   9
ATOM      9  O   UNL     1     133.447 137.200 143.053  1.00  0.00    -0.389 OA
ATOM     10  H   UNL     1     134.381 136.890 142.923  1.00  0.00     0.211 HD
ENDBRANCH   6   9
ENDBRANCH   5   6
ENDBRANCH   1   5
TORSDOF 6
ENDMDL
MODEL 9
REMARK VINA RESULT:    -3.656     11.284     12.756
REMARK INTER + INTRA:          -4.915
REMARK INTER:                  -4.382
REMARK INTRA:                  -0.533
REMARK UNBOUND:                -0.083
REMARK SMILES C=C[C@@H](O)CCCCC
REMARK SMILES IDX 6 1 7 2 8 3 9 4 5 5 3 6 2 7 1 8 4 9
REMARK H PARENT 4 10
REMARK Flexibility Score: inf
ROOT
ATOM      1  C   UNL     1     147.867 141.033 138.862  1.00  0.00     0.003 C 
ENDROOT
BRANCH   1   2
ATOM      2  C   UNL     1     148.928 140.113 138.232  1.00  0.00    -0.000 C 
BRANCH   2   3
ATOM      3  C   UNL     1     150.122 139.867 139.167  1.00  0.00    -0.003 C 
ATOM      4  C   UNL     1     150.013 138.546 139.928  1.00  0.00     0.004 C 
ENDBRANCH   2   3
ENDBRANCH   1   2
BRANCH   1   5
ATOM      5  C   UNL     1     148.483 142.133 139.745  1.00  0.00     0.036 C 
BRANCH   5   6
ATOM      6  C   UNL     1     147.612 142.501 140.961  1.00  0.00     0.136 C 
BRANCH   6   7
ATOM      7  C   UNL     1     147.731 141.442 142.030  1.00  0.00    -0.004 C 
ATOM      8  C   UNL     1     148.914 141.118 142.559  1.00  0.00     0.007 C 
ENDBRANCH   6   7
BRANCH   6   9
ATOM      9  O   UNL     1     148.032 143.738 141.480  1.00  0.00    -0.389 OA
ATOM     10  H   UNL     1     147.245 144.344 141.460  1.00  0.00     0.211 HD
ENDBRANCH   6   9
ENDBRANCH   5   6
ENDBRANCH   1   5
TORSDOF 6
ENDMDL
