MODEL 1
REMARK VINA RESULT:     0.000      0.000      0.000
REMARK INTER + INTRA:          -1.849
REMARK INTER:                   0.000
REMARK INTRA:                  -1.849
REMARK UNBOUND:                -1.849
REMARK SMILES CCCCCCCCCCCC(=O)[O-]
REMARK SMILES IDX 7 1 8 2 9 3 10 4 11 5 12 6 13 7 14 8 6 9 5 10 4 11 3 12 2 13
REMARK SMILES IDX 1 14
REMARK H PARENT
REMARK Flexibility Score: inf
ROOT
ATOM      1  C   UNL     1     186.421 187.960 189.832  1.00  0.00     0.000 C 
ENDROOT
BRANCH   1   2
ATOM      2  C   UNL     1     185.570 189.104 190.396  1.00  0.00     0.000 C 
BRANCH   2   3
ATOM      3  C   UNL     1     184.262 188.571 191.000  1.00  0.00     0.000 C 
BRANCH   3   4
ATOM      4  C   UNL     1     184.281 187.048 191.203  1.00  0.00     0.006 C 
BRANCH   4   5
ATOM      5  C   UNL     1     184.365 186.649 192.682  1.00  0.00     0.053 C 
BRANCH   5   6
ATOM      6  C   UNL     1     185.397 185.584 192.878  1.00  0.00     0.041 C 
ATOM      7  O   UNL     1     185.998 185.094 191.886  1.00  0.00    -0.550 OA
ATOM      8  O   UNL     1     185.729 185.165 194.160  1.00  0.00    -0.550 OA
ENDBRANCH   5   6
ENDBRANCH   4   5
ENDBRANCH   3   4
ENDBRANCH   2   3
ENDBRANCH   1   2
BRANCH   1   9
ATOM      9  C   UNL     1     187.815 187.941 190.475  1.00  0.00     0.000 C 
BRANCH   9  10
ATOM     10  C   UNL     1     187.911 188.846 191.714  1.00  0.00    -0.000 C 
BRANCH  10  11
ATOM     11  C   UNL     1     188.110 188.047 193.014  1.00  0.00    -0.000 C 
BRANCH  11  12
ATOM     12  C   UNL     1     187.230 188.563 194.164  1.00  0.00    -0.000 C 
BRANCH  12  13
ATOM     13  C   UNL     1     186.580 189.920 193.850  1.00  0.00    -0.003 C 
ATOM     14  C   UNL     1     185.133 189.960 194.334  1.00  0.00     0.004 C 
ENDBRANCH  12  13
ENDBRANCH  11  12
ENDBRANCH  10  11
ENDBRANCH   9  10
ENDBRANCH   1   9
TORSDOF 10
ENDMDL
MODEL 2
REMARK VINA RESULT:     0.001      8.224     10.142
REMARK INTER + INTRA:          -1.847
REMARK INTER:                   0.000
REMARK INTRA:                  -1.847
REMARK UNBOUND:                -1.849
REMARK SMILES CCCCCCCCCCCC(=O)[O-]
REMARK SMILES IDX 7 1 8 2 9 3 10 4 11 5 12 6 13 7 14 8 6 9 5 10 4 11 3 12 2 13
REMARK SMILES IDX 1 14
REMARK H PARENT
REMARK Flexibility Score: inf
ROOT
ATOM      1  C   UNL     1     175.773 183.149 187.949  1.00  0.00     0.000 C 
ENDROOT
BRANCH   1   2
ATOM      2  C   UNL     1     176.129 184.327 187.035  1.00  0.00     0.000 C 
BRANCH   2   3
ATOM      3  C   UNL     1     175.876 185.668 187.742  1.00  0.00     0.000 C 
BRANCH   3   4
ATOM      4  C   UNL     1     175.726 185.515 189.264  1.00  0.00     0.006 C 
BRANCH   4   5
ATOM      5  C   UNL     1     176.938 186.053 190.036  1.00  0.00     0.053 C 
BRANCH   5   6
ATOM      6  C   UNL     1     177.348 185.088 191.102  1.00  0.00     0.041 C 
ATOM      7  O   UNL     1     176.715 184.011 191.261  1.00  0.00    -0.550 OA
ATOM      8  O   UNL     1     178.461 185.354 191.890  1.00  0.00    -0.550 OA
ENDBRANCH   5   6
ENDBRANCH   4   5
ENDBRANCH   3   4
ENDBRANCH   2   3
ENDBRANCH   1   2
BRANCH   1   9
ATOM      9  C   UNL     1     176.971 182.203 188.120  1.00  0.00     0.000 C 
BRANCH   9  10
ATOM     10  C   UNL     1     178.284 182.805 187.595  1.00  0.00    -0.000 C 
BRANCH  10  11
ATOM     11  C   UNL     1     179.293 183.093 188.720  1.00  0.00    -0.000 C 
BRANCH  11  12
ATOM     12  C   UNL     1     179.992 184.451 188.553  1.00  0.00    -0.000 C 
BRANCH  12  13
ATOM     13  C   UNL     1     179.747 185.077 187.172  1.00  0.00    -0.003 C 
ATOM     14  C   UNL     1     179.461 186.573 187.290  1.00  0.00     0.004 C 
ENDBRANCH  12  13
ENDBRANCH  11  12
ENDBRANCH  10  11
ENDBRANCH   9  10
ENDBRANCH   1   9
TORSDOF 10
ENDMDL
MODEL 3
REMARK VINA RESULT:     0.001      6.823      8.582
REMARK INTER + INTRA:          -1.847
REMARK INTER:                   0.000
REMARK INTRA:                  -1.847
REMARK UNBOUND:                -1.849
REMARK SMILES CCCCCCCCCCCC(=O)[O-]
REMARK SMILES IDX 7 1 8 2 9 3 10 4 11 5 12 6 13 7 14 8 6 9 5 10 4 11 3 12 2 13
REMARK SMILES IDX 1 14
REMARK H PARENT
REMARK Flexibility Score: inf
ROOT
ATOM      1  C   UNL     1     180.814 187.434 186.573  1.00  0.00     0.000 C 
ENDROOT
BRANCH   1   2
ATOM      2  C   UNL     1     179.462 187.615 187.273  1.00  0.00     0.000 C 
BRANCH   2   3
ATOM      3  C   UNL     1     179.538 188.720 188.338  1.00  0.00     0.000 C 
BRANCH   3   4
ATOM      4  C   UNL     1     178.539 189.860 188.081  1.00  0.00     0.006 C 
BRANCH   4   5
ATOM      5  C   UNL     1     179.226 191.159 187.639  1.00  0.00     0.053 C 
BRANCH   5   6
ATOM      6  C   UNL     1     179.129 191.322 186.156  1.00  0.00     0.041 C 
ATOM      7  O   UNL     1     179.902 192.112 185.553  1.00  0.00    -0.550 OA
ATOM      8  O   UNL     1     178.216 190.567 185.431  1.00  0.00    -0.550 OA
ENDBRANCH   5   6
ENDBRANCH   4   5
ENDBRANCH   3   4
ENDBRANCH   2   3
ENDBRANCH   1   2
BRANCH   1   9
ATOM      9  C   UNL     1     180.821 188.128 185.202  1.00  0.00     0.000 C 
BRANCH   9  10
ATOM     10  C   UNL     1     181.931 189.183 185.075  1.00  0.00    -0.000 C 
BRANCH  10  11
ATOM     11  C   UNL     1     182.841 189.236 186.315  1.00  0.00    -0.000 C 
BRANCH  11  12
ATOM     12  C   UNL     1     182.830 190.612 186.997  1.00  0.00    -0.000 C 
BRANCH  12  13
ATOM     13  C   UNL     1     182.817 190.514 188.530  1.00  0.00    -0.003 C 
ATOM     14  C   UNL     1     183.182 189.105 188.993  1.00  0.00     0.004 C 
ENDBRANCH  12  13
ENDBRANCH  11  12
ENDBRANCH  10  11
ENDBRANCH   9  10
ENDBRANCH   1   9
TORSDOF 10
ENDMDL
MODEL 4
REMARK VINA RESULT:     0.001      7.443      9.214
REMARK INTER + INTRA:          -1.847
REMARK INTER:                   0.000
REMARK INTRA:                  -1.847
REMARK UNBOUND:                -1.849
REMARK SMILES CCCCCCCCCCCC(=O)[O-]
REMARK SMILES IDX 7 1 8 2 9 3 10 4 11 5 12 6 13 7 14 8 6 9 5 10 4 11 3 12 2 13
REMARK SMILES IDX 1 14
REMARK H PARENT
REMARK Flexibility Score: inf
ROOT
ATOM      1  C   UNL     1     184.220 184.580 186.635  1.00  0.00     0.000 C 
ENDROOT
BRANCH   1   2
ATOM      2  C   UNL     1     183.789 184.858 185.190  1.00  0.00     0.000 C 
BRANCH   2   3
ATOM      3  C   UNL     1     183.941 183.602 184.319  1.00  0.00     0.000 C 
BRANCH   3   4
ATOM      4  C   UNL     1     182.613 183.157 183.684  1.00  0.00     0.006 C 
BRANCH   4   5
ATOM      5  C   UNL     1     182.076 181.854 184.288  1.00  0.00     0.053 C 
BRANCH   5   6
ATOM      6  C   UNL     1     180.995 182.144 185.280  1.00  0.00     0.041 C 
ATOM      7  O   UNL     1     180.663 181.276 186.128  1.00  0.00    -0.550 OA
ATOM      8  O   UNL     1     180.385 183.393 185.298  1.00  0.00    -0.550 OA
ENDBRANCH   5   6
ENDBRANCH   4   5
ENDBRANCH   3   4
ENDBRANCH   2   3
ENDBRANCH   1   2
BRANCH   1   9
ATOM      9  C   UNL     1     183.001 184.348 187.539  1.00  0.00     0.000 C 
BRANCH   9  10
ATOM     10  C   UNL     1     183.028 182.978 188.236  1.00  0.00    -0.000 C 
BRANCH  10  11
ATOM     11  C   UNL     1     184.319 182.193 187.945  1.00  0.00    -0.000 C 
BRANCH  11  12
ATOM     12  C   UNL     1     184.047 180.846 187.256  1.00  0.00    -0.000 C 
BRANCH  12  13
ATOM     13  C   UNL     1     185.061 180.534 186.145  1.00  0.00    -0.003 C 
ATOM     14  C   UNL     1     186.283 181.443 186.245  1.00  0.00     0.004 C 
ENDBRANCH  12  13
ENDBRANCH  11  12
ENDBRANCH  10  11
ENDBRANCH   9  10
ENDBRANCH   1   9
TORSDOF 10
ENDMDL
MODEL 5
REMARK VINA RESULT:     0.002     12.829     14.935
REMARK INTER + INTRA:          -1.846
REMARK INTER:                   0.000
REMARK INTRA:                  -1.846
REMARK UNBOUND:                -1.849
REMARK SMILES CCCCCCCCCCCC(=O)[O-]
REMARK SMILES IDX 7 1 8 2 9 3 10 4 11 5 12 6 13 7 14 8 6 9 5 10 4 11 3 12 2 13
REMARK SMILES IDX 1 14
REMARK H PARENT
REMARK Flexibility Score: inf
ROOT
ATOM      1  C   UNL     1     171.085 182.141 197.150  1.00  0.00     0.000 C 
ENDROOT
BRANCH   1   2
ATOM      2  C   UNL     1     171.063 183.603 196.688  1.00  0.00     0.000 C 
BRANCH   2   3
ATOM      3  C   UNL     1     172.312 184.354 197.175  1.00  0.00     0.000 C 
BRANCH   3   4
ATOM      4  C   UNL     1     173.143 184.933 196.019  1.00  0.00     0.006 C 
BRANCH   4   5
ATOM      5  C   UNL     1     174.480 184.206 195.828  1.00  0.00     0.053 C 
BRANCH   5   6
ATOM      6  C   UNL     1     174.391 183.239 194.691  1.00  0.00     0.041 C 
ATOM      7  O   UNL     1     175.233 182.310 194.582  1.00  0.00    -0.550 OA
ATOM      8  O   UNL     1     173.349 183.334 193.777  1.00  0.00    -0.550 OA
ENDBRANCH   5   6
ENDBRANCH   4   5
ENDBRANCH   3   4
ENDBRANCH   2   3
ENDBRANCH   1   2
BRANCH   1   9
ATOM      9  C   UNL     1     171.541 181.212 196.016  1.00  0.00     0.000 C 
BRANCH   9  10
ATOM     10  C   UNL     1     172.786 180.389 196.385  1.00  0.00    -0.000 C 
BRANCH  10  11
ATOM     11  C   UNL     1     173.232 180.612 197.840  1.00  0.00    -0.000 C 
BRANCH  11  12
ATOM     12  C   UNL     1     174.661 181.168 197.940  1.00  0.00    -0.000 C 
BRANCH  12  13
ATOM     13  C   UNL     1     174.800 182.254 199.018  1.00  0.00    -0.003 C 
ATOM     14  C   UNL     1     173.599 182.248 199.961  1.00  0.00     0.004 C 
ENDBRANCH  12  13
ENDBRANCH  11  12
ENDBRANCH  10  11
ENDBRANCH   9  10
ENDBRANCH   1   9
TORSDOF 10
ENDMDL
MODEL 6
REMARK VINA RESULT:     0.002     11.142     13.159
REMARK INTER + INTRA:          -1.846
REMARK INTER:                   0.000
REMARK INTRA:                  -1.846
REMARK UNBOUND:                -1.849
REMARK SMILES CCCCCCCCCCCC(=O)[O-]
REMARK SMILES IDX 7 1 8 2 9 3 10 4 11 5 12 6 13 7 14 8 6 9 5 10 4 11 3 12 2 13
REMARK SMILES IDX 1 14
REMARK H PARENT
REMARK Flexibility Score: inf
ROOT
ATOM      1  C   UNL     1     177.240 194.839 196.232  1.00  0.00     0.000 C 
ENDROOT
BRANCH   1   2
ATOM      2  C   UNL     1     177.610 195.505 197.562  1.00  0.00     0.000 C 
BRANCH   2   3
ATOM      3  C   UNL     1     176.409 195.526 198.520  1.00  0.00     0.000 C 
BRANCH   3   4
ATOM      4  C   UNL     1     176.698 194.806 199.847  1.00  0.00     0.006 C 
BRANCH   4   5
ATOM      5  C   UNL     1     175.946 193.475 199.974  1.00  0.00     0.053 C 
BRANCH   5   6
ATOM      6  C   UNL     1     176.850 192.331 199.643  1.00  0.00     0.041 C 
ATOM      7  O   UNL     1     176.368 191.205 199.351  1.00  0.00    -0.550 OA
ATOM      8  O   UNL     1     178.226 192.520 199.608  1.00  0.00    -0.550 OA
ENDBRANCH   5   6
ENDBRANCH   4   5
ENDBRANCH   3   4
ENDBRANCH   2   3
ENDBRANCH   1   2
BRANCH   1   9
ATOM      9  C   UNL     1     177.763 193.396 196.174  1.00  0.00     0.000 C 
BRANCH   9  10
ATOM     10  C   UNL     1     176.644 192.365 195.959  1.00  0.00    -0.000 C 
BRANCH  10  11
ATOM     11  C   UNL     1     175.269 193.021 195.746  1.00  0.00    -0.000 C 
BRANCH  11  12
ATOM     12  C   UNL     1     174.243 192.602 196.810  1.00  0.00    -0.000 C 
BRANCH  12  13
ATOM     13  C   UNL     1     173.355 193.768 197.269  1.00  0.00    -0.003 C 
ATOM     14  C   UNL     1     173.469 194.954 196.313  1.00  0.00     0.004 C 
ENDBRANCH  12  13
ENDBRANCH  11  12
ENDBRANCH  10  11
ENDBRANCH   9  10
ENDBRANCH   1   9
TORSDOF 10
ENDMDL
MODEL 7
REMARK VINA RESULT:     0.002      8.053     10.142
REMARK INTER + INTRA:          -1.846
REMARK INTER:                   0.000
REMARK INTRA:                  -1.846
REMARK UNBOUND:                -1.849
REMARK SMILES CCCCCCCCCCCC(=O)[O-]
REMARK SMILES IDX 7 1 8 2 9 3 10 4 11 5 12 6 13 7 14 8 6 9 5 10 4 11 3 12 2 13
REMARK SMILES IDX 1 14
REMARK H PARENT
REMARK Flexibility Score: inf
ROOT
ATOM      1  C   UNL     1     176.452 184.258 191.154  1.00  0.00     0.000 C 
ENDROOT
BRANCH   1   2
ATOM      2  C   UNL     1     177.255 183.159 190.448  1.00  0.00     0.000 C 
BRANCH   2   3
ATOM      3  C   UNL     1     178.592 183.706 189.923  1.00  0.00     0.000 C 
BRANCH   3   4
ATOM      4  C   UNL     1     178.735 183.554 188.400  1.00  0.00     0.006 C 
BRANCH   4   5
ATOM      5  C   UNL     1     178.668 184.898 187.663  1.00  0.00     0.053 C 
BRANCH   5   6
ATOM      6  C   UNL     1     177.314 185.096 187.060  1.00  0.00     0.041 C 
ATOM      7  O   UNL     1     176.531 184.119 186.926  1.00  0.00    -0.550 OA
ATOM      8  O   UNL     1     176.896 186.368 186.689  1.00  0.00    -0.550 OA
ENDBRANCH   5   6
ENDBRANCH   4   5
ENDBRANCH   3   4
ENDBRANCH   2   3
ENDBRANCH   1   2
BRANCH   1   9
ATOM      9  C   UNL     1     175.356 184.816 190.234  1.00  0.00     0.000 C 
BRANCH   9  10
ATOM     10  C   UNL     1     175.484 186.331 190.006  1.00  0.00    -0.000 C 
BRANCH  10  11
ATOM     11  C   UNL     1     176.618 186.958 190.834  1.00  0.00    -0.000 C 
BRANCH  11  12
ATOM     12  C   UNL     1     177.684 187.635 189.957  1.00  0.00    -0.000 C 
BRANCH  12  13
ATOM     13  C   UNL     1     179.114 187.372 190.453  1.00  0.00    -0.003 C 
ATOM     14  C   UNL     1     179.109 186.833 191.881  1.00  0.00     0.004 C 
ENDBRANCH  12  13
ENDBRANCH  11  12
ENDBRANCH  10  11
ENDBRANCH   9  10
ENDBRANCH   1   9
TORSDOF 10
ENDMDL
MODEL 8
REMARK VINA RESULT:     0.002      4.037      6.439
REMARK INTER + INTRA:          -1.846
REMARK INTER:                   0.000
REMARK INTRA:                  -1.846
REMARK UNBOUND:                -1.849
REMARK SMILES CCCCCCCCCCCC(=O)[O-]
REMARK SMILES IDX 7 1 8 2 9 3 10 4 11 5 12 6 13 7 14 8 6 9 5 10 4 11 3 12 2 13
REMARK SMILES IDX 1 14
REMARK H PARENT
REMARK Flexibility Score: inf
ROOT
ATOM      1  C   UNL     1     186.425 182.914 189.297  1.00  0.00     0.000 C 
ENDROOT
BRANCH   1   2
ATOM      2  C   UNL     1     187.721 182.288 189.824  1.00  0.00     0.000 C 
BRANCH   2   3
ATOM      3  C   UNL     1     188.943 182.835 189.071  1.00  0.00     0.000 C 
BRANCH   3   4
ATOM      4  C   UNL     1     189.949 183.531 190.002  1.00  0.00     0.006 C 
BRANCH   4   5
ATOM      5  C   UNL     1     189.989 185.051 189.800  1.00  0.00     0.053 C 
BRANCH   5   6
ATOM      6  C   UNL     1     189.203 185.740 190.869  1.00  0.00     0.041 C 
ATOM      7  O   UNL     1     188.819 186.928 190.708  1.00  0.00    -0.550 OA
ATOM      8  O   UNL     1     188.853 185.055 192.026  1.00  0.00    -0.550 OA
ENDBRANCH   5   6
ENDBRANCH   4   5
ENDBRANCH   3   4
ENDBRANCH   2   3
ENDBRANCH   1   2
BRANCH   1   9
ATOM      9  C   UNL     1     185.938 184.037 190.225  1.00  0.00     0.000 C 
BRANCH   9  10
ATOM     10  C   UNL     1     185.799 185.387 189.505  1.00  0.00    -0.000 C 
BRANCH  10  11
ATOM     11  C   UNL     1     186.087 185.284 187.997  1.00  0.00    -0.000 C 
BRANCH  11  12
ATOM     12  C   UNL     1     187.262 186.173 187.559  1.00  0.00    -0.000 C 
BRANCH  12  13
ATOM     13  C   UNL     1     188.180 185.481 186.540  1.00  0.00    -0.003 C 
ATOM     14  C   UNL     1     187.505 184.250 185.940  1.00  0.00     0.004 C 
ENDBRANCH  12  13
ENDBRANCH  11  12
ENDBRANCH  10  11
ENDBRANCH   9  10
ENDBRANCH   1   9
TORSDOF 10
ENDMDL
MODEL 9
REMARK VINA RESULT:     0.002      4.209      5.903
REMARK INTER + INTRA:          -1.846
REMARK INTER:                   0.000
REMARK INTRA:                  -1.846
REMARK UNBOUND:                -1.849
REMARK SMILES CCCCCCCCCCCC(=O)[O-]
REMARK SMILES IDX 7 1 8 2 9 3 10 4 11 5 12 6 13 7 14 8 6 9 5 10 4 11 3 12 2 13
REMARK SMILES IDX 1 14
REMARK H PARENT
REMARK Flexibility Score: inf
ROOT
ATOM      1  C   UNL     1     182.854 192.097 191.132  1.00  0.00     0.000 C 
ENDROOT
BRANCH   1   2
ATOM      2  C   UNL     1     184.198 191.556 190.632  1.00  0.00     0.000 C 
BRANCH   2   3
ATOM      3  C   UNL     1     184.386 190.087 191.039  1.00  0.00     0.000 C 
BRANCH   3   4
ATOM      4  C   UNL     1     184.586 189.159 189.831  1.00  0.00     0.006 C 
BRANCH   4   5
ATOM      5  C   UNL     1     183.379 188.246 189.579  1.00  0.00     0.053 C 
BRANCH   5   6
ATOM      6  C   UNL     1     182.535 188.792 188.472  1.00  0.00     0.041 C 
ATOM      7  O   UNL     1     181.344 188.405 188.333  1.00  0.00    -0.550 OA
ATOM      8  O   UNL     1     183.046 189.763 187.621  1.00  0.00    -0.550 OA
ENDBRANCH   5   6
ENDBRANCH   4   5
ENDBRANCH   3   4
ENDBRANCH   2   3
ENDBRANCH   1   2
BRANCH   1   9
ATOM      9  C   UNL     1     181.816 192.129 190.000  1.00  0.00     0.000 C 
BRANCH   9  10
ATOM     10  C   UNL     1     180.562 191.299 190.318  1.00  0.00    -0.000 C 
BRANCH  10  11
ATOM     11  C   UNL     1     180.588 190.711 191.740  1.00  0.00    -0.000 C 
BRANCH  11  12
ATOM     12  C   UNL     1     180.522 189.176 191.745  1.00  0.00    -0.000 C 
BRANCH  12  13
ATOM     13  C   UNL     1     181.457 188.545 192.788  1.00  0.00    -0.003 C 
ATOM     14  C   UNL     1     181.937 189.587 193.796  1.00  0.00     0.004 C 
ENDBRANCH  12  13
ENDBRANCH  11  12
ENDBRANCH  10  11
ENDBRANCH   9  10
ENDBRANCH   1   9
TORSDOF 10
ENDMDL
