MODEL 1
REMARK VINA RESULT:    -1.578      0.000      0.000
REMARK INTER + INTRA:          -3.820
REMARK INTER:                  -2.408
REMARK INTRA:                  -1.411
REMARK UNBOUND:                -1.411
REMARK SMILES CCCCCCCCCCC(=O)[O-]
REMARK SMILES IDX 7 1 8 2 9 3 10 4 11 5 12 6 13 7 6 8 5 9 4 10 3 11 2 12 1 13
REMARK H PARENT
REMARK Flexibility Score: inf
ROOT
ATOM      1  C   UNL     1      24.280  28.271  11.876  1.00  0.00     0.000 C 
ENDROOT
BRANCH   1   2
ATOM      2  C   UNL     1      22.772  28.064  12.094  1.00  0.00     0.000 C 
BRANCH   2   3
ATOM      3  C   UNL     1      22.401  26.588  12.300  1.00  0.00     0.006 C 
BRANCH   3   4
ATOM      4  C   UNL     1      22.431  26.218  13.787  1.00  0.00     0.053 C 
BRANCH   4   5
ATOM      5  C   UNL     1      23.663  25.431  14.107  1.00  0.00     0.041 C 
ATOM      6  O   UNL     1      24.535  25.908  14.879  1.00  0.00    -0.550 OA
ATOM      7  O   UNL     1      23.870  24.193  13.513  1.00  0.00    -0.550 OA
ENDBRANCH   4   5
ENDBRANCH   3   4
ENDBRANCH   2   3
ENDBRANCH   1   2
BRANCH   1   8
ATOM      8  C   UNL     1      24.948  29.024  13.035  1.00  0.00     0.000 C 
BRANCH   8   9
ATOM      9  C   UNL     1      23.906  29.777  13.872  1.00  0.00    -0.000 C 
BRANCH   9  10
ATOM     10  C   UNL     1      23.983  29.368  15.348  1.00  0.00    -0.000 C 
BRANCH  10  11
ATOM     11  C   UNL     1      22.582  29.113  15.921  1.00  0.00    -0.000 C 
BRANCH  11  12
ATOM     12  C   UNL     1      21.501  29.966  15.239  1.00  0.00    -0.003 C 
ATOM     13  C   UNL     1      20.306  29.140  14.767  1.00  0.00     0.004 C 
ENDBRANCH  11  12
ENDBRANCH  10  11
ENDBRANCH   9  10
ENDBRANCH   8   9
ENDBRANCH   1   8
TORSDOF 9
ENDMDL
MODEL 2
REMARK VINA RESULT:    -1.566      1.249      2.887
REMARK INTER + INTRA:          -3.801
REMARK INTER:                  -2.527
REMARK INTRA:                  -1.274
REMARK UNBOUND:                -1.411
REMARK SMILES CCCCCCCCCCC(=O)[O-]
REMARK SMILES IDX 7 1 8 2 9 3 10 4 11 5 12 6 13 7 6 8 5 9 4 10 3 11 2 12 1 13
REMARK H PARENT
REMARK Flexibility Score: inf
ROOT
ATOM      1  C   UNL     1      23.876  29.726  13.878  1.00  0.00     0.000 C 
ENDROOT
BRANCH   1   2
ATOM      2  C   UNL     1      24.220  29.366  15.333  1.00  0.00     0.000 C 
BRANCH   2   3
ATOM      3  C   UNL     1      25.014  28.057  15.446  1.00  0.00     0.006 C 
BRANCH   3   4
ATOM      4  C   UNL     1      24.076  26.863  15.651  1.00  0.00     0.053 C 
BRANCH   4   5
ATOM      5  C   UNL     1      24.770  25.584  15.303  1.00  0.00     0.041 C 
ATOM      6  O   UNL     1      25.880  25.304  15.825  1.00  0.00    -0.550 OA
ATOM      7  O   UNL     1      24.214  24.725  14.364  1.00  0.00    -0.550 OA
ENDBRANCH   4   5
ENDBRANCH   3   4
ENDBRANCH   2   3
ENDBRANCH   1   2
BRANCH   1   8
ATOM      8  C   UNL     1      24.906  29.185  12.875  1.00  0.00     0.000 C 
BRANCH   8   9
ATOM      9  C   UNL     1      24.246  28.228  11.875  1.00  0.00    -0.000 C 
BRANCH   9  10
ATOM     10  C   UNL     1      22.721  28.222  12.041  1.00  0.00    -0.000 C 
BRANCH  10  11
ATOM     11  C   UNL     1      22.201  26.798  12.283  1.00  0.00    -0.000 C 
BRANCH  11  12
ATOM     12  C   UNL     1      21.139  26.738  13.393  1.00  0.00    -0.003 C 
ATOM     13  C   UNL     1      20.496  28.097  13.669  1.00  0.00     0.004 C 
ENDBRANCH  11  12
ENDBRANCH  10  11
ENDBRANCH   9  10
ENDBRANCH   8   9
ENDBRANCH   1   8
TORSDOF 9
ENDMDL
MODEL 3
REMARK VINA RESULT:    -1.564      1.629      2.842
REMARK INTER + INTRA:          -3.798
REMARK INTER:                  -2.450
REMARK INTRA:                  -1.348
REMARK UNBOUND:                -1.411
REMARK SMILES CCCCCCCCCCC(=O)[O-]
REMARK SMILES IDX 7 1 8 2 9 3 10 4 11 5 12 6 13 7 6 8 5 9 4 10 3 11 2 12 1 13
REMARK H PARENT
REMARK Flexibility Score: inf
ROOT
ATOM      1  C   UNL     1      22.177  26.835  12.720  1.00  0.00     0.000 C 
ENDROOT
BRANCH   1   2
ATOM      2  C   UNL     1      21.801  26.533  14.180  1.00  0.00     0.000 C 
BRANCH   2   3
ATOM      3  C   UNL     1      22.645  25.402  14.786  1.00  0.00     0.006 C 
BRANCH   3   4
ATOM      4  C   UNL     1      23.599  24.811  13.743  1.00  0.00     0.053 C 
BRANCH   4   5
ATOM      5  C   UNL     1      24.523  23.821  14.378  1.00  0.00     0.041 C 
ATOM      6  O   UNL     1      24.842  23.939  15.590  1.00  0.00    -0.550 OA
ATOM      7  O   UNL     1      25.072  22.796  13.618  1.00  0.00    -0.550 OA
ENDBRANCH   4   5
ENDBRANCH   3   4
ENDBRANCH   2   3
ENDBRANCH   1   2
BRANCH   1   8
ATOM      8  C   UNL     1      22.647  28.283  12.518  1.00  0.00     0.000 C 
BRANCH   8   9
ATOM      9  C   UNL     1      24.093  28.324  12.010  1.00  0.00    -0.000 C 
BRANCH   9  10
ATOM     10  C   UNL     1      25.055  28.769  13.119  1.00  0.00    -0.000 C 
BRANCH  10  11
ATOM     11  C   UNL     1      24.282  29.295  14.338  1.00  0.00    -0.000 C 
BRANCH  11  12
ATOM     12  C   UNL     1      24.650  28.555  15.634  1.00  0.00    -0.003 C 
ATOM     13  C   UNL     1      25.683  27.451  15.412  1.00  0.00     0.004 C 
ENDBRANCH  11  12
ENDBRANCH  10  11
ENDBRANCH   9  10
ENDBRANCH   8   9
ENDBRANCH   1   8
TORSDOF 9
ENDMDL
MODEL 4
REMARK VINA RESULT:    -1.544      2.041      3.427
REMARK INTER + INTRA:          -3.767
REMARK INTER:                  -2.476
REMARK INTRA:                  -1.292
REMARK UNBOUND:                -1.411
REMARK SMILES CCCCCCCCCCC(=O)[O-]
REMARK SMILES IDX 7 1 8 2 9 3 10 4 11 5 12 6 13 7 6 8 5 9 4 10 3 11 2 12 1 13
REMARK H PARENT
REMARK Flexibility Score: inf
ROOT
ATOM      1  C   UNL     1      24.574  28.845  15.033  1.00  0.00     0.000 C 
ENDROOT
BRANCH   1   2
ATOM      2  C   UNL     1      24.415  27.533  15.818  1.00  0.00     0.000 C 
BRANCH   2   3
ATOM      3  C   UNL     1      25.464  26.480  15.430  1.00  0.00     0.006 C 
BRANCH   3   4
ATOM      4  C   UNL     1      24.834  25.086  15.339  1.00  0.00     0.053 C 
BRANCH   4   5
ATOM      5  C   UNL     1      25.615  24.103  16.152  1.00  0.00     0.041 C 
ATOM      6  O   UNL     1      26.125  24.452  17.249  1.00  0.00    -0.550 OA
ATOM      7  O   UNL     1      25.821  22.815  15.675  1.00  0.00    -0.550 OA
ENDBRANCH   4   5
ENDBRANCH   3   4
ENDBRANCH   2   3
ENDBRANCH   1   2
BRANCH   1   8
ATOM      8  C   UNL     1      25.142  28.625  13.622  1.00  0.00     0.000 C 
BRANCH   8   9
ATOM      9  C   UNL     1      24.336  29.408  12.579  1.00  0.00    -0.000 C 
BRANCH   9  10
ATOM     10  C   UNL     1      23.125  28.600  12.097  1.00  0.00    -0.000 C 
BRANCH  10  11
ATOM     11  C   UNL     1      23.499  27.127  11.879  1.00  0.00    -0.000 C 
BRANCH  11  12
ATOM     12  C   UNL     1      22.529  26.162  12.578  1.00  0.00    -0.003 C 
ATOM     13  C   UNL     1      21.569  26.876  13.529  1.00  0.00     0.004 C 
ENDBRANCH  11  12
ENDBRANCH  10  11
ENDBRANCH   9  10
ENDBRANCH   8   9
ENDBRANCH   1   8
TORSDOF 9
ENDMDL
MODEL 5
REMARK VINA RESULT:    -1.536      1.775      3.563
REMARK INTER + INTRA:          -3.755
REMARK INTER:                  -2.401
REMARK INTRA:                  -1.354
REMARK UNBOUND:                -1.411
REMARK SMILES CCCCCCCCCCC(=O)[O-]
REMARK SMILES IDX 7 1 8 2 9 3 10 4 11 5 12 6 13 7 6 8 5 9 4 10 3 11 2 12 1 13
REMARK H PARENT
REMARK Flexibility Score: inf
ROOT
ATOM      1  C   UNL     1      23.444  27.276  16.393  1.00  0.00     0.000 C 
ENDROOT
BRANCH   1   2
ATOM      2  C   UNL     1      24.948  27.085  16.649  1.00  0.00     0.000 C 
BRANCH   2   3
ATOM      3  C   UNL     1      25.626  26.220  15.576  1.00  0.00     0.006 C 
BRANCH   3   4
ATOM      4  C   UNL     1      24.626  25.243  14.948  1.00  0.00     0.053 C 
BRANCH   4   5
ATOM      5  C   UNL     1      25.111  23.835  15.086  1.00  0.00     0.041 C 
ATOM      6  O   UNL     1      25.333  23.139  14.060  1.00  0.00    -0.550 OA
ATOM      7  O   UNL     1      25.270  23.275  16.347  1.00  0.00    -0.550 OA
ENDBRANCH   4   5
ENDBRANCH   3   4
ENDBRANCH   2   3
ENDBRANCH   1   2
BRANCH   1   8
ATOM      8  C   UNL     1      23.034  28.756  16.344  1.00  0.00     0.000 C 
BRANCH   8   9
ATOM      9  C   UNL     1      24.101  29.596  15.633  1.00  0.00    -0.000 C 
BRANCH   9  10
ATOM     10  C   UNL     1      23.765  29.771  14.146  1.00  0.00    -0.000 C 
BRANCH  10  11
ATOM     11  C   UNL     1      24.783  29.036  13.263  1.00  0.00    -0.000 C 
BRANCH  11  12
ATOM     12  C   UNL     1      24.120  28.032  12.307  1.00  0.00    -0.003 C 
ATOM     13  C   UNL     1      22.707  27.645  12.745  1.00  0.00     0.004 C 
ENDBRANCH  11  12
ENDBRANCH  10  11
ENDBRANCH   9  10
ENDBRANCH   8   9
ENDBRANCH   1   8
TORSDOF 9
ENDMDL
MODEL 6
REMARK VINA RESULT:    -1.511      2.688      5.392
REMARK INTER + INTRA:          -3.717
REMARK INTER:                  -2.768
REMARK INTRA:                  -0.949
REMARK UNBOUND:                -1.411
REMARK SMILES CCCCCCCCCCC(=O)[O-]
REMARK SMILES IDX 7 1 8 2 9 3 10 4 11 5 12 6 13 7 6 8 5 9 4 10 3 11 2 12 1 13
REMARK H PARENT
REMARK Flexibility Score: inf
ROOT
ATOM      1  C   UNL     1      23.575  24.846  13.817  1.00  0.00     0.000 C 
ENDROOT
BRANCH   1   2
ATOM      2  C   UNL     1      23.422  26.074  12.905  1.00  0.00     0.000 C 
BRANCH   2   3
ATOM      3  C   UNL     1      22.623  27.207  13.567  1.00  0.00     0.006 C 
BRANCH   3   4
ATOM      4  C   UNL     1      23.172  28.577  13.156  1.00  0.00     0.053 C 
BRANCH   4   5
ATOM      5  C   UNL     1      24.563  28.762  13.673  1.00  0.00     0.041 C 
ATOM      6  O   UNL     1      25.521  28.920  12.872  1.00  0.00    -0.550 OA
ATOM      7  O   UNL     1      24.809  28.710  15.039  1.00  0.00    -0.550 OA
ENDBRANCH   4   5
ENDBRANCH   3   4
ENDBRANCH   2   3
ENDBRANCH   1   2
BRANCH   1   8
ATOM      8  C   UNL     1      23.529  25.207  15.309  1.00  0.00     0.000 C 
BRANCH   8   9
ATOM      9  C   UNL     1      24.943  25.296  15.896  1.00  0.00    -0.000 C 
BRANCH   9  10
ATOM     10  C   UNL     1      25.873  24.261  15.250  1.00  0.00    -0.000 C 
BRANCH  10  11
ATOM     11  C   UNL     1      25.880  22.952  16.053  1.00  0.00    -0.000 C 
BRANCH  11  12
ATOM     12  C   UNL     1      25.984  21.709  15.155  1.00  0.00    -0.003 C 
ATOM     13  C   UNL     1      26.088  22.060  13.671  1.00  0.00     0.004 C 
ENDBRANCH  11  12
ENDBRANCH  10  11
ENDBRANCH   9  10
ENDBRANCH   8   9
ENDBRANCH   1   8
TORSDOF 9
ENDMDL
MODEL 7
REMARK VINA RESULT:    -1.481      1.370      2.940
REMARK INTER + INTRA:          -3.672
REMARK INTER:                  -2.462
REMARK INTRA:                  -1.210
REMARK UNBOUND:                -1.411
REMARK SMILES CCCCCCCCCCC(=O)[O-]
REMARK SMILES IDX 7 1 8 2 9 3 10 4 11 5 12 6 13 7 6 8 5 9 4 10 3 11 2 12 1 13
REMARK H PARENT
REMARK Flexibility Score: inf
ROOT
ATOM      1  C   UNL     1      21.582  26.824  14.621  1.00  0.00     0.000 C 
ENDROOT
BRANCH   1   2
ATOM      2  C   UNL     1      22.110  26.104  13.369  1.00  0.00     0.000 C 
BRANCH   2   3
ATOM      3  C   UNL     1      23.502  25.491  13.582  1.00  0.00     0.006 C 
BRANCH   3   4
ATOM      4  C   UNL     1      23.855  25.437  15.072  1.00  0.00     0.053 C 
BRANCH   4   5
ATOM      5  C   UNL     1      25.189  24.790  15.272  1.00  0.00     0.041 C 
ATOM      6  O   UNL     1      26.007  25.269  16.100  1.00  0.00    -0.550 OA
ATOM      7  O   UNL     1      25.547  23.686  14.509  1.00  0.00    -0.550 OA
ENDBRANCH   4   5
ENDBRANCH   3   4
ENDBRANCH   2   3
ENDBRANCH   1   2
BRANCH   1   8
ATOM      8  C   UNL     1      21.497  28.346  14.437  1.00  0.00     0.000 C 
BRANCH   8   9
ATOM      9  C   UNL     1      22.341  29.074  15.491  1.00  0.00    -0.000 C 
BRANCH   9  10
ATOM     10  C   UNL     1      23.502  29.834  14.837  1.00  0.00    -0.000 C 
BRANCH  10  11
ATOM     11  C   UNL     1      24.698  28.903  14.589  1.00  0.00    -0.000 C 
BRANCH  11  12
ATOM     12  C   UNL     1      25.108  28.853  13.108  1.00  0.00    -0.003 C 
ATOM     13  C   UNL     1      24.361  29.875  12.253  1.00  0.00     0.004 C 
ENDBRANCH  11  12
ENDBRANCH  10  11
ENDBRANCH   9  10
ENDBRANCH   8   9
ENDBRANCH   1   8
TORSDOF 9
ENDMDL
MODEL 8
REMARK VINA RESULT:    -1.440      1.494      2.683
REMARK INTER + INTRA:          -3.609
REMARK INTER:                  -2.310
REMARK INTRA:                  -1.299
REMARK UNBOUND:                -1.411
REMARK SMILES CCCCCCCCCCC(=O)[O-]
REMARK SMILES IDX 7 1 8 2 9 3 10 4 11 5 12 6 13 7 6 8 5 9 4 10 3 11 2 12 1 13
REMARK H PARENT
REMARK Flexibility Score: inf
ROOT
ATOM      1  C   UNL     1      22.146  26.878  12.806  1.00  0.00     0.000 C 
ENDROOT
BRANCH   1   2
ATOM      2  C   UNL     1      23.125  25.720  12.551  1.00  0.00     0.000 C 
BRANCH   2   3
ATOM      3  C   UNL     1      23.442  24.922  13.825  1.00  0.00     0.006 C 
BRANCH   3   4
ATOM      4  C   UNL     1      24.347  25.726  14.764  1.00  0.00     0.053 C 
BRANCH   4   5
ATOM      5  C   UNL     1      23.793  25.728  16.154  1.00  0.00     0.041 C 
ATOM      6  O   UNL     1      22.563  25.545  16.344  1.00  0.00    -0.550 OA
ATOM      7  O   UNL     1      24.628  25.981  17.234  1.00  0.00    -0.550 OA
ENDBRANCH   4   5
ENDBRANCH   3   4
ENDBRANCH   2   3
ENDBRANCH   1   2
BRANCH   1   8
ATOM      8  C   UNL     1      22.632  28.207  12.209  1.00  0.00     0.000 C 
BRANCH   8   9
ATOM      9  C   UNL     1      24.134  28.153  11.903  1.00  0.00    -0.000 C 
BRANCH   9  10
ATOM     10  C   UNL     1      24.929  29.016  12.892  1.00  0.00    -0.000 C 
BRANCH  10  11
ATOM     11  C   UNL     1      23.987  29.827  13.794  1.00  0.00    -0.000 C 
BRANCH  11  12
ATOM     12  C   UNL     1      24.070  29.399  15.268  1.00  0.00    -0.003 C 
ATOM     13  C   UNL     1      22.694  29.191  15.901  1.00  0.00     0.004 C 
ENDBRANCH  11  12
ENDBRANCH  10  11
ENDBRANCH   9  10
ENDBRANCH   8   9
ENDBRANCH   1   8
TORSDOF 9
ENDMDL
