MODEL 1
REMARK VINA RESULT:    20.970      0.000      0.000
REMARK INTER + INTRA:          26.381
REMARK INTER:                  25.874
REMARK INTRA:                   0.507
REMARK UNBOUND:                 0.507
REMARK SMILES C=C1[C@H]2CC[C@@H]3[C@@H]2C(C)(C)CCC[C@]13C
REMARK SMILES IDX 14 1 6 2 7 3 3 4 2 5 1 6 4 7 5 8 15 9 8 10 9 11 10 12 11 13
REMARK SMILES IDX 13 15 12 16
REMARK H PARENT
REMARK Flexibility Score: 80.00
ROOT
ATOM      1  C   UNL     1      -2.463   6.146 -12.069  1.00  0.00    -0.008 C 
ATOM      2  C   UNL     1      -0.978   6.433 -12.238  1.00  0.00     0.003 C 
ATOM      3  C   UNL     1      -0.413   5.127 -11.648  1.00  0.00     0.006 C 
ATOM      4  C   UNL     1      -0.997   4.248 -12.740  1.00  0.00     0.019 C 
ATOM      5  C   UNL     1      -2.469   4.697 -12.582  1.00  0.00    -0.068 C 
ATOM      6  C   UNL     1      -3.542   3.929 -12.786  1.00  0.00     0.009 C 
ATOM      7  C   UNL     1      -0.463   4.874 -14.021  1.00  0.00     0.008 C 
ATOM      8  C   UNL     1      -0.466   6.369 -13.698  1.00  0.00     0.005 C 
ATOM      9  C   UNL     1      -3.361   7.046 -12.945  1.00  0.00     0.016 C 
ENDROOT
BRANCH   3  10
ATOM     10  C   UNL     1       0.574   5.434 -10.499  1.00  0.00    -0.032 C 
ATOM     11  C   UNL     1       1.783   6.250 -11.008  1.00  0.00     0.011 C 
ATOM     12  C   UNL     1       1.132   4.134  -9.858  1.00  0.00     0.011 C 
BRANCH  10  13
ATOM     13  C   UNL     1      -0.263   6.272  -9.426  1.00  0.00     0.007 CG0
ATOM     14  G   UNL     1      -1.824   5.977  -9.347  1.00  0.00     0.000 G0
ENDBRANCH  10  13
ENDBRANCH   3  10
BRANCH   1  15
ATOM     15  C   UNL     1      -2.806   6.386 -10.527  1.00  0.00     0.011 C 
BRANCH  15  16
ATOM     16  C   UNL     1      -1.823   5.989  -9.333  1.00  0.00     0.001 CG0
ATOM     17  G   UNL     1      -0.259   6.265  -9.429  1.00  0.00     0.000 G0
ENDBRANCH  15  16
ENDBRANCH   1  15
TORSDOF 0
ENDMDL
MODEL 2
REMARK VINA RESULT:    23.428      2.097      4.400
REMARK INTER + INTRA:          29.413
REMARK INTER:                  28.892
REMARK INTRA:                   0.522
REMARK UNBOUND:                 0.507
REMARK SMILES C=C1[C@H]2CC[C@@H]3[C@@H]2C(C)(C)CCC[C@]13C
REMARK SMILES IDX 14 1 6 2 7 3 3 4 2 5 1 6 4 7 5 8 15 9 8 10 9 11 10 12 11 13
REMARK SMILES IDX 13 15 12 16
REMARK H PARENT
REMARK Flexibility Score: 80.00
ROOT
ATOM      1  C   UNL     1       1.084   5.102  -9.487  1.00  0.00    -0.008 C 
ATOM      2  C   UNL     1      -0.406   5.213  -9.194  1.00  0.00     0.003 C 
ATOM      3  C   UNL     1      -0.533   6.749  -9.181  1.00  0.00     0.006 C 
ATOM      4  C   UNL     1      -0.182   6.903 -10.651  1.00  0.00     0.019 C 
ATOM      5  C   UNL     1       1.169   6.151 -10.607  1.00  0.00    -0.068 C 
ATOM      6  C   UNL     1       2.237   6.425 -11.360  1.00  0.00     0.009 C 
ATOM      7  C   UNL     1      -1.186   5.998 -11.351  1.00  0.00     0.008 C 
ATOM      8  C   UNL     1      -1.331   4.829 -10.375  1.00  0.00     0.005 C 
ATOM      9  C   UNL     1       1.499   3.707 -10.004  1.00  0.00     0.016 C 
ENDROOT
BRANCH   3  10
ATOM     10  C   UNL     1      -1.147   7.231  -7.848  1.00  0.00    -0.032 C 
ATOM     11  C   UNL     1      -2.597   6.722  -7.688  1.00  0.00     0.011 C 
ATOM     12  C   UNL     1      -1.190   8.781  -7.762  1.00  0.00     0.011 C 
BRANCH  10  13
ATOM     13  C   UNL     1      -0.208   6.633  -6.701  1.00  0.00     0.007 CG0
ATOM     14  G   UNL     1       1.338   6.488  -7.045  1.00  0.00     0.000 G0
ENDBRANCH  10  13
ENDBRANCH   3  10
BRANCH   1  15
ATOM     15  C   UNL     1       1.847   5.416  -8.118  1.00  0.00     0.011 C 
BRANCH  15  16
ATOM     16  C   UNL     1       1.334   6.484  -7.048  1.00  0.00     0.001 CG0
ATOM     17  G   UNL     1      -0.212   6.622  -6.700  1.00  0.00     0.000 G0
ENDBRANCH  15  16
ENDBRANCH   1  15
TORSDOF 0
ENDMDL
