MODEL 1
REMARK VINA RESULT:    -3.457      0.000      0.000
REMARK INTER + INTRA:          -4.080
REMARK INTER:                  -4.064
REMARK INTRA:                  -0.016
REMARK UNBOUND:                -0.016
REMARK SMILES CCCCC(=O)[O-]
REMARK SMILES IDX 4 1 5 2 6 3 7 4 3 5 2 6 1 7
REMARK H PARENT
REMARK Flexibility Score: inf
ROOT
ATOM      1  C   UNL     1      -4.030   4.299   8.102  1.00  0.00     0.053 C 
ENDROOT
BRANCH   1   2
ATOM      2  C   UNL     1      -3.068   5.424   7.884  1.00  0.00     0.041 C 
ATOM      3  O   UNL     1      -3.001   5.991   6.762  1.00  0.00    -0.550 OA
ATOM      4  O   UNL     1      -2.281   5.879   8.935  1.00  0.00    -0.550 OA
ENDBRANCH   1   2
BRANCH   1   5
ATOM      5  C   UNL     1      -4.974   4.618   9.264  1.00  0.00     0.006 C 
BRANCH   5   6
ATOM      6  C   UNL     1      -6.028   3.517   9.434  1.00  0.00    -0.003 C 
ATOM      7  C   UNL     1      -7.279   4.052  10.125  1.00  0.00     0.004 C 
ENDBRANCH   5   6
ENDBRANCH   1   5
TORSDOF 3
ENDMDL
MODEL 2
REMARK VINA RESULT:    -3.451      0.250      1.249
REMARK INTER + INTRA:          -4.072
REMARK INTER:                  -4.055
REMARK INTRA:                  -0.018
REMARK UNBOUND:                -0.016
REMARK SMILES CCCCC(=O)[O-]
REMARK SMILES IDX 4 1 5 2 6 3 7 4 3 5 2 6 1 7
REMARK H PARENT
REMARK Flexibility Score: inf
ROOT
ATOM      1  C   UNL     1      -3.991   4.384   7.935  1.00  0.00     0.053 C 
ENDROOT
BRANCH   1   2
ATOM      2  C   UNL     1      -3.091   5.559   7.715  1.00  0.00     0.041 C 
ATOM      3  O   UNL     1      -2.360   5.981   8.650  1.00  0.00    -0.550 OA
ATOM      4  O   UNL     1      -3.023   6.158   6.464  1.00  0.00    -0.550 OA
ENDBRANCH   1   2
BRANCH   1   5
ATOM      5  C   UNL     1      -4.895   4.620   9.148  1.00  0.00     0.006 C 
BRANCH   5   6
ATOM      6  C   UNL     1      -5.836   3.430   9.370  1.00  0.00    -0.003 C 
ATOM      7  C   UNL     1      -7.174   3.886   9.948  1.00  0.00     0.004 C 
ENDBRANCH   5   6
ENDBRANCH   1   5
TORSDOF 3
ENDMDL
MODEL 3
REMARK VINA RESULT:    -3.253     10.121     10.741
REMARK INTER + INTRA:          -3.839
REMARK INTER:                  -3.753
REMARK INTRA:                  -0.086
REMARK UNBOUND:                -0.016
REMARK SMILES CCCCC(=O)[O-]
REMARK SMILES IDX 4 1 5 2 6 3 7 4 3 5 2 6 1 7
REMARK H PARENT
REMARK Flexibility Score: inf
ROOT
ATOM      1  C   UNL     1      -2.067   8.649  -0.109  1.00  0.00     0.053 C 
ENDROOT
BRANCH   1   2
ATOM      2  C   UNL     1      -1.323   8.284  -1.355  1.00  0.00     0.041 C 
ATOM      3  O   UNL     1      -1.883   8.379  -2.478  1.00  0.00    -0.550 OA
ATOM      4  O   UNL     1       0.006   7.888  -1.279  1.00  0.00    -0.550 OA
ENDBRANCH   1   2
BRANCH   1   5
ATOM      5  C   UNL     1      -3.543   8.260  -0.233  1.00  0.00     0.006 C 
BRANCH   5   6
ATOM      6  C   UNL     1      -4.424   9.501  -0.415  1.00  0.00    -0.003 C 
ATOM      7  C   UNL     1      -5.197   9.440  -1.730  1.00  0.00     0.004 C 
ENDBRANCH   5   6
ENDBRANCH   1   5
TORSDOF 3
ENDMDL
MODEL 4
REMARK VINA RESULT:    -3.212      2.528      3.797
REMARK INTER + INTRA:          -3.791
REMARK INTER:                  -3.753
REMARK INTRA:                  -0.038
REMARK UNBOUND:                -0.016
REMARK SMILES CCCCC(=O)[O-]
REMARK SMILES IDX 4 1 5 2 6 3 7 4 3 5 2 6 1 7
REMARK H PARENT
REMARK Flexibility Score: inf
ROOT
ATOM      1  C   UNL     1      -4.682   5.663   9.761  1.00  0.00     0.053 C 
ENDROOT
BRANCH   1   2
ATOM      2  C   UNL     1      -5.479   4.398   9.763  1.00  0.00     0.041 C 
ATOM      3  O   UNL     1      -6.688   4.410   9.410  1.00  0.00    -0.550 OA
ATOM      4  O   UNL     1      -4.874   3.195  10.106  1.00  0.00    -0.550 OA
ENDBRANCH   1   2
BRANCH   1   5
ATOM      5  C   UNL     1      -3.412   5.496   8.922  1.00  0.00     0.006 C 
BRANCH   5   6
ATOM      6  C   UNL     1      -3.749   5.010   7.507  1.00  0.00    -0.003 C 
ATOM      7  C   UNL     1      -3.382   6.060   6.461  1.00  0.00     0.004 C 
ENDBRANCH   5   6
ENDBRANCH   1   5
TORSDOF 3
ENDMDL
MODEL 5
REMARK VINA RESULT:    -3.130      2.776      4.088
REMARK INTER + INTRA:          -3.695
REMARK INTER:                  -3.679
REMARK INTRA:                  -0.016
REMARK UNBOUND:                -0.016
REMARK SMILES CCCCC(=O)[O-]
REMARK SMILES IDX 4 1 5 2 6 3 7 4 3 5 2 6 1 7
REMARK H PARENT
REMARK Flexibility Score: inf
ROOT
ATOM      1  C   UNL     1      -4.247   4.979   8.559  1.00  0.00     0.053 C 
ENDROOT
BRANCH   1   2
ATOM      2  C   UNL     1      -5.240   4.103   9.256  1.00  0.00     0.041 C 
ATOM      3  O   UNL     1      -6.423   4.498   9.426  1.00  0.00    -0.550 OA
ATOM      4  O   UNL     1      -4.872   2.830   9.672  1.00  0.00    -0.550 OA
ENDBRANCH   1   2
BRANCH   1   5
ATOM      5  C   UNL     1      -3.592   5.942   9.552  1.00  0.00     0.006 C 
BRANCH   5   6
ATOM      6  C   UNL     1      -2.214   6.391   9.053  1.00  0.00    -0.003 C 
ATOM      7  C   UNL     1      -1.505   7.254  10.094  1.00  0.00     0.004 C 
ENDBRANCH   5   6
ENDBRANCH   1   5
TORSDOF 3
ENDMDL
MODEL 6
REMARK VINA RESULT:    -3.097     19.689     20.841
REMARK INTER + INTRA:          -3.657
REMARK INTER:                  -3.636
REMARK INTRA:                  -0.020
REMARK UNBOUND:                -0.016
REMARK SMILES CCCCC(=O)[O-]
REMARK SMILES IDX 4 1 5 2 6 3 7 4 3 5 2 6 1 7
REMARK H PARENT
REMARK Flexibility Score: inf
ROOT
ATOM      1  C   UNL     1       9.691   7.699  -7.116  1.00  0.00     0.053 C 
ENDROOT
BRANCH   1   2
ATOM      2  C   UNL     1       8.840   8.581  -7.974  1.00  0.00     0.041 C 
ATOM      3  O   UNL     1       9.102   9.809  -8.075  1.00  0.00    -0.550 OA
ATOM      4  O   UNL     1       7.787   8.039  -8.700  1.00  0.00    -0.550 OA
ENDBRANCH   1   2
BRANCH   1   5
ATOM      5  C   UNL     1       8.828   6.672  -6.379  1.00  0.00     0.006 C 
BRANCH   5   6
ATOM      6  C   UNL     1       9.687   5.531  -5.822  1.00  0.00    -0.003 C 
ATOM      7  C   UNL     1       8.949   4.771  -4.723  1.00  0.00     0.004 C 
ENDBRANCH   5   6
ENDBRANCH   1   5
TORSDOF 3
ENDMDL
MODEL 7
REMARK VINA RESULT:    -3.056      2.740      4.311
REMARK INTER + INTRA:          -3.609
REMARK INTER:                  -3.592
REMARK INTRA:                  -0.016
REMARK UNBOUND:                -0.016
REMARK SMILES CCCCC(=O)[O-]
REMARK SMILES IDX 4 1 5 2 6 3 7 4 3 5 2 6 1 7
REMARK H PARENT
REMARK Flexibility Score: inf
ROOT
ATOM      1  C   UNL     1      -2.740   5.733   8.517  1.00  0.00     0.053 C 
ENDROOT
BRANCH   1   2
ATOM      2  C   UNL     1      -3.945   4.860   8.682  1.00  0.00     0.041 C 
ATOM      3  O   UNL     1      -3.862   3.621   8.479  1.00  0.00    -0.550 OA
ATOM      4  O   UNL     1      -5.147   5.410   9.108  1.00  0.00    -0.550 OA
ENDBRANCH   1   2
BRANCH   1   5
ATOM      5  C   UNL     1      -2.517   6.582   9.770  1.00  0.00     0.006 C 
BRANCH   5   6
ATOM      6  C   UNL     1      -1.123   7.221   9.759  1.00  0.00    -0.003 C 
ATOM      7  C   UNL     1      -1.192   8.702  10.125  1.00  0.00     0.004 C 
ENDBRANCH   5   6
ENDBRANCH   1   5
TORSDOF 3
ENDMDL
MODEL 8
REMARK VINA RESULT:    -2.992      2.608      3.538
REMARK INTER + INTRA:          -3.533
REMARK INTER:                  -3.460
REMARK INTRA:                  -0.073
REMARK UNBOUND:                -0.016
REMARK SMILES CCCCC(=O)[O-]
REMARK SMILES IDX 4 1 5 2 6 3 7 4 3 5 2 6 1 7
REMARK H PARENT
REMARK Flexibility Score: inf
ROOT
ATOM      1  C   UNL     1      -3.938   4.793   8.248  1.00  0.00     0.053 C 
ENDROOT
BRANCH   1   2
ATOM      2  C   UNL     1      -4.415   3.389   8.449  1.00  0.00     0.041 C 
ATOM      3  O   UNL     1      -4.373   2.564   7.499  1.00  0.00    -0.550 OA
ATOM      4  O   UNL     1      -4.858   2.978   9.699  1.00  0.00    -0.550 OA
ENDBRANCH   1   2
BRANCH   1   5
ATOM      5  C   UNL     1      -4.470   5.704   9.357  1.00  0.00     0.006 C 
BRANCH   5   6
ATOM      6  C   UNL     1      -3.319   6.367  10.122  1.00  0.00    -0.003 C 
ATOM      7  C   UNL     1      -2.083   6.518   9.239  1.00  0.00     0.004 C 
ENDBRANCH   5   6
ENDBRANCH   1   5
TORSDOF 3
ENDMDL
