MODEL 1
REMARK VINA RESULT:    -5.204      0.000      0.000
REMARK INTER + INTRA:         -10.888
REMARK INTER:                  -9.463
REMARK INTRA:                  -1.425
REMARK UNBOUND:                -1.425
REMARK SMILES CCCCCCCCCCCCCC[C@H](C)C(=O)[O-]
REMARK SMILES IDX 9 1 10 2 11 3 12 4 13 5 14 6 15 7 16 8 17 9 18 10 19 11 8 12
REMARK SMILES IDX 7 13 6 14 5 15 4 16 3 17 2 18 1 19
REMARK H PARENT
REMARK Flexibility Score: inf
ROOT
ATOM      1  C   UNL     1     -15.034  -1.367 -10.315  1.00  0.00     0.000 C 
ENDROOT
BRANCH   1   2
ATOM      2  C   UNL     1     -15.124  -0.355  -9.164  1.00  0.00     0.000 C 
BRANCH   2   3
ATOM      3  C   UNL     1     -14.485   1.003  -9.506  1.00  0.00     0.000 C 
BRANCH   3   4
ATOM      4  C   UNL     1     -13.143   0.926 -10.256  1.00  0.00     0.000 C 
BRANCH   4   5
ATOM      5  C   UNL     1     -12.034   1.758  -9.588  1.00  0.00     0.001 C 
BRANCH   5   6
ATOM      6  C   UNL     1     -12.176   3.267  -9.862  1.00  0.00     0.009 C 
BRANCH   6   7
ATOM      7  C   UNL     1     -11.742   4.170  -8.684  1.00  0.00     0.032 C 
ATOM      8  C   UNL     1     -10.431   3.660  -8.076  1.00  0.00     0.014 C 
BRANCH   7   9
ATOM      9  C   UNL     1     -12.802   4.232  -7.618  1.00  0.00     0.044 C 
ATOM     10  O   UNL     1     -13.987   3.902  -7.885  1.00  0.00    -0.550 OA
ATOM     11  O   UNL     1     -12.482   4.654  -6.332  1.00  0.00    -0.550 OA
ENDBRANCH   7   9
ENDBRANCH   6   7
ENDBRANCH   5   6
ENDBRANCH   4   5
ENDBRANCH   3   4
ENDBRANCH   2   3
ENDBRANCH   1   2
BRANCH   1  12
ATOM     12  C   UNL     1     -15.029  -2.808  -9.780  1.00  0.00     0.000 C 
BRANCH  12  13
ATOM     13  C   UNL     1     -13.689  -3.527 -10.013  1.00  0.00    -0.000 C 
BRANCH  13  14
ATOM     14  C   UNL     1     -12.599  -2.678 -10.698  1.00  0.00    -0.000 C 
BRANCH  14  15
ATOM     15  C   UNL     1     -11.162  -2.931 -10.206  1.00  0.00    -0.000 C 
BRANCH  15  16
ATOM     16  C   UNL     1     -10.551  -1.716  -9.490  1.00  0.00    -0.000 C 
BRANCH  16  17
ATOM     17  C   UNL     1      -9.610  -2.113  -8.341  1.00  0.00    -0.000 C 
BRANCH  17  18
ATOM     18  C   UNL     1      -9.461  -3.638  -8.161  1.00  0.00    -0.003 C 
ATOM     19  C   UNL     1     -10.154  -4.144  -6.894  1.00  0.00     0.004 C 
ENDBRANCH  17  18
ENDBRANCH  16  17
ENDBRANCH  15  16
ENDBRANCH  14  15
ENDBRANCH  13  14
ENDBRANCH  12  13
ENDBRANCH   1  12
TORSDOF 14
ENDMDL
MODEL 2
REMARK VINA RESULT:    -5.022      3.218      6.307
REMARK INTER + INTRA:         -10.557
REMARK INTER:                  -9.021
REMARK INTRA:                  -1.536
REMARK UNBOUND:                -1.425
REMARK SMILES CCCCCCCCCCCCCC[C@H](C)C(=O)[O-]
REMARK SMILES IDX 9 1 10 2 11 3 12 4 13 5 14 6 15 7 16 8 17 9 18 10 19 11 8 12
REMARK SMILES IDX 7 13 6 14 5 15 4 16 3 17 2 18 1 19
REMARK H PARENT
REMARK Flexibility Score: inf
ROOT
ATOM      1  C   UNL     1     -14.664  -0.613 -10.539  1.00  0.00     0.000 C 
ENDROOT
BRANCH   1   2
ATOM      2  C   UNL     1     -14.444  -2.123 -10.367  1.00  0.00     0.000 C 
BRANCH   2   3
ATOM      3  C   UNL     1     -12.960  -2.527 -10.443  1.00  0.00     0.000 C 
BRANCH   3   4
ATOM      4  C   UNL     1     -12.035  -1.502 -11.123  1.00  0.00     0.000 C 
BRANCH   4   5
ATOM      5  C   UNL     1     -10.838  -1.099 -10.244  1.00  0.00     0.001 C 
BRANCH   5   6
ATOM      6  C   UNL     1     -10.705  -1.972  -8.982  1.00  0.00     0.009 C 
BRANCH   6   7
ATOM      7  C   UNL     1      -9.375  -2.756  -8.890  1.00  0.00     0.032 C 
ATOM      8  C   UNL     1      -8.934  -3.223 -10.280  1.00  0.00     0.014 C 
BRANCH   7   9
ATOM      9  C   UNL     1      -9.499  -3.943  -7.974  1.00  0.00     0.044 C 
ATOM     10  O   UNL     1      -8.820  -4.981  -8.188  1.00  0.00    -0.550 OA
ATOM     11  O   UNL     1     -10.363  -3.903  -6.885  1.00  0.00    -0.550 OA
ENDBRANCH   7   9
ENDBRANCH   6   7
ENDBRANCH   5   6
ENDBRANCH   4   5
ENDBRANCH   3   4
ENDBRANCH   2   3
ENDBRANCH   1   2
BRANCH   1  12
ATOM     12  C   UNL     1     -15.096   0.033  -9.214  1.00  0.00     0.000 C 
BRANCH  12  13
ATOM     13  C   UNL     1     -14.818   1.546  -9.168  1.00  0.00    -0.000 C 
BRANCH  13  14
ATOM     14  C   UNL     1     -13.683   2.032 -10.091  1.00  0.00    -0.000 C 
BRANCH  14  15
ATOM     15  C   UNL     1     -12.264   1.923  -9.503  1.00  0.00    -0.000 C 
BRANCH  15  16
ATOM     16  C   UNL     1     -11.487   3.247  -9.564  1.00  0.00    -0.000 C 
BRANCH  16  17
ATOM     17  C   UNL     1     -11.143   3.800  -8.171  1.00  0.00    -0.000 C 
BRANCH  17  18
ATOM     18  C   UNL     1     -12.373   4.285  -7.375  1.00  0.00    -0.003 C 
ATOM     19  C   UNL     1     -13.374   5.035  -8.254  1.00  0.00     0.004 C 
ENDBRANCH  17  18
ENDBRANCH  16  17
ENDBRANCH  15  16
ENDBRANCH  14  15
ENDBRANCH  13  14
ENDBRANCH  12  13
ENDBRANCH   1  12
TORSDOF 14
ENDMDL
MODEL 3
REMARK VINA RESULT:    -4.694     14.818     17.888
REMARK INTER + INTRA:          -9.960
REMARK INTER:                  -8.717
REMARK INTRA:                  -1.243
REMARK UNBOUND:                -1.425
REMARK SMILES CCCCCCCCCCCCCC[C@H](C)C(=O)[O-]
REMARK SMILES IDX 9 1 10 2 11 3 12 4 13 5 14 6 15 7 16 8 17 9 18 10 19 11 8 12
REMARK SMILES IDX 7 13 6 14 5 15 4 16 3 17 2 18 1 19
REMARK H PARENT
REMARK Flexibility Score: inf
ROOT
ATOM      1  C   UNL     1      -9.017   5.643   6.608  1.00  0.00     0.000 C 
ENDROOT
BRANCH   1   2
ATOM      2  C   UNL     1     -10.007   6.020   7.720  1.00  0.00     0.000 C 
BRANCH   2   3
ATOM      3  C   UNL     1     -10.451   4.813   8.565  1.00  0.00     0.000 C 
BRANCH   3   4
ATOM      4  C   UNL     1     -11.821   4.219   8.192  1.00  0.00     0.000 C 
BRANCH   4   5
ATOM      5  C   UNL     1     -12.085   4.229   6.676  1.00  0.00     0.001 C 
BRANCH   5   6
ATOM      6  C   UNL     1     -13.219   5.191   6.275  1.00  0.00     0.009 C 
BRANCH   6   7
ATOM      7  C   UNL     1     -12.825   6.223   5.193  1.00  0.00     0.032 C 
ATOM      8  C   UNL     1     -12.791   7.633   5.789  1.00  0.00     0.014 C 
BRANCH   7   9
ATOM      9  C   UNL     1     -13.776   6.188   4.028  1.00  0.00     0.044 C 
ATOM     10  O   UNL     1     -13.393   5.751   2.911  1.00  0.00    -0.550 OA
ATOM     11  O   UNL     1     -15.083   6.639   4.175  1.00  0.00    -0.550 OA
ENDBRANCH   7   9
ENDBRANCH   6   7
ENDBRANCH   5   6
ENDBRANCH   4   5
ENDBRANCH   3   4
ENDBRANCH   2   3
ENDBRANCH   1   2
BRANCH   1  12
ATOM     12  C   UNL     1      -9.146   6.597   5.411  1.00  0.00     0.000 C 
BRANCH  12  13
ATOM     13  C   UNL     1      -9.215   8.076   5.830  1.00  0.00    -0.000 C 
BRANCH  13  14
ATOM     14  C   UNL     1      -7.909   8.873   5.642  1.00  0.00    -0.000 C 
BRANCH  14  15
ATOM     15  C   UNL     1      -8.085  10.388   5.433  1.00  0.00    -0.000 C 
BRANCH  15  16
ATOM     16  C   UNL     1      -6.750  11.145   5.369  1.00  0.00    -0.000 C 
BRANCH  16  17
ATOM     17  C   UNL     1      -5.656  10.496   6.234  1.00  0.00    -0.000 C 
BRANCH  17  18
ATOM     18  C   UNL     1      -4.511  11.458   6.612  1.00  0.00    -0.003 C 
ATOM     19  C   UNL     1      -3.372  11.433   5.592  1.00  0.00     0.004 C 
ENDBRANCH  17  18
ENDBRANCH  16  17
ENDBRANCH  15  16
ENDBRANCH  14  15
ENDBRANCH  13  14
ENDBRANCH  12  13
ENDBRANCH   1  12
TORSDOF 14
ENDMDL
MODEL 4
REMARK VINA RESULT:    -4.621     15.248     18.084
REMARK INTER + INTRA:          -9.828
REMARK INTER:                  -8.718
REMARK INTRA:                  -1.111
REMARK UNBOUND:                -1.425
REMARK SMILES CCCCCCCCCCCCCC[C@H](C)C(=O)[O-]
REMARK SMILES IDX 9 1 10 2 11 3 12 4 13 5 14 6 15 7 16 8 17 9 18 10 19 11 8 12
REMARK SMILES IDX 7 13 6 14 5 15 4 16 3 17 2 18 1 19
REMARK H PARENT
REMARK Flexibility Score: inf
ROOT
ATOM      1  C   UNL     1      -9.223   5.706   6.480  1.00  0.00     0.000 C 
ENDROOT
BRANCH   1   2
ATOM      2  C   UNL     1      -9.357   7.024   5.705  1.00  0.00     0.000 C 
BRANCH   2   3
ATOM      3  C   UNL     1      -8.366   8.104   6.177  1.00  0.00     0.000 C 
BRANCH   3   4
ATOM      4  C   UNL     1      -8.343   9.388   5.329  1.00  0.00     0.000 C 
BRANCH   4   5
ATOM      5  C   UNL     1      -6.926   9.959   5.143  1.00  0.00     0.001 C 
BRANCH   5   6
ATOM      6  C   UNL     1      -6.870  11.487   5.329  1.00  0.00     0.009 C 
BRANCH   6   7
ATOM      7  C   UNL     1      -6.094  11.946   6.585  1.00  0.00     0.032 C 
ATOM      8  C   UNL     1      -4.838  11.090   6.777  1.00  0.00     0.014 C 
BRANCH   7   9
ATOM      9  C   UNL     1      -6.951  11.869   7.820  1.00  0.00     0.044 C 
ATOM     10  O   UNL     1      -6.436  11.573   8.929  1.00  0.00    -0.550 OA
ATOM     11  O   UNL     1      -8.316  12.125   7.744  1.00  0.00    -0.550 OA
ENDBRANCH   7   9
ENDBRANCH   6   7
ENDBRANCH   5   6
ENDBRANCH   4   5
ENDBRANCH   3   4
ENDBRANCH   2   3
ENDBRANCH   1   2
BRANCH   1  12
ATOM     12  C   UNL     1      -9.768   5.851   7.909  1.00  0.00     0.000 C 
BRANCH  12  13
ATOM     13  C   UNL     1     -10.819   4.783   8.259  1.00  0.00    -0.000 C 
BRANCH  13  14
ATOM     14  C   UNL     1     -11.510   4.122   7.050  1.00  0.00    -0.000 C 
BRANCH  14  15
ATOM     15  C   UNL     1     -12.926   4.639   6.737  1.00  0.00    -0.000 C 
BRANCH  15  16
ATOM     16  C   UNL     1     -12.923   5.987   6.001  1.00  0.00    -0.000 C 
BRANCH  16  17
ATOM     17  C   UNL     1     -14.304   6.359   5.434  1.00  0.00    -0.000 C 
BRANCH  17  18
ATOM     18  C   UNL     1     -14.505   5.937   3.964  1.00  0.00    -0.003 C 
ATOM     19  C   UNL     1     -13.180   5.661   3.253  1.00  0.00     0.004 C 
ENDBRANCH  17  18
ENDBRANCH  16  17
ENDBRANCH  15  16
ENDBRANCH  14  15
ENDBRANCH  13  14
ENDBRANCH  12  13
ENDBRANCH   1  12
TORSDOF 14
ENDMDL
MODEL 5
REMARK VINA RESULT:    -4.586     15.135     17.459
REMARK INTER + INTRA:          -9.763
REMARK INTER:                  -8.111
REMARK INTRA:                  -1.652
REMARK UNBOUND:                -1.425
REMARK SMILES CCCCCCCCCCCCCC[C@H](C)C(=O)[O-]
REMARK SMILES IDX 9 1 10 2 11 3 12 4 13 5 14 6 15 7 16 8 17 9 18 10 19 11 8 12
REMARK SMILES IDX 7 13 6 14 5 15 4 16 3 17 2 18 1 19
REMARK H PARENT
REMARK Flexibility Score: inf
ROOT
ATOM      1  C   UNL     1     -11.220   4.882   8.227  1.00  0.00     0.000 C 
ENDROOT
BRANCH   1   2
ATOM      2  C   UNL     1     -10.159   5.967   7.990  1.00  0.00     0.000 C 
BRANCH   2   3
ATOM      3  C   UNL     1      -9.283   5.693   6.754  1.00  0.00     0.000 C 
BRANCH   3   4
ATOM      4  C   UNL     1      -9.266   6.816   5.701  1.00  0.00     0.000 C 
BRANCH   4   5
ATOM      5  C   UNL     1      -8.435   8.035   6.139  1.00  0.00     0.001 C 
BRANCH   5   6
ATOM      6  C   UNL     1      -8.032   8.937   4.956  1.00  0.00     0.009 C 
BRANCH   6   7
ATOM      7  C   UNL     1      -7.503  10.329   5.371  1.00  0.00     0.032 C 
ATOM      8  C   UNL     1      -6.334  10.185   6.350  1.00  0.00     0.014 C 
BRANCH   7   9
ATOM      9  C   UNL     1      -8.586  11.166   5.995  1.00  0.00     0.044 C 
ATOM     10  O   UNL     1      -9.696  11.298   5.416  1.00  0.00    -0.550 OA
ATOM     11  O   UNL     1      -8.370  11.799   7.214  1.00  0.00    -0.550 OA
ENDBRANCH   7   9
ENDBRANCH   6   7
ENDBRANCH   5   6
ENDBRANCH   4   5
ENDBRANCH   3   4
ENDBRANCH   2   3
ENDBRANCH   1   2
BRANCH   1  12
ATOM     12  C   UNL     1     -11.630   4.217   6.904  1.00  0.00     0.000 C 
BRANCH  12  13
ATOM     13  C   UNL     1     -12.821   4.918   6.227  1.00  0.00    -0.000 C 
BRANCH  13  14
ATOM     14  C   UNL     1     -12.575   5.371   4.773  1.00  0.00    -0.000 C 
BRANCH  14  15
ATOM     15  C   UNL     1     -13.809   5.931   4.041  1.00  0.00    -0.000 C 
BRANCH  15  16
ATOM     16  C   UNL     1     -14.526   7.035   4.834  1.00  0.00    -0.000 C 
BRANCH  16  17
ATOM     17  C   UNL     1     -14.121   8.449   4.385  1.00  0.00    -0.000 C 
BRANCH  17  18
ATOM     18  C   UNL     1     -13.606   9.340   5.534  1.00  0.00    -0.003 C 
ATOM     19  C   UNL     1     -12.327   8.790   6.167  1.00  0.00     0.004 C 
ENDBRANCH  17  18
ENDBRANCH  16  17
ENDBRANCH  15  16
ENDBRANCH  14  15
ENDBRANCH  13  14
ENDBRANCH  12  13
ENDBRANCH   1  12
TORSDOF 14
ENDMDL
MODEL 6
REMARK VINA RESULT:    -4.568     14.756     17.989
REMARK INTER + INTRA:          -9.732
REMARK INTER:                  -8.832
REMARK INTRA:                  -0.900
REMARK UNBOUND:                -1.425
REMARK SMILES CCCCCCCCCCCCCC[C@H](C)C(=O)[O-]
REMARK SMILES IDX 9 1 10 2 11 3 12 4 13 5 14 6 15 7 16 8 17 9 18 10 19 11 8 12
REMARK SMILES IDX 7 13 6 14 5 15 4 16 3 17 2 18 1 19
REMARK H PARENT
REMARK Flexibility Score: inf
ROOT
ATOM      1  C   UNL     1      -9.503   5.706   6.915  1.00  0.00     0.000 C 
ENDROOT
BRANCH   1   2
ATOM      2  C   UNL     1     -10.007   5.537   8.355  1.00  0.00     0.000 C 
BRANCH   2   3
ATOM      3  C   UNL     1     -11.161   4.525   8.474  1.00  0.00     0.000 C 
BRANCH   3   4
ATOM      4  C   UNL     1     -11.645   3.923   7.143  1.00  0.00     0.000 C 
BRANCH   4   5
ATOM      5  C   UNL     1     -12.881   4.641   6.574  1.00  0.00     0.001 C 
BRANCH   5   6
ATOM      6  C   UNL     1     -12.602   5.324   5.222  1.00  0.00     0.009 C 
BRANCH   6   7
ATOM      7  C   UNL     1     -13.747   6.238   4.724  1.00  0.00     0.032 C 
ATOM      8  C   UNL     1     -13.917   6.100   3.208  1.00  0.00     0.014 C 
BRANCH   7   9
ATOM      9  C   UNL     1     -13.492   7.679   5.076  1.00  0.00     0.044 C 
ATOM     10  O   UNL     1     -12.572   7.980   5.880  1.00  0.00    -0.550 OA
ATOM     11  O   UNL     1     -14.271   8.686   4.517  1.00  0.00    -0.550 OA
ENDBRANCH   7   9
ENDBRANCH   6   7
ENDBRANCH   5   6
ENDBRANCH   4   5
ENDBRANCH   3   4
ENDBRANCH   2   3
ENDBRANCH   1   2
BRANCH   1  12
ATOM     12  C   UNL     1      -8.659   6.982   6.774  1.00  0.00     0.000 C 
BRANCH  12  13
ATOM     13  C   UNL     1      -8.925   7.733   5.457  1.00  0.00    -0.000 C 
BRANCH  13  14
ATOM     14  C   UNL     1      -8.002   8.940   5.193  1.00  0.00    -0.000 C 
BRANCH  14  15
ATOM     15  C   UNL     1      -7.313   9.527   6.438  1.00  0.00    -0.000 C 
BRANCH  15  16
ATOM     16  C   UNL     1      -7.383  11.061   6.495  1.00  0.00    -0.000 C 
BRANCH  16  17
ATOM     17  C   UNL     1      -6.040  11.731   6.160  1.00  0.00    -0.000 C 
BRANCH  17  18
ATOM     18  C   UNL     1      -4.814  10.840   6.446  1.00  0.00    -0.003 C 
ATOM     19  C   UNL     1      -3.542  11.372   5.784  1.00  0.00     0.004 C 
ENDBRANCH  17  18
ENDBRANCH  16  17
ENDBRANCH  15  16
ENDBRANCH  14  15
ENDBRANCH  13  14
ENDBRANCH  12  13
ENDBRANCH   1  12
TORSDOF 14
ENDMDL
MODEL 7
REMARK VINA RESULT:    -4.550      1.595      2.128
REMARK INTER + INTRA:          -9.698
REMARK INTER:                  -8.408
REMARK INTRA:                  -1.291
REMARK UNBOUND:                -1.425
REMARK SMILES CCCCCCCCCCCCCC[C@H](C)C(=O)[O-]
REMARK SMILES IDX 9 1 10 2 11 3 12 4 13 5 14 6 15 7 16 8 17 9 18 10 19 11 8 12
REMARK SMILES IDX 7 13 6 14 5 15 4 16 3 17 2 18 1 19
REMARK H PARENT
REMARK Flexibility Score: inf
ROOT
ATOM      1  C   UNL     1     -13.545  -0.841 -10.818  1.00  0.00     0.000 C 
ENDROOT
BRANCH   1   2
ATOM      2  C   UNL     1     -14.983  -0.456 -10.442  1.00  0.00     0.000 C 
BRANCH   2   3
ATOM      3  C   UNL     1     -15.121  -0.002  -8.978  1.00  0.00     0.000 C 
BRANCH   3   4
ATOM      4  C   UNL     1     -14.898   1.501  -8.734  1.00  0.00     0.000 C 
BRANCH   4   5
ATOM      5  C   UNL     1     -14.596   2.280 -10.026  1.00  0.00     0.001 C 
BRANCH   5   6
ATOM      6  C   UNL     1     -13.358   3.187  -9.899  1.00  0.00     0.009 C 
BRANCH   6   7
ATOM      7  C   UNL     1     -12.717   3.193  -8.492  1.00  0.00     0.032 C 
ATOM      8  C   UNL     1     -12.839   4.582  -7.857  1.00  0.00     0.014 C 
BRANCH   7   9
ATOM      9  C   UNL     1     -11.269   2.787  -8.545  1.00  0.00     0.044 C 
ATOM     10  O   UNL     1     -10.953   1.609  -8.857  1.00  0.00    -0.550 OA
ATOM     11  O   UNL     1     -10.270   3.709  -8.250  1.00  0.00    -0.550 OA
ENDBRANCH   7   9
ENDBRANCH   6   7
ENDBRANCH   5   6
ENDBRANCH   4   5
ENDBRANCH   3   4
ENDBRANCH   2   3
ENDBRANCH   1   2
BRANCH   1  12
ATOM     12  C   UNL     1     -13.396  -2.366 -10.929  1.00  0.00     0.000 C 
BRANCH  12  13
ATOM     13  C   UNL     1     -12.065  -2.880 -10.353  1.00  0.00    -0.000 C 
BRANCH  13  14
ATOM     14  C   UNL     1     -11.060  -1.784  -9.945  1.00  0.00    -0.000 C 
BRANCH  14  15
ATOM     15  C   UNL     1      -9.580  -2.208  -9.961  1.00  0.00    -0.000 C 
BRANCH  15  16
ATOM     16  C   UNL     1      -9.390  -3.710 -10.220  1.00  0.00    -0.000 C 
BRANCH  16  17
ATOM     17  C   UNL     1      -8.894  -4.471  -8.979  1.00  0.00    -0.000 C 
BRANCH  17  18
ATOM     18  C   UNL     1      -9.073  -3.689  -7.661  1.00  0.00    -0.003 C 
ATOM     19  C   UNL     1     -10.385  -4.033  -6.955  1.00  0.00     0.004 C 
ENDBRANCH  17  18
ENDBRANCH  16  17
ENDBRANCH  15  16
ENDBRANCH  14  15
ENDBRANCH  13  14
ENDBRANCH  12  13
ENDBRANCH   1  12
TORSDOF 14
ENDMDL
MODEL 8
REMARK VINA RESULT:    -4.252     15.497     18.104
REMARK INTER + INTRA:          -9.157
REMARK INTER:                  -7.646
REMARK INTRA:                  -1.511
REMARK UNBOUND:                -1.425
REMARK SMILES CCCCCCCCCCCCCC[C@H](C)C(=O)[O-]
REMARK SMILES IDX 9 1 10 2 11 3 12 4 13 5 14 6 15 7 16 8 17 9 18 10 19 11 8 12
REMARK SMILES IDX 7 13 6 14 5 15 4 16 3 17 2 18 1 19
REMARK H PARENT
REMARK Flexibility Score: inf
ROOT
ATOM      1  C   UNL     1     -12.624   9.224   5.349  1.00  0.00     0.000 C 
ENDROOT
BRANCH   1   2
ATOM      2  C   UNL     1     -13.885   8.347   5.364  1.00  0.00     0.000 C 
BRANCH   2   3
ATOM      3  C   UNL     1     -13.981   7.411   4.145  1.00  0.00     0.000 C 
BRANCH   3   4
ATOM      4  C   UNL     1     -13.900   5.908   4.466  1.00  0.00     0.000 C 
BRANCH   4   5
ATOM      5  C   UNL     1     -13.119   5.611   5.757  1.00  0.00     0.001 C 
BRANCH   5   6
ATOM      6  C   UNL     1     -11.618   5.376   5.504  1.00  0.00     0.009 C 
BRANCH   6   7
ATOM      7  C   UNL     1     -10.683   6.117   6.489  1.00  0.00     0.032 C 
ATOM      8  C   UNL     1      -9.363   6.478   5.801  1.00  0.00     0.014 C 
BRANCH   7   9
ATOM      9  C   UNL     1     -10.406   5.287   7.713  1.00  0.00     0.044 C 
ATOM     10  O   UNL     1     -10.050   5.842   8.786  1.00  0.00    -0.550 OA
ATOM     11  O   UNL     1     -10.539   3.903   7.669  1.00  0.00    -0.550 OA
ENDBRANCH   7   9
ENDBRANCH   6   7
ENDBRANCH   5   6
ENDBRANCH   4   5
ENDBRANCH   3   4
ENDBRANCH   2   3
ENDBRANCH   1   2
BRANCH   1  12
ATOM     12  C   UNL     1     -12.489  10.014   6.660  1.00  0.00     0.000 C 
BRANCH  12  13
ATOM     13  C   UNL     1     -11.645  11.291   6.504  1.00  0.00    -0.000 C 
BRANCH  13  14
ATOM     14  C   UNL     1     -10.607  11.255   5.364  1.00  0.00    -0.000 C 
BRANCH  14  15
ATOM     15  C   UNL     1      -9.135  11.227   5.814  1.00  0.00    -0.000 C 
BRANCH  15  16
ATOM     16  C   UNL     1      -8.379   9.985   5.315  1.00  0.00    -0.000 C 
BRANCH  16  17
ATOM     17  C   UNL     1      -7.266   9.539   6.278  1.00  0.00    -0.000 C 
BRANCH  17  18
ATOM     18  C   UNL     1      -6.465  10.709   6.885  1.00  0.00    -0.003 C 
ATOM     19  C   UNL     1      -4.981  10.646   6.524  1.00  0.00     0.004 C 
ENDBRANCH  17  18
ENDBRANCH  16  17
ENDBRANCH  15  16
ENDBRANCH  14  15
ENDBRANCH  13  14
ENDBRANCH  12  13
ENDBRANCH   1  12
TORSDOF 14
ENDMDL
