MODEL 1
REMARK VINA RESULT:    -6.136      0.000      0.000
REMARK INTER + INTRA:          -7.430
REMARK INTER:                  -7.033
REMARK INTRA:                  -0.397
REMARK UNBOUND:                -0.397
REMARK SMILES C=C(C)[C@H]1CC[C@@]2(C(=O)[O-])CC[C@]3(C)[C@H](CC[C@H]4[C@]5(C)CC[C@H](O)C(C)(C)[C@H]5CC[C@@]43C)[C@H]12
REMARK SMILES IDX 7 1 6 2 33 3 11 4 5 5 15 6 4 7 12 8 16 9 13 10 17 11 31 12
REMARK SMILES IDX 14 13 18 14 30 15 32 16 19 17 29 18 21 19 20 20 28 21 22 22
REMARK SMILES IDX 25 23 23 24 26 25 27 26 8 27 9 28 10 29 2 30 3 31 1 32 24 33
REMARK H PARENT 24 34
REMARK Flexibility Score: inf
ROOT
ATOM      1  C   UNL     1      60.582  -4.758 -46.910  1.00  0.00     0.014 C 
ATOM      2  C   UNL     1      60.934  -6.181 -46.432  1.00  0.00     0.014 C 
ATOM      3  C   UNL     1      59.102  -4.957 -47.253  1.00  0.00     0.012 C 
ATOM      4  C   UNL     1      61.346  -4.277 -48.199  1.00  0.00     0.014 C 
ATOM      5  C   UNL     1      59.696  -6.646 -45.629  1.00  0.00     0.009 C 
ATOM      6  C   UNL     1      58.335  -3.760 -47.902  1.00  0.00     0.000 C 
ATOM      7  C   UNL     1      58.493  -5.802 -46.129  1.00  0.00     0.018 C 
ATOM      8  C   UNL     1      60.438  -3.651 -49.316  1.00  0.00     0.008 C 
ATOM      9  C   UNL     1      57.314  -2.937 -47.072  1.00  0.00     0.005 C 
ATOM     10  C   UNL     1      59.227  -2.807 -48.778  1.00  0.00    -0.024 C 
ATOM     11  C   UNL     1      56.614  -1.827 -47.938  1.00  0.00     0.005 C 
ATOM     12  C   UNL     1      58.292  -2.159 -49.955  1.00  0.00    -0.024 C 
ATOM     13  C   UNL     1      59.840  -1.658 -47.890  1.00  0.00     0.012 C 
ATOM     14  C   UNL     1      56.761  -2.098 -49.469  1.00  0.00     0.002 C 
ATOM     15  C   UNL     1      58.263  -3.017 -51.259  1.00  0.00     0.008 C 
ATOM     16  C   UNL     1      58.906  -0.776 -50.368  1.00  0.00     0.012 C 
ATOM     17  C   UNL     1      55.726  -1.451 -50.478  1.00  0.00    -0.026 C 
ATOM     18  C   UNL     1      57.271  -2.492 -52.340  1.00  0.00     0.005 C 
ATOM     19  C   UNL     1      54.267  -1.610 -49.934  1.00  0.00     0.010 C 
ATOM     20  C   UNL     1      56.006   0.069 -50.649  1.00  0.00     0.012 C 
ATOM     21  C   UNL     1      55.819  -2.313 -51.811  1.00  0.00     0.003 C 
ATOM     22  C   UNL     1      53.172  -1.292 -50.973  1.00  0.00     0.033 C 
ATOM     23  C   UNL     1      54.729  -1.997 -52.909  1.00  0.00    -0.006 C 
ATOM     24  C   UNL     1      53.309  -2.117 -52.261  1.00  0.00     0.120 C 
ATOM     25  C   UNL     1      54.901  -0.604 -53.567  1.00  0.00     0.014 C 
ATOM     26  C   UNL     1      54.813  -3.035 -54.064  1.00  0.00     0.014 C 
ENDROOT
BRANCH   1  27
ATOM     27  C   UNL     1      60.870  -3.851 -45.714  1.00  0.00     0.048 C 
ATOM     28  O   UNL     1      62.061  -3.550 -45.428  1.00  0.00    -0.550 OA
ATOM     29  O   UNL     1      59.851  -3.398 -44.883  1.00  0.00    -0.550 OA
ENDBRANCH   1  27
BRANCH   7  30
ATOM     30  C   UNL     1      57.309  -6.651 -46.587  1.00  0.00    -0.077 C 
ATOM     31  C   UNL     1      55.901  -6.191 -46.309  1.00  0.00     0.039 C 
ATOM     32  C   UNL     1      57.485  -7.819 -47.232  1.00  0.00     0.008 C 
ENDBRANCH   7  30
BRANCH  24  33
ATOM     33  O   UNL     1      53.013  -3.460 -51.953  1.00  0.00    -0.393 OA
ATOM     34  H   UNL     1      53.679  -3.771 -51.287  1.00  0.00     0.210 HD
ENDBRANCH  24  33
TORSDOF 3
ENDMDL
MODEL 2
REMARK VINA RESULT:    -6.097      3.041      8.200
REMARK INTER + INTRA:          -7.386
REMARK INTER:                  -7.445
REMARK INTRA:                   0.060
REMARK UNBOUND:                -0.397
REMARK SMILES C=C(C)[C@H]1CC[C@@]2(C(=O)[O-])CC[C@]3(C)[C@H](CC[C@H]4[C@]5(C)CC[C@H](O)C(C)(C)[C@H]5CC[C@@]43C)[C@H]12
REMARK SMILES IDX 7 1 6 2 33 3 11 4 5 5 15 6 4 7 12 8 16 9 13 10 17 11 31 12
REMARK SMILES IDX 14 13 18 14 30 15 32 16 19 17 29 18 21 19 20 20 28 21 22 22
REMARK SMILES IDX 25 23 23 24 26 25 27 26 8 27 9 28 10 29 2 30 3 31 1 32 24 33
REMARK H PARENT 24 34
REMARK Flexibility Score: inf
ROOT
ATOM      1  C   UNL     1      51.937  -6.814 -50.386  1.00  0.00     0.014 C 
ATOM      2  C   UNL     1      51.682  -6.945 -51.901  1.00  0.00     0.014 C 
ATOM      3  C   UNL     1      53.065  -5.777 -50.400  1.00  0.00     0.012 C 
ATOM      4  C   UNL     1      52.453  -8.121 -49.678  1.00  0.00     0.014 C 
ATOM      5  C   UNL     1      51.814  -5.505 -52.451  1.00  0.00     0.009 C 
ATOM      6  C   UNL     1      53.735  -5.407 -49.038  1.00  0.00     0.000 C 
ATOM      7  C   UNL     1      52.681  -4.714 -51.435  1.00  0.00     0.018 C 
ATOM      8  C   UNL     1      53.706  -7.927 -48.754  1.00  0.00     0.008 C 
ATOM      9  C   UNL     1      53.434  -4.044 -48.358  1.00  0.00     0.005 C 
ATOM     10  C   UNL     1      53.741  -6.563 -47.974  1.00  0.00    -0.024 C 
ATOM     11  C   UNL     1      54.263  -3.854 -47.036  1.00  0.00     0.005 C 
ATOM     12  C   UNL     1      55.053  -6.378 -47.014  1.00  0.00    -0.024 C 
ATOM     13  C   UNL     1      52.429  -6.513 -47.101  1.00  0.00     0.012 C 
ATOM     14  C   UNL     1      55.480  -4.829 -46.961  1.00  0.00     0.002 C 
ATOM     15  C   UNL     1      56.317  -7.123 -47.549  1.00  0.00     0.008 C 
ATOM     16  C   UNL     1      54.738  -7.020 -45.618  1.00  0.00     0.012 C 
ATOM     17  C   UNL     1      56.712  -4.469 -46.033  1.00  0.00    -0.026 C 
ATOM     18  C   UNL     1      57.610  -6.846 -46.727  1.00  0.00     0.005 C 
ATOM     19  C   UNL     1      57.104  -2.965 -46.212  1.00  0.00     0.010 C 
ATOM     20  C   UNL     1      56.353  -4.691 -44.536  1.00  0.00     0.012 C 
ATOM     21  C   UNL     1      57.933  -5.332 -46.574  1.00  0.00     0.003 C 
ATOM     22  C   UNL     1      58.467  -2.592 -45.593  1.00  0.00     0.033 C 
ATOM     23  C   UNL     1      59.342  -4.997 -45.944  1.00  0.00    -0.006 C 
ATOM     24  C   UNL     1      59.619  -3.465 -46.111  1.00  0.00     0.120 C 
ATOM     25  C   UNL     1      59.464  -5.402 -44.453  1.00  0.00     0.014 C 
ATOM     26  C   UNL     1      60.464  -5.768 -46.696  1.00  0.00     0.014 C 
ENDROOT
BRANCH   1  27
ATOM     27  C   UNL     1      50.609  -6.340 -49.796  1.00  0.00     0.048 C 
ATOM     28  O   UNL     1      49.660  -7.159 -49.650  1.00  0.00    -0.550 OA
ATOM     29  O   UNL     1      50.390  -5.005 -49.475  1.00  0.00    -0.550 OA
ENDBRANCH   1  27
BRANCH   7  30
ATOM     30  C   UNL     1      53.888  -4.032 -52.076  1.00  0.00    -0.077 C 
ATOM     31  C   UNL     1      54.076  -4.083 -53.571  1.00  0.00     0.039 C 
ATOM     32  C   UNL     1      54.807  -3.385 -51.337  1.00  0.00     0.008 C 
ENDBRANCH   7  30
BRANCH  24  33
ATOM     33  O   UNL     1      59.837  -3.143 -47.466  1.00  0.00    -0.393 OA
ATOM     34  H   UNL     1      59.928  -2.157 -47.530  1.00  0.00     0.210 HD
ENDBRANCH  24  33
TORSDOF 3
ENDMDL
MODEL 3
REMARK VINA RESULT:    -5.978      3.020      6.953
REMARK INTER + INTRA:          -7.248
REMARK INTER:                  -7.173
REMARK INTRA:                  -0.075
REMARK UNBOUND:                -0.397
REMARK SMILES C=C(C)[C@H]1CC[C@@]2(C(=O)[O-])CC[C@]3(C)[C@H](CC[C@H]4[C@]5(C)CC[C@H](O)C(C)(C)[C@H]5CC[C@@]43C)[C@H]12
REMARK SMILES IDX 7 1 6 2 33 3 11 4 5 5 15 6 4 7 12 8 16 9 13 10 17 11 31 12
REMARK SMILES IDX 14 13 18 14 30 15 32 16 19 17 29 18 21 19 20 20 28 21 22 22
REMARK SMILES IDX 25 23 23 24 26 25 27 26 8 27 9 28 10 29 2 30 3 31 1 32 24 33
REMARK H PARENT 24 34
REMARK Flexibility Score: inf
ROOT
ATOM      1  C   UNL     1      52.793  -6.620 -47.121  1.00  0.00     0.014 C 
ATOM      2  C   UNL     1      51.869  -7.413 -48.068  1.00  0.00     0.014 C 
ATOM      3  C   UNL     1      53.609  -5.833 -48.152  1.00  0.00     0.012 C 
ATOM      4  C   UNL     1      53.771  -7.494 -46.253  1.00  0.00     0.014 C 
ATOM      5  C   UNL     1      51.507  -6.416 -49.195  1.00  0.00     0.009 C 
ATOM      6  C   UNL     1      54.784  -4.945 -47.630  1.00  0.00     0.000 C 
ATOM      7  C   UNL     1      52.625  -5.339 -49.218  1.00  0.00     0.018 C 
ATOM      8  C   UNL     1      55.269  -7.026 -46.264  1.00  0.00     0.008 C 
ATOM      9  C   UNL     1      54.645  -3.400 -47.593  1.00  0.00     0.005 C 
ATOM     10  C   UNL     1      55.468  -5.468 -46.316  1.00  0.00    -0.024 C 
ATOM     11  C   UNL     1      55.965  -2.705 -47.097  1.00  0.00     0.005 C 
ATOM     12  C   UNL     1      57.035  -4.997 -46.323  1.00  0.00    -0.024 C 
ATOM     13  C   UNL     1      54.740  -4.881 -45.046  1.00  0.00     0.012 C 
ATOM     14  C   UNL     1      57.200  -3.655 -47.193  1.00  0.00     0.002 C 
ATOM     15  C   UNL     1      57.986  -6.033 -47.003  1.00  0.00     0.008 C 
ATOM     16  C   UNL     1      57.523  -4.880 -44.837  1.00  0.00     0.012 C 
ATOM     17  C   UNL     1      58.657  -3.036 -47.265  1.00  0.00    -0.026 C 
ATOM     18  C   UNL     1      59.457  -5.543 -47.146  1.00  0.00     0.005 C 
ATOM     19  C   UNL     1      58.687  -1.838 -48.271  1.00  0.00     0.010 C 
ATOM     20  C   UNL     1      59.092  -2.499 -45.873  1.00  0.00     0.012 C 
ATOM     21  C   UNL     1      59.585  -4.174 -47.874  1.00  0.00     0.003 C 
ATOM     22  C   UNL     1      60.108  -1.365 -48.643  1.00  0.00     0.033 C 
ATOM     23  C   UNL     1      61.056  -3.735 -48.244  1.00  0.00    -0.006 C 
ATOM     24  C   UNL     1      60.989  -2.495 -49.197  1.00  0.00     0.120 C 
ATOM     25  C   UNL     1      61.933  -3.411 -47.007  1.00  0.00     0.014 C 
ATOM     26  C   UNL     1      61.784  -4.879 -49.004  1.00  0.00     0.014 C 
ENDROOT
BRANCH   1  27
ATOM     27  C   UNL     1      51.853  -5.790 -46.247  1.00  0.00     0.048 C 
ATOM     28  O   UNL     1      51.216  -6.344 -45.310  1.00  0.00    -0.550 OA
ATOM     29  O   UNL     1      51.625  -4.442 -46.500  1.00  0.00    -0.550 OA
ENDBRANCH   1  27
BRANCH   7  30
ATOM     30  C   UNL     1      53.264  -5.164 -50.594  1.00  0.00    -0.077 C 
ATOM     31  C   UNL     1      54.223  -4.027 -50.840  1.00  0.00     0.039 C 
ATOM     32  C   UNL     1      52.987  -5.998 -51.613  1.00  0.00     0.008 C 
ENDBRANCH   7  30
BRANCH  24  33
ATOM     33  O   UNL     1      60.484  -2.863 -50.460  1.00  0.00    -0.393 OA
ATOM     34  H   UNL     1      59.508  -2.687 -50.458  1.00  0.00     0.210 HD
ENDBRANCH  24  33
TORSDOF 3
ENDMDL
MODEL 4
REMARK VINA RESULT:    -5.940     11.424     14.845
REMARK INTER + INTRA:          -7.205
REMARK INTER:                  -6.779
REMARK INTRA:                  -0.426
REMARK UNBOUND:                -0.397
REMARK SMILES C=C(C)[C@H]1CC[C@@]2(C(=O)[O-])CC[C@]3(C)[C@H](CC[C@H]4[C@]5(C)CC[C@H](O)C(C)(C)[C@H]5CC[C@@]43C)[C@H]12
REMARK SMILES IDX 7 1 6 2 33 3 11 4 5 5 15 6 4 7 12 8 16 9 13 10 17 11 31 12
REMARK SMILES IDX 14 13 18 14 30 15 32 16 19 17 29 18 21 19 20 20 28 21 22 22
REMARK SMILES IDX 25 23 23 24 26 25 27 26 8 27 9 28 10 29 2 30 3 31 1 32 24 33
REMARK H PARENT 24 34
REMARK Flexibility Score: inf
ROOT
ATOM      1  C   UNL     1      43.040   0.022 -48.743  1.00  0.00     0.014 C 
ATOM      2  C   UNL     1      41.877  -0.933 -49.078  1.00  0.00     0.014 C 
ATOM      3  C   UNL     1      43.744  -0.796 -47.655  1.00  0.00     0.012 C 
ATOM      4  C   UNL     1      42.612   1.412 -48.141  1.00  0.00     0.014 C 
ATOM      5  C   UNL     1      42.501  -2.349 -49.030  1.00  0.00     0.009 C 
ATOM      6  C   UNL     1      44.960  -0.144 -46.922  1.00  0.00     0.000 C 
ATOM      7  C   UNL     1      43.765  -2.251 -48.135  1.00  0.00     0.018 C 
ATOM      8  C   UNL     1      43.384   1.842 -46.845  1.00  0.00     0.008 C 
ATOM      9  C   UNL     1      46.407  -0.611 -47.232  1.00  0.00     0.005 C 
ATOM     10  C   UNL     1      44.898   1.423 -46.815  1.00  0.00    -0.024 C 
ATOM     11  C   UNL     1      47.466   0.130 -46.337  1.00  0.00     0.005 C 
ATOM     12  C   UNL     1      45.689   1.881 -45.457  1.00  0.00    -0.024 C 
ATOM     13  C   UNL     1      45.572   2.087 -48.076  1.00  0.00     0.012 C 
ATOM     14  C   UNL     1      46.813   0.794 -45.084  1.00  0.00     0.002 C 
ATOM     15  C   UNL     1      44.766   1.949 -44.200  1.00  0.00     0.008 C 
ATOM     16  C   UNL     1      46.231   3.338 -45.670  1.00  0.00     0.012 C 
ATOM     17  C   UNL     1      47.706   1.111 -43.814  1.00  0.00    -0.026 C 
ATOM     18  C   UNL     1      45.524   2.247 -42.873  1.00  0.00     0.005 C 
ATOM     19  C   UNL     1      48.634  -0.106 -43.487  1.00  0.00     0.010 C 
ATOM     20  C   UNL     1      48.615   2.344 -44.080  1.00  0.00     0.012 C 
ATOM     21  C   UNL     1      46.695   1.262 -42.596  1.00  0.00     0.003 C 
ATOM     22  C   UNL     1      49.315  -0.023 -42.106  1.00  0.00     0.033 C 
ATOM     23  C   UNL     1      47.357   1.375 -41.166  1.00  0.00    -0.006 C 
ATOM     24  C   UNL     1      48.314   0.155 -40.954  1.00  0.00     0.120 C 
ATOM     25  C   UNL     1      48.126   2.703 -40.946  1.00  0.00     0.014 C 
ATOM     26  C   UNL     1      46.263   1.320 -40.062  1.00  0.00     0.014 C 
ENDROOT
BRANCH   1  27
ATOM     27  C   UNL     1      43.812   0.188 -50.051  1.00  0.00     0.048 C 
ATOM     28  O   UNL     1      43.345   0.922 -50.965  1.00  0.00    -0.550 OA
ATOM     29  O   UNL     1      44.992  -0.506 -50.293  1.00  0.00    -0.550 OA
ENDBRANCH   1  27
BRANCH   7  30
ATOM     30  C   UNL     1      43.774  -3.263 -46.991  1.00  0.00    -0.077 C 
ATOM     31  C   UNL     1      44.998  -4.107 -46.742  1.00  0.00     0.039 C 
ATOM     32  C   UNL     1      42.705  -3.436 -46.193  1.00  0.00     0.008 C 
ENDBRANCH   7  30
BRANCH  24  33
ATOM     33  O   UNL     1      47.579  -1.039 -40.825  1.00  0.00    -0.393 OA
ATOM     34  H   UNL     1      47.343  -1.348 -41.738  1.00  0.00     0.210 HD
ENDBRANCH  24  33
TORSDOF 3
ENDMDL
MODEL 5
REMARK VINA RESULT:    -5.805      6.028      8.351
REMARK INTER + INTRA:          -7.051
REMARK INTER:                  -6.637
REMARK INTRA:                  -0.414
REMARK UNBOUND:                -0.397
REMARK SMILES C=C(C)[C@H]1CC[C@@]2(C(=O)[O-])CC[C@]3(C)[C@H](CC[C@H]4[C@]5(C)CC[C@H](O)C(C)(C)[C@H]5CC[C@@]43C)[C@H]12
REMARK SMILES IDX 7 1 6 2 33 3 11 4 5 5 15 6 4 7 12 8 16 9 13 10 17 11 31 12
REMARK SMILES IDX 14 13 18 14 30 15 32 16 19 17 29 18 21 19 20 20 28 21 22 22
REMARK SMILES IDX 25 23 23 24 26 25 27 26 8 27 9 28 10 29 2 30 3 31 1 32 24 33
REMARK H PARENT 24 34
REMARK Flexibility Score: inf
ROOT
ATOM      1  C   UNL     1      52.344  -6.305 -50.255  1.00  0.00     0.014 C 
ATOM      2  C   UNL     1      52.738  -7.743 -49.863  1.00  0.00     0.014 C 
ATOM      3  C   UNL     1      51.672  -6.579 -51.605  1.00  0.00     0.012 C 
ATOM      4  C   UNL     1      53.549  -5.317 -50.475  1.00  0.00     0.014 C 
ATOM      5  C   UNL     1      51.544  -8.619 -50.313  1.00  0.00     0.009 C 
ATOM      6  C   UNL     1      51.197  -5.351 -52.447  1.00  0.00     0.000 C 
ATOM      7  C   UNL     1      50.804  -7.829 -51.426  1.00  0.00     0.018 C 
ATOM      8  C   UNL     1      53.491  -4.483 -51.803  1.00  0.00     0.008 C 
ATOM      9  C   UNL     1      49.688  -5.007 -52.553  1.00  0.00     0.005 C 
ATOM     10  C   UNL     1      52.046  -4.045 -52.239  1.00  0.00    -0.024 C 
ATOM     11  C   UNL     1      49.432  -3.777 -53.499  1.00  0.00     0.005 C 
ATOM     12  C   UNL     1      52.005  -3.174 -53.624  1.00  0.00    -0.024 C 
ATOM     13  C   UNL     1      51.459  -3.190 -51.052  1.00  0.00     0.012 C 
ATOM     14  C   UNL     1      50.652  -3.492 -54.432  1.00  0.00     0.002 C 
ATOM     15  C   UNL     1      53.156  -3.536 -54.614  1.00  0.00     0.008 C 
ATOM     16  C   UNL     1      52.212  -1.662 -53.262  1.00  0.00     0.012 C 
ATOM     17  C   UNL     1      50.432  -2.692 -55.781  1.00  0.00    -0.026 C 
ATOM     18  C   UNL     1      53.054  -2.820 -55.993  1.00  0.00     0.005 C 
ATOM     19  C   UNL     1      49.163  -3.225 -56.527  1.00  0.00     0.010 C 
ATOM     20  C   UNL     1      50.211  -1.180 -55.491  1.00  0.00     0.012 C 
ATOM     21  C   UNL     1      51.684  -3.031 -56.700  1.00  0.00     0.003 C 
ATOM     22  C   UNL     1      49.034  -2.730 -57.982  1.00  0.00     0.033 C 
ATOM     23  C   UNL     1      51.600  -2.518 -58.191  1.00  0.00    -0.006 C 
ATOM     24  C   UNL     1      50.274  -3.044 -58.833  1.00  0.00     0.120 C 
ATOM     25  C   UNL     1      51.680  -0.975 -58.317  1.00  0.00     0.014 C 
ATOM     26  C   UNL     1      52.787  -3.083 -59.021  1.00  0.00     0.014 C 
ENDROOT
BRANCH   1  27
ATOM     27  C   UNL     1      51.418  -5.825 -49.139  1.00  0.00     0.048 C 
ATOM     28  O   UNL     1      51.903  -5.484 -48.025  1.00  0.00    -0.550 OA
ATOM     29  O   UNL     1      50.036  -5.817 -49.292  1.00  0.00    -0.550 OA
ENDBRANCH   1  27
BRANCH   7  30
ATOM     30  C   UNL     1      50.625  -8.629 -52.715  1.00  0.00    -0.077 C 
ATOM     31  C   UNL     1      51.772  -9.437 -53.265  1.00  0.00     0.039 C 
ATOM     32  C   UNL     1      49.462  -8.628 -53.390  1.00  0.00     0.008 C 
ENDBRANCH   7  30
BRANCH  24  33
ATOM     33  O   UNL     1      50.331  -4.439 -59.023  1.00  0.00    -0.393 OA
ATOM     34  H   UNL     1      50.460  -4.860 -58.134  1.00  0.00     0.210 HD
ENDBRANCH  24  33
TORSDOF 3
ENDMDL
MODEL 6
REMARK VINA RESULT:    -5.712      9.603     11.791
REMARK INTER + INTRA:          -6.944
REMARK INTER:                  -6.764
REMARK INTRA:                  -0.181
REMARK UNBOUND:                -0.397
REMARK SMILES C=C(C)[C@H]1CC[C@@]2(C(=O)[O-])CC[C@]3(C)[C@H](CC[C@H]4[C@]5(C)CC[C@H](O)C(C)(C)[C@H]5CC[C@@]43C)[C@H]12
REMARK SMILES IDX 7 1 6 2 33 3 11 4 5 5 15 6 4 7 12 8 16 9 13 10 17 11 31 12
REMARK SMILES IDX 14 13 18 14 30 15 32 16 19 17 29 18 21 19 20 20 28 21 22 22
REMARK SMILES IDX 25 23 23 24 26 25 27 26 8 27 9 28 10 29 2 30 3 31 1 32 24 33
REMARK H PARENT 24 34
REMARK Flexibility Score: inf
ROOT
ATOM      1  C   UNL     1      48.374  -6.980 -44.850  1.00  0.00     0.014 C 
ATOM      2  C   UNL     1      48.295  -7.805 -43.550  1.00  0.00     0.014 C 
ATOM      3  C   UNL     1      47.825  -5.642 -44.343  1.00  0.00     0.012 C 
ATOM      4  C   UNL     1      47.463  -7.495 -46.026  1.00  0.00     0.014 C 
ATOM      5  C   UNL     1      48.717  -6.823 -42.431  1.00  0.00     0.009 C 
ATOM      6  C   UNL     1      47.616  -4.496 -45.385  1.00  0.00     0.000 C 
ATOM      7  C   UNL     1      48.460  -5.390 -42.972  1.00  0.00     0.018 C 
ATOM      8  C   UNL     1      46.588  -6.392 -46.720  1.00  0.00     0.008 C 
ATOM      9  C   UNL     1      48.587  -3.287 -45.430  1.00  0.00     0.005 C 
ATOM     10  C   UNL     1      47.280  -4.987 -46.840  1.00  0.00    -0.024 C 
ATOM     11  C   UNL     1      48.152  -2.226 -46.506  1.00  0.00     0.005 C 
ATOM     12  C   UNL     1      46.355  -3.850 -47.570  1.00  0.00    -0.024 C 
ATOM     13  C   UNL     1      48.605  -5.208 -47.666  1.00  0.00     0.012 C 
ATOM     14  C   UNL     1      46.662  -2.404 -46.937  1.00  0.00     0.002 C 
ATOM     15  C   UNL     1      44.825  -4.067 -47.349  1.00  0.00     0.008 C 
ATOM     16  C   UNL     1      46.582  -3.949 -49.119  1.00  0.00     0.012 C 
ATOM     17  C   UNL     1      45.879  -1.179 -47.566  1.00  0.00    -0.026 C 
ATOM     18  C   UNL     1      43.935  -2.921 -47.916  1.00  0.00     0.005 C 
ATOM     19  C   UNL     1      46.160   0.123 -46.744  1.00  0.00     0.010 C 
ATOM     20  C   UNL     1      46.344  -0.926 -49.028  1.00  0.00     0.012 C 
ATOM     21  C   UNL     1      44.334  -1.512 -47.392  1.00  0.00     0.003 C 
ATOM     22  C   UNL     1      45.217   1.295 -47.083  1.00  0.00     0.033 C 
ATOM     23  C   UNL     1      43.336  -0.343 -47.755  1.00  0.00    -0.006 C 
ATOM     24  C   UNL     1      43.732   0.932 -46.937  1.00  0.00     0.120 C 
ATOM     25  C   UNL     1      43.295  -0.014 -49.269  1.00  0.00     0.014 C 
ATOM     26  C   UNL     1      41.885  -0.732 -47.356  1.00  0.00     0.014 C 
ENDROOT
BRANCH   1  27
ATOM     27  C   UNL     1      49.852  -6.986 -45.239  1.00  0.00     0.048 C 
ATOM     28  O   UNL     1      50.346  -7.996 -45.811  1.00  0.00    -0.550 OA
ATOM     29  O   UNL     1      50.693  -5.927 -44.918  1.00  0.00    -0.550 OA
ENDBRANCH   1  27
BRANCH   7  30
ATOM     30  C   UNL     1      47.585  -4.546 -42.048  1.00  0.00    -0.077 C 
ATOM     31  C   UNL     1      46.748  -5.212 -40.986  1.00  0.00     0.039 C 
ATOM     32  C   UNL     1      47.529  -3.206 -42.159  1.00  0.00     0.008 C 
ENDBRANCH   7  30
BRANCH  24  33
ATOM     33  O   UNL     1      43.459   0.749 -45.567  1.00  0.00    -0.393 OA
ATOM     34  H   UNL     1      44.075   0.049 -45.227  1.00  0.00     0.210 HD
ENDBRANCH  24  33
TORSDOF 3
ENDMDL
MODEL 7
REMARK VINA RESULT:    -5.683      5.917      8.033
REMARK INTER + INTRA:          -6.911
REMARK INTER:                  -6.485
REMARK INTRA:                  -0.425
REMARK UNBOUND:                -0.397
REMARK SMILES C=C(C)[C@H]1CC[C@@]2(C(=O)[O-])CC[C@]3(C)[C@H](CC[C@H]4[C@]5(C)CC[C@H](O)C(C)(C)[C@H]5CC[C@@]43C)[C@H]12
REMARK SMILES IDX 7 1 6 2 33 3 11 4 5 5 15 6 4 7 12 8 16 9 13 10 17 11 31 12
REMARK SMILES IDX 14 13 18 14 30 15 32 16 19 17 29 18 21 19 20 20 28 21 22 22
REMARK SMILES IDX 25 23 23 24 26 25 27 26 8 27 9 28 10 29 2 30 3 31 1 32 24 33
REMARK H PARENT 24 34
REMARK Flexibility Score: inf
ROOT
ATOM      1  C   UNL     1      53.993  -6.684 -46.955  1.00  0.00     0.014 C 
ATOM      2  C   UNL     1      54.240  -7.159 -45.509  1.00  0.00     0.014 C 
ATOM      3  C   UNL     1      52.462  -6.617 -46.951  1.00  0.00     0.012 C 
ATOM      4  C   UNL     1      54.459  -7.685 -48.077  1.00  0.00     0.014 C 
ATOM      5  C   UNL     1      53.198  -6.394 -44.658  1.00  0.00     0.009 C 
ATOM      6  C   UNL     1      51.742  -6.273 -48.294  1.00  0.00     0.000 C 
ATOM      7  C   UNL     1      52.048  -5.986 -45.617  1.00  0.00     0.018 C 
ATOM      8  C   UNL     1      53.396  -7.971 -49.196  1.00  0.00     0.008 C 
ATOM      9  C   UNL     1      51.108  -4.873 -48.509  1.00  0.00     0.005 C 
ATOM     10  C   UNL     1      52.507  -6.735 -49.586  1.00  0.00    -0.024 C 
ATOM     11  C   UNL     1      50.381  -4.767 -49.900  1.00  0.00     0.005 C 
ATOM     12  C   UNL     1      51.407  -7.050 -50.756  1.00  0.00    -0.024 C 
ATOM     13  C   UNL     1      53.496  -5.608 -50.073  1.00  0.00     0.012 C 
ATOM     14  C   UNL     1      50.082  -6.171 -50.514  1.00  0.00     0.002 C 
ATOM     15  C   UNL     1      50.910  -8.530 -50.752  1.00  0.00     0.008 C 
ATOM     16  C   UNL     1      52.092  -6.833 -52.150  1.00  0.00     0.012 C 
ATOM     17  C   UNL     1      48.930  -6.323 -51.589  1.00  0.00    -0.026 C 
ATOM     18  C   UNL     1      49.762  -8.815 -51.765  1.00  0.00     0.005 C 
ATOM     19  C   UNL     1      47.656  -5.536 -51.133  1.00  0.00     0.010 C 
ATOM     20  C   UNL     1      49.380  -5.742 -52.960  1.00  0.00     0.012 C 
ATOM     21  C   UNL     1      48.542  -7.865 -51.600  1.00  0.00     0.003 C 
ATOM     22  C   UNL     1      46.388  -5.866 -51.948  1.00  0.00     0.033 C 
ATOM     23  C   UNL     1      47.263  -8.245 -52.445  1.00  0.00    -0.006 C 
ATOM     24  C   UNL     1      46.060  -7.366 -51.965  1.00  0.00     0.120 C 
ATOM     25  C   UNL     1      47.465  -8.086 -53.974  1.00  0.00     0.014 C 
ATOM     26  C   UNL     1      46.888  -9.735 -52.211  1.00  0.00     0.014 C 
ENDROOT
BRANCH   1  27
ATOM     27  C   UNL     1      54.715  -5.341 -47.064  1.00  0.00     0.048 C 
ATOM     28  O   UNL     1      55.972  -5.312 -47.172  1.00  0.00    -0.550 OA
ATOM     29  O   UNL     1      54.027  -4.136 -46.979  1.00  0.00    -0.550 OA
ENDBRANCH   1  27
BRANCH   7  30
ATOM     30  C   UNL     1      50.671  -6.442 -45.137  1.00  0.00    -0.077 C 
ATOM     31  C   UNL     1      49.514  -5.476 -45.142  1.00  0.00     0.039 C 
ATOM     32  C   UNL     1      50.458  -7.694 -44.693  1.00  0.00     0.008 C 
ENDBRANCH   7  30
BRANCH  24  33
ATOM     33  O   UNL     1      45.656  -7.740 -50.668  1.00  0.00    -0.393 OA
ATOM     34  H   UNL     1      45.265  -6.940 -50.232  1.00  0.00     0.210 HD
ENDBRANCH  24  33
TORSDOF 3
ENDMDL
MODEL 8
REMARK VINA RESULT:    -5.595      3.268      8.015
REMARK INTER + INTRA:          -6.810
REMARK INTER:                  -6.439
REMARK INTRA:                  -0.371
REMARK UNBOUND:                -0.397
REMARK SMILES C=C(C)[C@H]1CC[C@@]2(C(=O)[O-])CC[C@]3(C)[C@H](CC[C@H]4[C@]5(C)CC[C@H](O)C(C)(C)[C@H]5CC[C@@]43C)[C@H]12
REMARK SMILES IDX 7 1 6 2 33 3 11 4 5 5 15 6 4 7 12 8 16 9 13 10 17 11 31 12
REMARK SMILES IDX 14 13 18 14 30 15 32 16 19 17 29 18 21 19 20 20 28 21 22 22
REMARK SMILES IDX 25 23 23 24 26 25 27 26 8 27 9 28 10 29 2 30 3 31 1 32 24 33
REMARK H PARENT 24 34
REMARK Flexibility Score: inf
ROOT
ATOM      1  C   UNL     1      52.271  -5.055 -46.449  1.00  0.00     0.014 C 
ATOM      2  C   UNL     1      51.037  -5.192 -45.535  1.00  0.00     0.014 C 
ATOM      3  C   UNL     1      53.329  -5.720 -45.561  1.00  0.00     0.012 C 
ATOM      4  C   UNL     1      52.716  -3.577 -46.756  1.00  0.00     0.014 C 
ATOM      5  C   UNL     1      51.176  -6.592 -44.890  1.00  0.00     0.009 C 
ATOM      6  C   UNL     1      54.811  -5.709 -46.057  1.00  0.00     0.000 C 
ATOM      7  C   UNL     1      52.681  -6.968 -44.954  1.00  0.00     0.018 C 
ATOM      8  C   UNL     1      54.245  -3.288 -46.556  1.00  0.00     0.008 C 
ATOM      9  C   UNL     1      55.464  -7.004 -46.608  1.00  0.00     0.005 C 
ATOM     10  C   UNL     1      55.194  -4.475 -46.952  1.00  0.00    -0.024 C 
ATOM     11  C   UNL     1      56.974  -6.783 -46.987  1.00  0.00     0.005 C 
ATOM     12  C   UNL     1      56.785  -4.155 -46.740  1.00  0.00    -0.024 C 
ATOM     13  C   UNL     1      54.910  -4.788 -48.471  1.00  0.00     0.012 C 
ATOM     14  C   UNL     1      57.564  -5.498 -46.322  1.00  0.00     0.002 C 
ATOM     15  C   UNL     1      57.061  -3.154 -45.575  1.00  0.00     0.008 C 
ATOM     16  C   UNL     1      57.326  -3.461 -48.039  1.00  0.00     0.012 C 
ATOM     17  C   UNL     1      59.130  -5.372 -46.122  1.00  0.00    -0.026 C 
ATOM     18  C   UNL     1      58.573  -2.944 -45.266  1.00  0.00     0.005 C 
ATOM     19  C   UNL     1      59.715  -6.712 -45.563  1.00  0.00     0.010 C 
ATOM     20  C   UNL     1      59.832  -5.076 -47.477  1.00  0.00     0.012 C 
ATOM     21  C   UNL     1      59.339  -4.271 -44.994  1.00  0.00     0.003 C 
ATOM     22  C   UNL     1      61.164  -6.599 -45.049  1.00  0.00     0.033 C 
ATOM     23  C   UNL     1      60.816  -4.108 -44.460  1.00  0.00    -0.006 C 
ATOM     24  C   UNL     1      61.339  -5.505 -43.985  1.00  0.00     0.120 C 
ATOM     25  C   UNL     1      61.786  -3.501 -45.506  1.00  0.00     0.014 C 
ATOM     26  C   UNL     1      60.843  -3.149 -43.237  1.00  0.00     0.014 C 
ENDROOT
BRANCH   1  27
ATOM     27  C   UNL     1      51.909  -5.811 -47.727  1.00  0.00     0.048 C 
ATOM     28  O   UNL     1      51.119  -5.289 -48.561  1.00  0.00    -0.550 OA
ATOM     29  O   UNL     1      52.376  -7.098 -47.969  1.00  0.00    -0.550 OA
ENDBRANCH   1  27
BRANCH   7  30
ATOM     30  C   UNL     1      53.265  -7.352 -43.596  1.00  0.00    -0.077 C 
ATOM     31  C   UNL     1      53.850  -6.289 -42.701  1.00  0.00     0.039 C 
ATOM     32  C   UNL     1      53.283  -8.628 -43.170  1.00  0.00     0.008 C 
ENDBRANCH   7  30
BRANCH  24  33
ATOM     33  O   UNL     1      60.667  -5.918 -42.818  1.00  0.00    -0.393 OA
ATOM     34  H   UNL     1      60.938  -6.854 -42.629  1.00  0.00     0.210 HD
ENDBRANCH  24  33
TORSDOF 3
ENDMDL
MODEL 9
REMARK VINA RESULT:    -5.565      6.067     10.732
REMARK INTER + INTRA:          -6.775
REMARK INTER:                  -6.561
REMARK INTRA:                  -0.215
REMARK UNBOUND:                -0.397
REMARK SMILES C=C(C)[C@H]1CC[C@@]2(C(=O)[O-])CC[C@]3(C)[C@H](CC[C@H]4[C@]5(C)CC[C@H](O)C(C)(C)[C@H]5CC[C@@]43C)[C@H]12
REMARK SMILES IDX 7 1 6 2 33 3 11 4 5 5 15 6 4 7 12 8 16 9 13 10 17 11 31 12
REMARK SMILES IDX 14 13 18 14 30 15 32 16 19 17 29 18 21 19 20 20 28 21 22 22
REMARK SMILES IDX 25 23 23 24 26 25 27 26 8 27 9 28 10 29 2 30 3 31 1 32 24 33
REMARK H PARENT 24 34
REMARK Flexibility Score: inf
ROOT
ATOM      1  C   UNL     1      47.656  -7.573 -52.077  1.00  0.00     0.014 C 
ATOM      2  C   UNL     1      47.178  -8.797 -52.883  1.00  0.00     0.014 C 
ATOM      3  C   UNL     1      49.109  -7.984 -51.814  1.00  0.00     0.012 C 
ATOM      4  C   UNL     1      46.929  -7.354 -50.698  1.00  0.00     0.014 C 
ATOM      5  C   UNL     1      48.375  -9.163 -53.793  1.00  0.00     0.009 C 
ATOM      6  C   UNL     1      49.978  -7.058 -50.903  1.00  0.00     0.000 C 
ATOM      7  C   UNL     1      49.646  -8.581 -53.119  1.00  0.00     0.018 C 
ATOM      8  C   UNL     1      47.882  -7.106 -49.476  1.00  0.00     0.008 C 
ATOM      9  C   UNL     1      51.077  -6.155 -51.522  1.00  0.00     0.005 C 
ATOM     10  C   UNL     1      49.171  -6.271 -49.808  1.00  0.00    -0.024 C 
ATOM     11  C   UNL     1      51.870  -5.360 -50.421  1.00  0.00     0.005 C 
ATOM     12  C   UNL     1      50.151  -6.020 -48.522  1.00  0.00    -0.024 C 
ATOM     13  C   UNL     1      48.674  -4.888 -50.379  1.00  0.00     0.012 C 
ATOM     14  C   UNL     1      51.685  -5.982 -49.001  1.00  0.00     0.002 C 
ATOM     15  C   UNL     1      50.090  -7.170 -47.468  1.00  0.00     0.008 C 
ATOM     16  C   UNL     1      49.665  -4.729 -47.775  1.00  0.00     0.012 C 
ATOM     17  C   UNL     1      52.767  -5.700 -47.879  1.00  0.00    -0.026 C 
ATOM     18  C   UNL     1      51.117  -7.019 -46.306  1.00  0.00     0.005 C 
ATOM     19  C   UNL     1      54.210  -5.854 -48.466  1.00  0.00     0.010 C 
ATOM     20  C   UNL     1      52.628  -4.249 -47.337  1.00  0.00     0.012 C 
ATOM     21  C   UNL     1      52.583  -6.850 -46.796  1.00  0.00     0.003 C 
ATOM     22  C   UNL     1      55.321  -5.902 -47.398  1.00  0.00     0.033 C 
ATOM     23  C   UNL     1      53.689  -6.914 -45.670  1.00  0.00    -0.006 C 
ATOM     24  C   UNL     1      55.097  -7.001 -46.348  1.00  0.00     0.120 C 
ATOM     25  C   UNL     1      53.641  -5.715 -44.689  1.00  0.00     0.014 C 
ATOM     26  C   UNL     1      53.499  -8.191 -44.803  1.00  0.00     0.014 C 
ENDROOT
BRANCH   1  27
ATOM     27  C   UNL     1      47.464  -6.378 -53.010  1.00  0.00     0.048 C 
ATOM     28  O   UNL     1      46.310  -5.900 -53.188  1.00  0.00    -0.550 OA
ATOM     29  O   UNL     1      48.525  -5.839 -53.730  1.00  0.00    -0.550 OA
ENDBRANCH   1  27
BRANCH   7  30
ATOM     30  C   UNL     1      50.743  -9.621 -52.900  1.00  0.00    -0.077 C 
ATOM     31  C   UNL     1      51.547 -10.125 -54.071  1.00  0.00     0.039 C 
ATOM     32  C   UNL     1      51.012 -10.117 -51.679  1.00  0.00     0.008 C 
ENDBRANCH   7  30
BRANCH  24  33
ATOM     33  O   UNL     1      55.270  -8.250 -46.979  1.00  0.00    -0.393 OA
ATOM     34  H   UNL     1      55.864  -8.798 -46.403  1.00  0.00     0.210 HD
ENDBRANCH  24  33
TORSDOF 3
ENDMDL
