MODEL 1
REMARK VINA RESULT:    -6.068      0.000      0.000
REMARK INTER + INTRA:          -7.202
REMARK INTER:                  -7.132
REMARK INTRA:                  -0.070
REMARK UNBOUND:                -0.070
REMARK SMILES O=c1c(O)c(-c2ccc(O)c(O)c2)oc2cc(O)ccc12
REMARK SMILES IDX 5 1 3 2 2 3 1 4 21 5 15 6 14 7 16 8 17 9 19 10 20 11 6 12
REMARK SMILES IDX 7 13 8 14 9 15 13 16 11 17 10 18 12 20 4 22 18 24
REMARK H PARENT 10 19 12 21 4 23 18 25
REMARK Flexibility Score: inf
ROOT
ATOM      1  C   UNL     1     -12.006 -32.376  34.316  1.00  0.00     0.180 A 
ATOM      2  C   UNL     1     -13.350 -32.344  33.888  1.00  0.00     0.208 A 
ATOM      3  C   UNL     1     -13.751 -33.200  32.851  1.00  0.00     0.235 A 
ATOM      4  O   UNL     1     -14.950 -33.198  32.459  1.00  0.00    -0.285 OA
ATOM      5  C   UNL     1     -12.806 -34.048  32.252  1.00  0.00     0.069 A 
ATOM      6  C   UNL     1     -11.475 -34.003  32.721  1.00  0.00     0.142 A 
ATOM      7  O   UNL     1     -11.139 -33.185  33.712  1.00  0.00    -0.452 OA
ATOM      8  C   UNL     1     -10.502 -34.827  32.144  1.00  0.00     0.094 A 
ATOM      9  C   UNL     1     -10.844 -35.699  31.100  1.00  0.00     0.119 A 
ATOM     10  C   UNL     1     -12.162 -35.746  30.636  1.00  0.00     0.047 A 
ATOM     11  C   UNL     1     -13.141 -34.926  31.205  1.00  0.00     0.020 A 
ENDROOT
BRANCH   1  12
ATOM     12  C   UNL     1     -11.510 -31.517  35.416  1.00  0.00     0.025 A 
ATOM     13  C   UNL     1     -10.474 -30.591  35.209  1.00  0.00     0.016 A 
ATOM     14  C   UNL     1     -10.038 -29.773  36.256  1.00  0.00     0.051 A 
ATOM     15  C   UNL     1     -10.637 -29.858  37.516  1.00  0.00     0.157 A 
ATOM     16  C   UNL     1     -12.124 -31.586  36.677  1.00  0.00     0.062 A 
ATOM     17  C   UNL     1     -11.688 -30.766  37.728  1.00  0.00     0.158 A 
BRANCH  15  18
ATOM     18  O   UNL     1     -10.180 -29.031  38.541  1.00  0.00    -0.504 OA
ATOM     19  H   UNL     1     -10.306 -29.266  39.519  1.00  0.00     0.293 HD
ENDBRANCH  15  18
BRANCH  17  20
ATOM     20  O   UNL     1     -12.295 -30.852  38.980  1.00  0.00    -0.504 OA
ATOM     21  H   UNL     1     -11.767 -30.718  39.836  1.00  0.00     0.293 HD
ENDBRANCH  17  20
ENDBRANCH   1  12
BRANCH   2  22
ATOM     22  O   UNL     1     -14.257 -31.454  34.470  1.00  0.00    -0.502 OA
ATOM     23  H   UNL     1     -14.006 -30.856  35.248  1.00  0.00     0.293 HD
ENDBRANCH   2  22
BRANCH   9  24
ATOM     24  O   UNL     1      -9.881 -36.521  30.520  1.00  0.00    -0.508 OA
ATOM     25  H   UNL     1      -9.837 -37.513  30.727  1.00  0.00     0.293 HD
ENDBRANCH   9  24
TORSDOF 5
ENDMDL
MODEL 2
REMARK VINA RESULT:    -6.022      2.279      3.739
REMARK INTER + INTRA:          -7.149
REMARK INTER:                  -7.137
REMARK INTRA:                  -0.012
REMARK UNBOUND:                -0.070
REMARK SMILES O=c1c(O)c(-c2ccc(O)c(O)c2)oc2cc(O)ccc12
REMARK SMILES IDX 5 1 3 2 2 3 1 4 21 5 15 6 14 7 16 8 17 9 19 10 20 11 6 12
REMARK SMILES IDX 7 13 8 14 9 15 13 16 11 17 10 18 12 20 4 22 18 24
REMARK H PARENT 10 19 12 21 4 23 18 25
REMARK Flexibility Score: inf
ROOT
ATOM      1  C   UNL     1     -11.646 -33.879  32.249  1.00  0.00     0.180 A 
ATOM      2  C   UNL     1     -11.249 -35.221  32.070  1.00  0.00     0.208 A 
ATOM      3  C   UNL     1     -11.517 -35.848  30.844  1.00  0.00     0.235 A 
ATOM      4  O   UNL     1     -11.162 -37.044  30.656  1.00  0.00    -0.285 OA
ATOM      5  C   UNL     1     -12.188 -35.137  29.837  1.00  0.00     0.069 A 
ATOM      6  C   UNL     1     -12.574 -33.806  30.102  1.00  0.00     0.142 A 
ATOM      7  O   UNL     1     -12.293 -33.245  31.273  1.00  0.00    -0.452 OA
ATOM      8  C   UNL     1     -13.253 -33.066  29.127  1.00  0.00     0.094 A 
ATOM      9  C   UNL     1     -13.552 -33.643  27.885  1.00  0.00     0.119 A 
ATOM     10  C   UNL     1     -13.170 -34.962  27.620  1.00  0.00     0.047 A 
ATOM     11  C   UNL     1     -12.492 -35.709  28.588  1.00  0.00     0.020 A 
ENDROOT
BRANCH   1  12
ATOM     12  C   UNL     1     -11.383 -33.142  33.506  1.00  0.00     0.025 A 
ATOM     13  C   UNL     1     -10.106 -33.126  34.091  1.00  0.00     0.016 A 
ATOM     14  C   UNL     1      -9.876 -32.404  35.265  1.00  0.00     0.051 A 
ATOM     15  C   UNL     1     -10.909 -31.677  35.863  1.00  0.00     0.157 A 
ATOM     16  C   UNL     1     -12.415 -32.395  34.097  1.00  0.00     0.062 A 
ATOM     17  C   UNL     1     -12.186 -31.670  35.275  1.00  0.00     0.158 A 
BRANCH  15  18
ATOM     18  O   UNL     1     -10.651 -30.968  37.035  1.00  0.00    -0.504 OA
ATOM     19  H   UNL     1     -11.025 -30.041  37.197  1.00  0.00     0.293 HD
ENDBRANCH  15  18
BRANCH  17  20
ATOM     20  O   UNL     1     -13.220 -30.942  35.862  1.00  0.00    -0.504 OA
ATOM     21  H   UNL     1     -13.191 -30.671  36.839  1.00  0.00     0.293 HD
ENDBRANCH  17  20
ENDBRANCH   1  12
BRANCH   2  22
ATOM     22  O   UNL     1     -10.626 -35.919  33.108  1.00  0.00    -0.502 OA
ATOM     23  H   UNL     1      -9.940 -35.488  33.715  1.00  0.00     0.293 HD
ENDBRANCH   2  22
BRANCH   9  24
ATOM     24  O   UNL     1     -14.229 -32.915  26.910  1.00  0.00    -0.508 OA
ATOM     25  H   UNL     1     -15.220 -33.046  26.743  1.00  0.00     0.293 HD
ENDBRANCH   9  24
TORSDOF 5
ENDMDL
MODEL 3
REMARK VINA RESULT:    -5.455      2.203      6.985
REMARK INTER + INTRA:          -6.481
REMARK INTER:                  -6.330
REMARK INTRA:                  -0.151
REMARK UNBOUND:                -0.070
REMARK SMILES O=c1c(O)c(-c2ccc(O)c(O)c2)oc2cc(O)ccc12
REMARK SMILES IDX 5 1 3 2 2 3 1 4 21 5 15 6 14 7 16 8 17 9 19 10 20 11 6 12
REMARK SMILES IDX 7 13 8 14 9 15 13 16 11 17 10 18 12 20 4 22 18 24
REMARK H PARENT 10 19 12 21 4 23 18 25
REMARK Flexibility Score: inf
ROOT
ATOM      1  C   UNL     1     -12.812 -33.295  31.536  1.00  0.00     0.180 A 
ATOM      2  C   UNL     1     -14.115 -32.905  31.912  1.00  0.00     0.208 A 
ATOM      3  C   UNL     1     -14.315 -32.350  33.184  1.00  0.00     0.235 A 
ATOM      4  O   UNL     1     -15.469 -31.983  33.539  1.00  0.00    -0.285 OA
ATOM      5  C   UNL     1     -13.224 -32.214  34.058  1.00  0.00     0.069 A 
ATOM      6  C   UNL     1     -11.957 -32.650  33.616  1.00  0.00     0.142 A 
ATOM      7  O   UNL     1     -11.807 -33.162  32.400  1.00  0.00    -0.452 OA
ATOM      8  C   UNL     1     -10.846 -32.540  34.461  1.00  0.00     0.094 A 
ATOM      9  C   UNL     1     -10.987 -31.998  35.745  1.00  0.00     0.119 A 
ATOM     10  C   UNL     1     -12.242 -31.564  36.184  1.00  0.00     0.047 A 
ATOM     11  C   UNL     1     -13.358 -31.670  35.348  1.00  0.00     0.020 A 
ENDROOT
BRANCH   1  12
ATOM     12  C   UNL     1     -12.516 -33.872  30.205  1.00  0.00     0.025 A 
ATOM     13  C   UNL     1     -11.666 -33.218  29.297  1.00  0.00     0.016 A 
ATOM     14  C   UNL     1     -11.382 -33.793  28.056  1.00  0.00     0.051 A 
ATOM     15  C   UNL     1     -11.928 -35.032  27.708  1.00  0.00     0.157 A 
ATOM     16  C   UNL     1     -13.048 -35.125  29.862  1.00  0.00     0.062 A 
ATOM     17  C   UNL     1     -12.763 -35.704  28.617  1.00  0.00     0.158 A 
BRANCH  15  18
ATOM     18  O   UNL     1     -11.629 -35.581  26.462  1.00  0.00    -0.504 OA
ATOM     19  H   UNL     1     -11.161 -35.049  25.738  1.00  0.00     0.293 HD
ENDBRANCH  15  18
BRANCH  17  20
ATOM     20  O   UNL     1     -13.307 -36.943  28.280  1.00  0.00    -0.504 OA
ATOM     21  H   UNL     1     -14.264 -37.185  28.515  1.00  0.00     0.293 HD
ENDBRANCH  17  20
ENDBRANCH   1  12
BRANCH   2  22
ATOM     22  O   UNL     1     -15.190 -33.098  31.040  1.00  0.00    -0.502 OA
ATOM     23  H   UNL     1     -15.487 -34.019  30.740  1.00  0.00     0.293 HD
ENDBRANCH   2  22
BRANCH   9  24
ATOM     24  O   UNL     1      -9.887 -31.885  36.593  1.00  0.00    -0.508 OA
ATOM     25  H   UNL     1      -9.806 -32.447  37.433  1.00  0.00     0.293 HD
ENDBRANCH   9  24
TORSDOF 5
ENDMDL
MODEL 4
REMARK VINA RESULT:    -5.357      2.187      3.287
REMARK INTER + INTRA:          -6.366
REMARK INTER:                  -6.101
REMARK INTRA:                  -0.265
REMARK UNBOUND:                -0.070
REMARK SMILES O=c1c(O)c(-c2ccc(O)c(O)c2)oc2cc(O)ccc12
REMARK SMILES IDX 5 1 3 2 2 3 1 4 21 5 15 6 14 7 16 8 17 9 19 10 20 11 6 12
REMARK SMILES IDX 7 13 8 14 9 15 13 16 11 17 10 18 12 20 4 22 18 24
REMARK H PARENT 10 19 12 21 4 23 18 25
REMARK Flexibility Score: inf
ROOT
ATOM      1  C   UNL     1     -11.431 -33.596  32.417  1.00  0.00     0.180 A 
ATOM      2  C   UNL     1     -10.780 -33.066  31.283  1.00  0.00     0.208 A 
ATOM      3  C   UNL     1     -11.037 -33.637  30.027  1.00  0.00     0.235 A 
ATOM      4  O   UNL     1     -10.477 -33.174  28.996  1.00  0.00    -0.285 OA
ATOM      5  C   UNL     1     -11.914 -34.730  29.932  1.00  0.00     0.069 A 
ATOM      6  C   UNL     1     -12.506 -35.217  31.117  1.00  0.00     0.142 A 
ATOM      7  O   UNL     1     -12.244 -34.642  32.285  1.00  0.00    -0.452 OA
ATOM      8  C   UNL     1     -13.379 -36.310  31.065  1.00  0.00     0.094 A 
ATOM      9  C   UNL     1     -13.668 -36.924  29.839  1.00  0.00     0.119 A 
ATOM     10  C   UNL     1     -13.084 -36.442  28.663  1.00  0.00     0.047 A 
ATOM     11  C   UNL     1     -12.210 -35.351  28.705  1.00  0.00     0.020 A 
ENDROOT
BRANCH   1  12
ATOM     12  C   UNL     1     -11.227 -33.037  33.773  1.00  0.00     0.025 A 
ATOM     13  C   UNL     1     -10.057 -33.303  34.505  1.00  0.00     0.016 A 
ATOM     14  C   UNL     1      -9.875 -32.745  35.773  1.00  0.00     0.051 A 
ATOM     15  C   UNL     1     -10.848 -31.905  36.323  1.00  0.00     0.157 A 
ATOM     16  C   UNL     1     -12.193 -32.177  34.319  1.00  0.00     0.062 A 
ATOM     17  C   UNL     1     -12.012 -31.617  35.591  1.00  0.00     0.158 A 
BRANCH  15  18
ATOM     18  O   UNL     1     -10.640 -31.365  37.592  1.00  0.00    -0.504 OA
ATOM     19  H   UNL     1     -10.078 -30.535  37.738  1.00  0.00     0.293 HD
ENDBRANCH  15  18
BRANCH  17  20
ATOM     20  O   UNL     1     -12.984 -30.775  36.131  1.00  0.00    -0.504 OA
ATOM     21  H   UNL     1     -12.736 -29.927  36.629  1.00  0.00     0.293 HD
ENDBRANCH  17  20
ENDBRANCH   1  12
BRANCH   2  22
ATOM     22  O   UNL     1      -9.875 -32.010  31.415  1.00  0.00    -0.502 OA
ATOM     23  H   UNL     1      -9.600 -31.642  32.317  1.00  0.00     0.293 HD
ENDBRANCH   2  22
BRANCH   9  24
ATOM     24  O   UNL     1     -14.535 -38.013  29.778  1.00  0.00    -0.508 OA
ATOM     25  H   UNL     1     -14.800 -38.430  28.893  1.00  0.00     0.293 HD
ENDBRANCH   9  24
TORSDOF 5
ENDMDL
MODEL 5
REMARK VINA RESULT:    -5.251      3.198      6.457
REMARK INTER + INTRA:          -6.242
REMARK INTER:                  -6.213
REMARK INTRA:                  -0.030
REMARK UNBOUND:                -0.070
REMARK SMILES O=c1c(O)c(-c2ccc(O)c(O)c2)oc2cc(O)ccc12
REMARK SMILES IDX 5 1 3 2 2 3 1 4 21 5 15 6 14 7 16 8 17 9 19 10 20 11 6 12
REMARK SMILES IDX 7 13 8 14 9 15 13 16 11 17 10 18 12 20 4 22 18 24
REMARK H PARENT 10 19 12 21 4 23 18 25
REMARK Flexibility Score: inf
ROOT
ATOM      1  C   UNL     1     -13.338 -33.269  30.496  1.00  0.00     0.180 A 
ATOM      2  C   UNL     1     -12.896 -34.389  29.762  1.00  0.00     0.208 A 
ATOM      3  C   UNL     1     -11.920 -35.225  30.325  1.00  0.00     0.235 A 
ATOM      4  O   UNL     1     -11.517 -36.240  29.694  1.00  0.00    -0.285 OA
ATOM      5  C   UNL     1     -11.394 -34.917  31.591  1.00  0.00     0.069 A 
ATOM      6  C   UNL     1     -11.872 -33.764  32.250  1.00  0.00     0.142 A 
ATOM      7  O   UNL     1     -12.803 -33.004  31.686  1.00  0.00    -0.452 OA
ATOM      8  C   UNL     1     -11.366 -33.417  33.508  1.00  0.00     0.094 A 
ATOM      9  C   UNL     1     -10.385 -34.213  34.118  1.00  0.00     0.119 A 
ATOM     10  C   UNL     1      -9.912 -35.356  33.467  1.00  0.00     0.047 A 
ATOM     11  C   UNL     1     -10.411 -35.710  32.209  1.00  0.00     0.020 A 
ENDROOT
BRANCH   1  12
ATOM     12  C   UNL     1     -14.378 -32.349  29.978  1.00  0.00     0.025 A 
ATOM     13  C   UNL     1     -14.257 -31.749  28.713  1.00  0.00     0.016 A 
ATOM     14  C   UNL     1     -15.262 -30.903  28.234  1.00  0.00     0.051 A 
ATOM     15  C   UNL     1     -16.404 -30.657  29.001  1.00  0.00     0.157 A 
ATOM     16  C   UNL     1     -15.535 -32.116  30.737  1.00  0.00     0.062 A 
ATOM     17  C   UNL     1     -16.544 -31.269  30.259  1.00  0.00     0.158 A 
BRANCH  15  18
ATOM     18  O   UNL     1     -17.389 -29.807  28.499  1.00  0.00    -0.504 OA
ATOM     19  H   UNL     1     -17.277 -29.312  27.623  1.00  0.00     0.293 HD
ENDBRANCH  15  18
BRANCH  17  20
ATOM     20  O   UNL     1     -17.684 -31.033  31.027  1.00  0.00    -0.504 OA
ATOM     21  H   UNL     1     -18.030 -30.093  31.188  1.00  0.00     0.293 HD
ENDBRANCH  17  20
ENDBRANCH   1  12
BRANCH   2  22
ATOM     22  O   UNL     1     -13.402 -34.644  28.484  1.00  0.00    -0.502 OA
ATOM     23  H   UNL     1     -13.807 -35.536  28.230  1.00  0.00     0.293 HD
ENDBRANCH   2  22
BRANCH   9  24
ATOM     24  O   UNL     1      -9.876 -33.875  35.369  1.00  0.00    -0.508 OA
ATOM     25  H   UNL     1     -10.472 -33.826  36.188  1.00  0.00     0.293 HD
ENDBRANCH   9  24
TORSDOF 5
ENDMDL
MODEL 6
REMARK VINA RESULT:    -4.731      2.368      3.613
REMARK INTER + INTRA:          -5.631
REMARK INTER:                  -5.428
REMARK INTRA:                  -0.203
REMARK UNBOUND:                -0.070
REMARK SMILES O=c1c(O)c(-c2ccc(O)c(O)c2)oc2cc(O)ccc12
REMARK SMILES IDX 5 1 3 2 2 3 1 4 21 5 15 6 14 7 16 8 17 9 19 10 20 11 6 12
REMARK SMILES IDX 7 13 8 14 9 15 13 16 11 17 10 18 12 20 4 22 18 24
REMARK H PARENT 10 19 12 21 4 23 18 25
REMARK Flexibility Score: inf
ROOT
ATOM      1  C   UNL     1     -13.201 -34.029  32.081  1.00  0.00     0.180 A 
ATOM      2  C   UNL     1     -13.421 -33.701  30.727  1.00  0.00     0.208 A 
ATOM      3  C   UNL     1     -13.414 -34.729  29.773  1.00  0.00     0.235 A 
ATOM      4  O   UNL     1     -13.620 -34.463  28.556  1.00  0.00    -0.285 OA
ATOM      5  C   UNL     1     -13.169 -36.050  30.182  1.00  0.00     0.069 A 
ATOM      6  C   UNL     1     -12.933 -36.292  31.552  1.00  0.00     0.142 A 
ATOM      7  O   UNL     1     -12.958 -35.291  32.426  1.00  0.00    -0.452 OA
ATOM      8  C   UNL     1     -12.675 -37.593  31.999  1.00  0.00     0.094 A 
ATOM      9  C   UNL     1     -12.650 -38.659  31.089  1.00  0.00     0.119 A 
ATOM     10  C   UNL     1     -12.885 -38.422  29.731  1.00  0.00     0.047 A 
ATOM     11  C   UNL     1     -13.142 -37.125  29.276  1.00  0.00     0.020 A 
ENDROOT
BRANCH   1  12
ATOM     12  C   UNL     1     -13.211 -33.003  33.150  1.00  0.00     0.025 A 
ATOM     13  C   UNL     1     -14.387 -32.313  33.490  1.00  0.00     0.016 A 
ATOM     14  C   UNL     1     -14.378 -31.367  34.519  1.00  0.00     0.051 A 
ATOM     15  C   UNL     1     -13.204 -31.106  35.230  1.00  0.00     0.157 A 
ATOM     16  C   UNL     1     -12.038 -32.754  33.880  1.00  0.00     0.062 A 
ATOM     17  C   UNL     1     -12.027 -31.806  34.912  1.00  0.00     0.158 A 
BRANCH  15  18
ATOM     18  O   UNL     1     -13.225 -30.156  36.250  1.00  0.00    -0.504 OA
ATOM     19  H   UNL     1     -12.407 -29.947  36.809  1.00  0.00     0.293 HD
ENDBRANCH  15  18
BRANCH  17  20
ATOM     20  O   UNL     1     -10.854 -31.555  35.622  1.00  0.00    -0.504 OA
ATOM     21  H   UNL     1     -10.812 -31.651  36.631  1.00  0.00     0.293 HD
ENDBRANCH  17  20
ENDBRANCH   1  12
BRANCH   2  22
ATOM     22  O   UNL     1     -13.614 -32.372  30.342  1.00  0.00    -0.502 OA
ATOM     23  H   UNL     1     -14.188 -31.731  30.877  1.00  0.00     0.293 HD
ENDBRANCH   2  22
BRANCH   9  24
ATOM     24  O   UNL     1     -12.394 -39.957  31.525  1.00  0.00    -0.508 OA
ATOM     25  H   UNL     1     -13.002 -40.422  32.190  1.00  0.00     0.293 HD
ENDBRANCH   9  24
TORSDOF 5
ENDMDL
MODEL 7
REMARK VINA RESULT:    -4.384      2.218      7.650
REMARK INTER + INTRA:          -5.223
REMARK INTER:                  -4.991
REMARK INTRA:                  -0.232
REMARK UNBOUND:                -0.070
REMARK SMILES O=c1c(O)c(-c2ccc(O)c(O)c2)oc2cc(O)ccc12
REMARK SMILES IDX 5 1 3 2 2 3 1 4 21 5 15 6 14 7 16 8 17 9 19 10 20 11 6 12
REMARK SMILES IDX 7 13 8 14 9 15 13 16 11 17 10 18 12 20 4 22 18 24
REMARK H PARENT 10 19 12 21 4 23 18 25
REMARK Flexibility Score: inf
ROOT
ATOM      1  C   UNL     1     -12.593 -34.548  32.173  1.00  0.00     0.180 A 
ATOM      2  C   UNL     1     -11.339 -34.733  32.793  1.00  0.00     0.208 A 
ATOM      3  C   UNL     1     -10.986 -33.902  33.866  1.00  0.00     0.235 A 
ATOM      4  O   UNL     1      -9.875 -34.055  34.444  1.00  0.00    -0.285 OA
ATOM      5  C   UNL     1     -11.875 -32.898  34.284  1.00  0.00     0.069 A 
ATOM      6  C   UNL     1     -13.100 -32.762  33.596  1.00  0.00     0.142 A 
ATOM      7  O   UNL     1     -13.400 -33.575  32.590  1.00  0.00    -0.452 OA
ATOM      8  C   UNL     1     -14.008 -31.767  33.976  1.00  0.00     0.094 A 
ATOM      9  C   UNL     1     -13.706 -30.904  35.039  1.00  0.00     0.119 A 
ATOM     10  C   UNL     1     -12.494 -31.039  35.722  1.00  0.00     0.047 A 
ATOM     11  C   UNL     1     -11.579 -32.029  35.349  1.00  0.00     0.020 A 
ENDROOT
BRANCH   1  12
ATOM     12  C   UNL     1     -13.047 -35.396  31.046  1.00  0.00     0.025 A 
ATOM     13  C   UNL     1     -13.384 -36.747  31.237  1.00  0.00     0.016 A 
ATOM     14  C   UNL     1     -13.832 -37.521  30.164  1.00  0.00     0.051 A 
ATOM     15  C   UNL     1     -13.964 -36.958  28.891  1.00  0.00     0.157 A 
ATOM     16  C   UNL     1     -13.199 -34.827  29.772  1.00  0.00     0.062 A 
ATOM     17  C   UNL     1     -13.649 -35.603  28.694  1.00  0.00     0.158 A 
BRANCH  15  18
ATOM     18  O   UNL     1     -14.412 -37.755  27.839  1.00  0.00    -0.504 OA
ATOM     19  H   UNL     1     -13.802 -38.405  27.359  1.00  0.00     0.293 HD
ENDBRANCH  15  18
BRANCH  17  20
ATOM     20  O   UNL     1     -13.784 -35.032  27.429  1.00  0.00    -0.504 OA
ATOM     21  H   UNL     1     -12.975 -34.791  26.865  1.00  0.00     0.293 HD
ENDBRANCH  17  20
ENDBRANCH   1  12
BRANCH   2  22
ATOM     22  O   UNL     1     -10.455 -35.709  32.324  1.00  0.00    -0.502 OA
ATOM     23  H   UNL     1      -9.456 -35.655  32.481  1.00  0.00     0.293 HD
ENDBRANCH   2  22
BRANCH   9  24
ATOM     24  O   UNL     1     -14.604 -29.911  35.423  1.00  0.00    -0.508 OA
ATOM     25  H   UNL     1     -14.285 -29.014  35.770  1.00  0.00     0.293 HD
ENDBRANCH   9  24
TORSDOF 5
ENDMDL
MODEL 8
REMARK VINA RESULT:    -4.278      3.162      7.438
REMARK INTER + INTRA:          -5.098
REMARK INTER:                  -5.464
REMARK INTRA:                   0.366
REMARK UNBOUND:                -0.070
REMARK SMILES O=c1c(O)c(-c2ccc(O)c(O)c2)oc2cc(O)ccc12
REMARK SMILES IDX 5 1 3 2 2 3 1 4 21 5 15 6 14 7 16 8 17 9 19 10 20 11 6 12
REMARK SMILES IDX 7 13 8 14 9 15 13 16 11 17 10 18 12 20 4 22 18 24
REMARK H PARENT 10 19 12 21 4 23 18 25
REMARK Flexibility Score: inf
ROOT
ATOM      1  C   UNL     1     -12.222 -34.353  30.058  1.00  0.00     0.180 A 
ATOM      2  C   UNL     1     -11.895 -35.720  30.181  1.00  0.00     0.208 A 
ATOM      3  C   UNL     1     -11.226 -36.154  31.335  1.00  0.00     0.235 A 
ATOM      4  O   UNL     1     -10.933 -37.374  31.474  1.00  0.00    -0.285 OA
ATOM      5  C   UNL     1     -10.881 -35.221  32.326  1.00  0.00     0.069 A 
ATOM      6  C   UNL     1     -11.222 -33.867  32.117  1.00  0.00     0.142 A 
ATOM      7  O   UNL     1     -11.863 -33.498  31.014  1.00  0.00    -0.452 OA
ATOM      8  C   UNL     1     -10.887 -32.905  33.077  1.00  0.00     0.094 A 
ATOM      9  C   UNL     1     -10.213 -33.281  34.247  1.00  0.00     0.119 A 
ATOM     10  C   UNL     1      -9.876 -34.622  34.457  1.00  0.00     0.047 A 
ATOM     11  C   UNL     1     -10.206 -35.590  33.503  1.00  0.00     0.020 A 
ENDROOT
BRANCH   1  12
ATOM     12  C   UNL     1     -12.943 -33.819  28.880  1.00  0.00     0.025 A 
ATOM     13  C   UNL     1     -12.942 -34.503  27.652  1.00  0.00     0.016 A 
ATOM     14  C   UNL     1     -13.650 -33.992  26.560  1.00  0.00     0.051 A 
ATOM     15  C   UNL     1     -14.377 -32.805  26.680  1.00  0.00     0.157 A 
ATOM     16  C   UNL     1     -13.690 -32.637  29.004  1.00  0.00     0.062 A 
ATOM     17  C   UNL     1     -14.401 -32.124  27.909  1.00  0.00     0.158 A 
BRANCH  15  18
ATOM     18  O   UNL     1     -15.071 -32.319  25.573  1.00  0.00    -0.504 OA
ATOM     19  H   UNL     1     -15.958 -32.711  25.279  1.00  0.00     0.293 HD
ENDBRANCH  15  18
BRANCH  17  20
ATOM     20  O   UNL     1     -15.129 -30.942  28.038  1.00  0.00    -0.504 OA
ATOM     21  H   UNL     1     -15.184 -30.266  27.284  1.00  0.00     0.293 HD
ENDBRANCH  17  20
ENDBRANCH   1  12
BRANCH   2  22
ATOM     22  O   UNL     1     -12.208 -36.617  29.157  1.00  0.00    -0.502 OA
ATOM     23  H   UNL     1     -12.689 -36.330  28.313  1.00  0.00     0.293 HD
ENDBRANCH   2  22
BRANCH   9  24
ATOM     24  O   UNL     1      -9.876 -32.330  35.207  1.00  0.00    -0.508 OA
ATOM     25  H   UNL     1     -10.090 -32.468  36.188  1.00  0.00     0.293 HD
ENDBRANCH   9  24
TORSDOF 5
ENDMDL
