MODEL 1
REMARK VINA RESULT:    -3.193      0.000      0.000
REMARK INTER + INTRA:          -5.090
REMARK INTER:                  -4.313
REMARK INTRA:                  -0.776
REMARK UNBOUND:                -0.776
REMARK SMILES O=C[C@@H](O)[C@H](O)[C@H](O)CO
REMARK SMILES IDX 7 1 9 2 10 3 5 5 3 6 2 7 1 8 4 9 6 11 8 13
REMARK H PARENT 10 4 4 10 6 12 8 14
REMARK Flexibility Score: inf
ROOT
ATOM      1  C   UNL     1      15.770   0.422   2.104  1.00  0.00     0.171 C 
ENDROOT
BRANCH   1   2
ATOM      2  C   UNL     1      16.957   1.391   1.949  1.00  0.00     0.190 C 
BRANCH   2   3
ATOM      3  O   UNL     1      16.631   2.425   1.060  1.00  0.00    -0.394 OA
ATOM      4  H   UNL     1      15.721   2.736   1.303  1.00  0.00     0.210 HD
ENDBRANCH   2   3
ENDBRANCH   1   2
BRANCH   1   5
ATOM      5  C   UNL     1      15.257  -0.077   0.725  1.00  0.00     0.181 C 
BRANCH   5   6
ATOM      6  C   UNL     1      14.469  -1.405   0.839  1.00  0.00     0.209 C 
BRANCH   6   7
ATOM      7  C   UNL     1      15.319  -2.475   1.471  1.00  0.00     0.258 C 
ATOM      8  O   UNL     1      16.220  -3.002   0.838  1.00  0.00    -0.300 OA
ENDBRANCH   6   7
BRANCH   6   9
ATOM      9  O   UNL     1      13.308  -1.209   1.605  1.00  0.00    -0.383 OA
ATOM     10  H   UNL     1      13.374  -0.301   2.001  1.00  0.00     0.211 HD
ENDBRANCH   6   9
ENDBRANCH   5   6
BRANCH   5  11
ATOM     11  O   UNL     1      16.319  -0.207  -0.192  1.00  0.00    -0.387 OA
ATOM     12  H   UNL     1      16.018   0.175  -1.058  1.00  0.00     0.211 HD
ENDBRANCH   5  11
ENDBRANCH   1   5
BRANCH   1  13
ATOM     13  O   UNL     1      14.733   1.035   2.831  1.00  0.00    -0.388 OA
ATOM     14  H   UNL     1      14.565   0.482   3.637  1.00  0.00     0.211 HD
ENDBRANCH   1  13
TORSDOF 8
ENDMDL
MODEL 2
REMARK VINA RESULT:    -3.038      4.225      6.556
REMARK INTER + INTRA:          -4.880
REMARK INTER:                  -4.014
REMARK INTRA:                  -0.866
REMARK UNBOUND:                -0.776
REMARK SMILES O=C[C@@H](O)[C@H](O)[C@H](O)CO
REMARK SMILES IDX 7 1 9 2 10 3 5 5 3 6 2 7 1 8 4 9 6 11 8 13
REMARK H PARENT 10 4 4 10 6 12 8 14
REMARK Flexibility Score: inf
ROOT
ATOM      1  C   UNL     1      14.652  -6.927   1.361  1.00  0.00     0.171 C 
ENDROOT
BRANCH   1   2
ATOM      2  C   UNL     1      14.470  -7.017  -0.166  1.00  0.00     0.190 C 
BRANCH   2   3
ATOM      3  O   UNL     1      14.479  -5.736  -0.735  1.00  0.00    -0.394 OA
ATOM      4  H   UNL     1      15.415  -5.409  -0.690  1.00  0.00     0.210 HD
ENDBRANCH   2   3
ENDBRANCH   1   2
BRANCH   1   5
ATOM      5  C   UNL     1      16.105  -6.526   1.741  1.00  0.00     0.181 C 
BRANCH   5   6
ATOM      6  C   UNL     1      16.143  -5.449   2.853  1.00  0.00     0.209 C 
BRANCH   6   7
ATOM      7  C   UNL     1      16.265  -4.072   2.257  1.00  0.00     0.258 C 
ATOM      8  O   UNL     1      15.492  -3.705   1.386  1.00  0.00    -0.300 OA
ENDBRANCH   6   7
BRANCH   6   9
ATOM      9  O   UNL     1      14.978  -5.524   3.633  1.00  0.00    -0.383 OA
ATOM     10  H   UNL     1      14.852  -4.631   4.049  1.00  0.00     0.211 HD
ENDBRANCH   6   9
ENDBRANCH   5   6
BRANCH   5  11
ATOM     11  O   UNL     1      16.821  -6.095   0.608  1.00  0.00    -0.387 OA
ATOM     12  H   UNL     1      16.450  -6.569  -0.182  1.00  0.00     0.211 HD
ENDBRANCH   5  11
ENDBRANCH   1   5
BRANCH   1  13
ATOM     13  O   UNL     1      14.296  -8.146   1.967  1.00  0.00    -0.388 OA
ATOM     14  H   UNL     1      14.622  -8.122   2.904  1.00  0.00     0.211 HD
ENDBRANCH   1  13
TORSDOF 8
ENDMDL
MODEL 3
REMARK VINA RESULT:    -3.007      3.969      5.785
REMARK INTER + INTRA:          -4.837
REMARK INTER:                  -3.972
REMARK INTRA:                  -0.866
REMARK UNBOUND:                -0.776
REMARK SMILES O=C[C@@H](O)[C@H](O)[C@H](O)CO
REMARK SMILES IDX 7 1 9 2 10 3 5 5 3 6 2 7 1 8 4 9 6 11 8 13
REMARK H PARENT 10 4 4 10 6 12 8 14
REMARK Flexibility Score: inf
ROOT
ATOM      1  C   UNL     1      14.989  -4.877  -0.031  1.00  0.00     0.171 C 
ENDROOT
BRANCH   1   2
ATOM      2  C   UNL     1      15.716  -3.629   0.506  1.00  0.00     0.190 C 
BRANCH   2   3
ATOM      3  O   UNL     1      15.545  -3.524   1.893  1.00  0.00    -0.394 OA
ATOM      4  H   UNL     1      15.958  -2.664   2.169  1.00  0.00     0.210 HD
ENDBRANCH   2   3
ENDBRANCH   1   2
BRANCH   1   5
ATOM      5  C   UNL     1      15.808  -6.172   0.231  1.00  0.00     0.181 C 
BRANCH   5   6
ATOM      6  C   UNL     1      14.940  -7.299   0.841  1.00  0.00     0.209 C 
BRANCH   6   7
ATOM      7  C   UNL     1      15.066  -7.315   2.341  1.00  0.00     0.258 C 
ATOM      8  O   UNL     1      15.021  -6.273   2.976  1.00  0.00    -0.300 OA
ENDBRANCH   6   7
BRANCH   6   9
ATOM      9  O   UNL     1      13.595  -7.118   0.481  1.00  0.00    -0.383 OA
ATOM     10  H   UNL     1      13.562  -6.327  -0.118  1.00  0.00     0.211 HD
ENDBRANCH   6   9
ENDBRANCH   5   6
BRANCH   5  11
ATOM     11  O   UNL     1      16.924  -5.906   1.048  1.00  0.00    -0.387 OA
ATOM     12  H   UNL     1      17.198  -4.965   0.888  1.00  0.00     0.211 HD
ENDBRANCH   5  11
ENDBRANCH   1   5
BRANCH   1  13
ATOM     13  O   UNL     1      14.714  -4.728  -1.402  1.00  0.00    -0.388 OA
ATOM     14  H   UNL     1      15.118  -5.501  -1.875  1.00  0.00     0.211 HD
ENDBRANCH   1  13
TORSDOF 8
ENDMDL
MODEL 4
REMARK VINA RESULT:    -2.994      1.188      3.776
REMARK INTER + INTRA:          -4.820
REMARK INTER:                  -4.393
REMARK INTRA:                  -0.427
REMARK UNBOUND:                -0.776
REMARK SMILES O=C[C@@H](O)[C@H](O)[C@H](O)CO
REMARK SMILES IDX 7 1 9 2 10 3 5 5 3 6 2 7 1 8 4 9 6 11 8 13
REMARK H PARENT 10 4 4 10 6 12 8 14
REMARK Flexibility Score: inf
ROOT
ATOM      1  C   UNL     1      15.439  -2.303   1.398  1.00  0.00     0.171 C 
ENDROOT
BRANCH   1   2
ATOM      2  C   UNL     1      15.481  -3.049   0.051  1.00  0.00     0.190 C 
BRANCH   2   3
ATOM      3  O   UNL     1      14.186  -3.193  -0.467  1.00  0.00    -0.394 OA
ATOM      4  H   UNL     1      13.560  -2.861   0.228  1.00  0.00     0.210 HD
ENDBRANCH   2   3
ENDBRANCH   1   2
BRANCH   1   5
ATOM      5  C   UNL     1      14.785  -0.901   1.255  1.00  0.00     0.181 C 
BRANCH   5   6
ATOM      6  C   UNL     1      15.549   0.186   2.050  1.00  0.00     0.209 C 
BRANCH   6   7
ATOM      7  C   UNL     1      16.370   1.044   1.126  1.00  0.00     0.258 C 
ATOM      8  O   UNL     1      17.242   0.546   0.432  1.00  0.00    -0.300 OA
ENDBRANCH   6   7
BRANCH   6   9
ATOM      9  O   UNL     1      14.640   0.989   2.759  1.00  0.00    -0.383 OA
ATOM     10  H   UNL     1      14.876   0.909   3.721  1.00  0.00     0.211 HD
ENDBRANCH   6   9
ENDBRANCH   5   6
BRANCH   5  11
ATOM     11  O   UNL     1      13.430  -0.935   1.636  1.00  0.00    -0.387 OA
ATOM     12  H   UNL     1      13.311  -0.294   2.386  1.00  0.00     0.211 HD
ENDBRANCH   5  11
ENDBRANCH   1   5
BRANCH   1  13
ATOM     13  O   UNL     1      16.734  -2.198   1.936  1.00  0.00    -0.388 OA
ATOM     14  H   UNL     1      17.371  -2.133   1.177  1.00  0.00     0.211 HD
ENDBRANCH   1  13
TORSDOF 8
ENDMDL
MODEL 5
REMARK VINA RESULT:    -2.963      3.689      6.481
REMARK INTER + INTRA:          -4.779
REMARK INTER:                  -4.287
REMARK INTRA:                  -0.492
REMARK UNBOUND:                -0.776
REMARK SMILES O=C[C@@H](O)[C@H](O)[C@H](O)CO
REMARK SMILES IDX 7 1 9 2 10 3 5 5 3 6 2 7 1 8 4 9 6 11 8 13
REMARK H PARENT 10 4 4 10 6 12 8 14
REMARK Flexibility Score: inf
ROOT
ATOM      1  C   UNL     1      15.232  -6.803   0.590  1.00  0.00     0.171 C 
ENDROOT
BRANCH   1   2
ATOM      2  C   UNL     1      15.115  -7.183   2.078  1.00  0.00     0.190 C 
BRANCH   2   3
ATOM      3  O   UNL     1      14.309  -8.320   2.230  1.00  0.00    -0.394 OA
ATOM      4  H   UNL     1      13.400  -7.997   2.466  1.00  0.00     0.210 HD
ENDBRANCH   2   3
ENDBRANCH   1   2
BRANCH   1   5
ATOM      5  C   UNL     1      15.844  -5.386   0.409  1.00  0.00     0.181 C 
BRANCH   5   6
ATOM      6  C   UNL     1      14.839  -4.391  -0.221  1.00  0.00     0.209 C 
BRANCH   6   7
ATOM      7  C   UNL     1      15.259  -2.970   0.045  1.00  0.00     0.258 C 
ATOM      8  O   UNL     1      16.342  -2.562  -0.345  1.00  0.00    -0.300 OA
ENDBRANCH   6   7
BRANCH   6   9
ATOM      9  O   UNL     1      14.755  -4.607  -1.607  1.00  0.00    -0.383 OA
ATOM     10  H   UNL     1      15.616  -5.016  -1.887  1.00  0.00     0.211 HD
ENDBRANCH   6   9
ENDBRANCH   5   6
BRANCH   5  11
ATOM     11  O   UNL     1      17.030  -5.441  -0.348  1.00  0.00    -0.387 OA
ATOM     12  H   UNL     1      17.726  -5.872   0.213  1.00  0.00     0.211 HD
ENDBRANCH   5  11
ENDBRANCH   1   5
BRANCH   1  13
ATOM     13  O   UNL     1      13.974  -6.888  -0.034  1.00  0.00    -0.388 OA
ATOM     14  H   UNL     1      13.413  -7.504   0.505  1.00  0.00     0.211 HD
ENDBRANCH   1  13
TORSDOF 8
ENDMDL
MODEL 6
REMARK VINA RESULT:    -2.961      1.260      2.415
REMARK INTER + INTRA:          -4.775
REMARK INTER:                  -4.290
REMARK INTRA:                  -0.485
REMARK UNBOUND:                -0.776
REMARK SMILES O=C[C@@H](O)[C@H](O)[C@H](O)CO
REMARK SMILES IDX 7 1 9 2 10 3 5 5 3 6 2 7 1 8 4 9 6 11 8 13
REMARK H PARENT 10 4 4 10 6 12 8 14
REMARK Flexibility Score: inf
ROOT
ATOM      1  C   UNL     1      15.215  -0.110   0.744  1.00  0.00     0.171 C 
ENDROOT
BRANCH   1   2
ATOM      2  C   UNL     1      15.797   0.837   1.811  1.00  0.00     0.190 C 
BRANCH   2   3
ATOM      3  O   UNL     1      14.882   1.012   2.859  1.00  0.00    -0.394 OA
ATOM      4  H   UNL     1      15.194   1.793   3.385  1.00  0.00     0.210 HD
ENDBRANCH   2   3
ENDBRANCH   1   2
BRANCH   1   5
ATOM      5  C   UNL     1      14.844  -1.493   1.347  1.00  0.00     0.181 C 
BRANCH   5   6
ATOM      6  C   UNL     1      15.252  -2.664   0.421  1.00  0.00     0.209 C 
BRANCH   6   7
ATOM      7  C   UNL     1      15.641  -3.872   1.231  1.00  0.00     0.258 C 
ATOM      8  O   UNL     1      15.493  -3.877   2.443  1.00  0.00    -0.300 OA
ENDBRANCH   6   7
BRANCH   6   9
ATOM      9  O   UNL     1      14.188  -2.991  -0.435  1.00  0.00    -0.383 OA
ATOM     10  H   UNL     1      14.468  -3.795  -0.948  1.00  0.00     0.211 HD
ENDBRANCH   6   9
ENDBRANCH   5   6
BRANCH   5  11
ATOM     11  O   UNL     1      13.471  -1.557   1.655  1.00  0.00    -0.387 OA
ATOM     12  H   UNL     1      13.221  -0.704   2.098  1.00  0.00     0.211 HD
ENDBRANCH   5  11
ENDBRANCH   1   5
BRANCH   1  13
ATOM     13  O   UNL     1      16.121  -0.256  -0.322  1.00  0.00    -0.388 OA
ATOM     14  H   UNL     1      16.822  -0.897  -0.035  1.00  0.00     0.211 HD
ENDBRANCH   1  13
TORSDOF 8
ENDMDL
MODEL 7
REMARK VINA RESULT:    -2.939      4.824      6.614
REMARK INTER + INTRA:          -4.746
REMARK INTER:                  -4.051
REMARK INTRA:                  -0.695
REMARK UNBOUND:                -0.776
REMARK SMILES O=C[C@@H](O)[C@H](O)[C@H](O)CO
REMARK SMILES IDX 7 1 9 2 10 3 5 5 3 6 2 7 1 8 4 9 6 11 8 13
REMARK H PARENT 10 4 4 10 6 12 8 14
REMARK Flexibility Score: inf
ROOT
ATOM      1  C   UNL     1      15.328   2.812  -1.705  1.00  0.00     0.171 C 
ENDROOT
BRANCH   1   2
ATOM      2  C   UNL     1      16.238   1.853  -2.496  1.00  0.00     0.190 C 
BRANCH   2   3
ATOM      3  O   UNL     1      15.760   1.695  -3.805  1.00  0.00    -0.394 OA
ATOM      4  H   UNL     1      14.968   2.286  -3.894  1.00  0.00     0.210 HD
ENDBRANCH   2   3
ENDBRANCH   1   2
BRANCH   1   5
ATOM      5  C   UNL     1      15.752   4.294  -1.902  1.00  0.00     0.181 C 
BRANCH   5   6
ATOM      6  C   UNL     1      14.761   5.279  -1.236  1.00  0.00     0.209 C 
BRANCH   6   7
ATOM      7  C   UNL     1      14.426   6.411  -2.170  1.00  0.00     0.258 C 
ATOM      8  O   UNL     1      15.191   7.354  -2.297  1.00  0.00    -0.300 OA
ENDBRANCH   6   7
BRANCH   6   9
ATOM      9  O   UNL     1      13.585   4.603  -0.871  1.00  0.00    -0.383 OA
ATOM     10  H   UNL     1      12.986   4.621  -1.663  1.00  0.00     0.211 HD
ENDBRANCH   6   9
ENDBRANCH   5   6
BRANCH   5  11
ATOM     11  O   UNL     1      15.909   4.596  -3.269  1.00  0.00    -0.387 OA
ATOM     12  H   UNL     1      16.352   3.819  -3.700  1.00  0.00     0.211 HD
ENDBRANCH   5  11
ENDBRANCH   1   5
BRANCH   1  13
ATOM     13  O   UNL     1      15.329   2.469  -0.341  1.00  0.00    -0.388 OA
ATOM     14  H   UNL     1      14.480   2.800   0.052  1.00  0.00     0.211 HD
ENDBRANCH   1  13
TORSDOF 8
ENDMDL
MODEL 8
REMARK VINA RESULT:    -2.891      4.056      5.239
REMARK INTER + INTRA:          -4.681
REMARK INTER:                  -3.930
REMARK INTRA:                  -0.751
REMARK UNBOUND:                -0.776
REMARK SMILES O=C[C@@H](O)[C@H](O)[C@H](O)CO
REMARK SMILES IDX 7 1 9 2 10 3 5 5 3 6 2 7 1 8 4 9 6 11 8 13
REMARK H PARENT 10 4 4 10 6 12 8 14
REMARK Flexibility Score: inf
ROOT
ATOM      1  C   UNL     1      15.593   4.798  -2.255  1.00  0.00     0.171 C 
ENDROOT
BRANCH   1   2
ATOM      2  C   UNL     1      14.626   5.442  -1.243  1.00  0.00     0.190 C 
BRANCH   2   3
ATOM      3  O   UNL     1      13.640   4.523  -0.859  1.00  0.00    -0.394 OA
ATOM      4  H   UNL     1      12.938   4.546  -1.560  1.00  0.00     0.210 HD
ENDBRANCH   2   3
ENDBRANCH   1   2
BRANCH   1   5
ATOM      5  C   UNL     1      16.430   3.663  -1.603  1.00  0.00     0.181 C 
BRANCH   5   6
ATOM      6  C   UNL     1      16.072   2.270  -2.175  1.00  0.00     0.209 C 
BRANCH   6   7
ATOM      7  C   UNL     1      16.392   1.187  -1.179  1.00  0.00     0.258 C 
ATOM      8  O   UNL     1      15.569   0.857  -0.339  1.00  0.00    -0.300 OA
ENDBRANCH   6   7
BRANCH   6   9
ATOM      9  O   UNL     1      14.707   2.222  -2.503  1.00  0.00    -0.383 OA
ATOM     10  H   UNL     1      14.651   2.129  -3.490  1.00  0.00     0.211 HD
ENDBRANCH   6   9
ENDBRANCH   5   6
BRANCH   5  11
ATOM     11  O   UNL     1      16.291   3.675  -0.202  1.00  0.00    -0.387 OA
ATOM     12  H   UNL     1      15.372   3.366   0.013  1.00  0.00     0.211 HD
ENDBRANCH   5  11
ENDBRANCH   1   5
BRANCH   1  13
ATOM     13  O   UNL     1      16.432   5.778  -2.817  1.00  0.00    -0.388 OA
ATOM     14  H   UNL     1      16.000   6.100  -3.651  1.00  0.00     0.211 HD
ENDBRANCH   1  13
TORSDOF 8
ENDMDL
MODEL 9
REMARK VINA RESULT:    -2.870      3.212      6.144
REMARK INTER + INTRA:          -4.653
REMARK INTER:                  -4.141
REMARK INTRA:                  -0.512
REMARK UNBOUND:                -0.776
REMARK SMILES O=C[C@@H](O)[C@H](O)[C@H](O)CO
REMARK SMILES IDX 7 1 9 2 10 3 5 5 3 6 2 7 1 8 4 9 6 11 8 13
REMARK H PARENT 10 4 4 10 6 12 8 14
REMARK Flexibility Score: inf
ROOT
ATOM      1  C   UNL     1      15.539  -5.885   0.488  1.00  0.00     0.171 C 
ENDROOT
BRANCH   1   2
ATOM      2  C   UNL     1      14.406  -6.873   0.151  1.00  0.00     0.190 C 
BRANCH   2   3
ATOM      3  O   UNL     1      14.068  -7.631   1.280  1.00  0.00    -0.394 OA
ATOM      4  H   UNL     1      13.169  -8.016   1.109  1.00  0.00     0.210 HD
ENDBRANCH   2   3
ENDBRANCH   1   2
BRANCH   1   5
ATOM      5  C   UNL     1      15.645  -4.754  -0.573  1.00  0.00     0.181 C 
BRANCH   5   6
ATOM      6  C   UNL     1      16.133  -3.419   0.042  1.00  0.00     0.209 C 
BRANCH   6   7
ATOM      7  C   UNL     1      14.987  -2.673   0.672  1.00  0.00     0.258 C 
ATOM      8  O   UNL     1      14.215  -2.029  -0.019  1.00  0.00    -0.300 OA
ENDBRANCH   6   7
BRANCH   6   9
ATOM      9  O   UNL     1      17.123  -3.669   1.006  1.00  0.00    -0.383 OA
ATOM     10  H   UNL     1      17.971  -3.291   0.652  1.00  0.00     0.211 HD
ENDBRANCH   6   9
ENDBRANCH   5   6
BRANCH   5  11
ATOM     11  O   UNL     1      14.419  -4.574  -1.242  1.00  0.00    -0.387 OA
ATOM     12  H   UNL     1      14.366  -5.255  -1.963  1.00  0.00     0.211 HD
ENDBRANCH   5  11
ENDBRANCH   1   5
BRANCH   1  13
ATOM     13  O   UNL     1      16.761  -6.569   0.612  1.00  0.00    -0.388 OA
ATOM     14  H   UNL     1      17.470  -5.892   0.770  1.00  0.00     0.211 HD
ENDBRANCH   1  13
TORSDOF 8
ENDMDL
