MODEL 1
REMARK VINA RESULT:    -5.881      0.000      0.000
REMARK INTER + INTRA:          -6.268
REMARK INTER:                  -6.224
REMARK INTRA:                  -0.043
REMARK UNBOUND:                -0.043
REMARK SMILES CC1=C[C@@H]2C(=C(C)CC[C@@H]2C(C)C)CC1
REMARK SMILES IDX 1 1 2 2 3 3 4 4 10 5 9 6 8 7 6 8 5 9 14 10 15 11 7 12 11 13
REMARK SMILES IDX 12 14 13 15
REMARK H PARENT
REMARK Flexibility Score: inf
ROOT
ATOM      1  C   UNL     1     163.694 168.672 202.550  1.00  0.00     0.039 C 
ATOM      2  C   UNL     1     164.048 169.039 201.135  1.00  0.00    -0.076 C 
ATOM      3  C   UNL     1     165.269 169.528 200.859  1.00  0.00    -0.020 C 
ATOM      4  C   UNL     1     165.674 169.893 199.447  1.00  0.00     0.041 C 
ATOM      5  C   UNL     1     167.212 169.870 199.219  1.00  0.00     0.003 C 
ATOM      6  C   UNL     1     167.420 170.540 197.842  1.00  0.00     0.009 C 
ATOM      7  C   UNL     1     166.746 169.740 196.712  1.00  0.00     0.031 C 
ATOM      8  C   UNL     1     165.430 169.068 197.094  1.00  0.00    -0.073 C 
ATOM      9  C   UNL     1     164.949 169.085 198.374  1.00  0.00    -0.064 C 
ATOM     10  C   UNL     1     163.684 168.328 198.756  1.00  0.00     0.036 C 
ATOM     11  C   UNL     1     163.038 168.892 200.026  1.00  0.00     0.035 C 
ATOM     12  C   UNL     1     164.732 168.291 196.005  1.00  0.00     0.039 C 
ENDROOT
BRANCH   5  13
ATOM     13  C   UNL     1     167.890 168.446 199.295  1.00  0.00    -0.013 C 
ATOM     14  C   UNL     1     168.230 168.013 200.732  1.00  0.00     0.007 C 
ATOM     15  C   UNL     1     169.182 168.388 198.455  1.00  0.00     0.007 C 
ENDBRANCH   5  13
TORSDOF 1
ENDMDL
MODEL 2
REMARK VINA RESULT:    -5.870      5.534      7.244
REMARK INTER + INTRA:          -6.257
REMARK INTER:                  -6.216
REMARK INTRA:                  -0.041
REMARK UNBOUND:                -0.043
REMARK SMILES CC1=C[C@@H]2C(=C(C)CC[C@@H]2C(C)C)CC1
REMARK SMILES IDX 1 1 2 2 3 3 4 4 10 5 9 6 8 7 6 8 5 9 14 10 15 11 7 12 11 13
REMARK SMILES IDX 12 14 13 15
REMARK H PARENT
REMARK Flexibility Score: inf
ROOT
ATOM      1  C   UNL     1     168.302 163.294 202.609  1.00  0.00     0.039 C 
ATOM      2  C   UNL     1     167.949 162.941 201.190  1.00  0.00    -0.076 C 
ATOM      3  C   UNL     1     166.727 162.457 200.908  1.00  0.00    -0.020 C 
ATOM      4  C   UNL     1     166.324 162.106 199.492  1.00  0.00     0.041 C 
ATOM      5  C   UNL     1     164.786 162.134 199.262  1.00  0.00     0.003 C 
ATOM      6  C   UNL     1     164.579 161.478 197.878  1.00  0.00     0.009 C 
ATOM      7  C   UNL     1     165.256 162.288 196.757  1.00  0.00     0.031 C 
ATOM      8  C   UNL     1     166.573 162.953 197.148  1.00  0.00    -0.073 C 
ATOM      9  C   UNL     1     167.052 162.923 198.428  1.00  0.00    -0.064 C 
ATOM     10  C   UNL     1     168.318 163.674 198.819  1.00  0.00     0.036 C 
ATOM     11  C   UNL     1     168.961 163.097 200.085  1.00  0.00     0.035 C 
ATOM     12  C   UNL     1     167.274 163.740 196.067  1.00  0.00     0.039 C 
ENDROOT
BRANCH   5  13
ATOM     13  C   UNL     1     164.111 163.559 199.351  1.00  0.00    -0.013 C 
ATOM     14  C   UNL     1     163.751 163.970 200.790  1.00  0.00     0.007 C 
ATOM     15  C   UNL     1     162.831 163.634 198.493  1.00  0.00     0.007 C 
ENDBRANCH   5  13
TORSDOF 1
ENDMDL
MODEL 3
REMARK VINA RESULT:    -5.462      1.610      3.440
REMARK INTER + INTRA:          -5.825
REMARK INTER:                  -5.759
REMARK INTRA:                  -0.065
REMARK UNBOUND:                -0.043
REMARK SMILES CC1=C[C@@H]2C(=C(C)CC[C@@H]2C(C)C)CC1
REMARK SMILES IDX 1 1 2 2 3 3 4 4 10 5 9 6 8 7 6 8 5 9 14 10 15 11 7 12 11 13
REMARK SMILES IDX 12 14 13 15
REMARK H PARENT
REMARK Flexibility Score: inf
ROOT
ATOM      1  C   UNL     1     165.262 169.690 204.556  1.00  0.00     0.039 C 
ATOM      2  C   UNL     1     164.415 169.208 203.410  1.00  0.00    -0.076 C 
ATOM      3  C   UNL     1     164.538 169.783 202.202  1.00  0.00    -0.020 C 
ATOM      4  C   UNL     1     163.718 169.318 201.018  1.00  0.00     0.041 C 
ATOM      5  C   UNL     1     164.370 169.649 199.645  1.00  0.00     0.003 C 
ATOM      6  C   UNL     1     163.266 169.364 198.602  1.00  0.00     0.009 C 
ATOM      7  C   UNL     1     162.854 167.880 198.601  1.00  0.00     0.031 C 
ATOM      8  C   UNL     1     162.865 167.208 199.971  1.00  0.00    -0.073 C 
ATOM      9  C   UNL     1     163.317 167.846 201.092  1.00  0.00    -0.064 C 
ATOM     10  C   UNL     1     163.411 167.128 202.432  1.00  0.00     0.036 C 
ATOM     11  C   UNL     1     163.407 168.106 203.611  1.00  0.00     0.035 C 
ATOM     12  C   UNL     1     162.448 165.757 200.010  1.00  0.00     0.039 C 
ENDROOT
BRANCH   5  13
ATOM     13  C   UNL     1     165.708 168.875 199.322  1.00  0.00    -0.013 C 
ATOM     14  C   UNL     1     166.928 169.433 200.077  1.00  0.00     0.007 C 
ATOM     15  C   UNL     1     166.023 168.895 197.812  1.00  0.00     0.007 C 
ENDBRANCH   5  13
TORSDOF 1
ENDMDL
MODEL 4
REMARK VINA RESULT:    -5.459      1.379      5.013
REMARK INTER + INTRA:          -5.822
REMARK INTER:                  -5.785
REMARK INTRA:                  -0.037
REMARK UNBOUND:                -0.043
REMARK SMILES CC1=C[C@@H]2C(=C(C)CC[C@@H]2C(C)C)CC1
REMARK SMILES IDX 1 1 2 2 3 3 4 4 10 5 9 6 8 7 6 8 5 9 14 10 15 11 7 12 11 13
REMARK SMILES IDX 12 14 13 15
REMARK H PARENT
REMARK Flexibility Score: inf
ROOT
ATOM      1  C   UNL     1     167.274 169.043 195.875  1.00  0.00     0.039 C 
ATOM      2  C   UNL     1     166.414 169.336 197.074  1.00  0.00    -0.076 C 
ATOM      3  C   UNL     1     165.166 168.843 197.135  1.00  0.00    -0.020 C 
ATOM      4  C   UNL     1     164.272 169.097 198.329  1.00  0.00     0.041 C 
ATOM      5  C   UNL     1     163.158 168.027 198.509  1.00  0.00     0.003 C 
ATOM      6  C   UNL     1     162.207 168.618 199.574  1.00  0.00     0.009 C 
ATOM      7  C   UNL     1     162.918 168.814 200.926  1.00  0.00     0.031 C 
ATOM      8  C   UNL     1     164.383 169.232 200.828  1.00  0.00    -0.073 C 
ATOM      9  C   UNL     1     165.039 169.313 199.632  1.00  0.00    -0.064 C 
ATOM     10  C   UNL     1     166.525 169.638 199.562  1.00  0.00     0.036 C 
ATOM     11  C   UNL     1     166.927 170.202 198.195  1.00  0.00     0.035 C 
ATOM     12  C   UNL     1     165.106 169.452 202.135  1.00  0.00     0.039 C 
ENDROOT
BRANCH   5  13
ATOM     13  C   UNL     1     163.660 166.581 198.897  1.00  0.00    -0.013 C 
ATOM     14  C   UNL     1     164.047 165.726 197.677  1.00  0.00     0.007 C 
ATOM     15  C   UNL     1     162.598 165.811 199.709  1.00  0.00     0.007 C 
ENDBRANCH   5  13
TORSDOF 1
ENDMDL
MODEL 5
REMARK VINA RESULT:    -5.453      5.131      6.919
REMARK INTER + INTRA:          -5.815
REMARK INTER:                  -5.758
REMARK INTRA:                  -0.057
REMARK UNBOUND:                -0.043
REMARK SMILES CC1=C[C@@H]2C(=C(C)CC[C@@H]2C(C)C)CC1
REMARK SMILES IDX 1 1 2 2 3 3 4 4 10 5 9 6 8 7 6 8 5 9 14 10 15 11 7 12 11 13
REMARK SMILES IDX 12 14 13 15
REMARK H PARENT
REMARK Flexibility Score: inf
ROOT
ATOM      1  C   UNL     1     164.691 162.975 195.895  1.00  0.00     0.039 C 
ATOM      2  C   UNL     1     165.561 162.669 197.084  1.00  0.00    -0.076 C 
ATOM      3  C   UNL     1     166.794 163.197 197.162  1.00  0.00    -0.020 C 
ATOM      4  C   UNL     1     167.695 162.930 198.349  1.00  0.00     0.041 C 
ATOM      5  C   UNL     1     168.777 164.027 198.564  1.00  0.00     0.003 C 
ATOM      6  C   UNL     1     169.745 163.431 199.610  1.00  0.00     0.009 C 
ATOM      7  C   UNL     1     169.040 163.170 200.954  1.00  0.00     0.031 C 
ATOM      8  C   UNL     1     167.589 162.712 200.842  1.00  0.00    -0.073 C 
ATOM      9  C   UNL     1     166.935 162.650 199.643  1.00  0.00    -0.064 C 
ATOM     10  C   UNL     1     165.459 162.283 199.562  1.00  0.00     0.036 C 
ATOM     11  C   UNL     1     165.074 161.752 198.177  1.00  0.00     0.035 C 
ATOM     12  C   UNL     1     166.873 162.427 202.140  1.00  0.00     0.039 C 
ENDROOT
BRANCH   5  13
ATOM     13  C   UNL     1     168.232 165.444 198.998  1.00  0.00    -0.013 C 
ATOM     14  C   UNL     1     167.712 166.282 197.816  1.00  0.00     0.007 C 
ATOM     15  C   UNL     1     169.311 166.265 199.734  1.00  0.00     0.007 C 
ENDBRANCH   5  13
TORSDOF 1
ENDMDL
MODEL 6
REMARK VINA RESULT:    -5.452      5.219      7.107
REMARK INTER + INTRA:          -5.814
REMARK INTER:                  -5.753
REMARK INTRA:                  -0.061
REMARK UNBOUND:                -0.043
REMARK SMILES CC1=C[C@@H]2C(=C(C)CC[C@@H]2C(C)C)CC1
REMARK SMILES IDX 1 1 2 2 3 3 4 4 10 5 9 6 8 7 6 8 5 9 14 10 15 11 7 12 11 13
REMARK SMILES IDX 12 14 13 15
REMARK H PARENT
REMARK Flexibility Score: inf
ROOT
ATOM      1  C   UNL     1     166.783 162.169 204.521  1.00  0.00     0.039 C 
ATOM      2  C   UNL     1     167.605 162.679 203.369  1.00  0.00    -0.076 C 
ATOM      3  C   UNL     1     167.449 162.138 202.149  1.00  0.00    -0.020 C 
ATOM      4  C   UNL     1     168.242 162.633 200.958  1.00  0.00     0.041 C 
ATOM      5  C   UNL     1     167.556 162.343 199.593  1.00  0.00     0.003 C 
ATOM      6  C   UNL     1     168.635 162.652 198.531  1.00  0.00     0.009 C 
ATOM      7  C   UNL     1     169.054 164.133 198.562  1.00  0.00     0.031 C 
ATOM      8  C   UNL     1     169.080 164.768 199.949  1.00  0.00    -0.073 C 
ATOM      9  C   UNL     1     168.653 164.100 201.063  1.00  0.00    -0.064 C 
ATOM     10  C   UNL     1     168.595 164.782 202.424  1.00  0.00     0.036 C 
ATOM     11  C   UNL     1     168.623 163.770 203.575  1.00  0.00     0.035 C 
ATOM     12  C   UNL     1     169.506 166.214 200.019  1.00  0.00     0.039 C 
ENDROOT
BRANCH   5  13
ATOM     13  C   UNL     1     166.214 163.132 199.325  1.00  0.00    -0.013 C 
ATOM     14  C   UNL     1     165.041 162.645 200.194  1.00  0.00     0.007 C 
ATOM     15  C   UNL     1     165.789 163.040 197.845  1.00  0.00     0.007 C 
ENDBRANCH   5  13
TORSDOF 1
ENDMDL
MODEL 7
REMARK VINA RESULT:    -5.452      5.553      7.290
REMARK INTER + INTRA:          -5.814
REMARK INTER:                  -5.814
REMARK INTRA:                   0.001
REMARK UNBOUND:                -0.043
REMARK SMILES CC1=C[C@@H]2C(=C(C)CC[C@@H]2C(C)C)CC1
REMARK SMILES IDX 1 1 2 2 3 3 4 4 10 5 9 6 8 7 6 8 5 9 14 10 15 11 7 12 11 13
REMARK SMILES IDX 12 14 13 15
REMARK H PARENT
REMARK Flexibility Score: inf
ROOT
ATOM      1  C   UNL     1     165.204 162.124 196.509  1.00  0.00     0.039 C 
ATOM      2  C   UNL     1     165.137 162.138 198.012  1.00  0.00    -0.076 C 
ATOM      3  C   UNL     1     166.271 162.078 198.731  1.00  0.00    -0.020 C 
ATOM      4  C   UNL     1     166.250 162.107 200.244  1.00  0.00     0.041 C 
ATOM      5  C   UNL     1     167.581 162.611 200.871  1.00  0.00     0.003 C 
ATOM      6  C   UNL     1     167.457 162.291 202.378  1.00  0.00     0.009 C 
ATOM      7  C   UNL     1     166.290 163.057 203.028  1.00  0.00     0.031 C 
ATOM      8  C   UNL     1     165.065 163.242 202.136  1.00  0.00    -0.073 C 
ATOM      9  C   UNL     1     165.054 162.856 200.825  1.00  0.00    -0.064 C 
ATOM     10  C   UNL     1     163.857 163.136 199.926  1.00  0.00     0.036 C 
ATOM     11  C   UNL     1     163.809 162.189 198.722  1.00  0.00     0.035 C 
ATOM     12  C   UNL     1     163.894 163.973 202.748  1.00  0.00     0.039 C 
ENDROOT
BRANCH   5  13
ATOM     13  C   UNL     1     167.923 164.131 200.613  1.00  0.00    -0.013 C 
ATOM     14  C   UNL     1     168.761 164.356 199.341  1.00  0.00     0.007 C 
ATOM     15  C   UNL     1     168.679 164.752 201.805  1.00  0.00     0.007 C 
ENDBRANCH   5  13
TORSDOF 1
ENDMDL
MODEL 8
REMARK VINA RESULT:    -5.423      1.333      5.087
REMARK INTER + INTRA:          -5.783
REMARK INTER:                  -5.777
REMARK INTRA:                  -0.006
REMARK UNBOUND:                -0.043
REMARK SMILES CC1=C[C@@H]2C(=C(C)CC[C@@H]2C(C)C)CC1
REMARK SMILES IDX 1 1 2 2 3 3 4 4 10 5 9 6 8 7 6 8 5 9 14 10 15 11 7 12 11 13
REMARK SMILES IDX 12 14 13 15
REMARK H PARENT
REMARK Flexibility Score: inf
ROOT
ATOM      1  C   UNL     1     166.770 169.785 196.454  1.00  0.00     0.039 C 
ATOM      2  C   UNL     1     166.902 169.793 197.953  1.00  0.00    -0.076 C 
ATOM      3  C   UNL     1     165.806 169.927 198.718  1.00  0.00    -0.020 C 
ATOM      4  C   UNL     1     165.891 169.921 200.229  1.00  0.00     0.041 C 
ATOM      5  C   UNL     1     164.563 169.502 200.922  1.00  0.00     0.003 C 
ATOM      6  C   UNL     1     164.770 169.839 202.416  1.00  0.00     0.009 C 
ATOM      7  C   UNL     1     165.921 169.020 203.029  1.00  0.00     0.031 C 
ATOM      8  C   UNL     1     167.094 168.753 202.090  1.00  0.00    -0.073 C 
ATOM      9  C   UNL     1     167.069 169.117 200.773  1.00  0.00    -0.064 C 
ATOM     10  C   UNL     1     168.208 168.757 199.828  1.00  0.00     0.036 C 
ATOM     11  C   UNL     1     168.255 169.680 198.606  1.00  0.00     0.035 C 
ATOM     12  C   UNL     1     168.249 167.970 202.665  1.00  0.00     0.039 C 
ENDROOT
BRANCH   5  13
ATOM     13  C   UNL     1     164.128 167.999 200.707  1.00  0.00    -0.013 C 
ATOM     14  C   UNL     1     163.250 167.795 199.459  1.00  0.00     0.007 C 
ATOM     15  C   UNL     1     163.364 167.450 201.929  1.00  0.00     0.007 C 
ENDBRANCH   5  13
TORSDOF 1
ENDMDL
MODEL 9
REMARK VINA RESULT:    -5.331      1.837      3.628
REMARK INTER + INTRA:          -5.686
REMARK INTER:                  -5.623
REMARK INTRA:                  -0.063
REMARK UNBOUND:                -0.043
REMARK SMILES CC1=C[C@@H]2C(=C(C)CC[C@@H]2C(C)C)CC1
REMARK SMILES IDX 1 1 2 2 3 3 4 4 10 5 9 6 8 7 6 8 5 9 14 10 15 11 7 12 11 13
REMARK SMILES IDX 12 14 13 15
REMARK H PARENT
REMARK Flexibility Score: inf
ROOT
ATOM      1  C   UNL     1     169.012 166.326 203.492  1.00  0.00     0.039 C 
ATOM      2  C   UNL     1     168.462 167.435 202.638  1.00  0.00    -0.076 C 
ATOM      3  C   UNL     1     168.963 167.640 201.408  1.00  0.00    -0.020 C 
ATOM      4  C   UNL     1     168.427 168.732 200.508  1.00  0.00     0.041 C 
ATOM      5  C   UNL     1     168.675 168.466 198.995  1.00  0.00     0.003 C 
ATOM      6  C   UNL     1     168.327 169.799 198.294  1.00  0.00     0.009 C 
ATOM      7  C   UNL     1     166.847 170.173 198.488  1.00  0.00     0.031 C 
ATOM      8  C   UNL     1     166.258 169.795 199.844  1.00  0.00    -0.073 C 
ATOM      9  C   UNL     1     166.963 169.077 200.769  1.00  0.00    -0.064 C 
ATOM     10  C   UNL     1     166.326 168.626 202.077  1.00  0.00     0.036 C 
ATOM     11  C   UNL     1     167.374 168.338 203.158  1.00  0.00     0.035 C 
ATOM     12  C   UNL     1     164.813 170.166 200.075  1.00  0.00     0.039 C 
ENDROOT
BRANCH   5  13
ATOM     13  C   UNL     1     167.883 167.246 198.380  1.00  0.00    -0.013 C 
ATOM     14  C   UNL     1     168.449 165.879 198.805  1.00  0.00     0.007 C 
ATOM     15  C   UNL     1     167.863 167.303 196.839  1.00  0.00     0.007 C 
ENDBRANCH   5  13
TORSDOF 1
ENDMDL
