MODEL 1
REMARK VINA RESULT:    -3.561      0.000      0.000
REMARK INTER + INTRA:          -7.422
REMARK INTER:                  -6.475
REMARK INTRA:                  -0.947
REMARK UNBOUND:                -0.947
REMARK SMILES CCCCCCCCCCCCCCCC(=O)[O-]
REMARK SMILES IDX 9 1 10 2 11 3 12 4 13 5 14 6 15 7 16 8 17 9 18 10 8 11 7 12
REMARK SMILES IDX 6 13 5 14 4 15 3 16 2 17 1 18
REMARK H PARENT
REMARK Flexibility Score: inf
ROOT
ATOM      1  C   UNL     1     -31.525 -21.177 -33.979  1.00  0.00     0.000 C 
ENDROOT
BRANCH   1   2
ATOM      2  C   UNL     1     -30.069 -20.736 -34.221  1.00  0.00     0.000 C 
BRANCH   2   3
ATOM      3  C   UNL     1     -29.253 -20.629 -32.921  1.00  0.00     0.000 C 
BRANCH   3   4
ATOM      4  C   UNL     1     -29.011 -19.173 -32.494  1.00  0.00     0.000 C 
BRANCH   4   5
ATOM      5  C   UNL     1     -29.500 -18.888 -31.066  1.00  0.00     0.000 C 
BRANCH   5   6
ATOM      6  C   UNL     1     -31.029 -19.008 -30.976  1.00  0.00     0.006 C 
BRANCH   6   7
ATOM      7  C   UNL     1     -31.477 -19.830 -29.761  1.00  0.00     0.053 C 
BRANCH   7   8
ATOM      8  C   UNL     1     -30.813 -21.172 -29.720  1.00  0.00     0.041 C 
ATOM      9  O   UNL     1     -30.026 -21.462 -28.780  1.00  0.00    -0.550 OA
ATOM     10  O   UNL     1     -31.034 -22.089 -30.740  1.00  0.00    -0.550 OA
ENDBRANCH   7   8
ENDBRANCH   6   7
ENDBRANCH   5   6
ENDBRANCH   4   5
ENDBRANCH   3   4
ENDBRANCH   2   3
ENDBRANCH   1   2
BRANCH   1  11
ATOM     11  C   UNL     1     -32.018 -22.323 -34.882  1.00  0.00     0.000 C 
BRANCH  11  12
ATOM     12  C   UNL     1     -33.228 -21.927 -35.746  1.00  0.00    -0.000 C 
BRANCH  12  13
ATOM     13  C   UNL     1     -33.210 -22.597 -37.129  1.00  0.00    -0.000 C 
BRANCH  13  14
ATOM     14  C   UNL     1     -31.849 -22.476 -37.831  1.00  0.00    -0.000 C 
BRANCH  14  15
ATOM     15  C   UNL     1     -31.539 -23.740 -38.646  1.00  0.00    -0.000 C 
BRANCH  15  16
ATOM     16  C   UNL     1     -32.133 -25.017 -38.023  1.00  0.00    -0.000 C 
BRANCH  16  17
ATOM     17  C   UNL     1     -32.595 -26.078 -39.037  1.00  0.00    -0.003 C 
ATOM     18  C   UNL     1     -32.789 -27.459 -38.410  1.00  0.00     0.004 C 
ENDBRANCH  16  17
ENDBRANCH  15  16
ENDBRANCH  14  15
ENDBRANCH  13  14
ENDBRANCH  12  13
ENDBRANCH  11  12
ENDBRANCH   1  11
TORSDOF 14
ENDMDL
MODEL 2
REMARK VINA RESULT:    -3.526      1.475      1.940
REMARK INTER + INTRA:          -7.358
REMARK INTER:                  -6.121
REMARK INTRA:                  -1.237
REMARK UNBOUND:                -0.947
REMARK SMILES CCCCCCCCCCCCCCCC(=O)[O-]
REMARK SMILES IDX 9 1 10 2 11 3 12 4 13 5 14 6 15 7 16 8 17 9 18 10 8 11 7 12
REMARK SMILES IDX 6 13 5 14 4 15 3 16 2 17 1 18
REMARK H PARENT
REMARK Flexibility Score: inf
ROOT
ATOM      1  C   UNL     1     -30.803 -21.374 -33.325  1.00  0.00     0.000 C 
ENDROOT
BRANCH   1   2
ATOM      2  C   UNL     1     -29.993 -20.663 -34.425  1.00  0.00     0.000 C 
BRANCH   2   3
ATOM      3  C   UNL     1     -28.951 -19.682 -33.860  1.00  0.00     0.000 C 
BRANCH   3   4
ATOM      4  C   UNL     1     -29.484 -18.878 -32.664  1.00  0.00     0.000 C 
BRANCH   4   5
ATOM      5  C   UNL     1     -28.668 -19.114 -31.384  1.00  0.00     0.000 C 
BRANCH   5   6
ATOM      6  C   UNL     1     -29.527 -18.878 -30.133  1.00  0.00     0.006 C 
BRANCH   6   7
ATOM      7  C   UNL     1     -30.631 -19.932 -29.979  1.00  0.00     0.053 C 
BRANCH   7   8
ATOM      8  C   UNL     1     -31.997 -19.322 -30.035  1.00  0.00     0.041 C 
ATOM      9  O   UNL     1     -32.447 -18.875 -31.124  1.00  0.00    -0.550 OA
ATOM     10  O   UNL     1     -32.759 -19.212 -28.880  1.00  0.00    -0.550 OA
ENDBRANCH   7   8
ENDBRANCH   6   7
ENDBRANCH   5   6
ENDBRANCH   4   5
ENDBRANCH   3   4
ENDBRANCH   2   3
ENDBRANCH   1   2
BRANCH   1  11
ATOM     11  C   UNL     1     -32.250 -21.733 -33.711  1.00  0.00     0.000 C 
BRANCH  11  12
ATOM     12  C   UNL     1     -32.377 -22.241 -35.157  1.00  0.00    -0.000 C 
BRANCH  12  13
ATOM     13  C   UNL     1     -33.524 -21.561 -35.923  1.00  0.00    -0.000 C 
BRANCH  13  14
ATOM     14  C   UNL     1     -33.285 -21.521 -37.440  1.00  0.00    -0.000 C 
BRANCH  14  15
ATOM     15  C   UNL     1     -31.918 -22.123 -37.795  1.00  0.00    -0.000 C 
BRANCH  15  16
ATOM     16  C   UNL     1     -32.024 -23.356 -38.711  1.00  0.00    -0.000 C 
BRANCH  16  17
ATOM     17  C   UNL     1     -31.495 -24.665 -38.099  1.00  0.00    -0.003 C 
ATOM     18  C   UNL     1     -32.399 -25.865 -38.384  1.00  0.00     0.004 C 
ENDBRANCH  16  17
ENDBRANCH  15  16
ENDBRANCH  14  15
ENDBRANCH  13  14
ENDBRANCH  12  13
ENDBRANCH  11  12
ENDBRANCH   1  11
TORSDOF 14
ENDMDL
MODEL 3
REMARK VINA RESULT:    -3.294      0.878      1.523
REMARK INTER + INTRA:          -6.938
REMARK INTER:                  -6.107
REMARK INTRA:                  -0.831
REMARK UNBOUND:                -0.947
REMARK SMILES CCCCCCCCCCCCCCCC(=O)[O-]
REMARK SMILES IDX 9 1 10 2 11 3 12 4 13 5 14 6 15 7 16 8 17 9 18 10 8 11 7 12
REMARK SMILES IDX 6 13 5 14 4 15 3 16 2 17 1 18
REMARK H PARENT
REMARK Flexibility Score: inf
ROOT
ATOM      1  C   UNL     1     -31.400 -21.972 -34.480  1.00  0.00     0.000 C 
ENDROOT
BRANCH   1   2
ATOM      2  C   UNL     1     -31.292 -20.658 -33.684  1.00  0.00     0.000 C 
BRANCH   2   3
ATOM      3  C   UNL     1     -29.888 -20.030 -33.754  1.00  0.00     0.000 C 
BRANCH   3   4
ATOM      4  C   UNL     1     -29.101 -20.196 -32.445  1.00  0.00     0.000 C 
BRANCH   4   5
ATOM      5  C   UNL     1     -29.031 -18.895 -31.631  1.00  0.00     0.000 C 
BRANCH   5   6
ATOM      6  C   UNL     1     -29.629 -19.090 -30.230  1.00  0.00     0.006 C 
BRANCH   6   7
ATOM      7  C   UNL     1     -30.896 -19.956 -30.255  1.00  0.00     0.053 C 
BRANCH   7   8
ATOM      8  C   UNL     1     -30.623 -21.357 -29.802  1.00  0.00     0.041 C 
ATOM      9  O   UNL     1     -30.954 -22.332 -30.527  1.00  0.00    -0.550 OA
ATOM     10  O   UNL     1     -30.038 -21.586 -28.564  1.00  0.00    -0.550 OA
ENDBRANCH   7   8
ENDBRANCH   6   7
ENDBRANCH   5   6
ENDBRANCH   4   5
ENDBRANCH   3   4
ENDBRANCH   2   3
ENDBRANCH   1   2
BRANCH   1  11
ATOM     11  C   UNL     1     -32.813 -22.313 -34.988  1.00  0.00     0.000 C 
BRANCH  11  12
ATOM     12  C   UNL     1     -33.392 -21.234 -35.920  1.00  0.00    -0.000 C 
BRANCH  12  13
ATOM     13  C   UNL     1     -34.120 -21.833 -37.135  1.00  0.00    -0.000 C 
BRANCH  13  14
ATOM     14  C   UNL     1     -33.516 -21.382 -38.473  1.00  0.00    -0.000 C 
BRANCH  14  15
ATOM     15  C   UNL     1     -32.086 -21.916 -38.636  1.00  0.00    -0.000 C 
BRANCH  15  16
ATOM     16  C   UNL     1     -32.042 -23.404 -39.031  1.00  0.00    -0.000 C 
BRANCH  16  17
ATOM     17  C   UNL     1     -31.863 -24.381 -37.855  1.00  0.00    -0.003 C 
ATOM     18  C   UNL     1     -32.127 -25.836 -38.243  1.00  0.00     0.004 C 
ENDBRANCH  16  17
ENDBRANCH  15  16
ENDBRANCH  14  15
ENDBRANCH  13  14
ENDBRANCH  12  13
ENDBRANCH  11  12
ENDBRANCH   1  11
TORSDOF 14
ENDMDL
MODEL 4
REMARK VINA RESULT:    -3.122      1.377      2.140
REMARK INTER + INTRA:          -6.625
REMARK INTER:                  -5.648
REMARK INTRA:                  -0.977
REMARK UNBOUND:                -0.947
REMARK SMILES CCCCCCCCCCCCCCCC(=O)[O-]
REMARK SMILES IDX 9 1 10 2 11 3 12 4 13 5 14 6 15 7 16 8 17 9 18 10 8 11 7 12
REMARK SMILES IDX 6 13 5 14 4 15 3 16 2 17 1 18
REMARK H PARENT
REMARK Flexibility Score: inf
ROOT
ATOM      1  C   UNL     1     -31.566 -22.260 -35.104  1.00  0.00     0.000 C 
ENDROOT
BRANCH   1   2
ATOM      2  C   UNL     1     -30.677 -21.210 -34.412  1.00  0.00     0.000 C 
BRANCH   2   3
ATOM      3  C   UNL     1     -31.472 -20.267 -33.491  1.00  0.00     0.000 C 
BRANCH   3   4
ATOM      4  C   UNL     1     -30.646 -19.055 -33.032  1.00  0.00     0.000 C 
BRANCH   4   5
ATOM      5  C   UNL     1     -29.221 -19.441 -32.608  1.00  0.00     0.000 C 
BRANCH   5   6
ATOM      6  C   UNL     1     -29.082 -19.433 -31.078  1.00  0.00     0.006 C 
BRANCH   6   7
ATOM      7  C   UNL     1     -30.331 -18.875 -30.384  1.00  0.00     0.053 C 
BRANCH   7   8
ATOM      8  C   UNL     1     -31.118 -19.951 -29.703  1.00  0.00     0.041 C 
ATOM      9  O   UNL     1     -30.754 -21.154 -29.789  1.00  0.00    -0.550 OA
ATOM     10  O   UNL     1     -32.273 -19.631 -29.002  1.00  0.00    -0.550 OA
ENDBRANCH   7   8
ENDBRANCH   6   7
ENDBRANCH   5   6
ENDBRANCH   4   5
ENDBRANCH   3   4
ENDBRANCH   2   3
ENDBRANCH   1   2
BRANCH   1  11
ATOM     11  C   UNL     1     -33.081 -22.005 -34.996  1.00  0.00     0.000 C 
BRANCH  11  12
ATOM     12  C   UNL     1     -33.781 -21.968 -36.365  1.00  0.00    -0.000 C 
BRANCH  12  13
ATOM     13  C   UNL     1     -33.785 -20.563 -36.989  1.00  0.00    -0.000 C 
BRANCH  13  14
ATOM     14  C   UNL     1     -33.951 -20.590 -38.516  1.00  0.00    -0.000 C 
BRANCH  14  15
ATOM     15  C   UNL     1     -33.435 -21.913 -39.099  1.00  0.00    -0.000 C 
BRANCH  15  16
ATOM     16  C   UNL     1     -31.936 -22.142 -38.833  1.00  0.00    -0.000 C 
BRANCH  16  17
ATOM     17  C   UNL     1     -31.439 -23.572 -39.114  1.00  0.00    -0.003 C 
ATOM     18  C   UNL     1     -31.898 -24.581 -38.060  1.00  0.00     0.004 C 
ENDBRANCH  16  17
ENDBRANCH  15  16
ENDBRANCH  14  15
ENDBRANCH  13  14
ENDBRANCH  12  13
ENDBRANCH  11  12
ENDBRANCH   1  11
TORSDOF 14
ENDMDL
MODEL 5
REMARK VINA RESULT:    -2.786      2.785      7.800
REMARK INTER + INTRA:          -6.014
REMARK INTER:                  -4.805
REMARK INTRA:                  -1.209
REMARK UNBOUND:                -0.947
REMARK SMILES CCCCCCCCCCCCCCCC(=O)[O-]
REMARK SMILES IDX 9 1 10 2 11 3 12 4 13 5 14 6 15 7 16 8 17 9 18 10 8 11 7 12
REMARK SMILES IDX 6 13 5 14 4 15 3 16 2 17 1 18
REMARK H PARENT
REMARK Flexibility Score: inf
ROOT
ATOM      1  C   UNL     1     -31.546 -21.004 -33.649  1.00  0.00     0.000 C 
ENDROOT
BRANCH   1   2
ATOM      2  C   UNL     1     -32.308 -21.930 -34.615  1.00  0.00     0.000 C 
BRANCH   2   3
ATOM      3  C   UNL     1     -33.221 -21.160 -35.586  1.00  0.00     0.000 C 
BRANCH   3   4
ATOM      4  C   UNL     1     -33.988 -22.091 -36.539  1.00  0.00     0.000 C 
BRANCH   4   5
ATOM      5  C   UNL     1     -33.733 -21.759 -38.017  1.00  0.00     0.000 C 
BRANCH   5   6
ATOM      6  C   UNL     1     -32.236 -21.843 -38.349  1.00  0.00     0.006 C 
BRANCH   6   7
ATOM      7  C   UNL     1     -31.884 -23.119 -39.125  1.00  0.00     0.053 C 
BRANCH   7   8
ATOM      8  C   UNL     1     -31.835 -24.320 -38.232  1.00  0.00     0.041 C 
ATOM      9  O   UNL     1     -32.227 -25.440 -38.654  1.00  0.00    -0.550 OA
ATOM     10  O   UNL     1     -31.391 -24.195 -36.922  1.00  0.00    -0.550 OA
ENDBRANCH   7   8
ENDBRANCH   6   7
ENDBRANCH   5   6
ENDBRANCH   4   5
ENDBRANCH   3   4
ENDBRANCH   2   3
ENDBRANCH   1   2
BRANCH   1  11
ATOM     11  C   UNL     1     -30.056 -20.798 -33.983  1.00  0.00     0.000 C 
BRANCH  11  12
ATOM     12  C   UNL     1     -29.210 -20.438 -32.750  1.00  0.00    -0.000 C 
BRANCH  12  13
ATOM     13  C   UNL     1     -29.418 -18.984 -32.295  1.00  0.00    -0.000 C 
BRANCH  13  14
ATOM     14  C   UNL     1     -29.808 -18.875 -30.813  1.00  0.00    -0.000 C 
BRANCH  14  15
ATOM     15  C   UNL     1     -31.226 -19.414 -30.579  1.00  0.00    -0.000 C 
BRANCH  15  16
ATOM     16  C   UNL     1     -31.310 -20.385 -29.387  1.00  0.00    -0.000 C 
BRANCH  16  17
ATOM     17  C   UNL     1     -30.481 -21.673 -29.542  1.00  0.00    -0.003 C 
ATOM     18  C   UNL     1     -31.104 -22.671 -30.517  1.00  0.00     0.004 C 
ENDBRANCH  16  17
ENDBRANCH  15  16
ENDBRANCH  14  15
ENDBRANCH  13  14
ENDBRANCH  12  13
ENDBRANCH  11  12
ENDBRANCH   1  11
TORSDOF 14
ENDMDL
MODEL 6
REMARK VINA RESULT:    -2.021      1.660      2.298
REMARK INTER + INTRA:          -4.623
REMARK INTER:                  -4.011
REMARK INTRA:                  -0.612
REMARK UNBOUND:                -0.947
REMARK SMILES CCCCCCCCCCCCCCCC(=O)[O-]
REMARK SMILES IDX 9 1 10 2 11 3 12 4 13 5 14 6 15 7 16 8 17 9 18 10 8 11 7 12
REMARK SMILES IDX 6 13 5 14 4 15 3 16 2 17 1 18
REMARK H PARENT
REMARK Flexibility Score: inf
ROOT
ATOM      1  C   UNL     1     -31.857 -21.947 -34.010  1.00  0.00     0.000 C 
ENDROOT
BRANCH   1   2
ATOM      2  C   UNL     1     -31.705 -20.415 -33.969  1.00  0.00     0.000 C 
BRANCH   2   3
ATOM      3  C   UNL     1     -32.940 -19.707 -33.382  1.00  0.00     0.000 C 
BRANCH   3   4
ATOM      4  C   UNL     1     -32.711 -19.214 -31.944  1.00  0.00     0.000 C 
BRANCH   4   5
ATOM      5  C   UNL     1     -31.236 -18.889 -31.661  1.00  0.00     0.000 C 
BRANCH   5   6
ATOM      6  C   UNL     1     -30.813 -19.413 -30.281  1.00  0.00     0.006 C 
BRANCH   6   7
ATOM      7  C   UNL     1     -29.296 -19.613 -30.175  1.00  0.00     0.053 C 
BRANCH   7   8
ATOM      8  C   UNL     1     -28.660 -19.782 -31.520  1.00  0.00     0.041 C 
ATOM      9  O   UNL     1     -27.923 -18.875 -31.990  1.00  0.00    -0.550 OA
ATOM     10  O   UNL     1     -28.911 -20.923 -32.270  1.00  0.00    -0.550 OA
ENDBRANCH   7   8
ENDBRANCH   6   7
ENDBRANCH   5   6
ENDBRANCH   4   5
ENDBRANCH   3   4
ENDBRANCH   2   3
ENDBRANCH   1   2
BRANCH   1  11
ATOM     11  C   UNL     1     -32.884 -22.472 -35.031  1.00  0.00     0.000 C 
BRANCH  11  12
ATOM     12  C   UNL     1     -32.235 -23.252 -36.187  1.00  0.00    -0.000 C 
BRANCH  12  13
ATOM     13  C   UNL     1     -32.490 -22.599 -37.556  1.00  0.00    -0.000 C 
BRANCH  13  14
ATOM     14  C   UNL     1     -32.140 -23.524 -38.731  1.00  0.00    -0.000 C 
BRANCH  14  15
ATOM     15  C   UNL     1     -31.833 -24.945 -38.236  1.00  0.00    -0.000 C 
BRANCH  15  16
ATOM     16  C   UNL     1     -32.636 -26.027 -38.982  1.00  0.00    -0.000 C 
BRANCH  16  17
ATOM     17  C   UNL     1     -33.307 -27.075 -38.076  1.00  0.00    -0.003 C 
ATOM     18  C   UNL     1     -33.578 -28.398 -38.792  1.00  0.00     0.004 C 
ENDBRANCH  16  17
ENDBRANCH  15  16
ENDBRANCH  14  15
ENDBRANCH  13  14
ENDBRANCH  12  13
ENDBRANCH  11  12
ENDBRANCH   1  11
TORSDOF 14
ENDMDL
MODEL 7
REMARK VINA RESULT:    -1.904      1.836      3.002
REMARK INTER + INTRA:          -4.410
REMARK INTER:                  -3.479
REMARK INTRA:                  -0.931
REMARK UNBOUND:                -0.947
REMARK SMILES CCCCCCCCCCCCCCCC(=O)[O-]
REMARK SMILES IDX 9 1 10 2 11 3 12 4 13 5 14 6 15 7 16 8 17 9 18 10 8 11 7 12
REMARK SMILES IDX 6 13 5 14 4 15 3 16 2 17 1 18
REMARK H PARENT
REMARK Flexibility Score: inf
ROOT
ATOM      1  C   UNL     1     -30.253 -20.741 -33.324  1.00  0.00     0.000 C 
ENDROOT
BRANCH   1   2
ATOM      2  C   UNL     1     -30.508 -19.260 -32.987  1.00  0.00     0.000 C 
BRANCH   2   3
ATOM      3  C   UNL     1     -31.967 -18.982 -32.582  1.00  0.00     0.000 C 
BRANCH   3   4
ATOM      4  C   UNL     1     -32.151 -18.902 -31.058  1.00  0.00     0.000 C 
BRANCH   4   5
ATOM      5  C   UNL     1     -30.913 -19.389 -30.289  1.00  0.00     0.000 C 
BRANCH   5   6
ATOM      6  C   UNL     1     -31.282 -20.515 -29.312  1.00  0.00     0.006 C 
BRANCH   6   7
ATOM      7  C   UNL     1     -30.312 -21.700 -29.398  1.00  0.00     0.053 C 
BRANCH   7   8
ATOM      8  C   UNL     1     -29.312 -21.684 -28.283  1.00  0.00     0.041 C 
ATOM      9  O   UNL     1     -28.411 -20.805 -28.253  1.00  0.00    -0.550 OA
ATOM     10  O   UNL     1     -29.353 -22.662 -27.298  1.00  0.00    -0.550 OA
ENDBRANCH   7   8
ENDBRANCH   6   7
ENDBRANCH   5   6
ENDBRANCH   4   5
ENDBRANCH   3   4
ENDBRANCH   2   3
ENDBRANCH   1   2
BRANCH   1  11
ATOM     11  C   UNL     1     -31.519 -21.608 -33.456  1.00  0.00     0.000 C 
BRANCH  11  12
ATOM     12  C   UNL     1     -32.134 -21.561 -34.865  1.00  0.00    -0.000 C 
BRANCH  12  13
ATOM     13  C   UNL     1     -31.385 -22.456 -35.866  1.00  0.00    -0.000 C 
BRANCH  13  14
ATOM     14  C   UNL     1     -32.318 -23.420 -36.614  1.00  0.00    -0.000 C 
BRANCH  14  15
ATOM     15  C   UNL     1     -31.945 -23.498 -38.102  1.00  0.00    -0.000 C 
BRANCH  15  16
ATOM     16  C   UNL     1     -32.508 -22.325 -38.924  1.00  0.00    -0.000 C 
BRANCH  16  17
ATOM     17  C   UNL     1     -33.683 -21.578 -38.266  1.00  0.00    -0.003 C 
ATOM     18  C   UNL     1     -33.812 -20.131 -38.742  1.00  0.00     0.004 C 
ENDBRANCH  16  17
ENDBRANCH  15  16
ENDBRANCH  14  15
ENDBRANCH  13  14
ENDBRANCH  12  13
ENDBRANCH  11  12
ENDBRANCH   1  11
TORSDOF 14
ENDMDL
MODEL 8
REMARK VINA RESULT:    -1.654      1.060      1.471
REMARK INTER + INTRA:          -3.955
REMARK INTER:                  -3.256
REMARK INTRA:                  -0.699
REMARK UNBOUND:                -0.947
REMARK SMILES CCCCCCCCCCCCCCCC(=O)[O-]
REMARK SMILES IDX 9 1 10 2 11 3 12 4 13 5 14 6 15 7 16 8 17 9 18 10 8 11 7 12
REMARK SMILES IDX 6 13 5 14 4 15 3 16 2 17 1 18
REMARK H PARENT
REMARK Flexibility Score: inf
ROOT
ATOM      1  C   UNL     1     -31.547 -21.954 -33.741  1.00  0.00     0.000 C 
ENDROOT
BRANCH   1   2
ATOM      2  C   UNL     1     -31.133 -20.479 -33.898  1.00  0.00     0.000 C 
BRANCH   2   3
ATOM      3  C   UNL     1     -29.606 -20.287 -33.929  1.00  0.00     0.000 C 
BRANCH   3   4
ATOM      4  C   UNL     1     -29.174 -18.903 -33.419  1.00  0.00     0.000 C 
BRANCH   4   5
ATOM      5  C   UNL     1     -28.143 -18.989 -32.283  1.00  0.00     0.000 C 
BRANCH   5   6
ATOM      6  C   UNL     1     -28.838 -19.049 -30.914  1.00  0.00     0.006 C 
BRANCH   6   7
ATOM      7  C   UNL     1     -30.358 -18.875 -31.026  1.00  0.00     0.053 C 
BRANCH   7   8
ATOM      8  C   UNL     1     -31.096 -19.841 -30.152  1.00  0.00     0.041 C 
ATOM      9  O   UNL     1     -31.958 -19.424 -29.333  1.00  0.00    -0.550 OA
ATOM     10  O   UNL     1     -30.807 -21.198 -30.215  1.00  0.00    -0.550 OA
ENDBRANCH   7   8
ENDBRANCH   6   7
ENDBRANCH   5   6
ENDBRANCH   4   5
ENDBRANCH   3   4
ENDBRANCH   2   3
ENDBRANCH   1   2
BRANCH   1  11
ATOM     11  C   UNL     1     -32.442 -22.503 -34.867  1.00  0.00     0.000 C 
BRANCH  11  12
ATOM     12  C   UNL     1     -31.640 -23.009 -36.078  1.00  0.00    -0.000 C 
BRANCH  12  13
ATOM     13  C   UNL     1     -31.926 -22.200 -37.354  1.00  0.00    -0.000 C 
BRANCH  13  14
ATOM     14  C   UNL     1     -31.831 -23.050 -38.630  1.00  0.00    -0.000 C 
BRANCH  14  15
ATOM     15  C   UNL     1     -31.520 -24.515 -38.291  1.00  0.00    -0.000 C 
BRANCH  15  16
ATOM     16  C   UNL     1     -32.380 -25.511 -39.090  1.00  0.00    -0.000 C 
BRANCH  16  17
ATOM     17  C   UNL     1     -32.644 -26.852 -38.381  1.00  0.00    -0.003 C 
ATOM     18  C   UNL     1     -33.893 -27.565 -38.898  1.00  0.00     0.004 C 
ENDBRANCH  16  17
ENDBRANCH  15  16
ENDBRANCH  14  15
ENDBRANCH  13  14
ENDBRANCH  12  13
ENDBRANCH  11  12
ENDBRANCH   1  11
TORSDOF 14
ENDMDL
