MODEL 1
REMARK VINA RESULT:    -4.086      0.000      0.000
REMARK INTER + INTRA:          -7.943
REMARK INTER:                  -6.474
REMARK INTRA:                  -1.469
REMARK UNBOUND:                -1.469
REMARK SMILES CCCCCCCCCCCC(=O)[O-]
REMARK SMILES IDX 7 1 8 2 9 3 10 4 11 5 12 6 13 7 14 8 6 9 5 10 4 11 3 12 2 13
REMARK SMILES IDX 1 14
REMARK H PARENT
REMARK Flexibility Score: inf
ROOT
ATOM      1  C   UNL     1     -19.696 -32.583  19.691  1.00  0.00     0.000 C 
ENDROOT
BRANCH   1   2
ATOM      2  C   UNL     1     -20.020 -31.127  20.065  1.00  0.00     0.000 C 
BRANCH   2   3
ATOM      3  C   UNL     1     -20.032 -30.191  18.848  1.00  0.00     0.000 C 
BRANCH   3   4
ATOM      4  C   UNL     1     -18.606 -29.902  18.364  1.00  0.00     0.006 C 
BRANCH   4   5
ATOM      5  C   UNL     1     -17.752 -29.309  19.488  1.00  0.00     0.053 C 
BRANCH   5   6
ATOM      6  C   UNL     1     -17.521 -27.849  19.257  1.00  0.00     0.041 C 
ATOM      7  O   UNL     1     -18.494 -27.051  19.221  1.00  0.00    -0.550 OA
ATOM      8  O   UNL     1     -16.226 -27.361  19.131  1.00  0.00    -0.550 OA
ENDBRANCH   5   6
ENDBRANCH   4   5
ENDBRANCH   3   4
ENDBRANCH   2   3
ENDBRANCH   1   2
BRANCH   1   9
ATOM      9  C   UNL     1     -18.481 -33.133  20.457  1.00  0.00     0.000 C 
BRANCH   9  10
ATOM     10  C   UNL     1     -17.410 -33.720  19.523  1.00  0.00    -0.000 C 
BRANCH  10  11
ATOM     11  C   UNL     1     -17.908 -33.889  18.080  1.00  0.00    -0.000 C 
BRANCH  11  12
ATOM     12  C   UNL     1     -17.074 -33.039  17.109  1.00  0.00    -0.000 C 
BRANCH  12  13
ATOM     13  C   UNL     1     -17.898 -32.516  15.923  1.00  0.00    -0.003 C 
ATOM     14  C   UNL     1     -19.362 -32.954  15.979  1.00  0.00     0.004 C 
ENDBRANCH  12  13
ENDBRANCH  11  12
ENDBRANCH  10  11
ENDBRANCH   9  10
ENDBRANCH   1   9
TORSDOF 10
ENDMDL
MODEL 2
REMARK VINA RESULT:    -4.084      3.159      4.892
REMARK INTER + INTRA:          -7.941
REMARK INTER:                  -6.392
REMARK INTRA:                  -1.549
REMARK UNBOUND:                -1.469
REMARK SMILES CCCCCCCCCCCC(=O)[O-]
REMARK SMILES IDX 7 1 8 2 9 3 10 4 11 5 12 6 13 7 14 8 6 9 5 10 4 11 3 12 2 13
REMARK SMILES IDX 1 14
REMARK H PARENT
REMARK Flexibility Score: inf
ROOT
ATOM      1  C   UNL     1     -19.278 -32.030  20.377  1.00  0.00     0.000 C 
ENDROOT
BRANCH   1   2
ATOM      2  C   UNL     1     -19.456 -33.369  19.642  1.00  0.00     0.000 C 
BRANCH   2   3
ATOM      3  C   UNL     1     -18.539 -33.500  18.417  1.00  0.00     0.000 C 
BRANCH   3   4
ATOM      4  C   UNL     1     -19.341 -33.900  17.172  1.00  0.00     0.006 C 
BRANCH   4   5
ATOM      5  C   UNL     1     -19.369 -32.763  16.147  1.00  0.00     0.053 C 
BRANCH   5   6
ATOM      6  C   UNL     1     -18.501 -33.094  14.974  1.00  0.00     0.041 C 
ATOM      7  O   UNL     1     -17.252 -32.950  15.048  1.00  0.00    -0.550 OA
ATOM      8  O   UNL     1     -19.067 -33.609  13.814  1.00  0.00    -0.550 OA
ENDBRANCH   5   6
ENDBRANCH   4   5
ENDBRANCH   3   4
ENDBRANCH   2   3
ENDBRANCH   1   2
BRANCH   1   9
ATOM      9  C   UNL     1     -20.370 -31.008  20.014  1.00  0.00     0.000 C 
BRANCH   9  10
ATOM     10  C   UNL     1     -19.968 -30.109  18.834  1.00  0.00    -0.000 C 
BRANCH  10  11
ATOM     11  C   UNL     1     -18.586 -29.467  19.019  1.00  0.00    -0.000 C 
BRANCH  11  12
ATOM     12  C   UNL     1     -17.859 -29.329  17.673  1.00  0.00    -0.000 C 
BRANCH  12  13
ATOM     13  C   UNL     1     -16.753 -30.379  17.488  1.00  0.00    -0.003 C 
ATOM     14  C   UNL     1     -16.093 -30.784  18.806  1.00  0.00     0.004 C 
ENDBRANCH  12  13
ENDBRANCH  11  12
ENDBRANCH  10  11
ENDBRANCH   9  10
ENDBRANCH   1   9
TORSDOF 10
ENDMDL
MODEL 3
REMARK VINA RESULT:    -3.926      2.845      4.766
REMARK INTER + INTRA:          -7.690
REMARK INTER:                  -6.264
REMARK INTRA:                  -1.426
REMARK UNBOUND:                -1.469
REMARK SMILES CCCCCCCCCCCC(=O)[O-]
REMARK SMILES IDX 7 1 8 2 9 3 10 4 11 5 12 6 13 7 14 8 6 9 5 10 4 11 3 12 2 13
REMARK SMILES IDX 1 14
REMARK H PARENT
REMARK Flexibility Score: inf
ROOT
ATOM      1  C   UNL     1     -18.720 -33.041  21.062  1.00  0.00     0.000 C 
ENDROOT
BRANCH   1   2
ATOM      2  C   UNL     1     -17.526 -33.809  20.472  1.00  0.00     0.000 C 
BRANCH   2   3
ATOM      3  C   UNL     1     -16.767 -33.002  19.409  1.00  0.00     0.000 C 
BRANCH   3   4
ATOM      4  C   UNL     1     -16.962 -33.611  18.015  1.00  0.00     0.006 C 
BRANCH   4   5
ATOM      5  C   UNL     1     -17.734 -32.656  17.100  1.00  0.00     0.053 C 
BRANCH   5   6
ATOM      6  C   UNL     1     -19.105 -33.188  16.825  1.00  0.00     0.041 C 
ATOM      7  O   UNL     1     -19.693 -32.900  15.750  1.00  0.00    -0.550 OA
ATOM      8  O   UNL     1     -19.715 -34.043  17.735  1.00  0.00    -0.550 OA
ENDBRANCH   5   6
ENDBRANCH   4   5
ENDBRANCH   3   4
ENDBRANCH   2   3
ENDBRANCH   1   2
BRANCH   1   9
ATOM      9  C   UNL     1     -18.719 -31.554  20.665  1.00  0.00     0.000 C 
BRANCH   9  10
ATOM     10  C   UNL     1     -20.001 -31.140  19.924  1.00  0.00    -0.000 C 
BRANCH  10  11
ATOM     11  C   UNL     1     -19.750 -30.065  18.856  1.00  0.00    -0.000 C 
BRANCH  11  12
ATOM     12  C   UNL     1     -18.361 -29.433  19.030  1.00  0.00    -0.000 C 
BRANCH  12  13
ATOM     13  C   UNL     1     -17.759 -28.954  17.700  1.00  0.00    -0.003 C 
ATOM     14  C   UNL     1     -17.486 -27.449  17.681  1.00  0.00     0.004 C 
ENDBRANCH  12  13
ENDBRANCH  11  12
ENDBRANCH  10  11
ENDBRANCH   9  10
ENDBRANCH   1   9
TORSDOF 10
ENDMDL
MODEL 4
REMARK VINA RESULT:    -3.922      1.507      3.499
REMARK INTER + INTRA:          -7.684
REMARK INTER:                  -6.063
REMARK INTRA:                  -1.621
REMARK UNBOUND:                -1.469
REMARK SMILES CCCCCCCCCCCC(=O)[O-]
REMARK SMILES IDX 7 1 8 2 9 3 10 4 11 5 12 6 13 7 14 8 6 9 5 10 4 11 3 12 2 13
REMARK SMILES IDX 1 14
REMARK H PARENT
REMARK Flexibility Score: inf
ROOT
ATOM      1  C   UNL     1     -17.765 -33.563  18.066  1.00  0.00     0.000 C 
ENDROOT
BRANCH   1   2
ATOM      2  C   UNL     1     -17.017 -32.400  17.396  1.00  0.00     0.000 C 
BRANCH   2   3
ATOM      3  C   UNL     1     -17.497 -31.025  17.884  1.00  0.00     0.000 C 
BRANCH   3   4
ATOM      4  C   UNL     1     -16.556 -30.465  18.957  1.00  0.00     0.006 C 
BRANCH   4   5
ATOM      5  C   UNL     1     -17.324 -29.616  19.974  1.00  0.00     0.053 C 
BRANCH   5   6
ATOM      6  C   UNL     1     -17.230 -28.165  19.623  1.00  0.00     0.041 C 
ATOM      7  O   UNL     1     -16.139 -27.549  19.756  1.00  0.00    -0.550 OA
ATOM      8  O   UNL     1     -18.334 -27.502  19.102  1.00  0.00    -0.550 OA
ENDBRANCH   5   6
ENDBRANCH   4   5
ENDBRANCH   3   4
ENDBRANCH   2   3
ENDBRANCH   1   2
BRANCH   1   9
ATOM      9  C   UNL     1     -19.165 -33.158  18.560  1.00  0.00     0.000 C 
BRANCH   9  10
ATOM     10  C   UNL     1     -19.351 -33.396  20.068  1.00  0.00    -0.000 C 
BRANCH  10  11
ATOM     11  C   UNL     1     -18.041 -33.771  20.777  1.00  0.00    -0.000 C 
BRANCH  11  12
ATOM     12  C   UNL     1     -17.718 -32.770  21.896  1.00  0.00    -0.000 C 
BRANCH  12  13
ATOM     13  C   UNL     1     -16.207 -32.617  22.134  1.00  0.00    -0.003 C 
ATOM     14  C   UNL     1     -15.365 -33.269  21.038  1.00  0.00     0.004 C 
ENDBRANCH  12  13
ENDBRANCH  11  12
ENDBRANCH  10  11
ENDBRANCH   9  10
ENDBRANCH   1   9
TORSDOF 10
ENDMDL
MODEL 5
REMARK VINA RESULT:    -3.911      1.523      3.568
REMARK INTER + INTRA:          -7.666
REMARK INTER:                  -6.222
REMARK INTRA:                  -1.443
REMARK UNBOUND:                -1.469
REMARK SMILES CCCCCCCCCCCC(=O)[O-]
REMARK SMILES IDX 7 1 8 2 9 3 10 4 11 5 12 6 13 7 14 8 6 9 5 10 4 11 3 12 2 13
REMARK SMILES IDX 1 14
REMARK H PARENT
REMARK Flexibility Score: inf
ROOT
ATOM      1  C   UNL     1     -17.663 -30.915  17.276  1.00  0.00     0.000 C 
ENDROOT
BRANCH   1   2
ATOM      2  C   UNL     1     -16.540 -31.552  18.110  1.00  0.00     0.000 C 
BRANCH   2   3
ATOM      3  C   UNL     1     -15.707 -30.512  18.875  1.00  0.00     0.000 C 
BRANCH   3   4
ATOM      4  C   UNL     1     -16.613 -29.527  19.624  1.00  0.00     0.006 C 
BRANCH   4   5
ATOM      5  C   UNL     1     -16.316 -28.083  19.211  1.00  0.00     0.053 C 
BRANCH   5   6
ATOM      6  C   UNL     1     -17.507 -27.474  18.540  1.00  0.00     0.041 C 
ATOM      7  O   UNL     1     -18.430 -26.964  19.228  1.00  0.00    -0.550 OA
ATOM      8  O   UNL     1     -17.574 -27.425  17.153  1.00  0.00    -0.550 OA
ENDBRANCH   5   6
ENDBRANCH   4   5
ENDBRANCH   3   4
ENDBRANCH   2   3
ENDBRANCH   1   2
BRANCH   1   9
ATOM      9  C   UNL     1     -19.054 -31.459  17.645  1.00  0.00     0.000 C 
BRANCH   9  10
ATOM     10  C   UNL     1     -19.753 -30.610  18.720  1.00  0.00    -0.000 C 
BRANCH  10  11
ATOM     11  C   UNL     1     -19.951 -31.369  20.041  1.00  0.00    -0.000 C 
BRANCH  11  12
ATOM     12  C   UNL     1     -19.623 -32.860  19.871  1.00  0.00    -0.000 C 
BRANCH  12  13
ATOM     13  C   UNL     1     -18.429 -33.304  20.730  1.00  0.00    -0.003 C 
ATOM     14  C   UNL     1     -17.987 -32.235  21.730  1.00  0.00     0.004 C 
ENDBRANCH  12  13
ENDBRANCH  11  12
ENDBRANCH  10  11
ENDBRANCH   9  10
ENDBRANCH   1   9
TORSDOF 10
ENDMDL
MODEL 6
REMARK VINA RESULT:    -3.872      1.231      3.228
REMARK INTER + INTRA:          -7.605
REMARK INTER:                  -5.967
REMARK INTRA:                  -1.638
REMARK UNBOUND:                -1.469
REMARK SMILES CCCCCCCCCCCC(=O)[O-]
REMARK SMILES IDX 7 1 8 2 9 3 10 4 11 5 12 6 13 7 14 8 6 9 5 10 4 11 3 12 2 13
REMARK SMILES IDX 1 14
REMARK H PARENT
REMARK Flexibility Score: inf
ROOT
ATOM      1  C   UNL     1     -18.849 -32.638  16.838  1.00  0.00     0.000 C 
ENDROOT
BRANCH   1   2
ATOM      2  C   UNL     1     -17.749 -31.578  16.672  1.00  0.00     0.000 C 
BRANCH   2   3
ATOM      3  C   UNL     1     -16.671 -31.665  17.762  1.00  0.00     0.000 C 
BRANCH   3   4
ATOM      4  C   UNL     1     -16.367 -30.280  18.345  1.00  0.00     0.006 C 
BRANCH   4   5
ATOM      5  C   UNL     1     -16.842 -29.170  17.403  1.00  0.00     0.053 C 
BRANCH   5   6
ATOM      6  C   UNL     1     -16.834 -27.848  18.104  1.00  0.00     0.041 C 
ATOM      7  O   UNL     1     -15.776 -27.415  18.631  1.00  0.00    -0.550 OA
ATOM      8  O   UNL     1     -17.985 -27.070  18.133  1.00  0.00    -0.550 OA
ENDBRANCH   5   6
ENDBRANCH   4   5
ENDBRANCH   3   4
ENDBRANCH   2   3
ENDBRANCH   1   2
BRANCH   1   9
ATOM      9  C   UNL     1     -18.544 -33.633  17.972  1.00  0.00     0.000 C 
BRANCH   9  10
ATOM     10  C   UNL     1     -19.535 -33.519  19.142  1.00  0.00    -0.000 C 
BRANCH  10  11
ATOM     11  C   UNL     1     -18.869 -33.042  20.441  1.00  0.00    -0.000 C 
BRANCH  11  12
ATOM     12  C   UNL     1     -19.077 -31.534  20.643  1.00  0.00    -0.000 C 
BRANCH  12  13
ATOM     13  C   UNL     1     -20.371 -31.023  19.990  1.00  0.00    -0.003 C 
ATOM     14  C   UNL     1     -20.128 -29.872  19.014  1.00  0.00     0.004 C 
ENDBRANCH  12  13
ENDBRANCH  11  12
ENDBRANCH  10  11
ENDBRANCH   9  10
ENDBRANCH   1   9
TORSDOF 10
ENDMDL
MODEL 7
REMARK VINA RESULT:    -3.840      2.672      4.028
REMARK INTER + INTRA:          -7.554
REMARK INTER:                  -6.069
REMARK INTRA:                  -1.486
REMARK UNBOUND:                -1.469
REMARK SMILES CCCCCCCCCCCC(=O)[O-]
REMARK SMILES IDX 7 1 8 2 9 3 10 4 11 5 12 6 13 7 14 8 6 9 5 10 4 11 3 12 2 13
REMARK SMILES IDX 1 14
REMARK H PARENT
REMARK Flexibility Score: inf
ROOT
ATOM      1  C   UNL     1     -20.136 -31.312  20.033  1.00  0.00     0.000 C 
ENDROOT
BRANCH   1   2
ATOM      2  C   UNL     1     -19.940 -30.303  18.890  1.00  0.00     0.000 C 
BRANCH   2   3
ATOM      3  C   UNL     1     -18.618 -29.529  19.002  1.00  0.00     0.000 C 
BRANCH   3   4
ATOM      4  C   UNL     1     -17.700 -29.835  17.813  1.00  0.00     0.006 C 
BRANCH   4   5
ATOM      5  C   UNL     1     -16.757 -30.998  18.131  1.00  0.00     0.053 C 
BRANCH   5   6
ATOM      6  C   UNL     1     -16.944 -32.109  17.147  1.00  0.00     0.041 C 
ATOM      7  O   UNL     1     -17.163 -31.852  15.934  1.00  0.00    -0.550 OA
ATOM      8  O   UNL     1     -16.828 -33.431  17.560  1.00  0.00    -0.550 OA
ENDBRANCH   5   6
ENDBRANCH   4   5
ENDBRANCH   3   4
ENDBRANCH   2   3
ENDBRANCH   1   2
BRANCH   1   9
ATOM      9  C   UNL     1     -19.675 -32.730  19.654  1.00  0.00     0.000 C 
BRANCH   9  10
ATOM     10  C   UNL     1     -18.614 -33.284  20.619  1.00  0.00    -0.000 C 
BRANCH  10  11
ATOM     11  C   UNL     1     -18.085 -32.222  21.594  1.00  0.00    -0.000 C 
BRANCH  11  12
ATOM     12  C   UNL     1     -16.593 -32.441  21.886  1.00  0.00    -0.000 C 
BRANCH  12  13
ATOM     13  C   UNL     1     -15.957 -33.490  20.961  1.00  0.00    -0.003 C 
ATOM     14  C   UNL     1     -14.619 -33.033  20.379  1.00  0.00     0.004 C 
ENDBRANCH  12  13
ENDBRANCH  11  12
ENDBRANCH  10  11
ENDBRANCH   9  10
ENDBRANCH   1   9
TORSDOF 10
ENDMDL
MODEL 8
REMARK VINA RESULT:    -3.790      2.652      4.657
REMARK INTER + INTRA:          -7.474
REMARK INTER:                  -5.986
REMARK INTRA:                  -1.488
REMARK UNBOUND:                -1.469
REMARK SMILES CCCCCCCCCCCC(=O)[O-]
REMARK SMILES IDX 7 1 8 2 9 3 10 4 11 5 12 6 13 7 14 8 6 9 5 10 4 11 3 12 2 13
REMARK SMILES IDX 1 14
REMARK H PARENT
REMARK Flexibility Score: inf
ROOT
ATOM      1  C   UNL     1     -18.843 -32.391  17.356  1.00  0.00     0.000 C 
ENDROOT
BRANCH   1   2
ATOM      2  C   UNL     1     -18.947 -33.396  18.515  1.00  0.00     0.000 C 
BRANCH   2   3
ATOM      3  C   UNL     1     -19.511 -32.766  19.797  1.00  0.00     0.000 C 
BRANCH   3   4
ATOM      4  C   UNL     1     -18.619 -33.085  21.003  1.00  0.00     0.006 C 
BRANCH   4   5
ATOM      5  C   UNL     1     -17.318 -33.760  20.562  1.00  0.00     0.053 C 
BRANCH   5   6
ATOM      6  C   UNL     1     -16.143 -33.123  21.235  1.00  0.00     0.041 C 
ATOM      7  O   UNL     1     -16.294 -32.496  22.316  1.00  0.00    -0.550 OA
ATOM      8  O   UNL     1     -14.871 -33.265  20.694  1.00  0.00    -0.550 OA
ENDBRANCH   5   6
ENDBRANCH   4   5
ENDBRANCH   3   4
ENDBRANCH   2   3
ENDBRANCH   1   2
BRANCH   1   9
ATOM      9  C   UNL     1     -17.386 -32.034  17.014  1.00  0.00     0.000 C 
BRANCH   9  10
ATOM     10  C   UNL     1     -17.040 -30.575  17.353  1.00  0.00    -0.000 C 
BRANCH  10  11
ATOM     11  C   UNL     1     -16.434 -30.419  18.756  1.00  0.00    -0.000 C 
BRANCH  11  12
ATOM     12  C   UNL     1     -17.421 -29.726  19.706  1.00  0.00    -0.000 C 
BRANCH  12  13
ATOM     13  C   UNL     1     -18.468 -28.884  18.960  1.00  0.00    -0.003 C 
ATOM     14  C   UNL     1     -18.163 -27.387  18.999  1.00  0.00     0.004 C 
ENDBRANCH  12  13
ENDBRANCH  11  12
ENDBRANCH  10  11
ENDBRANCH   9  10
ENDBRANCH   1   9
TORSDOF 10
ENDMDL
MODEL 9
REMARK VINA RESULT:    -3.771      1.065      1.405
REMARK INTER + INTRA:          -7.445
REMARK INTER:                  -6.208
REMARK INTRA:                  -1.237
REMARK UNBOUND:                -1.469
REMARK SMILES CCCCCCCCCCCC(=O)[O-]
REMARK SMILES IDX 7 1 8 2 9 3 10 4 11 5 12 6 13 7 14 8 6 9 5 10 4 11 3 12 2 13
REMARK SMILES IDX 1 14
REMARK H PARENT
REMARK Flexibility Score: inf
ROOT
ATOM      1  C   UNL     1     -19.217 -31.939  20.378  1.00  0.00     0.000 C 
ENDROOT
BRANCH   1   2
ATOM      2  C   UNL     1     -20.151 -30.962  19.646  1.00  0.00     0.000 C 
BRANCH   2   3
ATOM      3  C   UNL     1     -19.396 -30.012  18.705  1.00  0.00     0.000 C 
BRANCH   3   4
ATOM      4  C   UNL     1     -17.881 -30.113  18.923  1.00  0.00     0.006 C 
BRANCH   4   5
ATOM      5  C   UNL     1     -17.316 -28.801  19.476  1.00  0.00     0.053 C 
BRANCH   5   6
ATOM      6  C   UNL     1     -17.727 -27.649  18.614  1.00  0.00     0.041 C 
ATOM      7  O   UNL     1     -18.489 -26.756  19.070  1.00  0.00    -0.550 OA
ATOM      8  O   UNL     1     -17.227 -27.534  17.323  1.00  0.00    -0.550 OA
ENDBRANCH   5   6
ENDBRANCH   4   5
ENDBRANCH   3   4
ENDBRANCH   2   3
ENDBRANCH   1   2
BRANCH   1   9
ATOM      9  C   UNL     1     -19.363 -33.386  19.874  1.00  0.00     0.000 C 
BRANCH   9  10
ATOM     10  C   UNL     1     -18.489 -33.673  18.642  1.00  0.00    -0.000 C 
BRANCH  10  11
ATOM     11  C   UNL     1     -19.303 -33.757  17.343  1.00  0.00    -0.000 C 
BRANCH  11  12
ATOM     12  C   UNL     1     -18.635 -32.944  16.223  1.00  0.00    -0.000 C 
BRANCH  12  13
ATOM     13  C   UNL     1     -17.167 -32.611  16.530  1.00  0.00    -0.003 C 
ATOM     14  C   UNL     1     -16.560 -31.629  15.528  1.00  0.00     0.004 C 
ENDBRANCH  12  13
ENDBRANCH  11  12
ENDBRANCH  10  11
ENDBRANCH   9  10
ENDBRANCH   1   9
TORSDOF 10
ENDMDL
