MODEL 1
REMARK VINA RESULT:    -4.400      0.000      0.000
REMARK INTER + INTRA:          -9.265
REMARK INTER:                  -8.001
REMARK INTRA:                  -1.264
REMARK UNBOUND:                -1.264
REMARK SMILES CCCCCC=CCC=CCCCCCCCC(=O)[O-]
REMARK SMILES IDX 11 1 12 2 13 3 14 4 15 5 16 6 17 7 18 8 19 9 20 10 10 11
REMARK SMILES IDX 9 12 8 13 7 14 6 15 5 16 4 17 3 18 2 19 1 20
REMARK H PARENT
REMARK Flexibility Score: inf
ROOT
ATOM      1  C   UNL     1      43.977  27.129   2.064  1.00  0.00     0.027 C 
ENDROOT
BRANCH   1   2
ATOM      2  C   UNL     1      44.477  26.502   3.375  1.00  0.00     0.004 C 
BRANCH   2   3
ATOM      3  C   UNL     1      46.010  26.439   3.454  1.00  0.00     0.000 C 
BRANCH   3   4
ATOM      4  C   UNL     1      46.534  26.594   4.893  1.00  0.00     0.000 C 
BRANCH   4   5
ATOM      5  C   UNL     1      46.216  27.974   5.490  1.00  0.00     0.000 C 
BRANCH   5   6
ATOM      6  C   UNL     1      46.275  27.986   7.027  1.00  0.00     0.006 C 
BRANCH   6   7
ATOM      7  C   UNL     1      46.005  26.600   7.627  1.00  0.00     0.053 C 
BRANCH   7   8
ATOM      8  C   UNL     1      45.632  26.684   9.075  1.00  0.00     0.041 C 
ATOM      9  O   UNL     1      45.006  27.686   9.511  1.00  0.00    -0.550 OA
ATOM     10  O   UNL     1      46.000  25.669   9.950  1.00  0.00    -0.550 OA
ENDBRANCH   7   8
ENDBRANCH   6   7
ENDBRANCH   5   6
ENDBRANCH   4   5
ENDBRANCH   3   4
ENDBRANCH   2   3
ENDBRANCH   1   2
BRANCH   1  11
ATOM     11  C   UNL     1      43.614  28.579   2.264  1.00  0.00    -0.031 C 
ATOM     12  C   UNL     1      44.410  29.614   1.939  1.00  0.00    -0.027 C 
BRANCH  12  13
ATOM     13  C   UNL     1      45.757  29.479   1.279  1.00  0.00     0.054 C 
BRANCH  13  14
ATOM     14  C   UNL     1      45.610  29.448  -0.217  1.00  0.00    -0.027 C 
ATOM     15  C   UNL     1      46.317  28.598  -0.976  1.00  0.00    -0.031 C 
BRANCH  15  16
ATOM     16  C   UNL     1      46.202  28.596  -2.477  1.00  0.00     0.027 C 
BRANCH  16  17
ATOM     17  C   UNL     1      45.766  27.222  -3.005  1.00  0.00     0.004 C 
BRANCH  17  18
ATOM     18  C   UNL     1      45.784  27.164  -4.542  1.00  0.00     0.000 C 
BRANCH  18  19
ATOM     19  C   UNL     1      44.856  28.208  -5.182  1.00  0.00    -0.003 C 
ATOM     20  C   UNL     1      43.458  27.663  -5.470  1.00  0.00     0.004 C 
ENDBRANCH  18  19
ENDBRANCH  17  18
ENDBRANCH  16  17
ENDBRANCH  15  16
ENDBRANCH  13  14
ENDBRANCH  12  13
ENDBRANCH   1  11
TORSDOF 14
ENDMDL
MODEL 2
REMARK VINA RESULT:    -4.263      5.008     10.069
REMARK INTER + INTRA:          -9.016
REMARK INTER:                  -8.057
REMARK INTRA:                  -0.959
REMARK UNBOUND:                -1.264
REMARK SMILES CCCCCC=CCC=CCCCCCCCC(=O)[O-]
REMARK SMILES IDX 11 1 12 2 13 3 14 4 15 5 16 6 17 7 18 8 19 9 20 10 10 11
REMARK SMILES IDX 9 12 8 13 7 14 6 15 5 16 4 17 3 18 2 19 1 20
REMARK H PARENT
REMARK Flexibility Score: inf
ROOT
ATOM      1  C   UNL     1      45.496  28.134   0.112  1.00  0.00     0.027 C 
ENDROOT
BRANCH   1   2
ATOM      2  C   UNL     1      46.876  28.614  -0.363  1.00  0.00     0.004 C 
BRANCH   2   3
ATOM      3  C   UNL     1      47.014  28.599  -1.893  1.00  0.00     0.000 C 
BRANCH   3   4
ATOM      4  C   UNL     1      45.970  27.695  -2.572  1.00  0.00     0.000 C 
BRANCH   4   5
ATOM      5  C   UNL     1      46.447  27.164  -3.933  1.00  0.00     0.000 C 
BRANCH   5   6
ATOM      6  C   UNL     1      45.565  27.639  -5.100  1.00  0.00     0.006 C 
BRANCH   6   7
ATOM      7  C   UNL     1      44.082  27.320  -4.872  1.00  0.00     0.053 C 
BRANCH   7   8
ATOM      8  C   UNL     1      43.189  28.318  -5.543  1.00  0.00     0.041 C 
ATOM      9  O   UNL     1      43.679  29.207  -6.288  1.00  0.00    -0.550 OA
ATOM     10  O   UNL     1      41.817  28.284  -5.323  1.00  0.00    -0.550 OA
ENDBRANCH   7   8
ENDBRANCH   6   7
ENDBRANCH   5   6
ENDBRANCH   4   5
ENDBRANCH   3   4
ENDBRANCH   2   3
ENDBRANCH   1   2
BRANCH   1  11
ATOM     11  C   UNL     1      44.972  29.012   1.221  1.00  0.00    -0.031 C 
ATOM     12  C   UNL     1      44.275  28.562   2.281  1.00  0.00    -0.027 C 
BRANCH  12  13
ATOM     13  C   UNL     1      43.962  27.112   2.544  1.00  0.00     0.054 C 
BRANCH  13  14
ATOM     14  C   UNL     1      45.011  26.500   3.430  1.00  0.00    -0.027 C 
ATOM     15  C   UNL     1      45.708  27.236   4.308  1.00  0.00    -0.031 C 
BRANCH  15  16
ATOM     16  C   UNL     1      46.789  26.632   5.165  1.00  0.00     0.027 C 
BRANCH  16  17
ATOM     17  C   UNL     1      46.402  26.646   6.649  1.00  0.00     0.004 C 
BRANCH  17  18
ATOM     18  C   UNL     1      46.053  28.062   7.140  1.00  0.00     0.000 C 
BRANCH  18  19
ATOM     19  C   UNL     1      45.751  28.105   8.646  1.00  0.00    -0.003 C 
ATOM     20  C   UNL     1      45.403  26.733   9.221  1.00  0.00     0.004 C 
ENDBRANCH  18  19
ENDBRANCH  17  18
ENDBRANCH  16  17
ENDBRANCH  15  16
ENDBRANCH  13  14
ENDBRANCH  12  13
ENDBRANCH   1  11
TORSDOF 14
ENDMDL
MODEL 3
REMARK VINA RESULT:    -4.244      0.992      1.915
REMARK INTER + INTRA:          -8.982
REMARK INTER:                  -8.081
REMARK INTRA:                  -0.901
REMARK UNBOUND:                -1.264
REMARK SMILES CCCCCC=CCC=CCCCCCCCC(=O)[O-]
REMARK SMILES IDX 11 1 12 2 13 3 14 4 15 5 16 6 17 7 18 8 19 9 20 10 10 11
REMARK SMILES IDX 9 12 8 13 7 14 6 15 5 16 4 17 3 18 2 19 1 20
REMARK H PARENT
REMARK Flexibility Score: inf
ROOT
ATOM      1  C   UNL     1      44.534  27.802   1.244  1.00  0.00     0.027 C 
ENDROOT
BRANCH   1   2
ATOM      2  C   UNL     1      44.138  27.025   2.509  1.00  0.00     0.004 C 
BRANCH   2   3
ATOM      3  C   UNL     1      45.156  27.188   3.648  1.00  0.00     0.000 C 
BRANCH   3   4
ATOM      4  C   UNL     1      45.790  25.851   4.070  1.00  0.00     0.000 C 
BRANCH   4   5
ATOM      5  C   UNL     1      46.822  26.018   5.196  1.00  0.00     0.000 C 
BRANCH   5   6
ATOM      6  C   UNL     1      46.411  27.083   6.228  1.00  0.00     0.006 C 
BRANCH   6   7
ATOM      7  C   UNL     1      46.779  26.673   7.661  1.00  0.00     0.053 C 
BRANCH   7   8
ATOM      8  C   UNL     1      45.693  27.018   8.633  1.00  0.00     0.041 C 
ATOM      9  O   UNL     1      45.209  26.131   9.384  1.00  0.00    -0.550 OA
ATOM     10  O   UNL     1      45.196  28.315   8.691  1.00  0.00    -0.550 OA
ENDBRANCH   7   8
ENDBRANCH   6   7
ENDBRANCH   5   6
ENDBRANCH   4   5
ENDBRANCH   3   4
ENDBRANCH   2   3
ENDBRANCH   1   2
BRANCH   1  11
ATOM     11  C   UNL     1      45.901  28.420   1.397  1.00  0.00    -0.031 C 
ATOM     12  C   UNL     1      46.555  29.069   0.417  1.00  0.00    -0.027 C 
BRANCH  12  13
ATOM     13  C   UNL     1      45.998  29.320  -0.960  1.00  0.00     0.054 C 
BRANCH  13  14
ATOM     14  C   UNL     1      46.388  28.211  -1.896  1.00  0.00    -0.027 C 
ATOM     15  C   UNL     1      46.007  28.208  -3.182  1.00  0.00    -0.031 C 
BRANCH  15  16
ATOM     16  C   UNL     1      46.361  27.076  -4.109  1.00  0.00     0.027 C 
BRANCH  16  17
ATOM     17  C   UNL     1      45.758  27.283  -5.505  1.00  0.00     0.004 C 
BRANCH  17  18
ATOM     18  C   UNL     1      44.598  28.293  -5.487  1.00  0.00     0.000 C 
BRANCH  18  19
ATOM     19  C   UNL     1      43.224  27.613  -5.574  1.00  0.00    -0.003 C 
ATOM     20  C   UNL     1      42.071  28.613  -5.664  1.00  0.00     0.004 C 
ENDBRANCH  18  19
ENDBRANCH  17  18
ENDBRANCH  16  17
ENDBRANCH  15  16
ENDBRANCH  13  14
ENDBRANCH  12  13
ENDBRANCH   1  11
TORSDOF 14
ENDMDL
MODEL 4
REMARK VINA RESULT:    -4.237      4.198      8.902
REMARK INTER + INTRA:          -8.968
REMARK INTER:                  -6.946
REMARK INTRA:                  -2.022
REMARK UNBOUND:                -1.264
REMARK SMILES CCCCCC=CCC=CCCCCCCCC(=O)[O-]
REMARK SMILES IDX 11 1 12 2 13 3 14 4 15 5 16 6 17 7 18 8 19 9 20 10 10 11
REMARK SMILES IDX 9 12 8 13 7 14 6 15 5 16 4 17 3 18 2 19 1 20
REMARK H PARENT
REMARK Flexibility Score: inf
ROOT
ATOM      1  C   UNL     1      43.920  27.526   1.815  1.00  0.00     0.027 C 
ENDROOT
BRANCH   1   2
ATOM      2  C   UNL     1      43.397  28.899   2.264  1.00  0.00     0.004 C 
BRANCH   2   3
ATOM      3  C   UNL     1      44.444  30.013   2.107  1.00  0.00     0.000 C 
BRANCH   3   4
ATOM      4  C   UNL     1      45.042  30.065   0.690  1.00  0.00     0.000 C 
BRANCH   4   5
ATOM      5  C   UNL     1      46.527  29.669   0.663  1.00  0.00     0.000 C 
BRANCH   5   6
ATOM      6  C   UNL     1      46.863  28.696  -0.481  1.00  0.00     0.006 C 
BRANCH   6   7
ATOM      7  C   UNL     1      46.054  28.995  -1.751  1.00  0.00     0.053 C 
BRANCH   7   8
ATOM      8  C   UNL     1      46.228  27.925  -2.784  1.00  0.00     0.041 C 
ATOM      9  O   UNL     1      45.602  27.989  -3.875  1.00  0.00    -0.550 OA
ATOM     10  O   UNL     1      47.059  26.840  -2.530  1.00  0.00    -0.550 OA
ENDBRANCH   7   8
ENDBRANCH   6   7
ENDBRANCH   5   6
ENDBRANCH   4   5
ENDBRANCH   3   4
ENDBRANCH   2   3
ENDBRANCH   1   2
BRANCH   1  11
ATOM     11  C   UNL     1      44.105  26.607   2.996  1.00  0.00    -0.031 C 
ATOM     12  C   UNL     1      45.287  26.369   3.596  1.00  0.00    -0.027 C 
BRANCH  12  13
ATOM     13  C   UNL     1      46.586  27.024   3.210  1.00  0.00     0.054 C 
BRANCH  13  14
ATOM     14  C   UNL     1      47.070  27.923   4.313  1.00  0.00    -0.027 C 
ATOM     15  C   UNL     1      46.217  28.630   5.070  1.00  0.00    -0.031 C 
BRANCH  15  16
ATOM     16  C   UNL     1      46.702  29.564   6.147  1.00  0.00     0.027 C 
BRANCH  16  17
ATOM     17  C   UNL     1      46.980  28.814   7.457  1.00  0.00     0.004 C 
BRANCH  17  18
ATOM     18  C   UNL     1      45.896  27.766   7.762  1.00  0.00     0.000 C 
BRANCH  18  19
ATOM     19  C   UNL     1      45.396  27.841   9.213  1.00  0.00    -0.003 C 
ATOM     20  C   UNL     1      44.855  29.222   9.584  1.00  0.00     0.004 C 
ENDBRANCH  18  19
ENDBRANCH  17  18
ENDBRANCH  16  17
ENDBRANCH  15  16
ENDBRANCH  13  14
ENDBRANCH  12  13
ENDBRANCH   1  11
TORSDOF 14
ENDMDL
MODEL 5
REMARK VINA RESULT:    -4.196      4.792      9.898
REMARK INTER + INTRA:          -8.894
REMARK INTER:                  -7.801
REMARK INTRA:                  -1.093
REMARK UNBOUND:                -1.264
REMARK SMILES CCCCCC=CCC=CCCCCCCCC(=O)[O-]
REMARK SMILES IDX 11 1 12 2 13 3 14 4 15 5 16 6 17 7 18 8 19 9 20 10 10 11
REMARK SMILES IDX 9 12 8 13 7 14 6 15 5 16 4 17 3 18 2 19 1 20
REMARK H PARENT
REMARK Flexibility Score: inf
ROOT
ATOM      1  C   UNL     1      43.702  27.685   2.562  1.00  0.00     0.027 C 
ENDROOT
BRANCH   1   2
ATOM      2  C   UNL     1      44.426  28.655   1.616  1.00  0.00     0.004 C 
BRANCH   2   3
ATOM      3  C   UNL     1      45.252  27.930   0.542  1.00  0.00     0.000 C 
BRANCH   3   4
ATOM      4  C   UNL     1      46.581  28.641   0.239  1.00  0.00     0.000 C 
BRANCH   4   5
ATOM      5  C   UNL     1      46.878  28.717  -1.268  1.00  0.00     0.000 C 
BRANCH   5   6
ATOM      6  C   UNL     1      45.948  27.821  -2.104  1.00  0.00     0.006 C 
BRANCH   6   7
ATOM      7  C   UNL     1      46.675  27.186  -3.297  1.00  0.00     0.053 C 
BRANCH   7   8
ATOM      8  C   UNL     1      45.869  27.288  -4.555  1.00  0.00     0.041 C 
ATOM      9  O   UNL     1      44.637  27.028  -4.542  1.00  0.00    -0.550 OA
ATOM     10  O   UNL     1      46.485  27.643  -5.750  1.00  0.00    -0.550 OA
ENDBRANCH   7   8
ENDBRANCH   6   7
ENDBRANCH   5   6
ENDBRANCH   4   5
ENDBRANCH   3   4
ENDBRANCH   2   3
ENDBRANCH   1   2
BRANCH   1  11
ATOM     11  C   UNL     1      44.596  26.531   2.938  1.00  0.00    -0.031 C 
ATOM     12  C   UNL     1      45.644  26.624   3.779  1.00  0.00    -0.027 C 
BRANCH  12  13
ATOM     13  C   UNL     1      46.043  27.879   4.509  1.00  0.00     0.054 C 
BRANCH  13  14
ATOM     14  C   UNL     1      46.620  27.544   5.856  1.00  0.00    -0.027 C 
ATOM     15  C   UNL     1      46.078  26.598   6.638  1.00  0.00    -0.031 C 
BRANCH  15  16
ATOM     16  C   UNL     1      46.629  26.291   8.005  1.00  0.00     0.027 C 
BRANCH  16  17
ATOM     17  C   UNL     1      45.586  26.546   9.101  1.00  0.00     0.004 C 
BRANCH  17  18
ATOM     18  C   UNL     1      45.908  27.808   9.920  1.00  0.00     0.000 C 
BRANCH  18  19
ATOM     19  C   UNL     1      44.910  28.947   9.664  1.00  0.00    -0.003 C 
ATOM     20  C   UNL     1      45.224  29.738   8.394  1.00  0.00     0.004 C 
ENDBRANCH  18  19
ENDBRANCH  17  18
ENDBRANCH  16  17
ENDBRANCH  15  16
ENDBRANCH  13  14
ENDBRANCH  12  13
ENDBRANCH   1  11
TORSDOF 14
ENDMDL
MODEL 6
REMARK VINA RESULT:    -4.130      5.004     10.385
REMARK INTER + INTRA:          -8.774
REMARK INTER:                  -8.005
REMARK INTRA:                  -0.770
REMARK UNBOUND:                -1.264
REMARK SMILES CCCCCC=CCC=CCCCCCCCC(=O)[O-]
REMARK SMILES IDX 11 1 12 2 13 3 14 4 15 5 16 6 17 7 18 8 19 9 20 10 10 11
REMARK SMILES IDX 9 12 8 13 7 14 6 15 5 16 4 17 3 18 2 19 1 20
REMARK H PARENT
REMARK Flexibility Score: inf
ROOT
ATOM      1  C   UNL     1      45.373  28.082   2.173  1.00  0.00     0.027 C 
ENDROOT
BRANCH   1   2
ATOM      2  C   UNL     1      45.307  27.820   0.660  1.00  0.00     0.004 C 
BRANCH   2   3
ATOM      3  C   UNL     1      46.013  28.911  -0.161  1.00  0.00     0.000 C 
BRANCH   3   4
ATOM      4  C   UNL     1      46.431  28.421  -1.558  1.00  0.00     0.000 C 
BRANCH   4   5
ATOM      5  C   UNL     1      45.952  29.358  -2.678  1.00  0.00     0.000 C 
BRANCH   5   6
ATOM      6  C   UNL     1      45.364  28.598  -3.880  1.00  0.00     0.006 C 
BRANCH   6   7
ATOM      7  C   UNL     1      44.427  29.477  -4.719  1.00  0.00     0.053 C 
BRANCH   7   8
ATOM      8  C   UNL     1      43.194  28.736  -5.134  1.00  0.00     0.041 C 
ATOM      9  O   UNL     1      42.074  29.311  -5.124  1.00  0.00    -0.550 OA
ATOM     10  O   UNL     1      43.277  27.399  -5.506  1.00  0.00    -0.550 OA
ENDBRANCH   7   8
ENDBRANCH   6   7
ENDBRANCH   5   6
ENDBRANCH   4   5
ENDBRANCH   3   4
ENDBRANCH   2   3
ENDBRANCH   1   2
BRANCH   1  11
ATOM     11  C   UNL     1      44.471  27.135   2.924  1.00  0.00    -0.031 C 
ATOM     12  C   UNL     1      44.905  26.089   3.651  1.00  0.00    -0.027 C 
BRANCH  12  13
ATOM     13  C   UNL     1      46.354  25.742   3.866  1.00  0.00     0.054 C 
BRANCH  13  14
ATOM     14  C   UNL     1      46.929  26.554   4.993  1.00  0.00    -0.027 C 
ATOM     15  C   UNL     1      46.218  26.827   6.098  1.00  0.00    -0.031 C 
BRANCH  15  16
ATOM     16  C   UNL     1      46.776  27.677   7.208  1.00  0.00     0.027 C 
BRANCH  16  17
ATOM     17  C   UNL     1      45.674  28.479   7.911  1.00  0.00     0.004 C 
BRANCH  17  18
ATOM     18  C   UNL     1      45.587  28.148   9.411  1.00  0.00     0.000 C 
BRANCH  18  19
ATOM     19  C   UNL     1      45.583  26.636   9.681  1.00  0.00    -0.003 C 
ATOM     20  C   UNL     1      46.561  26.227  10.783  1.00  0.00     0.004 C 
ENDBRANCH  18  19
ENDBRANCH  17  18
ENDBRANCH  16  17
ENDBRANCH  15  16
ENDBRANCH  13  14
ENDBRANCH  12  13
ENDBRANCH   1  11
TORSDOF 14
ENDMDL
MODEL 7
REMARK VINA RESULT:    -4.110      4.278      9.537
REMARK INTER + INTRA:          -8.737
REMARK INTER:                  -7.388
REMARK INTRA:                  -1.349
REMARK UNBOUND:                -1.264
REMARK SMILES CCCCCC=CCC=CCCCCCCCC(=O)[O-]
REMARK SMILES IDX 11 1 12 2 13 3 14 4 15 5 16 6 17 7 18 8 19 9 20 10 10 11
REMARK SMILES IDX 9 12 8 13 7 14 6 15 5 16 4 17 3 18 2 19 1 20
REMARK H PARENT
REMARK Flexibility Score: inf
ROOT
ATOM      1  C   UNL     1      44.101  27.223   2.997  1.00  0.00     0.027 C 
ENDROOT
BRANCH   1   2
ATOM      2  C   UNL     1      44.353  27.501   1.506  1.00  0.00     0.004 C 
BRANCH   2   3
ATOM      3  C   UNL     1      44.920  28.906   1.253  1.00  0.00     0.000 C 
BRANCH   3   4
ATOM      4  C   UNL     1      46.111  28.896   0.279  1.00  0.00     0.000 C 
BRANCH   4   5
ATOM      5  C   UNL     1      45.941  29.903  -0.869  1.00  0.00     0.000 C 
BRANCH   5   6
ATOM      6  C   UNL     1      46.697  29.488  -2.143  1.00  0.00     0.006 C 
BRANCH   6   7
ATOM      7  C   UNL     1      45.753  28.954  -3.229  1.00  0.00     0.053 C 
BRANCH   7   8
ATOM      8  C   UNL     1      45.902  27.475  -3.416  1.00  0.00     0.041 C 
ATOM      9  O   UNL     1      46.622  26.806  -2.629  1.00  0.00    -0.550 OA
ATOM     10  O   UNL     1      45.270  26.840  -4.479  1.00  0.00    -0.550 OA
ENDBRANCH   7   8
ENDBRANCH   6   7
ENDBRANCH   5   6
ENDBRANCH   4   5
ENDBRANCH   3   4
ENDBRANCH   2   3
ENDBRANCH   1   2
BRANCH   1  11
ATOM     11  C   UNL     1      44.887  26.024   3.462  1.00  0.00    -0.031 C 
ATOM     12  C   UNL     1      46.143  26.080   3.945  1.00  0.00    -0.027 C 
BRANCH  12  13
ATOM     13  C   UNL     1      46.926  27.351   4.140  1.00  0.00     0.054 C 
BRANCH  13  14
ATOM     14  C   UNL     1      46.719  27.889   5.528  1.00  0.00    -0.027 C 
ATOM     15  C   UNL     1      45.975  28.981   5.756  1.00  0.00    -0.031 C 
BRANCH  15  16
ATOM     16  C   UNL     1      45.802  29.546   7.141  1.00  0.00     0.027 C 
BRANCH  16  17
ATOM     17  C   UNL     1      46.430  28.633   8.202  1.00  0.00     0.004 C 
BRANCH  17  18
ATOM     18  C   UNL     1      45.371  28.023   9.137  1.00  0.00     0.000 C 
BRANCH  18  19
ATOM     19  C   UNL     1      45.467  26.492   9.218  1.00  0.00    -0.003 C 
ATOM     20  C   UNL     1      46.552  26.015  10.184  1.00  0.00     0.004 C 
ENDBRANCH  18  19
ENDBRANCH  17  18
ENDBRANCH  16  17
ENDBRANCH  15  16
ENDBRANCH  13  14
ENDBRANCH  12  13
ENDBRANCH   1  11
TORSDOF 14
ENDMDL
MODEL 8
REMARK VINA RESULT:    -3.976      1.027      1.463
REMARK INTER + INTRA:          -8.494
REMARK INTER:                  -7.544
REMARK INTRA:                  -0.950
REMARK UNBOUND:                -1.264
REMARK SMILES CCCCCC=CCC=CCCCCCCCC(=O)[O-]
REMARK SMILES IDX 11 1 12 2 13 3 14 4 15 5 16 6 17 7 18 8 19 9 20 10 10 11
REMARK SMILES IDX 9 12 8 13 7 14 6 15 5 16 4 17 3 18 2 19 1 20
REMARK H PARENT
REMARK Flexibility Score: inf
ROOT
ATOM      1  C   UNL     1      44.458  27.124   3.456  1.00  0.00     0.027 C 
ENDROOT
BRANCH   1   2
ATOM      2  C   UNL     1      45.302  25.870   3.735  1.00  0.00     0.004 C 
BRANCH   2   3
ATOM      3  C   UNL     1      46.483  26.149   4.678  1.00  0.00     0.000 C 
BRANCH   3   4
ATOM      4  C   UNL     1      46.388  27.528   5.352  1.00  0.00     0.000 C 
BRANCH   4   5
ATOM      5  C   UNL     1      47.047  27.552   6.741  1.00  0.00     0.000 C 
BRANCH   5   6
ATOM      6  C   UNL     1      46.032  27.764   7.878  1.00  0.00     0.006 C 
BRANCH   6   7
ATOM      7  C   UNL     1      45.654  26.447   8.569  1.00  0.00     0.053 C 
BRANCH   7   8
ATOM      8  C   UNL     1      46.235  26.356   9.945  1.00  0.00     0.041 C 
ATOM      9  O   UNL     1      46.535  25.234  10.434  1.00  0.00    -0.550 OA
ATOM     10  O   UNL     1      46.422  27.507  10.701  1.00  0.00    -0.550 OA
ENDBRANCH   7   8
ENDBRANCH   6   7
ENDBRANCH   5   6
ENDBRANCH   4   5
ENDBRANCH   3   4
ENDBRANCH   2   3
ENDBRANCH   1   2
BRANCH   1  11
ATOM     11  C   UNL     1      43.913  27.104   2.050  1.00  0.00    -0.031 C 
ATOM     12  C   UNL     1      44.516  27.680   0.993  1.00  0.00    -0.027 C 
BRANCH  12  13
ATOM     13  C   UNL     1      45.847  28.381   1.048  1.00  0.00     0.054 C 
BRANCH  13  14
ATOM     14  C   UNL     1      46.342  28.680  -0.340  1.00  0.00    -0.027 C 
ATOM     15  C   UNL     1      45.970  27.939  -1.395  1.00  0.00    -0.031 C 
BRANCH  15  16
ATOM     16  C   UNL     1      46.498  28.210  -2.778  1.00  0.00     0.027 C 
BRANCH  16  17
ATOM     17  C   UNL     1      45.564  27.647  -3.857  1.00  0.00     0.004 C 
BRANCH  17  18
ATOM     18  C   UNL     1      44.726  28.750  -4.526  1.00  0.00     0.000 C 
BRANCH  18  19
ATOM     19  C   UNL     1      43.955  28.241  -5.754  1.00  0.00    -0.003 C 
ATOM     20  C   UNL     1      42.439  28.345  -5.587  1.00  0.00     0.004 C 
ENDBRANCH  18  19
ENDBRANCH  17  18
ENDBRANCH  16  17
ENDBRANCH  15  16
ENDBRANCH  13  14
ENDBRANCH  12  13
ENDBRANCH   1  11
TORSDOF 14
ENDMDL
MODEL 9
REMARK VINA RESULT:    -3.906      5.100     10.196
REMARK INTER + INTRA:          -8.367
REMARK INTER:                  -7.577
REMARK INTRA:                  -0.791
REMARK UNBOUND:                -1.264
REMARK SMILES CCCCCC=CCC=CCCCCCCCC(=O)[O-]
REMARK SMILES IDX 11 1 12 2 13 3 14 4 15 5 16 6 17 7 18 8 19 9 20 10 10 11
REMARK SMILES IDX 9 12 8 13 7 14 6 15 5 16 4 17 3 18 2 19 1 20
REMARK H PARENT
REMARK Flexibility Score: inf
ROOT
ATOM      1  C   UNL     1      44.678  27.492   0.833  1.00  0.00     0.027 C 
ENDROOT
BRANCH   1   2
ATOM      2  C   UNL     1      45.517  28.761   0.621  1.00  0.00     0.004 C 
BRANCH   2   3
ATOM      3  C   UNL     1      46.391  28.690  -0.641  1.00  0.00     0.000 C 
BRANCH   3   4
ATOM      4  C   UNL     1      45.921  29.659  -1.740  1.00  0.00     0.000 C 
BRANCH   4   5
ATOM      5  C   UNL     1      45.909  29.009  -3.132  1.00  0.00     0.000 C 
BRANCH   5   6
ATOM      6  C   UNL     1      45.777  27.477  -3.073  1.00  0.00     0.006 C 
BRANCH   6   7
ATOM      7  C   UNL     1      45.418  26.874  -4.438  1.00  0.00     0.053 C 
BRANCH   7   8
ATOM      8  C   UNL     1      45.833  27.767  -5.566  1.00  0.00     0.041 C 
ATOM      9  O   UNL     1      47.052  27.901  -5.853  1.00  0.00    -0.550 OA
ATOM     10  O   UNL     1      44.876  28.475  -6.283  1.00  0.00    -0.550 OA
ENDBRANCH   7   8
ENDBRANCH   6   7
ENDBRANCH   5   6
ENDBRANCH   4   5
ENDBRANCH   3   4
ENDBRANCH   2   3
ENDBRANCH   1   2
BRANCH   1  11
ATOM     11  C   UNL     1      43.884  27.577   2.112  1.00  0.00    -0.031 C 
ATOM     12  C   UNL     1      44.259  27.017   3.278  1.00  0.00    -0.027 C 
BRANCH  12  13
ATOM     13  C   UNL     1      45.549  26.270   3.489  1.00  0.00     0.054 C 
BRANCH  13  14
ATOM     14  C   UNL     1      46.008  26.406   4.914  1.00  0.00    -0.027 C 
ATOM     15  C   UNL     1      46.344  27.596   5.435  1.00  0.00    -0.031 C 
BRANCH  15  16
ATOM     16  C   UNL     1      46.846  27.728   6.848  1.00  0.00     0.027 C 
BRANCH  16  17
ATOM     17  C   UNL     1      45.902  27.044   7.845  1.00  0.00     0.004 C 
BRANCH  17  18
ATOM     18  C   UNL     1      45.665  27.904   9.098  1.00  0.00     0.000 C 
BRANCH  18  19
ATOM     19  C   UNL     1      45.262  29.346   8.755  1.00  0.00    -0.003 C 
ATOM     20  C   UNL     1      44.580  30.065   9.919  1.00  0.00     0.004 C 
ENDBRANCH  18  19
ENDBRANCH  17  18
ENDBRANCH  16  17
ENDBRANCH  15  16
ENDBRANCH  13  14
ENDBRANCH  12  13
ENDBRANCH   1  11
TORSDOF 14
ENDMDL
