MODEL 1
REMARK VINA RESULT:    -2.776      0.000      0.000
REMARK INTER + INTRA:          -3.380
REMARK INTER:                  -3.262
REMARK INTRA:                  -0.118
REMARK UNBOUND:                -0.118
REMARK SMILES O=C([O-])CCC(=O)[O-]
REMARK SMILES IDX 4 1 2 2 1 3 3 4 5 5 6 6 7 7 8 8
REMARK H PARENT
REMARK Flexibility Score: inf
ROOT
ATOM      1  C   UNL     1      -4.908   8.122  -1.369  1.00  0.00     0.059 C 
ENDROOT
BRANCH   1   2
ATOM      2  C   UNL     1      -3.979   8.873  -0.465  1.00  0.00     0.042 C 
ATOM      3  O   UNL     1      -4.339   9.965   0.050  1.00  0.00    -0.550 OA
ATOM      4  O   UNL     1      -2.731   8.346  -0.155  1.00  0.00    -0.550 OA
ENDBRANCH   1   2
BRANCH   1   5
ATOM      5  C   UNL     1      -4.875   8.675  -2.798  1.00  0.00     0.059 C 
BRANCH   5   6
ATOM      6  C   UNL     1      -3.972   7.867  -3.680  1.00  0.00     0.042 C 
ATOM      7  O   UNL     1      -4.455   7.024  -4.481  1.00  0.00    -0.550 OA
ATOM      8  O   UNL     1      -2.593   8.019  -3.589  1.00  0.00    -0.550 OA
ENDBRANCH   5   6
ENDBRANCH   1   5
TORSDOF 3
ENDMDL
MODEL 2
REMARK VINA RESULT:    -2.765      0.213      3.691
REMARK INTER + INTRA:          -3.368
REMARK INTER:                  -3.240
REMARK INTRA:                  -0.128
REMARK UNBOUND:                -0.118
REMARK SMILES O=C([O-])CCC(=O)[O-]
REMARK SMILES IDX 4 1 2 2 1 3 3 4 5 5 6 6 7 7 8 8
REMARK H PARENT
REMARK Flexibility Score: inf
ROOT
ATOM      1  C   UNL     1      -4.949   8.820  -2.691  1.00  0.00     0.059 C 
ENDROOT
BRANCH   1   2
ATOM      2  C   UNL     1      -4.047   8.077  -3.629  1.00  0.00     0.042 C 
ATOM      3  O   UNL     1      -4.513   7.179  -4.379  1.00  0.00    -0.550 OA
ATOM      4  O   UNL     1      -2.700   8.407  -3.706  1.00  0.00    -0.550 OA
ENDBRANCH   1   2
BRANCH   1   5
ATOM      5  C   UNL     1      -4.946   8.197  -1.291  1.00  0.00     0.059 C 
BRANCH   5   6
ATOM      6  C   UNL     1      -3.954   8.868  -0.392  1.00  0.00     0.042 C 
ATOM      7  O   UNL     1      -4.254   9.939   0.197  1.00  0.00    -0.550 OA
ATOM      8  O   UNL     1      -2.682   8.329  -0.234  1.00  0.00    -0.550 OA
ENDBRANCH   5   6
ENDBRANCH   1   5
TORSDOF 3
ENDMDL
MODEL 3
REMARK VINA RESULT:    -2.762      2.019      2.956
REMARK INTER + INTRA:          -3.364
REMARK INTER:                  -3.251
REMARK INTRA:                  -0.114
REMARK UNBOUND:                -0.118
REMARK SMILES O=C([O-])CCC(=O)[O-]
REMARK SMILES IDX 4 1 2 2 1 3 3 4 5 5 6 6 7 7 8 8
REMARK H PARENT
REMARK Flexibility Score: inf
ROOT
ATOM      1  C   UNL     1      -4.440   7.578  -4.106  1.00  0.00     0.059 C 
ENDROOT
BRANCH   1   2
ATOM      2  C   UNL     1      -4.602   8.239  -2.771  1.00  0.00     0.042 C 
ATOM      3  O   UNL     1      -3.870   7.903  -1.804  1.00  0.00    -0.550 OA
ATOM      4  O   UNL     1      -5.534   9.257  -2.607  1.00  0.00    -0.550 OA
ENDBRANCH   1   2
BRANCH   1   5
ATOM      5  C   UNL     1      -3.136   8.001  -4.791  1.00  0.00     0.059 C 
BRANCH   5   6
ATOM      6  C   UNL     1      -2.112   6.908  -4.748  1.00  0.00     0.042 C 
ATOM      7  O   UNL     1      -1.171   6.953  -3.913  1.00  0.00    -0.550 OA
ATOM      8  O   UNL     1      -2.176   5.859  -5.658  1.00  0.00    -0.550 OA
ENDBRANCH   5   6
ENDBRANCH   1   5
TORSDOF 3
ENDMDL
MODEL 4
REMARK VINA RESULT:    -2.742      1.223      3.988
REMARK INTER + INTRA:          -3.341
REMARK INTER:                  -3.218
REMARK INTRA:                  -0.124
REMARK UNBOUND:                -0.118
REMARK SMILES O=C([O-])CCC(=O)[O-]
REMARK SMILES IDX 4 1 2 2 1 3 3 4 5 5 6 6 7 7 8 8
REMARK H PARENT
REMARK Flexibility Score: inf
ROOT
ATOM      1  C   UNL     1      -4.951   8.335  -1.699  1.00  0.00     0.059 C 
ENDROOT
BRANCH   1   2
ATOM      2  C   UNL     1      -4.390   8.335  -3.089  1.00  0.00     0.042 C 
ATOM      3  O   UNL     1      -3.570   9.222  -3.441  1.00  0.00    -0.550 OA
ATOM      4  O   UNL     1      -4.741   7.329  -3.981  1.00  0.00    -0.550 OA
ENDBRANCH   1   2
BRANCH   1   5
ATOM      5  C   UNL     1      -3.858   8.556  -0.649  1.00  0.00     0.059 C 
BRANCH   5   6
ATOM      6  C   UNL     1      -4.038   9.859   0.068  1.00  0.00     0.042 C 
ATOM      7  O   UNL     1      -3.923   9.917   1.320  1.00  0.00    -0.550 OA
ATOM      8  O   UNL     1      -4.372  11.004  -0.646  1.00  0.00    -0.550 OA
ENDBRANCH   5   6
ENDBRANCH   1   5
TORSDOF 3
ENDMDL
MODEL 5
REMARK VINA RESULT:    -2.733      0.175      1.155
REMARK INTER + INTRA:          -3.330
REMARK INTER:                  -3.212
REMARK INTRA:                  -0.118
REMARK UNBOUND:                -0.118
REMARK SMILES O=C([O-])CCC(=O)[O-]
REMARK SMILES IDX 4 1 2 2 1 3 3 4 5 5 6 6 7 7 8 8
REMARK H PARENT
REMARK Flexibility Score: inf
ROOT
ATOM      1  C   UNL     1      -4.868   8.153  -1.282  1.00  0.00     0.059 C 
ENDROOT
BRANCH   1   2
ATOM      2  C   UNL     1      -3.888   8.835  -0.377  1.00  0.00     0.042 C 
ATOM      3  O   UNL     1      -2.740   8.346  -0.202  1.00  0.00    -0.550 OA
ATOM      4  O   UNL     1      -4.226  10.033   0.239  1.00  0.00    -0.550 OA
ENDBRANCH   1   2
BRANCH   1   5
ATOM      5  C   UNL     1      -4.894   8.794  -2.673  1.00  0.00     0.059 C 
BRANCH   5   6
ATOM      6  C   UNL     1      -4.028   8.047  -3.641  1.00  0.00     0.042 C 
ATOM      7  O   UNL     1      -4.541   7.243  -4.462  1.00  0.00    -0.550 OA
ATOM      8  O   UNL     1      -2.648   8.210  -3.608  1.00  0.00    -0.550 OA
ENDBRANCH   5   6
ENDBRANCH   1   5
TORSDOF 3
ENDMDL
MODEL 6
REMARK VINA RESULT:    -2.721      1.957      2.384
REMARK INTER + INTRA:          -3.316
REMARK INTER:                  -3.262
REMARK INTRA:                  -0.054
REMARK UNBOUND:                -0.118
REMARK SMILES O=C([O-])CCC(=O)[O-]
REMARK SMILES IDX 4 1 2 2 1 3 3 4 5 5 6 6 7 7 8 8
REMARK H PARENT
REMARK Flexibility Score: inf
ROOT
ATOM      1  C   UNL     1      -4.613   7.747  -3.912  1.00  0.00     0.059 C 
ENDROOT
BRANCH   1   2
ATOM      2  C   UNL     1      -4.873   8.468  -2.625  1.00  0.00     0.042 C 
ATOM      3  O   UNL     1      -5.076   9.711  -2.624  1.00  0.00    -0.550 OA
ATOM      4  O   UNL     1      -4.934   7.761  -1.431  1.00  0.00    -0.550 OA
ENDBRANCH   1   2
BRANCH   1   5
ATOM      5  C   UNL     1      -3.303   8.205  -4.562  1.00  0.00     0.059 C 
BRANCH   5   6
ATOM      6  C   UNL     1      -2.280   7.111  -4.571  1.00  0.00     0.042 C 
ATOM      7  O   UNL     1      -2.374   6.160  -5.391  1.00  0.00    -0.550 OA
ATOM      8  O   UNL     1      -1.243   7.121  -3.645  1.00  0.00    -0.550 OA
ENDBRANCH   5   6
ENDBRANCH   1   5
TORSDOF 3
ENDMDL
MODEL 7
REMARK VINA RESULT:    -2.706      1.993      3.989
REMARK INTER + INTRA:          -3.299
REMARK INTER:                  -3.176
REMARK INTRA:                  -0.123
REMARK UNBOUND:                -0.118
REMARK SMILES O=C([O-])CCC(=O)[O-]
REMARK SMILES IDX 4 1 2 2 1 3 3 4 5 5 6 6 7 7 8 8
REMARK H PARENT
REMARK Flexibility Score: inf
ROOT
ATOM      1  C   UNL     1      -3.142   8.053  -4.794  1.00  0.00     0.059 C 
ENDROOT
BRANCH   1   2
ATOM      2  C   UNL     1      -2.084   6.997  -4.690  1.00  0.00     0.042 C 
ATOM      3  O   UNL     1      -1.264   7.012  -3.734  1.00  0.00    -0.550 OA
ATOM      4  O   UNL     1      -2.031   5.971  -5.625  1.00  0.00    -0.550 OA
ENDBRANCH   1   2
BRANCH   1   5
ATOM      5  C   UNL     1      -4.443   7.620  -4.110  1.00  0.00     0.059 C 
BRANCH   5   6
ATOM      6  C   UNL     1      -4.603   8.267  -2.769  1.00  0.00     0.042 C 
ATOM      7  O   UNL     1      -5.375   9.251  -2.626  1.00  0.00    -0.550 OA
ATOM      8  O   UNL     1      -3.867   7.807  -1.683  1.00  0.00    -0.550 OA
ENDBRANCH   5   6
ENDBRANCH   1   5
TORSDOF 3
ENDMDL
MODEL 8
REMARK VINA RESULT:    -2.589      1.416      3.848
REMARK INTER + INTRA:          -3.162
REMARK INTER:                  -3.042
REMARK INTRA:                  -0.120
REMARK UNBOUND:                -0.118
REMARK SMILES O=C([O-])CCC(=O)[O-]
REMARK SMILES IDX 4 1 2 2 1 3 3 4 5 5 6 6 7 7 8 8
REMARK H PARENT
REMARK Flexibility Score: inf
ROOT
ATOM      1  C   UNL     1      -2.974   8.751  -3.185  1.00  0.00     0.059 C 
ENDROOT
BRANCH   1   2
ATOM      2  C   UNL     1      -3.262   7.747  -4.260  1.00  0.00     0.042 C 
ATOM      3  O   UNL     1      -4.447   7.395  -4.498  1.00  0.00    -0.550 OA
ATOM      4  O   UNL     1      -2.224   7.232  -5.028  1.00  0.00    -0.550 OA
ENDBRANCH   1   2
BRANCH   1   5
ATOM      5  C   UNL     1      -2.988   8.109  -1.794  1.00  0.00     0.059 C 
BRANCH   5   6
ATOM      6  C   UNL     1      -4.173   8.555  -0.993  1.00  0.00     0.042 C 
ATOM      7  O   UNL     1      -5.340   8.335  -1.410  1.00  0.00    -0.550 OA
ATOM      8  O   UNL     1      -3.986   9.250   0.196  1.00  0.00    -0.550 OA
ENDBRANCH   5   6
ENDBRANCH   1   5
TORSDOF 3
ENDMDL
MODEL 9
REMARK VINA RESULT:    -2.425      2.936      5.220
REMARK INTER + INTRA:          -2.969
REMARK INTER:                  -2.888
REMARK INTRA:                  -0.081
REMARK UNBOUND:                -0.118
REMARK SMILES O=C([O-])CCC(=O)[O-]
REMARK SMILES IDX 4 1 2 2 1 3 3 4 5 5 6 6 7 7 8 8
REMARK H PARENT
REMARK Flexibility Score: inf
ROOT
ATOM      1  C   UNL     1      -1.353   6.309  -4.753  1.00  0.00     0.059 C 
ENDROOT
BRANCH   1   2
ATOM      2  C   UNL     1      -1.568   5.389  -5.915  1.00  0.00     0.042 C 
ATOM      3  O   UNL     1      -1.255   5.753  -7.079  1.00  0.00    -0.550 OA
ATOM      4  O   UNL     1      -2.076   4.112  -5.707  1.00  0.00    -0.550 OA
ENDBRANCH   1   2
BRANCH   1   5
ATOM      5  C   UNL     1      -2.037   7.663  -4.970  1.00  0.00     0.059 C 
BRANCH   5   6
ATOM      6  C   UNL     1      -3.300   7.776  -4.173  1.00  0.00     0.042 C 
ATOM      7  O   UNL     1      -4.389   7.354  -4.644  1.00  0.00    -0.550 OA
ATOM      8  O   UNL     1      -3.281   8.385  -2.923  1.00  0.00    -0.550 OA
ENDBRANCH   5   6
ENDBRANCH   1   5
TORSDOF 3
ENDMDL
