MODEL 1
REMARK VINA RESULT:    -3.593      0.000      0.000
REMARK INTER + INTRA:         -10.772
REMARK INTER:                  -7.794
REMARK INTRA:                  -2.978
REMARK UNBOUND:                -2.978
REMARK SMILES CCCCCCCCCCCCCCCCCCCCCC(=O)[O-]
REMARK SMILES IDX 12 1 11 2 10 3 9 4 8 5 7 6 6 7 5 8 4 9 3 10 2 11 1 12 13 13
REMARK SMILES IDX 14 14 15 15 16 16 17 17 18 18 19 19 20 20 21 21 22 22 23 23
REMARK SMILES IDX 24 24
REMARK H PARENT
REMARK Flexibility Score: inf
ROOT
ATOM      1  C   UNL     1    -103.222  31.746 -37.007  1.00  0.00     0.000 C 
ENDROOT
BRANCH   1   2
ATOM      2  C   UNL     1    -103.425  30.375 -36.339  1.00  0.00     0.000 C 
BRANCH   2   3
ATOM      3  C   UNL     1    -103.413  30.456 -34.804  1.00  0.00     0.000 C 
BRANCH   3   4
ATOM      4  C   UNL     1    -102.951  31.830 -34.289  1.00  0.00    -0.000 C 
BRANCH   4   5
ATOM      5  C   UNL     1    -101.685  31.740 -33.422  1.00  0.00    -0.000 C 
BRANCH   5   6
ATOM      6  C   UNL     1    -100.883  30.453 -33.680  1.00  0.00    -0.000 C 
BRANCH   6   7
ATOM      7  C   UNL     1     -99.524  30.726 -34.343  1.00  0.00    -0.000 C 
BRANCH   7   8
ATOM      8  C   UNL     1     -99.585  30.638 -35.877  1.00  0.00    -0.000 C 
BRANCH   8   9
ATOM      9  C   UNL     1     -99.711  32.017 -36.548  1.00  0.00    -0.000 C 
BRANCH   9  10
ATOM     10  C   UNL     1     -99.197  32.047 -38.004  1.00  0.00    -0.000 C 
BRANCH  10  11
ATOM     11  C   UNL     1     -98.141  33.140 -38.223  1.00  0.00    -0.003 C 
ATOM     12  C   UNL     1     -97.233  32.802 -39.401  1.00  0.00     0.004 C 
ENDBRANCH  10  11
ENDBRANCH   9  10
ENDBRANCH   8   9
ENDBRANCH   7   8
ENDBRANCH   6   7
ENDBRANCH   5   6
ENDBRANCH   4   5
ENDBRANCH   3   4
ENDBRANCH   2   3
ENDBRANCH   1   2
BRANCH   1  13
ATOM     13  C   UNL     1    -104.273  32.040 -38.091  1.00  0.00     0.000 C 
BRANCH  13  14
ATOM     14  C   UNL     1    -105.359  30.957 -38.256  1.00  0.00     0.000 C 
BRANCH  14  15
ATOM     15  C   UNL     1    -106.802  31.435 -38.013  1.00  0.00     0.000 C 
BRANCH  15  16
ATOM     16  C   UNL     1    -106.869  32.821 -37.357  1.00  0.00     0.000 C 
BRANCH  16  17
ATOM     17  C   UNL     1    -107.514  32.739 -35.965  1.00  0.00     0.000 C 
BRANCH  17  18
ATOM     18  C   UNL     1    -106.474  32.796 -34.833  1.00  0.00     0.000 C 
BRANCH  18  19
ATOM     19  C   UNL     1    -107.075  32.419 -33.467  1.00  0.00     0.000 C 
BRANCH  19  20
ATOM     20  C   UNL     1    -106.232  31.374 -32.718  1.00  0.00     0.006 C 
BRANCH  20  21
ATOM     21  C   UNL     1    -106.009  31.736 -31.244  1.00  0.00     0.053 C 
BRANCH  21  22
ATOM     22  C   UNL     1    -105.470  33.127 -31.125  1.00  0.00     0.041 C 
ATOM     23  O   UNL     1    -104.313  33.397 -31.542  1.00  0.00    -0.550 OA
ATOM     24  O   UNL     1    -106.231  34.117 -30.516  1.00  0.00    -0.550 OA
ENDBRANCH  21  22
ENDBRANCH  20  21
ENDBRANCH  19  20
ENDBRANCH  18  19
ENDBRANCH  17  18
ENDBRANCH  16  17
ENDBRANCH  15  16
ENDBRANCH  14  15
ENDBRANCH  13  14
ENDBRANCH   1  13
TORSDOF 20
ENDMDL
MODEL 2
REMARK VINA RESULT:    -3.560      1.549      6.080
REMARK INTER + INTRA:         -10.699
REMARK INTER:                  -7.464
REMARK INTRA:                  -3.235
REMARK UNBOUND:                -2.978
REMARK SMILES CCCCCCCCCCCCCCCCCCCCCC(=O)[O-]
REMARK SMILES IDX 12 1 11 2 10 3 9 4 8 5 7 6 6 7 5 8 4 9 3 10 2 11 1 12 13 13
REMARK SMILES IDX 14 14 15 15 16 16 17 17 18 18 19 19 20 20 21 21 22 22 23 23
REMARK SMILES IDX 24 24
REMARK H PARENT
REMARK Flexibility Score: inf
ROOT
ATOM      1  C   UNL     1     -99.887  30.320 -38.435  1.00  0.00     0.000 C 
ENDROOT
BRANCH   1   2
ATOM      2  C   UNL     1    -101.246  30.258 -39.154  1.00  0.00     0.000 C 
BRANCH   2   3
ATOM      3  C   UNL     1    -102.422  30.072 -38.182  1.00  0.00     0.000 C 
BRANCH   3   4
ATOM      4  C   UNL     1    -103.204  31.376 -37.944  1.00  0.00    -0.000 C 
BRANCH   4   5
ATOM      5  C   UNL     1    -103.465  31.643 -36.453  1.00  0.00    -0.000 C 
BRANCH   5   6
ATOM      6  C   UNL     1    -104.380  32.858 -36.222  1.00  0.00    -0.000 C 
BRANCH   6   7
ATOM      7  C   UNL     1    -105.156  33.262 -37.485  1.00  0.00    -0.000 C 
BRANCH   7   8
ATOM      8  C   UNL     1    -106.640  32.863 -37.421  1.00  0.00    -0.000 C 
BRANCH   8   9
ATOM      9  C   UNL     1    -106.937  31.549 -38.164  1.00  0.00    -0.000 C 
BRANCH   9  10
ATOM     10  C   UNL     1    -106.877  30.298 -37.261  1.00  0.00    -0.000 C 
BRANCH  10  11
ATOM     11  C   UNL     1    -107.521  30.545 -35.888  1.00  0.00    -0.003 C 
ATOM     12  C   UNL     1    -106.543  30.238 -34.757  1.00  0.00     0.004 C 
ENDBRANCH  10  11
ENDBRANCH   9  10
ENDBRANCH   8   9
ENDBRANCH   7   8
ENDBRANCH   6   7
ENDBRANCH   5   6
ENDBRANCH   4   5
ENDBRANCH   3   4
ENDBRANCH   2   3
ENDBRANCH   1   2
BRANCH   1  13
ATOM     13  C   UNL     1     -99.242  31.714 -38.502  1.00  0.00     0.000 C 
BRANCH  13  14
ATOM     14  C   UNL     1     -99.207  32.481 -37.164  1.00  0.00     0.000 C 
BRANCH  14  15
ATOM     15  C   UNL     1     -99.897  31.772 -35.985  1.00  0.00     0.000 C 
BRANCH  15  16
ATOM     16  C   UNL     1     -98.906  31.051 -35.060  1.00  0.00     0.000 C 
BRANCH  16  17
ATOM     17  C   UNL     1     -99.644  30.314 -33.931  1.00  0.00     0.000 C 
BRANCH  17  18
ATOM     18  C   UNL     1    -100.964  31.003 -33.548  1.00  0.00     0.000 C 
BRANCH  18  19
ATOM     19  C   UNL     1    -101.952  30.038 -32.869  1.00  0.00     0.000 C 
BRANCH  19  20
ATOM     20  C   UNL     1    -103.379  30.604 -32.799  1.00  0.00     0.006 C 
BRANCH  20  21
ATOM     21  C   UNL     1    -103.407  32.130 -32.639  1.00  0.00     0.053 C 
BRANCH  21  22
ATOM     22  C   UNL     1    -104.765  32.585 -32.207  1.00  0.00     0.041 C 
ATOM     23  O   UNL     1    -105.125  33.776 -32.401  1.00  0.00    -0.550 OA
ATOM     24  O   UNL     1    -105.618  31.706 -31.554  1.00  0.00    -0.550 OA
ENDBRANCH  21  22
ENDBRANCH  20  21
ENDBRANCH  19  20
ENDBRANCH  18  19
ENDBRANCH  17  18
ENDBRANCH  16  17
ENDBRANCH  15  16
ENDBRANCH  14  15
ENDBRANCH  13  14
ENDBRANCH   1  13
TORSDOF 20
ENDMDL
MODEL 3
REMARK VINA RESULT:    -3.448      2.662      4.583
REMARK INTER + INTRA:         -10.457
REMARK INTER:                  -7.276
REMARK INTRA:                  -3.181
REMARK UNBOUND:                -2.978
REMARK SMILES CCCCCCCCCCCCCCCCCCCCCC(=O)[O-]
REMARK SMILES IDX 12 1 11 2 10 3 9 4 8 5 7 6 6 7 5 8 4 9 3 10 2 11 1 12 13 13
REMARK SMILES IDX 14 14 15 15 16 16 17 17 18 18 19 19 20 20 21 21 22 22 23 23
REMARK SMILES IDX 24 24
REMARK H PARENT
REMARK Flexibility Score: inf
ROOT
ATOM      1  C   UNL     1    -102.176  31.127 -34.458  1.00  0.00     0.000 C 
ENDROOT
BRANCH   1   2
ATOM      2  C   UNL     1    -102.245  32.508 -35.134  1.00  0.00     0.000 C 
BRANCH   2   3
ATOM      3  C   UNL     1    -103.516  32.692 -35.978  1.00  0.00     0.000 C 
BRANCH   3   4
ATOM      4  C   UNL     1    -103.889  31.426 -36.768  1.00  0.00    -0.000 C 
BRANCH   4   5
ATOM      5  C   UNL     1    -103.321  31.433 -38.196  1.00  0.00    -0.000 C 
BRANCH   5   6
ATOM      6  C   UNL     1    -102.420  30.219 -38.479  1.00  0.00    -0.000 C 
BRANCH   6   7
ATOM      7  C   UNL     1    -100.950  30.611 -38.695  1.00  0.00    -0.000 C 
BRANCH   7   8
ATOM      8  C   UNL     1    -100.023  30.059 -37.598  1.00  0.00    -0.000 C 
BRANCH   8   9
ATOM      9  C   UNL     1     -99.233  31.164 -36.874  1.00  0.00    -0.000 C 
BRANCH   9  10
ATOM     10  C   UNL     1     -99.456  32.573 -37.463  1.00  0.00    -0.000 C 
BRANCH  10  11
ATOM     11  C   UNL     1     -98.136  33.254 -37.853  1.00  0.00    -0.003 C 
ATOM     12  C   UNL     1     -97.628  32.743 -39.199  1.00  0.00     0.004 C 
ENDBRANCH  10  11
ENDBRANCH   9  10
ENDBRANCH   8   9
ENDBRANCH   7   8
ENDBRANCH   6   7
ENDBRANCH   5   6
ENDBRANCH   4   5
ENDBRANCH   3   4
ENDBRANCH   2   3
ENDBRANCH   1   2
BRANCH   1  13
ATOM     13  C   UNL     1    -102.454  31.190 -32.947  1.00  0.00     0.000 C 
BRANCH  13  14
ATOM     14  C   UNL     1    -103.743  30.476 -32.490  1.00  0.00     0.000 C 
BRANCH  14  15
ATOM     15  C   UNL     1    -104.805  31.388 -31.851  1.00  0.00     0.000 C 
BRANCH  15  16
ATOM     16  C   UNL     1    -104.700  32.846 -32.319  1.00  0.00     0.000 C 
BRANCH  16  17
ATOM     17  C   UNL     1    -105.952  33.262 -33.106  1.00  0.00     0.000 C 
BRANCH  17  18
ATOM     18  C   UNL     1    -106.431  32.163 -34.069  1.00  0.00     0.000 C 
BRANCH  18  19
ATOM     19  C   UNL     1    -107.204  32.734 -35.271  1.00  0.00     0.000 C 
BRANCH  19  20
ATOM     20  C   UNL     1    -107.560  31.660 -36.311  1.00  0.00     0.006 C 
BRANCH  20  21
ATOM     21  C   UNL     1    -108.134  32.251 -37.605  1.00  0.00     0.053 C 
BRANCH  21  22
ATOM     22  C   UNL     1    -109.460  32.894 -37.342  1.00  0.00     0.041 C 
ATOM     23  O   UNL     1    -110.457  32.187 -37.041  1.00  0.00    -0.550 OA
ATOM     24  O   UNL     1    -109.603  34.269 -37.469  1.00  0.00    -0.550 OA
ENDBRANCH  21  22
ENDBRANCH  20  21
ENDBRANCH  19  20
ENDBRANCH  18  19
ENDBRANCH  17  18
ENDBRANCH  16  17
ENDBRANCH  15  16
ENDBRANCH  14  15
ENDBRANCH  13  14
ENDBRANCH   1  13
TORSDOF 20
ENDMDL
MODEL 4
REMARK VINA RESULT:    -3.431      3.042      4.434
REMARK INTER + INTRA:         -10.419
REMARK INTER:                  -7.767
REMARK INTRA:                  -2.653
REMARK UNBOUND:                -2.978
REMARK SMILES CCCCCCCCCCCCCCCCCCCCCC(=O)[O-]
REMARK SMILES IDX 12 1 11 2 10 3 9 4 8 5 7 6 6 7 5 8 4 9 3 10 2 11 1 12 13 13
REMARK SMILES IDX 14 14 15 15 16 16 17 17 18 18 19 19 20 20 21 21 22 22 23 23
REMARK SMILES IDX 24 24
REMARK H PARENT
REMARK Flexibility Score: inf
ROOT
ATOM      1  C   UNL     1    -105.635  31.944 -34.488  1.00  0.00     0.000 C 
ENDROOT
BRANCH   1   2
ATOM      2  C   UNL     1    -105.734  31.613 -32.988  1.00  0.00     0.000 C 
BRANCH   2   3
ATOM      3  C   UNL     1    -104.882  30.397 -32.592  1.00  0.00     0.000 C 
BRANCH   3   4
ATOM      4  C   UNL     1    -103.422  30.774 -32.282  1.00  0.00    -0.000 C 
BRANCH   4   5
ATOM      5  C   UNL     1    -102.435  30.205 -33.313  1.00  0.00    -0.000 C 
BRANCH   5   6
ATOM      6  C   UNL     1    -101.279  31.173 -33.621  1.00  0.00    -0.000 C 
BRANCH   6   7
ATOM      7  C   UNL     1     -99.939  30.448 -33.823  1.00  0.00    -0.000 C 
BRANCH   7   8
ATOM      8  C   UNL     1     -99.161  30.973 -35.042  1.00  0.00    -0.000 C 
BRANCH   8   9
ATOM      9  C   UNL     1    -100.078  31.333 -36.224  1.00  0.00    -0.000 C 
BRANCH   9  10
ATOM     10  C   UNL     1     -99.557  32.512 -37.075  1.00  0.00    -0.000 C 
BRANCH  10  11
ATOM     11  C   UNL     1     -98.858  32.037 -38.357  1.00  0.00    -0.003 C 
ATOM     12  C   UNL     1     -98.056  33.165 -38.999  1.00  0.00     0.004 C 
ENDBRANCH  10  11
ENDBRANCH   9  10
ENDBRANCH   8   9
ENDBRANCH   7   8
ENDBRANCH   6   7
ENDBRANCH   5   6
ENDBRANCH   4   5
ENDBRANCH   3   4
ENDBRANCH   2   3
ENDBRANCH   1   2
BRANCH   1  13
ATOM     13  C   UNL     1    -104.666  33.103 -34.778  1.00  0.00     0.000 C 
BRANCH  13  14
ATOM     14  C   UNL     1    -103.705  32.868 -35.961  1.00  0.00     0.000 C 
BRANCH  14  15
ATOM     15  C   UNL     1    -103.564  31.402 -36.409  1.00  0.00     0.000 C 
BRANCH  15  16
ATOM     16  C   UNL     1    -104.008  31.176 -37.861  1.00  0.00     0.000 C 
BRANCH  16  17
ATOM     17  C   UNL     1    -104.838  32.363 -38.373  1.00  0.00     0.000 C 
BRANCH  17  18
ATOM     18  C   UNL     1    -106.347  32.071 -38.361  1.00  0.00     0.000 C 
BRANCH  18  19
ATOM     19  C   UNL     1    -107.158  33.207 -37.713  1.00  0.00     0.000 C 
BRANCH  19  20
ATOM     20  C   UNL     1    -108.363  32.691 -36.910  1.00  0.00     0.006 C 
BRANCH  20  21
ATOM     21  C   UNL     1    -109.521  33.696 -36.865  1.00  0.00     0.053 C 
BRANCH  21  22
ATOM     22  C   UNL     1    -110.341  33.603 -38.114  1.00  0.00     0.041 C 
ATOM     23  O   UNL     1    -110.635  34.645 -38.757  1.00  0.00    -0.550 OA
ATOM     24  O   UNL     1    -110.813  32.371 -38.546  1.00  0.00    -0.550 OA
ENDBRANCH  21  22
ENDBRANCH  20  21
ENDBRANCH  19  20
ENDBRANCH  18  19
ENDBRANCH  17  18
ENDBRANCH  16  17
ENDBRANCH  15  16
ENDBRANCH  14  15
ENDBRANCH  13  14
ENDBRANCH   1  13
TORSDOF 20
ENDMDL
MODEL 5
REMARK VINA RESULT:    -3.424      2.514      5.439
REMARK INTER + INTRA:         -10.406
REMARK INTER:                  -7.120
REMARK INTRA:                  -3.286
REMARK UNBOUND:                -2.978
REMARK SMILES CCCCCCCCCCCCCCCCCCCCCC(=O)[O-]
REMARK SMILES IDX 12 1 11 2 10 3 9 4 8 5 7 6 6 7 5 8 4 9 3 10 2 11 1 12 13 13
REMARK SMILES IDX 14 14 15 15 16 16 17 17 18 18 19 19 20 20 21 21 22 22 23 23
REMARK SMILES IDX 24 24
REMARK H PARENT
REMARK Flexibility Score: inf
ROOT
ATOM      1  C   UNL     1     -99.461  31.746 -38.402  1.00  0.00     0.000 C 
ENDROOT
BRANCH   1   2
ATOM      2  C   UNL     1     -99.049  32.275 -37.017  1.00  0.00     0.000 C 
BRANCH   2   3
ATOM      3  C   UNL     1     -99.940  31.735 -35.887  1.00  0.00     0.000 C 
BRANCH   3   4
ATOM      4  C   UNL     1     -99.139  30.981 -34.811  1.00  0.00    -0.000 C 
BRANCH   4   5
ATOM      5  C   UNL     1    -100.040  30.171 -33.865  1.00  0.00    -0.000 C 
BRANCH   5   6
ATOM      6  C   UNL     1    -101.537  30.386 -34.147  1.00  0.00    -0.000 C 
BRANCH   6   7
ATOM      7  C   UNL     1    -102.324  30.787 -32.889  1.00  0.00    -0.000 C 
BRANCH   7   8
ATOM      8  C   UNL     1    -103.093  32.107 -33.067  1.00  0.00    -0.000 C 
BRANCH   8   9
ATOM      9  C   UNL     1    -103.614  32.303 -34.502  1.00  0.00    -0.000 C 
BRANCH   9  10
ATOM     10  C   UNL     1    -105.124  32.614 -34.576  1.00  0.00    -0.000 C 
BRANCH  10  11
ATOM     11  C   UNL     1    -105.981  31.341 -34.507  1.00  0.00    -0.003 C 
ATOM     12  C   UNL     1    -105.277  30.165 -35.177  1.00  0.00     0.004 C 
ENDBRANCH  10  11
ENDBRANCH   9  10
ENDBRANCH   8   9
ENDBRANCH   7   8
ENDBRANCH   6   7
ENDBRANCH   5   6
ENDBRANCH   4   5
ENDBRANCH   3   4
ENDBRANCH   2   3
ENDBRANCH   1   2
BRANCH   1  13
ATOM     13  C   UNL     1     -99.960  30.292 -38.358  1.00  0.00     0.000 C 
BRANCH  13  14
ATOM     14  C   UNL     1    -101.297  30.039 -39.085  1.00  0.00     0.000 C 
BRANCH  14  15
ATOM     15  C   UNL     1    -102.534  29.968 -38.172  1.00  0.00     0.000 C 
BRANCH  15  16
ATOM     16  C   UNL     1    -103.139  31.348 -37.877  1.00  0.00     0.000 C 
BRANCH  16  17
ATOM     17  C   UNL     1    -104.173  31.734 -38.946  1.00  0.00     0.000 C 
BRANCH  17  18
ATOM     18  C   UNL     1    -105.488  32.243 -38.333  1.00  0.00     0.000 C 
BRANCH  18  19
ATOM     19  C   UNL     1    -106.626  31.214 -38.453  1.00  0.00     0.000 C 
BRANCH  19  20
ATOM     20  C   UNL     1    -107.884  31.629 -37.675  1.00  0.00     0.006 C 
BRANCH  20  21
ATOM     21  C   UNL     1    -107.920  33.130 -37.360  1.00  0.00     0.053 C 
BRANCH  21  22
ATOM     22  C   UNL     1    -109.291  33.539 -36.919  1.00  0.00     0.041 C 
ATOM     23  O   UNL     1    -109.907  34.451 -37.531  1.00  0.00    -0.550 OA
ATOM     24  O   UNL     1    -109.871  32.940 -35.809  1.00  0.00    -0.550 OA
ENDBRANCH  21  22
ENDBRANCH  20  21
ENDBRANCH  19  20
ENDBRANCH  18  19
ENDBRANCH  17  18
ENDBRANCH  16  17
ENDBRANCH  15  16
ENDBRANCH  14  15
ENDBRANCH  13  14
ENDBRANCH   1  13
TORSDOF 20
ENDMDL
MODEL 6
REMARK VINA RESULT:    -3.422      1.290      5.656
REMARK INTER + INTRA:         -10.400
REMARK INTER:                  -7.436
REMARK INTRA:                  -2.963
REMARK UNBOUND:                -2.978
REMARK SMILES CCCCCCCCCCCCCCCCCCCCCC(=O)[O-]
REMARK SMILES IDX 12 1 11 2 10 3 9 4 8 5 7 6 6 7 5 8 4 9 3 10 2 11 1 12 13 13
REMARK SMILES IDX 14 14 15 15 16 16 17 17 18 18 19 19 20 20 21 21 22 22 23 23
REMARK SMILES IDX 24 24
REMARK H PARENT
REMARK Flexibility Score: inf
ROOT
ATOM      1  C   UNL     1    -100.039  32.059 -36.254  1.00  0.00     0.000 C 
ENDROOT
BRANCH   1   2
ATOM      2  C   UNL     1     -99.060  32.528 -37.344  1.00  0.00     0.000 C 
BRANCH   2   3
ATOM      3  C   UNL     1     -99.164  31.696 -38.632  1.00  0.00     0.000 C 
BRANCH   3   4
ATOM      4  C   UNL     1     -99.912  30.368 -38.419  1.00  0.00    -0.000 C 
BRANCH   4   5
ATOM      5  C   UNL     1    -101.205  30.281 -39.245  1.00  0.00    -0.000 C 
BRANCH   5   6
ATOM      6  C   UNL     1    -102.449  30.045 -38.371  1.00  0.00    -0.000 C 
BRANCH   6   7
ATOM      7  C   UNL     1    -103.108  31.357 -37.916  1.00  0.00    -0.000 C 
BRANCH   7   8
ATOM      8  C   UNL     1    -104.261  31.790 -38.837  1.00  0.00    -0.000 C 
BRANCH   8   9
ATOM      9  C   UNL     1    -105.240  32.760 -38.151  1.00  0.00    -0.000 C 
BRANCH   9  10
ATOM     10  C   UNL     1    -106.667  32.194 -37.996  1.00  0.00    -0.000 C 
BRANCH  10  11
ATOM     11  C   UNL     1    -107.506  33.003 -36.996  1.00  0.00    -0.003 C 
ATOM     12  C   UNL     1    -107.776  32.202 -35.726  1.00  0.00     0.004 C 
ENDBRANCH  10  11
ENDBRANCH   9  10
ENDBRANCH   8   9
ENDBRANCH   7   8
ENDBRANCH   6   7
ENDBRANCH   5   6
ENDBRANCH   4   5
ENDBRANCH   3   4
ENDBRANCH   2   3
ENDBRANCH   1   2
BRANCH   1  13
ATOM     13  C   UNL     1     -99.330  31.366 -35.078  1.00  0.00     0.000 C 
BRANCH  13  14
ATOM     14  C   UNL     1     -99.937  30.011 -34.658  1.00  0.00     0.000 C 
BRANCH  14  15
ATOM     15  C   UNL     1    -100.680  30.016 -33.310  1.00  0.00     0.000 C 
BRANCH  15  16
ATOM     16  C   UNL     1    -101.985  30.824 -33.351  1.00  0.00     0.000 C 
BRANCH  16  17
ATOM     17  C   UNL     1    -102.958  30.243 -34.388  1.00  0.00     0.000 C 
BRANCH  17  18
ATOM     18  C   UNL     1    -104.306  30.983 -34.405  1.00  0.00     0.000 C 
BRANCH  18  19
ATOM     19  C   UNL     1    -104.137  32.500 -34.598  1.00  0.00     0.000 C 
BRANCH  19  20
ATOM     20  C   UNL     1    -104.974  33.320 -33.602  1.00  0.00     0.006 C 
BRANCH  20  21
ATOM     21  C   UNL     1    -105.705  32.443 -32.577  1.00  0.00     0.053 C 
BRANCH  21  22
ATOM     22  C   UNL     1    -105.441  32.933 -31.188  1.00  0.00     0.041 C 
ATOM     23  O   UNL     1    -105.935  32.331 -30.199  1.00  0.00    -0.550 OA
ATOM     24  O   UNL     1    -104.682  34.078 -30.988  1.00  0.00    -0.550 OA
ENDBRANCH  21  22
ENDBRANCH  20  21
ENDBRANCH  19  20
ENDBRANCH  18  19
ENDBRANCH  17  18
ENDBRANCH  16  17
ENDBRANCH  15  16
ENDBRANCH  14  15
ENDBRANCH  13  14
ENDBRANCH   1  13
TORSDOF 20
ENDMDL
MODEL 7
REMARK VINA RESULT:    -3.361      3.064      7.395
REMARK INTER + INTRA:         -10.269
REMARK INTER:                  -7.204
REMARK INTRA:                  -3.064
REMARK UNBOUND:                -2.978
REMARK SMILES CCCCCCCCCCCCCCCCCCCCCC(=O)[O-]
REMARK SMILES IDX 12 1 11 2 10 3 9 4 8 5 7 6 6 7 5 8 4 9 3 10 2 11 1 12 13 13
REMARK SMILES IDX 14 14 15 15 16 16 17 17 18 18 19 19 20 20 21 21 22 22 23 23
REMARK SMILES IDX 24 24
REMARK H PARENT
REMARK Flexibility Score: inf
ROOT
ATOM      1  C   UNL     1    -105.522  33.053 -38.109  1.00  0.00     0.000 C 
ENDROOT
BRANCH   1   2
ATOM      2  C   UNL     1    -106.860  32.882 -37.368  1.00  0.00     0.000 C 
BRANCH   2   3
ATOM      3  C   UNL     1    -107.092  31.440 -36.890  1.00  0.00     0.000 C 
BRANCH   3   4
ATOM      4  C   UNL     1    -106.431  31.155 -35.530  1.00  0.00    -0.000 C 
BRANCH   4   5
ATOM      5  C   UNL     1    -106.573  32.329 -34.548  1.00  0.00    -0.000 C 
BRANCH   5   6
ATOM      6  C   UNL     1    -105.216  32.822 -34.017  1.00  0.00    -0.000 C 
BRANCH   6   7
ATOM      7  C   UNL     1    -105.361  33.814 -32.853  1.00  0.00    -0.000 C 
BRANCH   7   8
ATOM      8  C   UNL     1    -106.295  33.296 -31.746  1.00  0.00    -0.000 C 
BRANCH   8   9
ATOM      9  C   UNL     1    -107.482  34.238 -31.477  1.00  0.00    -0.000 C 
BRANCH   9  10
ATOM     10  C   UNL     1    -107.414  35.562 -32.270  1.00  0.00    -0.000 C 
BRANCH  10  11
ATOM     11  C   UNL     1    -108.753  35.907 -32.936  1.00  0.00    -0.003 C 
ATOM     12  C   UNL     1    -109.212  34.788 -33.865  1.00  0.00     0.004 C 
ENDBRANCH  10  11
ENDBRANCH   9  10
ENDBRANCH   8   9
ENDBRANCH   7   8
ENDBRANCH   6   7
ENDBRANCH   5   6
ENDBRANCH   4   5
ENDBRANCH   3   4
ENDBRANCH   2   3
ENDBRANCH   1   2
BRANCH   1  13
ATOM     13  C   UNL     1    -105.102  31.788 -38.877  1.00  0.00     0.000 C 
BRANCH  13  14
ATOM     14  C   UNL     1    -103.636  31.355 -38.669  1.00  0.00     0.000 C 
BRANCH  14  15
ATOM     15  C   UNL     1    -103.115  31.483 -37.227  1.00  0.00     0.000 C 
BRANCH  15  16
ATOM     16  C   UNL     1    -103.037  30.134 -36.498  1.00  0.00     0.000 C 
BRANCH  16  17
ATOM     17  C   UNL     1    -102.633  30.326 -35.028  1.00  0.00     0.000 C 
BRANCH  17  18
ATOM     18  C   UNL     1    -101.678  31.515 -34.834  1.00  0.00     0.000 C 
BRANCH  18  19
ATOM     19  C   UNL     1    -100.271  31.071 -34.396  1.00  0.00     0.000 C 
BRANCH  19  20
ATOM     20  C   UNL     1     -99.199  31.376 -35.454  1.00  0.00     0.006 C 
BRANCH  20  21
ATOM     21  C   UNL     1     -99.734  32.220 -36.617  1.00  0.00     0.053 C 
BRANCH  21  22
ATOM     22  C   UNL     1     -99.367  31.596 -37.927  1.00  0.00     0.041 C 
ATOM     23  O   UNL     1     -98.616  32.207 -38.732  1.00  0.00    -0.550 OA
ATOM     24  O   UNL     1     -99.887  30.357 -38.277  1.00  0.00    -0.550 OA
ENDBRANCH  21  22
ENDBRANCH  20  21
ENDBRANCH  19  20
ENDBRANCH  18  19
ENDBRANCH  17  18
ENDBRANCH  16  17
ENDBRANCH  15  16
ENDBRANCH  14  15
ENDBRANCH  13  14
ENDBRANCH   1  13
TORSDOF 20
ENDMDL
MODEL 8
REMARK VINA RESULT:    -3.354      1.352      2.892
REMARK INTER + INTRA:         -10.254
REMARK INTER:                  -7.351
REMARK INTRA:                  -2.902
REMARK UNBOUND:                -2.978
REMARK SMILES CCCCCCCCCCCCCCCCCCCCCC(=O)[O-]
REMARK SMILES IDX 12 1 11 2 10 3 9 4 8 5 7 6 6 7 5 8 4 9 3 10 2 11 1 12 13 13
REMARK SMILES IDX 14 14 15 15 16 16 17 17 18 18 19 19 20 20 21 21 22 22 23 23
REMARK SMILES IDX 24 24
REMARK H PARENT
REMARK Flexibility Score: inf
ROOT
ATOM      1  C   UNL     1    -105.864  32.826 -38.093  1.00  0.00     0.000 C 
ENDROOT
BRANCH   1   2
ATOM      2  C   UNL     1    -105.134  31.720 -38.874  1.00  0.00     0.000 C 
BRANCH   2   3
ATOM      3  C   UNL     1    -103.647  31.614 -38.500  1.00  0.00     0.000 C 
BRANCH   3   4
ATOM      4  C   UNL     1    -103.331  30.348 -37.684  1.00  0.00    -0.000 C 
BRANCH   4   5
ATOM      5  C   UNL     1    -103.097  30.650 -36.195  1.00  0.00    -0.000 C 
BRANCH   5   6
ATOM      6  C   UNL     1    -102.971  32.157 -35.911  1.00  0.00    -0.000 C 
BRANCH   6   7
ATOM      7  C   UNL     1    -101.560  32.556 -35.451  1.00  0.00    -0.000 C 
BRANCH   7   8
ATOM      8  C   UNL     1    -100.642  31.341 -35.237  1.00  0.00    -0.000 C 
BRANCH   8   9
ATOM      9  C   UNL     1     -99.318  31.450 -36.013  1.00  0.00    -0.000 C 
BRANCH   9  10
ATOM     10  C   UNL     1     -99.496  31.879 -37.485  1.00  0.00    -0.000 C 
BRANCH  10  11
ATOM     11  C   UNL     1     -98.672  33.128 -37.830  1.00  0.00    -0.003 C 
ATOM     12  C   UNL     1     -97.714  32.855 -38.986  1.00  0.00     0.004 C 
ENDBRANCH  10  11
ENDBRANCH   9  10
ENDBRANCH   8   9
ENDBRANCH   7   8
ENDBRANCH   6   7
ENDBRANCH   5   6
ENDBRANCH   4   5
ENDBRANCH   3   4
ENDBRANCH   2   3
ENDBRANCH   1   2
BRANCH   1  13
ATOM     13  C   UNL     1    -106.823  32.268 -37.028  1.00  0.00     0.000 C 
BRANCH  13  14
ATOM     14  C   UNL     1    -106.413  32.553 -35.568  1.00  0.00     0.000 C 
BRANCH  14  15
ATOM     15  C   UNL     1    -107.045  31.622 -34.518  1.00  0.00     0.000 C 
BRANCH  15  16
ATOM     16  C   UNL     1    -106.157  30.417 -34.177  1.00  0.00     0.000 C 
BRANCH  16  17
ATOM     17  C   UNL     1    -105.587  30.540 -32.755  1.00  0.00     0.000 C 
BRANCH  17  18
ATOM     18  C   UNL     1    -104.178  31.156 -32.739  1.00  0.00     0.000 C 
BRANCH  18  19
ATOM     19  C   UNL     1    -104.143  32.518 -32.023  1.00  0.00     0.000 C 
BRANCH  19  20
ATOM     20  C   UNL     1    -105.461  32.842 -31.302  1.00  0.00     0.006 C 
BRANCH  20  21
ATOM     21  C   UNL     1    -105.307  33.951 -30.253  1.00  0.00     0.053 C 
BRANCH  21  22
ATOM     22  C   UNL     1    -105.851  35.243 -30.776  1.00  0.00     0.041 C 
ATOM     23  O   UNL     1    -105.161  35.951 -31.556  1.00  0.00    -0.550 OA
ATOM     24  O   UNL     1    -107.103  35.685 -30.370  1.00  0.00    -0.550 OA
ENDBRANCH  21  22
ENDBRANCH  20  21
ENDBRANCH  19  20
ENDBRANCH  18  19
ENDBRANCH  17  18
ENDBRANCH  16  17
ENDBRANCH  15  16
ENDBRANCH  14  15
ENDBRANCH  13  14
ENDBRANCH   1  13
TORSDOF 20
ENDMDL
MODEL 9
REMARK VINA RESULT:    -3.341      2.916      4.178
REMARK INTER + INTRA:         -10.225
REMARK INTER:                  -7.688
REMARK INTRA:                  -2.537
REMARK UNBOUND:                -2.978
REMARK SMILES CCCCCCCCCCCCCCCCCCCCCC(=O)[O-]
REMARK SMILES IDX 12 1 11 2 10 3 9 4 8 5 7 6 6 7 5 8 4 9 3 10 2 11 1 12 13 13
REMARK SMILES IDX 14 14 15 15 16 16 17 17 18 18 19 19 20 20 21 21 22 22 23 23
REMARK SMILES IDX 24 24
REMARK H PARENT
REMARK Flexibility Score: inf
ROOT
ATOM      1  C   UNL     1    -104.491  31.985 -38.198  1.00  0.00     0.000 C 
ENDROOT
BRANCH   1   2
ATOM      2  C   UNL     1    -103.571  31.473 -37.075  1.00  0.00     0.000 C 
BRANCH   2   3
ATOM      3  C   UNL     1    -103.509  32.432 -35.876  1.00  0.00     0.000 C 
BRANCH   3   4
ATOM      4  C   UNL     1    -103.927  31.758 -34.558  1.00  0.00    -0.000 C 
BRANCH   4   5
ATOM      5  C   UNL     1    -102.759  31.036 -33.868  1.00  0.00    -0.000 C 
BRANCH   5   6
ATOM      6  C   UNL     1    -101.433  31.808 -33.989  1.00  0.00    -0.000 C 
BRANCH   6   7
ATOM      7  C   UNL     1    -100.245  30.894 -34.327  1.00  0.00    -0.000 C 
BRANCH   7   8
ATOM      8  C   UNL     1     -99.463  31.372 -35.562  1.00  0.00    -0.000 C 
BRANCH   8   9
ATOM      9  C   UNL     1    -100.158  31.006 -36.886  1.00  0.00    -0.000 C 
BRANCH   9  10
ATOM     10  C   UNL     1     -99.404  31.502 -38.139  1.00  0.00    -0.000 C 
BRANCH  10  11
ATOM     11  C   UNL     1     -98.682  32.834 -37.891  1.00  0.00    -0.003 C 
ATOM     12  C   UNL     1     -97.539  33.034 -38.881  1.00  0.00     0.004 C 
ENDBRANCH  10  11
ENDBRANCH   9  10
ENDBRANCH   8   9
ENDBRANCH   7   8
ENDBRANCH   6   7
ENDBRANCH   5   6
ENDBRANCH   4   5
ENDBRANCH   3   4
ENDBRANCH   2   3
ENDBRANCH   1   2
BRANCH   1  13
ATOM     13  C   UNL     1    -105.231  33.278 -37.816  1.00  0.00     0.000 C 
BRANCH  13  14
ATOM     14  C   UNL     1    -106.767  33.153 -37.745  1.00  0.00     0.000 C 
BRANCH  14  15
ATOM     15  C   UNL     1    -107.332  32.804 -36.356  1.00  0.00     0.000 C 
BRANCH  15  16
ATOM     16  C   UNL     1    -107.345  31.294 -36.079  1.00  0.00     0.000 C 
BRANCH  16  17
ATOM     17  C   UNL     1    -108.408  30.587 -36.934  1.00  0.00     0.000 C 
BRANCH  17  18
ATOM     18  C   UNL     1    -109.791  31.247 -36.811  1.00  0.00     0.000 C 
BRANCH  18  19
ATOM     19  C   UNL     1    -110.388  31.614 -38.182  1.00  0.00     0.000 C 
BRANCH  19  20
ATOM     20  C   UNL     1    -111.197  32.920 -38.145  1.00  0.00     0.006 C 
BRANCH  20  21
ATOM     21  C   UNL     1    -110.312  34.170 -38.222  1.00  0.00     0.053 C 
BRANCH  21  22
ATOM     22  C   UNL     1    -110.568  35.065 -37.051  1.00  0.00     0.041 C 
ATOM     23  O   UNL     1    -111.013  36.229 -37.228  1.00  0.00    -0.550 OA
ATOM     24  O   UNL     1    -110.278  34.627 -35.765  1.00  0.00    -0.550 OA
ENDBRANCH  21  22
ENDBRANCH  20  21
ENDBRANCH  19  20
ENDBRANCH  18  19
ENDBRANCH  17  18
ENDBRANCH  16  17
ENDBRANCH  15  16
ENDBRANCH  14  15
ENDBRANCH  13  14
ENDBRANCH   1  13
TORSDOF 20
ENDMDL
