MODEL 1
REMARK VINA RESULT:    -5.334      0.000      0.000
REMARK INTER + INTRA:          -5.802
REMARK INTER:                  -5.802
REMARK INTRA:                   0.000
REMARK UNBOUND:                 0.000
REMARK SMILES Cc1cc(O)c2c(c1)C(=O)c1cc(O)cc(O)c1C2=O
REMARK SMILES IDX 1 1 2 2 8 3 7 4 6 5 4 6 3 7 19 8 20 9 18 10 11 11 9 12 10 13
REMARK SMILES IDX 12 14 13 15 15 16 16 17 5 18 17 20 14 22
REMARK H PARENT 5 19 17 21 14 23
REMARK Flexibility Score: inf
ROOT
ATOM      1  C   UNL     1      43.141  19.723  -4.469  1.00  0.00     0.044 C 
ATOM      2  C   UNL     1      43.769  18.401  -4.138  1.00  0.00    -0.047 A 
ATOM      3  C   UNL     1      45.084  18.128  -4.531  1.00  0.00     0.016 A 
ATOM      4  C   UNL     1      45.694  16.907  -4.193  1.00  0.00     0.038 A 
ATOM      5  C   UNL     1      44.979  15.947  -3.445  1.00  0.00     0.076 A 
ATOM      6  C   UNL     1      43.660  16.239  -3.026  1.00  0.00     0.127 A 
ATOM      7  C   UNL     1      43.070  17.462  -3.372  1.00  0.00     0.050 A 
ATOM      8  C   UNL     1      45.624  14.646  -3.132  1.00  0.00     0.201 C 
ATOM      9  O   UNL     1      44.908  13.663  -2.799  1.00  0.00    -0.288 OA
ATOM     10  C   UNL     1      47.091  14.472  -3.320  1.00  0.00     0.076 A 
ATOM     11  C   UNL     1      47.781  15.412  -4.124  1.00  0.00     0.041 A 
ATOM     12  C   UNL     1      47.084  16.623  -4.619  1.00  0.00     0.194 C 
ATOM     13  O   UNL     1      47.680  17.422  -5.391  1.00  0.00    -0.289 OA
ATOM     14  C   UNL     1      49.133  15.199  -4.443  1.00  0.00     0.059 A 
ATOM     15  C   UNL     1      49.808  14.076  -3.962  1.00  0.00     0.120 A 
ATOM     16  C   UNL     1      49.148  13.173  -3.133  1.00  0.00     0.093 A 
ATOM     17  C   UNL     1      47.811  13.373  -2.776  1.00  0.00     0.131 A 
ENDROOT
BRANCH   6  18
ATOM     18  O   UNL     1      42.938  15.325  -2.260  1.00  0.00    -0.507 OA
ATOM     19  H   UNL     1      43.192  15.115  -1.301  1.00  0.00     0.293 HD
ENDBRANCH   6  18
BRANCH  17  20
ATOM     20  O   UNL     1      47.256  12.480  -1.856  1.00  0.00    -0.507 OA
ATOM     21  H   UNL     1      46.814  12.766  -0.994  1.00  0.00     0.293 HD
ENDBRANCH  17  20
BRANCH  15  22
ATOM     22  O   UNL     1      51.145  13.855  -4.293  1.00  0.00    -0.508 OA
ATOM     23  H   UNL     1      51.636  13.023  -3.988  1.00  0.00     0.293 HD
ENDBRANCH  15  22
TORSDOF 3
ENDMDL
MODEL 2
REMARK VINA RESULT:    -5.210      1.314      3.651
REMARK INTER + INTRA:          -5.667
REMARK INTER:                  -5.667
REMARK INTRA:                   0.000
REMARK UNBOUND:                 0.000
REMARK SMILES Cc1cc(O)c2c(c1)C(=O)c1cc(O)cc(O)c1C2=O
REMARK SMILES IDX 1 1 2 2 8 3 7 4 6 5 4 6 3 7 19 8 20 9 18 10 11 11 9 12 10 13
REMARK SMILES IDX 12 14 13 15 15 16 16 17 5 18 17 20 14 22
REMARK H PARENT 5 19 17 21 14 23
REMARK Flexibility Score: inf
ROOT
ATOM      1  C   UNL     1      43.968  18.917  -5.875  1.00  0.00     0.044 C 
ATOM      2  C   UNL     1      45.125  18.066  -5.439  1.00  0.00    -0.047 A 
ATOM      3  C   UNL     1      44.920  16.990  -4.568  1.00  0.00     0.016 A 
ATOM      4  C   UNL     1      45.990  16.164  -4.184  1.00  0.00     0.038 A 
ATOM      5  C   UNL     1      47.286  16.416  -4.684  1.00  0.00     0.076 A 
ATOM      6  C   UNL     1      47.484  17.488  -5.585  1.00  0.00     0.127 A 
ATOM      7  C   UNL     1      46.403  18.299  -5.957  1.00  0.00     0.050 A 
ATOM      8  C   UNL     1      48.414  15.560  -4.236  1.00  0.00     0.201 C 
ATOM      9  O   UNL     1      49.598  15.973  -4.369  1.00  0.00    -0.288 OA
ATOM     10  C   UNL     1      48.146  14.276  -3.530  1.00  0.00     0.076 A 
ATOM     11  C   UNL     1      46.857  14.066  -2.984  1.00  0.00     0.041 A 
ATOM     12  C   UNL     1      45.766  15.032  -3.257  1.00  0.00     0.194 C 
ATOM     13  O   UNL     1      44.639  14.880  -2.712  1.00  0.00    -0.289 OA
ATOM     14  C   UNL     1      46.611  12.934  -2.188  1.00  0.00     0.059 A 
ATOM     15  C   UNL     1      47.622  12.004  -1.944  1.00  0.00     0.120 A 
ATOM     16  C   UNL     1      48.879  12.180  -2.518  1.00  0.00     0.093 A 
ATOM     17  C   UNL     1      49.145  13.282  -3.336  1.00  0.00     0.131 A 
ENDROOT
BRANCH   6  18
ATOM     18  O   UNL     1      48.746  17.743  -6.121  1.00  0.00    -0.507 OA
ATOM     19  H   UNL     1      49.566  17.839  -5.533  1.00  0.00     0.293 HD
ENDBRANCH   6  18
BRANCH  17  20
ATOM     20  O   UNL     1      50.395  13.327  -3.958  1.00  0.00    -0.507 OA
ATOM     21  H   UNL     1      50.898  12.507  -4.267  1.00  0.00     0.293 HD
ENDBRANCH  17  20
BRANCH  15  22
ATOM     22  O   UNL     1      47.384  10.889  -1.141  1.00  0.00    -0.508 OA
ATOM     23  H   UNL     1      47.864  10.010  -1.296  1.00  0.00     0.293 HD
ENDBRANCH  15  22
TORSDOF 3
ENDMDL
MODEL 3
REMARK VINA RESULT:    -5.176      1.428      5.443
REMARK INTER + INTRA:          -5.630
REMARK INTER:                  -5.630
REMARK INTRA:                   0.000
REMARK UNBOUND:                 0.000
REMARK SMILES Cc1cc(O)c2c(c1)C(=O)c1cc(O)cc(O)c1C2=O
REMARK SMILES IDX 1 1 2 2 8 3 7 4 6 5 4 6 3 7 19 8 20 9 18 10 11 11 9 12 10 13
REMARK SMILES IDX 12 14 13 15 15 16 16 17 5 18 17 20 14 22
REMARK H PARENT 5 19 17 21 14 23
REMARK Flexibility Score: inf
ROOT
ATOM      1  C   UNL     1      52.059  15.958  -5.649  1.00  0.00     0.044 C 
ATOM      2  C   UNL     1      50.820  15.429  -4.988  1.00  0.00    -0.047 A 
ATOM      3  C   UNL     1      49.632  16.169  -5.024  1.00  0.00     0.016 A 
ATOM      4  C   UNL     1      48.457  15.665  -4.441  1.00  0.00     0.038 A 
ATOM      5  C   UNL     1      48.468  14.398  -3.818  1.00  0.00     0.076 A 
ATOM      6  C   UNL     1      49.664  13.643  -3.809  1.00  0.00     0.127 A 
ATOM      7  C   UNL     1      50.825  14.162  -4.396  1.00  0.00     0.050 A 
ATOM      8  C   UNL     1      47.228  13.899  -3.170  1.00  0.00     0.201 C 
ATOM      9  O   UNL     1      47.304  12.973  -2.317  1.00  0.00    -0.288 OA
ATOM     10  C   UNL     1      45.922  14.562  -3.440  1.00  0.00     0.076 A 
ATOM     11  C   UNL     1      45.932  15.857  -4.011  1.00  0.00     0.041 A 
ATOM     12  C   UNL     1      47.206  16.456  -4.476  1.00  0.00     0.194 C 
ATOM     13  O   UNL     1      47.222  17.637  -4.920  1.00  0.00    -0.289 OA
ATOM     14  C   UNL     1      44.729  16.572  -4.144  1.00  0.00     0.059 A 
ATOM     15  C   UNL     1      43.520  16.009  -3.733  1.00  0.00     0.120 A 
ATOM     16  C   UNL     1      43.498  14.717  -3.215  1.00  0.00     0.093 A 
ATOM     17  C   UNL     1      44.675  13.972  -3.096  1.00  0.00     0.131 A 
ENDROOT
BRANCH   6  18
ATOM     18  O   UNL     1      49.699  12.375  -3.228  1.00  0.00    -0.507 OA
ATOM     19  H   UNL     1      49.153  11.604  -3.596  1.00  0.00     0.293 HD
ENDBRANCH   6  18
BRANCH  17  20
ATOM     20  O   UNL     1      44.551  12.648  -2.668  1.00  0.00    -0.507 OA
ATOM     21  H   UNL     1      45.185  12.207  -2.017  1.00  0.00     0.293 HD
ENDBRANCH  17  20
BRANCH  15  22
ATOM     22  O   UNL     1      42.328  16.723  -3.849  1.00  0.00    -0.508 OA
ATOM     23  H   UNL     1      41.818  17.041  -3.034  1.00  0.00     0.293 HD
ENDBRANCH  15  22
TORSDOF 3
ENDMDL
MODEL 4
REMARK VINA RESULT:    -5.139      1.425      1.997
REMARK INTER + INTRA:          -5.590
REMARK INTER:                  -5.590
REMARK INTRA:                   0.000
REMARK UNBOUND:                 0.000
REMARK SMILES Cc1cc(O)c2c(c1)C(=O)c1cc(O)cc(O)c1C2=O
REMARK SMILES IDX 1 1 2 2 8 3 7 4 6 5 4 6 3 7 19 8 20 9 18 10 11 11 9 12 10 13
REMARK SMILES IDX 12 14 13 15 15 16 16 17 5 18 17 20 14 22
REMARK H PARENT 5 19 17 21 14 23
REMARK Flexibility Score: inf
ROOT
ATOM      1  C   UNL     1      42.507  17.275  -3.376  1.00  0.00     0.044 C 
ATOM      2  C   UNL     1      43.674  16.340  -3.501  1.00  0.00    -0.047 A 
ATOM      3  C   UNL     1      44.908  16.812  -3.965  1.00  0.00     0.016 A 
ATOM      4  C   UNL     1      46.017  15.953  -4.049  1.00  0.00     0.038 A 
ATOM      5  C   UNL     1      45.892  14.602  -3.659  1.00  0.00     0.076 A 
ATOM      6  C   UNL     1      44.651  14.137  -3.165  1.00  0.00     0.127 A 
ATOM      7  C   UNL     1      43.557  15.010  -3.086  1.00  0.00     0.050 A 
ATOM      8  C   UNL     1      47.063  13.698  -3.794  1.00  0.00     0.201 C 
ATOM      9  O   UNL     1      46.884  12.450  -3.803  1.00  0.00    -0.288 OA
ATOM     10  C   UNL     1      48.421  14.261  -4.032  1.00  0.00     0.076 A 
ATOM     11  C   UNL     1      48.524  15.600  -4.481  1.00  0.00     0.041 A 
ATOM     12  C   UNL     1      47.317  16.458  -4.548  1.00  0.00     0.194 C 
ATOM     13  O   UNL     1      47.400  17.627  -5.014  1.00  0.00    -0.289 OA
ATOM     14  C   UNL     1      49.776  16.117  -4.856  1.00  0.00     0.059 A 
ATOM     15  C   UNL     1      50.924  15.327  -4.774  1.00  0.00     0.120 A 
ATOM     16  C   UNL     1      50.836  14.025  -4.288  1.00  0.00     0.093 A 
ATOM     17  C   UNL     1      49.608  13.493  -3.883  1.00  0.00     0.131 A 
ENDROOT
BRANCH   6  18
ATOM     18  O   UNL     1      44.504  12.817  -2.742  1.00  0.00    -0.507 OA
ATOM     19  H   UNL     1      44.374  12.581  -1.765  1.00  0.00     0.293 HD
ENDBRANCH   6  18
BRANCH  17  20
ATOM     20  O   UNL     1      49.624  12.220  -3.308  1.00  0.00    -0.507 OA
ATOM     21  H   UNL     1      48.805  11.635  -3.217  1.00  0.00     0.293 HD
ENDBRANCH  17  20
BRANCH  15  22
ATOM     22  O   UNL     1      52.164  15.834  -5.161  1.00  0.00    -0.508 OA
ATOM     23  H   UNL     1      52.244  16.570  -5.853  1.00  0.00     0.293 HD
ENDBRANCH  15  22
TORSDOF 3
ENDMDL
MODEL 5
REMARK VINA RESULT:    -5.055      1.643      6.159
REMARK INTER + INTRA:          -5.499
REMARK INTER:                  -5.499
REMARK INTRA:                   0.000
REMARK UNBOUND:                 0.000
REMARK SMILES Cc1cc(O)c2c(c1)C(=O)c1cc(O)cc(O)c1C2=O
REMARK SMILES IDX 1 1 2 2 8 3 7 4 6 5 4 6 3 7 19 8 20 9 18 10 11 11 9 12 10 13
REMARK SMILES IDX 12 14 13 15 15 16 16 17 5 18 17 20 14 22
REMARK H PARENT 5 19 17 21 14 23
REMARK Flexibility Score: inf
ROOT
ATOM      1  C   UNL     1      50.753  13.866  -4.524  1.00  0.00     0.044 C 
ATOM      2  C   UNL     1      49.549  14.758  -4.604  1.00  0.00    -0.047 A 
ATOM      3  C   UNL     1      48.388  14.441  -3.888  1.00  0.00     0.016 A 
ATOM      4  C   UNL     1      47.269  15.290  -3.926  1.00  0.00     0.038 A 
ATOM      5  C   UNL     1      47.313  16.477  -4.688  1.00  0.00     0.076 A 
ATOM      6  C   UNL     1      48.496  16.807  -5.388  1.00  0.00     0.127 A 
ATOM      7  C   UNL     1      49.603  15.948  -5.336  1.00  0.00     0.050 A 
ATOM      8  C   UNL     1      46.106  17.342  -4.751  1.00  0.00     0.201 C 
ATOM      9  O   UNL     1      45.994  18.183  -5.684  1.00  0.00    -0.288 OA
ATOM     10  C   UNL     1      44.987  17.139  -3.790  1.00  0.00     0.076 A 
ATOM     11  C   UNL     1      44.927  15.917  -3.078  1.00  0.00     0.041 A 
ATOM     12  C   UNL     1      46.043  14.945  -3.171  1.00  0.00     0.194 C 
ATOM     13  O   UNL     1      45.955  13.828  -2.592  1.00  0.00    -0.289 OA
ATOM     14  C   UNL     1      43.811  15.630  -2.274  1.00  0.00     0.059 A 
ATOM     15  C   UNL     1      42.765  16.547  -2.157  1.00  0.00     0.120 A 
ATOM     16  C   UNL     1      42.841  17.771  -2.817  1.00  0.00     0.093 A 
ATOM     17  C   UNL     1      43.951  18.095  -3.602  1.00  0.00     0.131 A 
ENDROOT
BRANCH   6  18
ATOM     18  O   UNL     1      48.582  17.988  -6.125  1.00  0.00    -0.507 OA
ATOM     19  H   UNL     1      49.242  18.095  -6.886  1.00  0.00     0.293 HD
ENDBRANCH   6  18
BRANCH  17  20
ATOM     20  O   UNL     1      43.998  19.383  -4.142  1.00  0.00    -0.507 OA
ATOM     21  H   UNL     1      43.193  19.989  -4.216  1.00  0.00     0.293 HD
ENDBRANCH  17  20
BRANCH  15  22
ATOM     22  O   UNL     1      41.649  16.257  -1.374  1.00  0.00    -0.508 OA
ATOM     23  H   UNL     1      40.833  15.797  -1.761  1.00  0.00     0.293 HD
ENDBRANCH  15  22
TORSDOF 3
ENDMDL
MODEL 6
REMARK VINA RESULT:    -5.028      2.437      4.519
REMARK INTER + INTRA:          -5.469
REMARK INTER:                  -5.469
REMARK INTRA:                   0.000
REMARK UNBOUND:                 0.000
REMARK SMILES Cc1cc(O)c2c(c1)C(=O)c1cc(O)cc(O)c1C2=O
REMARK SMILES IDX 1 1 2 2 8 3 7 4 6 5 4 6 3 7 19 8 20 9 18 10 11 11 9 12 10 13
REMARK SMILES IDX 12 14 13 15 15 16 16 17 5 18 17 20 14 22
REMARK H PARENT 5 19 17 21 14 23
REMARK Flexibility Score: inf
ROOT
ATOM      1  C   UNL     1      44.662  11.111  -2.389  1.00  0.00     0.044 C 
ATOM      2  C   UNL     1      45.414  12.322  -2.859  1.00  0.00    -0.047 A 
ATOM      3  C   UNL     1      46.797  12.257  -3.063  1.00  0.00     0.016 A 
ATOM      4  C   UNL     1      47.504  13.374  -3.539  1.00  0.00     0.038 A 
ATOM      5  C   UNL     1      46.816  14.574  -3.821  1.00  0.00     0.076 A 
ATOM      6  C   UNL     1      45.414  14.626  -3.640  1.00  0.00     0.127 A 
ATOM      7  C   UNL     1      44.727  13.501  -3.165  1.00  0.00     0.050 A 
ATOM      8  C   UNL     1      47.584  15.758  -4.284  1.00  0.00     0.201 C 
ATOM      9  O   UNL     1      47.070  16.906  -4.192  1.00  0.00    -0.288 OA
ATOM     10  C   UNL     1      48.992  15.604  -4.746  1.00  0.00     0.076 A 
ATOM     11  C   UNL     1      49.686  14.419  -4.402  1.00  0.00     0.041 A 
ATOM     12  C   UNL     1      48.969  13.300  -3.746  1.00  0.00     0.194 C 
ATOM     13  O   UNL     1      49.604  12.274  -3.379  1.00  0.00    -0.289 OA
ATOM     14  C   UNL     1      51.056  14.302  -4.693  1.00  0.00     0.059 A 
ATOM     15  C   UNL     1      51.737  15.338  -5.333  1.00  0.00     0.120 A 
ATOM     16  C   UNL     1      51.049  16.487  -5.716  1.00  0.00     0.093 A 
ATOM     17  C   UNL     1      49.681  16.620  -5.464  1.00  0.00     0.131 A 
ENDROOT
BRANCH   6  18
ATOM     18  O   UNL     1      44.701  15.787  -3.939  1.00  0.00    -0.507 OA
ATOM     19  H   UNL     1      43.692  15.784  -4.032  1.00  0.00     0.293 HD
ENDBRANCH   6  18
BRANCH  17  20
ATOM     20  O   UNL     1      49.046  17.754  -5.976  1.00  0.00    -0.507 OA
ATOM     21  H   UNL     1      49.036  17.998  -6.956  1.00  0.00     0.293 HD
ENDBRANCH  17  20
BRANCH  15  22
ATOM     22  O   UNL     1      53.100  15.230  -5.607  1.00  0.00    -0.508 OA
ATOM     23  H   UNL     1      53.581  15.908  -6.187  1.00  0.00     0.293 HD
ENDBRANCH  15  22
TORSDOF 3
ENDMDL
MODEL 7
REMARK VINA RESULT:    -4.906      2.042      3.984
REMARK INTER + INTRA:          -5.336
REMARK INTER:                  -5.336
REMARK INTRA:                   0.000
REMARK UNBOUND:                 0.000
REMARK SMILES Cc1cc(O)c2c(c1)C(=O)c1cc(O)cc(O)c1C2=O
REMARK SMILES IDX 1 1 2 2 8 3 7 4 6 5 4 6 3 7 19 8 20 9 18 10 11 11 9 12 10 13
REMARK SMILES IDX 12 14 13 15 15 16 16 17 5 18 17 20 14 22
REMARK H PARENT 5 19 17 21 14 23
REMARK Flexibility Score: inf
ROOT
ATOM      1  C   UNL     1      42.143  11.258  -2.922  1.00  0.00     0.044 C 
ATOM      2  C   UNL     1      43.132  12.370  -3.110  1.00  0.00    -0.047 A 
ATOM      3  C   UNL     1      44.506  12.100  -3.107  1.00  0.00     0.016 A 
ATOM      4  C   UNL     1      45.439  13.129  -3.321  1.00  0.00     0.038 A 
ATOM      5  C   UNL     1      44.992  14.448  -3.547  1.00  0.00     0.076 A 
ATOM      6  C   UNL     1      43.603  14.711  -3.577  1.00  0.00     0.127 A 
ATOM      7  C   UNL     1      42.688  13.672  -3.363  1.00  0.00     0.050 A 
ATOM      8  C   UNL     1      45.992  15.531  -3.729  1.00  0.00     0.201 C 
ATOM      9  O   UNL     1      45.643  16.731  -3.569  1.00  0.00    -0.288 OA
ATOM     10  C   UNL     1      47.421  15.196  -3.986  1.00  0.00     0.076 A 
ATOM     11  C   UNL     1      47.865  13.883  -3.696  1.00  0.00     0.041 A 
ATOM     12  C   UNL     1      46.891  12.836  -3.308  1.00  0.00     0.194 C 
ATOM     13  O   UNL     1      47.297  11.686  -2.984  1.00  0.00    -0.289 OA
ATOM     14  C   UNL     1      49.233  13.572  -3.786  1.00  0.00     0.059 A 
ATOM     15  C   UNL     1      50.158  14.543  -4.175  1.00  0.00     0.120 A 
ATOM     16  C   UNL     1      49.720  15.823  -4.507  1.00  0.00     0.093 A 
ATOM     17  C   UNL     1      48.363  16.153  -4.452  1.00  0.00     0.131 A 
ENDROOT
BRANCH   6  18
ATOM     18  O   UNL     1      43.128  15.998  -3.829  1.00  0.00    -0.507 OA
ATOM     19  H   UNL     1      43.732  16.811  -3.770  1.00  0.00     0.293 HD
ENDBRANCH   6  18
BRANCH  17  20
ATOM     20  O   UNL     1      47.997  17.424  -4.904  1.00  0.00    -0.507 OA
ATOM     21  H   UNL     1      47.429  18.067  -4.370  1.00  0.00     0.293 HD
ENDBRANCH  17  20
BRANCH  15  22
ATOM     22  O   UNL     1      51.517  14.241  -4.249  1.00  0.00    -0.508 OA
ATOM     23  H   UNL     1      51.982  14.101  -5.138  1.00  0.00     0.293 HD
ENDBRANCH  15  22
TORSDOF 3
ENDMDL
MODEL 8
REMARK VINA RESULT:    -4.847      1.572      2.101
REMARK INTER + INTRA:          -5.272
REMARK INTER:                  -5.272
REMARK INTRA:                   0.000
REMARK UNBOUND:                 0.000
REMARK SMILES Cc1cc(O)c2c(c1)C(=O)c1cc(O)cc(O)c1C2=O
REMARK SMILES IDX 1 1 2 2 8 3 7 4 6 5 4 6 3 7 19 8 20 9 18 10 11 11 9 12 10 13
REMARK SMILES IDX 12 14 13 15 15 16 16 17 5 18 17 20 14 22
REMARK H PARENT 5 19 17 21 14 23
REMARK Flexibility Score: inf
ROOT
ATOM      1  C   UNL     1      40.993  19.912  -4.050  1.00  0.00     0.044 C 
ATOM      2  C   UNL     1      42.060  18.872  -3.872  1.00  0.00    -0.047 A 
ATOM      3  C   UNL     1      43.251  18.951  -4.604  1.00  0.00     0.016 A 
ATOM      4  C   UNL     1      44.272  18.004  -4.416  1.00  0.00     0.038 A 
ATOM      5  C   UNL     1      44.102  16.964  -3.476  1.00  0.00     0.076 A 
ATOM      6  C   UNL     1      42.909  16.904  -2.719  1.00  0.00     0.127 A 
ATOM      7  C   UNL     1      41.903  17.859  -2.920  1.00  0.00     0.050 A 
ATOM      8  C   UNL     1      45.174  15.947  -3.320  1.00  0.00     0.201 C 
ATOM      9  O   UNL     1      44.904  14.841  -2.779  1.00  0.00    -0.288 OA
ATOM     10  C   UNL     1      46.525  16.187  -3.900  1.00  0.00     0.076 A 
ATOM     11  C   UNL     1      46.664  17.195  -4.884  1.00  0.00     0.041 A 
ATOM     12  C   UNL     1      45.526  18.091  -5.199  1.00  0.00     0.194 C 
ATOM     13  O   UNL     1      45.631  18.941  -6.125  1.00  0.00    -0.289 OA
ATOM     14  C   UNL     1      47.888  17.350  -5.557  1.00  0.00     0.059 A 
ATOM     15  C   UNL     1      48.975  16.529  -5.253  1.00  0.00     0.120 A 
ATOM     16  C   UNL     1      48.859  15.568  -4.252  1.00  0.00     0.093 A 
ATOM     17  C   UNL     1      47.662  15.409  -3.547  1.00  0.00     0.131 A 
ENDROOT
BRANCH   6  18
ATOM     18  O   UNL     1      42.724  15.908  -1.762  1.00  0.00    -0.507 OA
ATOM     19  H   UNL     1      42.374  16.118  -0.834  1.00  0.00     0.293 HD
ENDBRANCH   6  18
BRANCH  17  20
ATOM     20  O   UNL     1      47.662  14.498  -2.488  1.00  0.00    -0.507 OA
ATOM     21  H   UNL     1      47.120  13.645  -2.481  1.00  0.00     0.293 HD
ENDBRANCH  17  20
BRANCH  15  22
ATOM     22  O   UNL     1      50.185  16.672  -5.931  1.00  0.00    -0.508 OA
ATOM     23  H   UNL     1      50.771  15.873  -6.144  1.00  0.00     0.293 HD
ENDBRANCH  15  22
TORSDOF 3
ENDMDL
MODEL 9
REMARK VINA RESULT:    -4.788      1.649      6.016
REMARK INTER + INTRA:          -5.208
REMARK INTER:                  -5.208
REMARK INTRA:                   0.000
REMARK UNBOUND:                 0.000
REMARK SMILES Cc1cc(O)c2c(c1)C(=O)c1cc(O)cc(O)c1C2=O
REMARK SMILES IDX 1 1 2 2 8 3 7 4 6 5 4 6 3 7 19 8 20 9 18 10 11 11 9 12 10 13
REMARK SMILES IDX 12 14 13 15 15 16 16 17 5 18 17 20 14 22
REMARK H PARENT 5 19 17 21 14 23
REMARK Flexibility Score: inf
ROOT
ATOM      1  C   UNL     1      47.448  10.888  -0.592  1.00  0.00     0.044 C 
ATOM      2  C   UNL     1      47.608  11.948  -1.641  1.00  0.00    -0.047 A 
ATOM      3  C   UNL     1      46.548  12.816  -1.934  1.00  0.00     0.016 A 
ATOM      4  C   UNL     1      46.701  13.836  -2.888  1.00  0.00     0.038 A 
ATOM      5  C   UNL     1      47.934  13.996  -3.556  1.00  0.00     0.076 A 
ATOM      6  C   UNL     1      49.010  13.136  -3.236  1.00  0.00     0.127 A 
ATOM      7  C   UNL     1      48.839  12.125  -2.281  1.00  0.00     0.050 A 
ATOM      8  C   UNL     1      48.065  15.054  -4.591  1.00  0.00     0.201 C 
ATOM      9  O   UNL     1      49.000  14.983  -5.434  1.00  0.00    -0.288 OA
ATOM     10  C   UNL     1      47.036  16.124  -4.704  1.00  0.00     0.076 A 
ATOM     11  C   UNL     1      45.783  15.919  -4.077  1.00  0.00     0.041 A 
ATOM     12  C   UNL     1      45.573  14.745  -3.198  1.00  0.00     0.194 C 
ATOM     13  O   UNL     1      44.436  14.528  -2.697  1.00  0.00    -0.289 OA
ATOM     14  C   UNL     1      44.740  16.838  -4.284  1.00  0.00     0.059 A 
ATOM     15  C   UNL     1      44.932  17.962  -5.089  1.00  0.00     0.120 A 
ATOM     16  C   UNL     1      46.176  18.193  -5.670  1.00  0.00     0.093 A 
ATOM     17  C   UNL     1      47.240  17.311  -5.460  1.00  0.00     0.131 A 
ENDROOT
BRANCH   6  18
ATOM     18  O   UNL     1      50.250  13.288  -3.856  1.00  0.00    -0.507 OA
ATOM     19  H   UNL     1      51.110  12.996  -3.406  1.00  0.00     0.293 HD
ENDBRANCH   6  18
BRANCH  17  20
ATOM     20  O   UNL     1      48.482  17.672  -5.989  1.00  0.00    -0.507 OA
ATOM     21  H   UNL     1      49.217  18.108  -5.449  1.00  0.00     0.293 HD
ENDBRANCH  17  20
BRANCH  15  22
ATOM     22  O   UNL     1      43.893  18.865  -5.309  1.00  0.00    -0.508 OA
ATOM     23  H   UNL     1      43.041  18.838  -4.760  1.00  0.00     0.293 HD
ENDBRANCH  15  22
TORSDOF 3
ENDMDL
