MODEL 1
REMARK VINA RESULT:    -3.011      0.000      0.000
REMARK INTER + INTRA:          -3.812
REMARK INTER:                  -3.715
REMARK INTRA:                  -0.098
REMARK UNBOUND:                -0.098
REMARK SMILES CCCCCC(=O)[O-]
REMARK SMILES IDX 4 1 5 2 6 3 7 4 8 5 3 6 2 7 1 8
REMARK H PARENT
REMARK Flexibility Score: inf
ROOT
ATOM      1  C   UNL     1       8.854 -20.903  14.309  1.00  0.00     0.006 C 
ENDROOT
BRANCH   1   2
ATOM      2  C   UNL     1       8.713 -19.566  13.569  1.00  0.00     0.053 C 
BRANCH   2   3
ATOM      3  C   UNL     1       8.341 -19.765  12.132  1.00  0.00     0.041 C 
ATOM      4  O   UNL     1       7.600 -18.931  11.547  1.00  0.00    -0.550 OA
ATOM      5  O   UNL     1       8.840 -20.855  11.429  1.00  0.00    -0.550 OA
ENDBRANCH   2   3
ENDBRANCH   1   2
BRANCH   1   6
ATOM      6  C   UNL     1       7.515 -21.397  14.877  1.00  0.00     0.000 C 
BRANCH   6   7
ATOM      7  C   UNL     1       7.657 -21.790  16.352  1.00  0.00    -0.003 C 
ATOM      8  C   UNL     1       6.438 -21.354  17.159  1.00  0.00     0.004 C 
ENDBRANCH   6   7
ENDBRANCH   1   6
TORSDOF 4
ENDMDL
MODEL 2
REMARK VINA RESULT:    -2.738     19.455     20.040
REMARK INTER + INTRA:          -3.476
REMARK INTER:                  -3.232
REMARK INTRA:                  -0.244
REMARK UNBOUND:                -0.098
REMARK SMILES CCCCCC(=O)[O-]
REMARK SMILES IDX 4 1 5 2 6 3 7 4 8 5 3 6 2 7 1 8
REMARK H PARENT
REMARK Flexibility Score: inf
ROOT
ATOM      1  C   UNL     1      -9.691 -18.294  22.396  1.00  0.00     0.006 C 
ENDROOT
BRANCH   1   2
ATOM      2  C   UNL     1     -10.536 -19.552  22.640  1.00  0.00     0.053 C 
BRANCH   2   3
ATOM      3  C   UNL     1      -9.767 -20.803  22.341  1.00  0.00     0.041 C 
ATOM      4  O   UNL     1      -8.869 -21.199  23.128  1.00  0.00    -0.550 OA
ATOM      5  O   UNL     1     -10.067 -21.548  21.207  1.00  0.00    -0.550 OA
ENDBRANCH   2   3
ENDBRANCH   1   2
BRANCH   1   6
ATOM      6  C   UNL     1      -9.691 -17.871  20.919  1.00  0.00     0.000 C 
BRANCH   6   7
ATOM      7  C   UNL     1     -11.105 -17.935  20.331  1.00  0.00    -0.003 C 
ATOM      8  C   UNL     1     -11.125 -18.723  19.025  1.00  0.00     0.004 C 
ENDBRANCH   6   7
ENDBRANCH   1   6
TORSDOF 4
ENDMDL
MODEL 3
REMARK VINA RESULT:    -2.730     19.222     19.558
REMARK INTER + INTRA:          -3.466
REMARK INTER:                  -3.330
REMARK INTRA:                  -0.137
REMARK UNBOUND:                -0.098
REMARK SMILES CCCCCC(=O)[O-]
REMARK SMILES IDX 4 1 5 2 6 3 7 4 8 5 3 6 2 7 1 8
REMARK H PARENT
REMARK Flexibility Score: inf
ROOT
ATOM      1  C   UNL     1     -10.348 -20.449  21.544  1.00  0.00     0.006 C 
ENDROOT
BRANCH   1   2
ATOM      2  C   UNL     1     -10.143 -19.419  22.663  1.00  0.00     0.053 C 
BRANCH   2   3
ATOM      3  C   UNL     1      -9.523 -18.156  22.147  1.00  0.00     0.041 C 
ATOM      4  O   UNL     1      -8.855 -17.416  22.916  1.00  0.00    -0.550 OA
ATOM      5  O   UNL     1      -9.656 -17.814  20.807  1.00  0.00    -0.550 OA
ENDBRANCH   2   3
ENDBRANCH   1   2
BRANCH   1   6
ATOM      6  C   UNL     1      -9.572 -21.749  21.802  1.00  0.00     0.000 C 
BRANCH   6   7
ATOM      7  C   UNL     1      -8.811 -21.679  23.130  1.00  0.00    -0.003 C 
ATOM      8  C   UNL     1      -8.808 -23.031  23.837  1.00  0.00     0.004 C 
ENDBRANCH   6   7
ENDBRANCH   1   6
TORSDOF 4
ENDMDL
MODEL 4
REMARK VINA RESULT:    -2.649     19.441     20.478
REMARK INTER + INTRA:          -3.366
REMARK INTER:                  -3.151
REMARK INTRA:                  -0.215
REMARK UNBOUND:                -0.098
REMARK SMILES CCCCCC(=O)[O-]
REMARK SMILES IDX 4 1 5 2 6 3 7 4 8 5 3 6 2 7 1 8
REMARK H PARENT
REMARK Flexibility Score: inf
ROOT
ATOM      1  C   UNL     1     -11.058 -19.445  22.800  1.00  0.00     0.006 C 
ENDROOT
BRANCH   1   2
ATOM      2  C   UNL     1     -11.125 -20.965  22.595  1.00  0.00     0.053 C 
BRANCH   2   3
ATOM      3  C   UNL     1      -9.983 -21.665  23.265  1.00  0.00     0.041 C 
ATOM      4  O   UNL     1     -10.186 -22.708  23.940  1.00  0.00    -0.550 OA
ATOM      5  O   UNL     1      -8.688 -21.182  23.118  1.00  0.00    -0.550 OA
ENDBRANCH   2   3
ENDBRANCH   1   2
BRANCH   1   6
ATOM      6  C   UNL     1     -11.005 -18.681  21.469  1.00  0.00     0.000 C 
BRANCH   6   7
ATOM      7  C   UNL     1      -9.667 -17.952  21.309  1.00  0.00    -0.003 C 
ATOM      8  C   UNL     1      -9.011 -17.697  22.663  1.00  0.00     0.004 C 
ENDBRANCH   6   7
ENDBRANCH   1   6
TORSDOF 4
ENDMDL
MODEL 5
REMARK VINA RESULT:    -2.641      2.626      4.496
REMARK INTER + INTRA:          -3.356
REMARK INTER:                  -3.258
REMARK INTRA:                  -0.097
REMARK UNBOUND:                -0.098
REMARK SMILES CCCCCC(=O)[O-]
REMARK SMILES IDX 4 1 5 2 6 3 7 4 8 5 3 6 2 7 1 8
REMARK H PARENT
REMARK Flexibility Score: inf
ROOT
ATOM      1  C   UNL     1       8.476 -19.742  14.109  1.00  0.00     0.006 C 
ENDROOT
BRANCH   1   2
ATOM      2  C   UNL     1       8.535 -21.231  14.480  1.00  0.00     0.053 C 
BRANCH   2   3
ATOM      3  C   UNL     1       7.376 -21.634  15.340  1.00  0.00     0.041 C 
ATOM      4  O   UNL     1       6.403 -22.259  14.842  1.00  0.00    -0.550 OA
ATOM      5  O   UNL     1       7.387 -21.347  16.700  1.00  0.00    -0.550 OA
ENDBRANCH   2   3
ENDBRANCH   1   2
BRANCH   1   6
ATOM      6  C   UNL     1       9.043 -19.470  12.709  1.00  0.00     0.000 C 
BRANCH   6   7
ATOM      7  C   UNL     1       7.941 -19.549  11.646  1.00  0.00    -0.003 C 
ATOM      8  C   UNL     1       8.411 -20.328  10.421  1.00  0.00     0.004 C 
ENDBRANCH   6   7
ENDBRANCH   1   6
TORSDOF 4
ENDMDL
MODEL 6
REMARK VINA RESULT:    -2.639      1.428      1.764
REMARK INTER + INTRA:          -3.354
REMARK INTER:                  -3.218
REMARK INTRA:                  -0.136
REMARK UNBOUND:                -0.098
REMARK SMILES CCCCCC(=O)[O-]
REMARK SMILES IDX 4 1 5 2 6 3 7 4 8 5 3 6 2 7 1 8
REMARK H PARENT
REMARK Flexibility Score: inf
ROOT
ATOM      1  C   UNL     1       6.902 -22.472  14.373  1.00  0.00     0.006 C 
ENDROOT
BRANCH   1   2
ATOM      2  C   UNL     1       6.459 -22.000  12.981  1.00  0.00     0.053 C 
BRANCH   2   3
ATOM      3  C   UNL     1       7.596 -21.401  12.211  1.00  0.00     0.041 C 
ATOM      4  O   UNL     1       7.559 -20.193  11.861  1.00  0.00    -0.550 OA
ATOM      5  O   UNL     1       8.713 -22.172  11.909  1.00  0.00    -0.550 OA
ENDBRANCH   2   3
ENDBRANCH   1   2
BRANCH   1   6
ATOM      6  C   UNL     1       7.580 -21.354  15.178  1.00  0.00     0.000 C 
BRANCH   6   7
ATOM      7  C   UNL     1       7.533 -21.655  16.680  1.00  0.00    -0.003 C 
ATOM      8  C   UNL     1       6.124 -21.468  17.237  1.00  0.00     0.004 C 
ENDBRANCH   6   7
ENDBRANCH   1   6
TORSDOF 4
ENDMDL
MODEL 7
REMARK VINA RESULT:    -2.635     18.197     19.032
REMARK INTER + INTRA:          -3.348
REMARK INTER:                  -3.233
REMARK INTRA:                  -0.115
REMARK UNBOUND:                -0.098
REMARK SMILES CCCCCC(=O)[O-]
REMARK SMILES IDX 4 1 5 2 6 3 7 4 8 5 3 6 2 7 1 8
REMARK H PARENT
REMARK Flexibility Score: inf
ROOT
ATOM      1  C   UNL     1     -10.748 -18.831  19.526  1.00  0.00     0.006 C 
ENDROOT
BRANCH   1   2
ATOM      2  C   UNL     1     -10.194 -20.238  19.786  1.00  0.00     0.053 C 
BRANCH   2   3
ATOM      3  C   UNL     1      -9.671 -20.869  18.533  1.00  0.00     0.041 C 
ATOM      4  O   UNL     1      -8.680 -21.644  18.577  1.00  0.00    -0.550 OA
ATOM      5  O   UNL     1     -10.300 -20.625  17.318  1.00  0.00    -0.550 OA
ENDBRANCH   2   3
ENDBRANCH   1   2
BRANCH   1   6
ATOM      6  C   UNL     1     -10.396 -17.850  20.654  1.00  0.00     0.000 C 
BRANCH   6   7
ATOM      7  C   UNL     1      -9.843 -18.594  21.875  1.00  0.00    -0.003 C 
ATOM      8  C   UNL     1      -8.978 -17.677  22.735  1.00  0.00     0.004 C 
ENDBRANCH   6   7
ENDBRANCH   1   6
TORSDOF 4
ENDMDL
MODEL 8
REMARK VINA RESULT:    -2.621     19.195     19.867
REMARK INTER + INTRA:          -3.332
REMARK INTER:                  -3.172
REMARK INTRA:                  -0.160
REMARK UNBOUND:                -0.098
REMARK SMILES CCCCCC(=O)[O-]
REMARK SMILES IDX 4 1 5 2 6 3 7 4 8 5 3 6 2 7 1 8
REMARK H PARENT
REMARK Flexibility Score: inf
ROOT
ATOM      1  C   UNL     1     -11.053 -17.955  20.309  1.00  0.00     0.006 C 
ENDROOT
BRANCH   1   2
ATOM      2  C   UNL     1      -9.625 -17.872  20.866  1.00  0.00     0.053 C 
BRANCH   2   3
ATOM      3  C   UNL     1      -9.574 -18.233  22.318  1.00  0.00     0.041 C 
ATOM      4  O   UNL     1      -8.881 -17.551  23.118  1.00  0.00    -0.550 OA
ATOM      5  O   UNL     1     -10.318 -19.306  22.794  1.00  0.00    -0.550 OA
ENDBRANCH   2   3
ENDBRANCH   1   2
BRANCH   1   6
ATOM      6  C   UNL     1     -11.125 -18.775  19.013  1.00  0.00     0.000 C 
BRANCH   6   7
ATOM      7  C   UNL     1     -10.442 -20.136  19.186  1.00  0.00    -0.003 C 
ATOM      8  C   UNL     1     -10.315 -20.864  17.851  1.00  0.00     0.004 C 
ENDBRANCH   6   7
ENDBRANCH   1   6
TORSDOF 4
ENDMDL
MODEL 9
REMARK VINA RESULT:    -2.596     16.617     18.000
REMARK INTER + INTRA:          -3.300
REMARK INTER:                  -3.111
REMARK INTRA:                  -0.190
REMARK UNBOUND:                -0.098
REMARK SMILES CCCCCC(=O)[O-]
REMARK SMILES IDX 4 1 5 2 6 3 7 4 8 5 3 6 2 7 1 8
REMARK H PARENT
REMARK Flexibility Score: inf
ROOT
ATOM      1  C   UNL     1     -10.455 -21.473  17.254  1.00  0.00     0.006 C 
ENDROOT
BRANCH   1   2
ATOM      2  C   UNL     1      -9.316 -21.209  18.248  1.00  0.00     0.053 C 
BRANCH   2   3
ATOM      3  C   UNL     1      -8.098 -22.019  17.924  1.00  0.00     0.041 C 
ATOM      4  O   UNL     1      -7.699 -22.118  16.734  1.00  0.00    -0.550 OA
ATOM      5  O   UNL     1      -7.385 -22.639  18.943  1.00  0.00    -0.550 OA
ENDBRANCH   2   3
ENDBRANCH   1   2
BRANCH   1   6
ATOM      6  C   UNL     1     -10.899 -20.196  16.526  1.00  0.00     0.000 C 
BRANCH   6   7
ATOM      7  C   UNL     1     -10.941 -20.416  15.009  1.00  0.00    -0.003 C 
ATOM      8  C   UNL     1      -9.560 -20.229  14.386  1.00  0.00     0.004 C 
ENDBRANCH   6   7
ENDBRANCH   1   6
TORSDOF 4
ENDMDL
