MODEL 1
REMARK VINA RESULT:    -5.158      0.000      0.000
REMARK INTER + INTRA:          -7.265
REMARK INTER:                  -7.570
REMARK INTRA:                   0.305
REMARK UNBOUND:                 0.305
REMARK SMILES O=c1c(O[C@H]2O[C@H](CO)[C@@H](O)[C@@H](O)[C@H]2O)c(-c2ccc(O)c(O)c2)oc2cc(O)cc(O)c12
REMARK SMILES IDX 4 1 3 2 16 3 25 4 2 5 26 6 1 7 33 8 27 9 31 10 28 11 30 12
REMARK SMILES IDX 17 13 18 14 19 15 20 16 24 17 22 18 21 19 23 21 32 23 29 25
REMARK SMILES IDX 5 27 14 28 6 29 12 30 7 31 10 32 15 33 13 35 8 37 9 38 11 40
REMARK H PARENT 21 20 23 22 32 24 29 26 15 34 13 36 9 39 11 41
REMARK Flexibility Score: inf
ROOT
ATOM      1  O   UNL     1       4.821 -18.361   7.042  1.00  0.00    -0.454 OA
ENDROOT
BRANCH   1   2
ATOM      2  C   UNL     1       4.404 -17.040   6.809  1.00  0.00     0.214 A 
ATOM      3  C   UNL     1       4.347 -16.124   7.875  1.00  0.00     0.180 A 
ATOM      4  O   UNL     1       4.063 -14.851   7.639  1.00  0.00    -0.452 OA
ATOM      5  C   UNL     1       4.036 -16.602   5.524  1.00  0.00     0.239 A 
ATOM      6  C   UNL     1       3.764 -14.379   6.435  1.00  0.00     0.146 A 
ATOM      7  O   UNL     1       4.005 -17.438   4.586  1.00  0.00    -0.285 OA
ATOM      8  C   UNL     1       3.699 -15.241   5.309  1.00  0.00     0.111 A 
ATOM      9  C   UNL     1       3.513 -13.012   6.303  1.00  0.00     0.094 A 
ATOM     10  C   UNL     1       3.324 -14.680   4.047  1.00  0.00     0.134 A 
ATOM     11  C   UNL     1       3.194 -12.468   5.059  1.00  0.00     0.123 A 
ATOM     12  C   UNL     1       3.102 -13.300   3.944  1.00  0.00     0.093 A 
BRANCH   3  13
ATOM     13  C   UNL     1       4.638 -16.525   9.267  1.00  0.00     0.025 A 
ATOM     14  C   UNL     1       5.481 -15.755  10.087  1.00  0.00     0.016 A 
ATOM     15  C   UNL     1       5.702 -16.127  11.416  1.00  0.00     0.051 A 
ATOM     16  C   UNL     1       5.102 -17.282  11.937  1.00  0.00     0.157 A 
ATOM     17  C   UNL     1       4.064 -17.698   9.782  1.00  0.00     0.062 A 
ATOM     18  C   UNL     1       4.285 -18.074  11.111  1.00  0.00     0.158 A 
BRANCH  16  19
ATOM     19  O   UNL     1       5.312 -17.641  13.267  1.00  0.00    -0.504 OA
ATOM     20  H   UNL     1       4.762 -18.366  13.713  1.00  0.00     0.293 HD
ENDBRANCH  16  19
BRANCH  18  21
ATOM     21  O   UNL     1       3.675 -19.230  11.597  1.00  0.00    -0.504 OA
ATOM     22  H   UNL     1       3.126 -19.233  12.449  1.00  0.00     0.293 HD
ENDBRANCH  18  21
ENDBRANCH   3  13
BRANCH  10  23
ATOM     23  O   UNL     1       3.141 -15.421   2.875  1.00  0.00    -0.507 OA
ATOM     24  H   UNL     1       2.454 -16.148   2.742  1.00  0.00     0.293 HD
ENDBRANCH  10  23
BRANCH  11  25
ATOM     25  O   UNL     1       2.961 -11.102   4.919  1.00  0.00    -0.508 OA
ATOM     26  H   UNL     1       2.232 -10.751   4.309  1.00  0.00     0.293 HD
ENDBRANCH  11  25
ENDBRANCH   1   2
BRANCH   1  27
ATOM     27  C   UNL     1       3.925 -19.429   7.378  1.00  0.00     0.339 C 
ATOM     28  C   UNL     1       4.684 -20.630   7.975  1.00  0.00     0.214 C 
ATOM     29  O   UNL     1       3.141 -19.817   6.257  1.00  0.00    -0.332 OA
ATOM     30  C   UNL     1       5.534 -21.332   6.905  1.00  0.00     0.180 C 
ATOM     31  C   UNL     1       3.935 -20.354   5.209  1.00  0.00     0.179 C 
ATOM     32  C   UNL     1       4.670 -21.638   5.670  1.00  0.00     0.177 C 
BRANCH  28  33
ATOM     33  O   UNL     1       5.491 -20.196   9.040  1.00  0.00    -0.384 OA
ATOM     34  H   UNL     1       4.963 -19.520   9.542  1.00  0.00     0.211 HD
ENDBRANCH  28  33
BRANCH  30  35
ATOM     35  O   UNL     1       6.626 -20.517   6.556  1.00  0.00    -0.387 OA
ATOM     36  H   UNL     1       6.462 -20.185   5.635  1.00  0.00     0.211 HD
ENDBRANCH  30  35
BRANCH  31  37
ATOM     37  C   UNL     1       3.006 -20.631   4.014  1.00  0.00     0.191 C 
BRANCH  37  38
ATOM     38  O   UNL     1       2.910 -19.521   3.163  1.00  0.00    -0.394 OA
ATOM     39  H   UNL     1       3.808 -19.103   3.136  1.00  0.00     0.210 HD
ENDBRANCH  37  38
ENDBRANCH  31  37
BRANCH  32  40
ATOM     40  O   UNL     1       5.496 -22.123   4.638  1.00  0.00    -0.387 OA
ATOM     41  H   UNL     1       6.436 -22.052   4.950  1.00  0.00     0.211 HD
ENDBRANCH  32  40
ENDBRANCH   1  27
TORSDOF 12
ENDMDL
MODEL 2
REMARK VINA RESULT:    -5.049      1.536      5.386
REMARK INTER + INTRA:          -7.106
REMARK INTER:                  -7.796
REMARK INTRA:                   0.690
REMARK UNBOUND:                 0.305
REMARK SMILES O=c1c(O[C@H]2O[C@H](CO)[C@@H](O)[C@@H](O)[C@H]2O)c(-c2ccc(O)c(O)c2)oc2cc(O)cc(O)c12
REMARK SMILES IDX 4 1 3 2 16 3 25 4 2 5 26 6 1 7 33 8 27 9 31 10 28 11 30 12
REMARK SMILES IDX 17 13 18 14 19 15 20 16 24 17 22 18 21 19 23 21 32 23 29 25
REMARK SMILES IDX 5 27 14 28 6 29 12 30 7 31 10 32 15 33 13 35 8 37 9 38 11 40
REMARK H PARENT 21 20 23 22 32 24 29 26 15 34 13 36 9 39 11 41
REMARK Flexibility Score: inf
ROOT
ATOM      1  O   UNL     1       4.118 -17.357   7.414  1.00  0.00    -0.454 OA
ENDROOT
BRANCH   1   2
ATOM      2  C   UNL     1       4.034 -16.320   6.469  1.00  0.00     0.214 A 
ATOM      3  C   UNL     1       3.657 -16.607   5.145  1.00  0.00     0.180 A 
ATOM      4  O   UNL     1       3.469 -15.618   4.282  1.00  0.00    -0.452 OA
ATOM      5  C   UNL     1       4.321 -14.987   6.815  1.00  0.00     0.239 A 
ATOM      6  C   UNL     1       3.671 -14.341   4.577  1.00  0.00     0.146 A 
ATOM      7  O   UNL     1       4.738 -14.739   7.974  1.00  0.00    -0.285 OA
ATOM      8  C   UNL     1       4.146 -13.954   5.859  1.00  0.00     0.111 A 
ATOM      9  C   UNL     1       3.408 -13.383   3.595  1.00  0.00     0.094 A 
ATOM     10  C   UNL     1       4.391 -12.565   6.100  1.00  0.00     0.134 A 
ATOM     11  C   UNL     1       3.606 -12.028   3.857  1.00  0.00     0.123 A 
ATOM     12  C   UNL     1       4.094 -11.628   5.100  1.00  0.00     0.093 A 
BRANCH   3  13
ATOM     13  C   UNL     1       3.419 -17.989   4.681  1.00  0.00     0.025 A 
ATOM     14  C   UNL     1       3.385 -18.304   3.312  1.00  0.00     0.016 A 
ATOM     15  C   UNL     1       3.207 -19.626   2.897  1.00  0.00     0.051 A 
ATOM     16  C   UNL     1       3.041 -20.648   3.843  1.00  0.00     0.157 A 
ATOM     17  C   UNL     1       3.220 -19.010   5.625  1.00  0.00     0.062 A 
ATOM     18  C   UNL     1       3.041 -20.334   5.213  1.00  0.00     0.158 A 
BRANCH  16  19
ATOM     19  O   UNL     1       2.880 -21.969   3.426  1.00  0.00    -0.504 OA
ATOM     20  H   UNL     1       2.804 -22.208   2.444  1.00  0.00     0.293 HD
ENDBRANCH  16  19
BRANCH  18  21
ATOM     21  O   UNL     1       2.875 -21.326   6.179  1.00  0.00    -0.504 OA
ATOM     22  H   UNL     1       3.349 -21.291   7.075  1.00  0.00     0.293 HD
ENDBRANCH  18  21
ENDBRANCH   3  13
BRANCH  10  23
ATOM     23  O   UNL     1       4.934 -12.051   7.282  1.00  0.00    -0.507 OA
ATOM     24  H   UNL     1       5.359 -11.142   7.385  1.00  0.00     0.293 HD
ENDBRANCH  10  23
BRANCH  11  25
ATOM     25  O   UNL     1       3.327 -11.069   2.887  1.00  0.00    -0.508 OA
ATOM     26  H   UNL     1       2.375 -10.847   2.623  1.00  0.00     0.293 HD
ENDBRANCH  11  25
ENDBRANCH   1   2
BRANCH   1  27
ATOM     27  C   UNL     1       5.309 -17.664   8.152  1.00  0.00     0.339 C 
ATOM     28  C   UNL     1       5.417 -19.174   8.437  1.00  0.00     0.214 C 
ATOM     29  O   UNL     1       5.384 -16.903   9.350  1.00  0.00    -0.332 OA
ATOM     30  C   UNL     1       4.358 -19.619   9.458  1.00  0.00     0.180 C 
ATOM     31  C   UNL     1       4.333 -17.219  10.252  1.00  0.00     0.179 C 
ATOM     32  C   UNL     1       4.406 -18.702  10.693  1.00  0.00     0.177 C 
BRANCH  28  33
ATOM     33  O   UNL     1       5.278 -19.893   7.238  1.00  0.00    -0.384 OA
ATOM     34  H   UNL     1       4.303 -19.971   7.063  1.00  0.00     0.211 HD
ENDBRANCH  28  33
BRANCH  30  35
ATOM     35  O   UNL     1       3.082 -19.584   8.865  1.00  0.00    -0.387 OA
ATOM     36  H   UNL     1       2.765 -20.522   8.797  1.00  0.00     0.211 HD
ENDBRANCH  30  35
BRANCH  31  37
ATOM     37  C   UNL     1       4.446 -16.264  11.453  1.00  0.00     0.191 C 
BRANCH  37  38
ATOM     38  O   UNL     1       4.882 -16.932  12.608  1.00  0.00    -0.394 OA
ATOM     39  H   UNL     1       4.085 -17.374  12.998  1.00  0.00     0.210 HD
ENDBRANCH  37  38
ENDBRANCH  31  37
BRANCH  32  40
ATOM     40  O   UNL     1       3.324 -19.012  11.539  1.00  0.00    -0.387 OA
ATOM     41  H   UNL     1       2.491 -18.764  11.060  1.00  0.00     0.211 HD
ENDBRANCH  32  40
ENDBRANCH   1  27
TORSDOF 12
ENDMDL
MODEL 3
REMARK VINA RESULT:    -5.012      1.264      2.475
REMARK INTER + INTRA:          -7.051
REMARK INTER:                  -6.225
REMARK INTRA:                  -0.827
REMARK UNBOUND:                 0.305
REMARK SMILES O=c1c(O[C@H]2O[C@H](CO)[C@@H](O)[C@@H](O)[C@H]2O)c(-c2ccc(O)c(O)c2)oc2cc(O)cc(O)c12
REMARK SMILES IDX 4 1 3 2 16 3 25 4 2 5 26 6 1 7 33 8 27 9 31 10 28 11 30 12
REMARK SMILES IDX 17 13 18 14 19 15 20 16 24 17 22 18 21 19 23 21 32 23 29 25
REMARK SMILES IDX 5 27 14 28 6 29 12 30 7 31 10 32 15 33 13 35 8 37 9 38 11 40
REMARK H PARENT 21 20 23 22 32 24 29 26 15 34 13 36 9 39 11 41
REMARK Flexibility Score: inf
ROOT
ATOM      1  O   UNL     1       4.093 -17.535   6.662  1.00  0.00    -0.454 OA
ENDROOT
BRANCH   1   2
ATOM      2  C   UNL     1       4.121 -16.134   6.573  1.00  0.00     0.214 A 
ATOM      3  C   UNL     1       4.386 -15.363   7.719  1.00  0.00     0.180 A 
ATOM      4  O   UNL     1       4.523 -14.048   7.615  1.00  0.00    -0.452 OA
ATOM      5  C   UNL     1       3.886 -15.471   5.354  1.00  0.00     0.239 A 
ATOM      6  C   UNL     1       4.368 -13.384   6.477  1.00  0.00     0.146 A 
ATOM      7  O   UNL     1       3.566 -16.152   4.348  1.00  0.00    -0.285 OA
ATOM      8  C   UNL     1       4.003 -14.059   5.282  1.00  0.00     0.111 A 
ATOM      9  C   UNL     1       4.568 -12.002   6.482  1.00  0.00     0.094 A 
ATOM     10  C   UNL     1       3.802 -13.281   4.098  1.00  0.00     0.134 A 
ATOM     11  C   UNL     1       4.416 -11.260   5.312  1.00  0.00     0.123 A 
ATOM     12  C   UNL     1       4.036 -11.899   4.133  1.00  0.00     0.093 A 
BRANCH   3  13
ATOM     13  C   UNL     1       4.562 -15.976   9.051  1.00  0.00     0.025 A 
ATOM     14  C   UNL     1       5.569 -15.539   9.929  1.00  0.00     0.016 A 
ATOM     15  C   UNL     1       5.686 -16.101  11.203  1.00  0.00     0.051 A 
ATOM     16  C   UNL     1       4.811 -17.119  11.610  1.00  0.00     0.157 A 
ATOM     17  C   UNL     1       3.709 -17.018   9.450  1.00  0.00     0.062 A 
ATOM     18  C   UNL     1       3.824 -17.583  10.724  1.00  0.00     0.158 A 
BRANCH  16  19
ATOM     19  O   UNL     1       4.920 -17.666  12.888  1.00  0.00    -0.504 OA
ATOM     20  H   UNL     1       4.538 -18.579  13.107  1.00  0.00     0.293 HD
ENDBRANCH  16  19
BRANCH  18  21
ATOM     21  O   UNL     1       2.941 -18.596  11.096  1.00  0.00    -0.504 OA
ATOM     22  H   UNL     1       3.109 -19.190  11.900  1.00  0.00     0.293 HD
ENDBRANCH  18  21
ENDBRANCH   3  13
BRANCH  10  23
ATOM     23  O   UNL     1       3.364 -13.799   2.875  1.00  0.00    -0.507 OA
ATOM     24  H   UNL     1       2.493 -14.286   2.723  1.00  0.00     0.293 HD
ENDBRANCH  10  23
BRANCH  11  25
ATOM     25  O   UNL     1       4.634  -9.884   5.309  1.00  0.00    -0.508 OA
ATOM     26  H   UNL     1       4.352  -9.304   6.090  1.00  0.00     0.293 HD
ENDBRANCH  11  25
ENDBRANCH   1   2
BRANCH   1  27
ATOM     27  C   UNL     1       5.260 -18.361   6.545  1.00  0.00     0.339 C 
ATOM     28  C   UNL     1       5.232 -19.188   5.246  1.00  0.00     0.214 C 
ATOM     29  O   UNL     1       5.420 -19.194   7.687  1.00  0.00    -0.332 OA
ATOM     30  C   UNL     1       4.150 -20.277   5.309  1.00  0.00     0.180 C 
ATOM     31  C   UNL     1       4.356 -20.124   7.824  1.00  0.00     0.179 C 
ATOM     32  C   UNL     1       4.298 -21.085   6.610  1.00  0.00     0.177 C 
BRANCH  28  33
ATOM     33  O   UNL     1       5.013 -18.338   4.149  1.00  0.00    -0.384 OA
ATOM     34  H   UNL     1       4.093 -17.977   4.248  1.00  0.00     0.211 HD
ENDBRANCH  28  33
BRANCH  30  35
ATOM     35  O   UNL     1       2.876 -19.685   5.235  1.00  0.00    -0.387 OA
ATOM     36  H   UNL     1       2.637 -19.621   4.274  1.00  0.00     0.211 HD
ENDBRANCH  30  35
BRANCH  31  37
ATOM     37  C   UNL     1       4.571 -20.888   9.142  1.00  0.00     0.191 C 
BRANCH  37  38
ATOM     38  O   UNL     1       5.270 -20.117  10.081  1.00  0.00    -0.394 OA
ATOM     39  H   UNL     1       6.085 -20.628  10.321  1.00  0.00     0.210 HD
ENDBRANCH  37  38
ENDBRANCH  31  37
BRANCH  32  40
ATOM     40  O   UNL     1       3.202 -21.960   6.735  1.00  0.00    -0.387 OA
ATOM     41  H   UNL     1       3.347 -22.713   6.104  1.00  0.00     0.211 HD
ENDBRANCH  32  40
ENDBRANCH   1  27
TORSDOF 12
ENDMDL
MODEL 4
REMARK VINA RESULT:    -4.556      1.353      2.733
REMARK INTER + INTRA:          -6.382
REMARK INTER:                  -5.353
REMARK INTRA:                  -1.028
REMARK UNBOUND:                 0.305
REMARK SMILES O=c1c(O[C@H]2O[C@H](CO)[C@@H](O)[C@@H](O)[C@H]2O)c(-c2ccc(O)c(O)c2)oc2cc(O)cc(O)c12
REMARK SMILES IDX 4 1 3 2 16 3 25 4 2 5 26 6 1 7 33 8 27 9 31 10 28 11 30 12
REMARK SMILES IDX 17 13 18 14 19 15 20 16 24 17 22 18 21 19 23 21 32 23 29 25
REMARK SMILES IDX 5 27 14 28 6 29 12 30 7 31 10 32 15 33 13 35 8 37 9 38 11 40
REMARK H PARENT 21 20 23 22 32 24 29 26 15 34 13 36 9 39 11 41
REMARK Flexibility Score: inf
ROOT
ATOM      1  O   UNL     1       4.120 -17.716   6.483  1.00  0.00    -0.454 OA
ENDROOT
BRANCH   1   2
ATOM      2  C   UNL     1       4.206 -16.321   6.624  1.00  0.00     0.214 A 
ATOM      3  C   UNL     1       4.329 -15.751   7.904  1.00  0.00     0.180 A 
ATOM      4  O   UNL     1       4.522 -14.446   8.031  1.00  0.00    -0.452 OA
ATOM      5  C   UNL     1       4.170 -15.467   5.507  1.00  0.00     0.239 A 
ATOM      6  C   UNL     1       4.553 -13.607   7.004  1.00  0.00     0.146 A 
ATOM      7  O   UNL     1       3.976 -15.966   4.370  1.00  0.00    -0.285 OA
ATOM      8  C   UNL     1       4.342 -14.069   5.677  1.00  0.00     0.111 A 
ATOM      9  C   UNL     1       4.796 -12.255   7.258  1.00  0.00     0.094 A 
ATOM     10  C   UNL     1       4.338 -13.108   4.618  1.00  0.00     0.134 A 
ATOM     11  C   UNL     1       4.837 -11.334   6.211  1.00  0.00     0.123 A 
ATOM     12  C   UNL     1       4.610 -11.763   4.905  1.00  0.00     0.093 A 
BRANCH   3  13
ATOM     13  C   UNL     1       4.292 -16.571   9.133  1.00  0.00     0.025 A 
ATOM     14  C   UNL     1       3.338 -17.589   9.302  1.00  0.00     0.016 A 
ATOM     15  C   UNL     1       3.354 -18.384  10.452  1.00  0.00     0.051 A 
ATOM     16  C   UNL     1       4.308 -18.160  11.454  1.00  0.00     0.157 A 
ATOM     17  C   UNL     1       5.226 -16.329  10.153  1.00  0.00     0.062 A 
ATOM     18  C   UNL     1       5.244 -17.122  11.304  1.00  0.00     0.158 A 
BRANCH  16  19
ATOM     19  O   UNL     1       4.331 -18.966  12.592  1.00  0.00    -0.504 OA
ATOM     20  H   UNL     1       4.670 -18.616  13.481  1.00  0.00     0.293 HD
ENDBRANCH  16  19
BRANCH  18  21
ATOM     21  O   UNL     1       6.204 -16.871  12.284  1.00  0.00    -0.504 OA
ATOM     22  H   UNL     1       5.971 -16.828  13.269  1.00  0.00     0.293 HD
ENDBRANCH  18  21
ENDBRANCH   3  13
BRANCH  10  23
ATOM     23  O   UNL     1       4.063 -13.407   3.280  1.00  0.00    -0.507 OA
ATOM     24  H   UNL     1       4.640 -13.153   2.491  1.00  0.00     0.293 HD
ENDBRANCH  10  23
BRANCH  11  25
ATOM     25  O   UNL     1       5.098  -9.989   6.458  1.00  0.00    -0.508 OA
ATOM     26  H   UNL     1       4.791  -9.541   7.313  1.00  0.00     0.293 HD
ENDBRANCH  11  25
ENDBRANCH   1   2
BRANCH   1  27
ATOM     27  C   UNL     1       5.264 -18.572   6.352  1.00  0.00     0.339 C 
ATOM     28  C   UNL     1       5.245 -19.328   5.010  1.00  0.00     0.214 C 
ATOM     29  O   UNL     1       5.367 -19.468   7.451  1.00  0.00    -0.332 OA
ATOM     30  C   UNL     1       4.128 -20.383   4.988  1.00  0.00     0.180 C 
ATOM     31  C   UNL     1       4.270 -20.369   7.511  1.00  0.00     0.179 C 
ATOM     32  C   UNL     1       4.215 -21.263   6.247  1.00  0.00     0.177 C 
BRANCH  28  33
ATOM     33  O   UNL     1       5.082 -18.416   3.955  1.00  0.00    -0.384 OA
ATOM     34  H   UNL     1       5.765 -17.705   4.084  1.00  0.00     0.211 HD
ENDBRANCH  28  33
BRANCH  30  35
ATOM     35  O   UNL     1       2.875 -19.747   4.914  1.00  0.00    -0.387 OA
ATOM     36  H   UNL     1       2.512 -19.919   4.006  1.00  0.00     0.211 HD
ENDBRANCH  30  35
BRANCH  31  37
ATOM     37  C   UNL     1       4.426 -21.208   8.792  1.00  0.00     0.191 C 
BRANCH  37  38
ATOM     38  O   UNL     1       5.510 -20.774   9.569  1.00  0.00    -0.394 OA
ATOM     39  H   UNL     1       5.144 -20.148  10.245  1.00  0.00     0.210 HD
ENDBRANCH  37  38
ENDBRANCH  31  37
BRANCH  32  40
ATOM     40  O   UNL     1       3.090 -22.107   6.298  1.00  0.00    -0.387 OA
ATOM     41  H   UNL     1       3.365 -22.945   6.754  1.00  0.00     0.211 HD
ENDBRANCH  32  40
ENDBRANCH   1  27
TORSDOF 12
ENDMDL
MODEL 5
REMARK VINA RESULT:    -2.647      1.738      2.433
REMARK INTER + INTRA:          -3.580
REMARK INTER:                  -3.664
REMARK INTRA:                   0.084
REMARK UNBOUND:                 0.305
REMARK SMILES O=c1c(O[C@H]2O[C@H](CO)[C@@H](O)[C@@H](O)[C@H]2O)c(-c2ccc(O)c(O)c2)oc2cc(O)cc(O)c12
REMARK SMILES IDX 4 1 3 2 16 3 25 4 2 5 26 6 1 7 33 8 27 9 31 10 28 11 30 12
REMARK SMILES IDX 17 13 18 14 19 15 20 16 24 17 22 18 21 19 23 21 32 23 29 25
REMARK SMILES IDX 5 27 14 28 6 29 12 30 7 31 10 32 15 33 13 35 8 37 9 38 11 40
REMARK H PARENT 21 20 23 22 32 24 29 26 15 34 13 36 9 39 11 41
REMARK Flexibility Score: inf
ROOT
ATOM      1  O   UNL     1       4.300 -16.243   6.308  1.00  0.00    -0.454 OA
ENDROOT
BRANCH   1   2
ATOM      2  C   UNL     1       4.279 -14.839   6.334  1.00  0.00     0.214 A 
ATOM      3  C   UNL     1       4.567 -14.155   7.529  1.00  0.00     0.180 A 
ATOM      4  O   UNL     1       4.657 -12.833   7.529  1.00  0.00    -0.452 OA
ATOM      5  C   UNL     1       3.972 -14.088   5.185  1.00  0.00     0.239 A 
ATOM      6  C   UNL     1       4.433 -12.084   6.457  1.00  0.00     0.146 A 
ATOM      7  O   UNL     1       3.633 -14.695   4.138  1.00  0.00    -0.285 OA
ATOM      8  C   UNL     1       4.040 -12.671   5.225  1.00  0.00     0.111 A 
ATOM      9  C   UNL     1       4.589 -10.701   6.570  1.00  0.00     0.094 A 
ATOM     10  C   UNL     1       3.765 -11.807   4.119  1.00  0.00     0.134 A 
ATOM     11  C   UNL     1       4.364  -9.871   5.471  1.00  0.00     0.123 A 
ATOM     12  C   UNL     1       3.955 -10.425   4.259  1.00  0.00     0.093 A 
BRANCH   3  13
ATOM     13  C   UNL     1       4.818 -14.869   8.798  1.00  0.00     0.025 A 
ATOM     14  C   UNL     1       6.100 -14.906   9.373  1.00  0.00     0.016 A 
ATOM     15  C   UNL     1       6.304 -15.546  10.598  1.00  0.00     0.051 A 
ATOM     16  C   UNL     1       5.235 -16.173  11.256  1.00  0.00     0.157 A 
ATOM     17  C   UNL     1       3.758 -15.525   9.442  1.00  0.00     0.062 A 
ATOM     18  C   UNL     1       3.958 -16.167  10.669  1.00  0.00     0.158 A 
BRANCH  16  19
ATOM     19  O   UNL     1       5.439 -16.796  12.486  1.00  0.00    -0.504 OA
ATOM     20  H   UNL     1       5.164 -17.759  12.644  1.00  0.00     0.293 HD
ENDBRANCH  16  19
BRANCH  18  21
ATOM     21  O   UNL     1       2.875 -16.784  11.294  1.00  0.00    -0.504 OA
ATOM     22  H   UNL     1       2.616 -16.576  12.252  1.00  0.00     0.293 HD
ENDBRANCH  18  21
ENDBRANCH   3  13
BRANCH  10  23
ATOM     23  O   UNL     1       3.293 -12.239   2.876  1.00  0.00    -0.507 OA
ATOM     24  H   UNL     1       3.425 -11.757   1.999  1.00  0.00     0.293 HD
ENDBRANCH  10  23
BRANCH  11  25
ATOM     25  O   UNL     1       4.537  -8.493   5.574  1.00  0.00    -0.508 OA
ATOM     26  H   UNL     1       4.823  -8.061   6.445  1.00  0.00     0.293 HD
ENDBRANCH  11  25
ENDBRANCH   1   2
BRANCH   1  27
ATOM     27  C   UNL     1       3.166 -17.048   5.956  1.00  0.00     0.339 C 
ATOM     28  C   UNL     1       2.935 -18.169   6.988  1.00  0.00     0.214 C 
ATOM     29  O   UNL     1       3.293 -17.572   4.641  1.00  0.00    -0.332 OA
ATOM     30  C   UNL     1       4.042 -19.231   6.905  1.00  0.00     0.180 C 
ATOM     31  C   UNL     1       4.394 -18.462   4.523  1.00  0.00     0.179 C 
ATOM     32  C   UNL     1       4.215 -19.693   5.448  1.00  0.00     0.177 C 
BRANCH  28  33
ATOM     33  O   UNL     1       2.875 -17.619   8.279  1.00  0.00    -0.384 OA
ATOM     34  H   UNL     1       3.692 -17.923   8.757  1.00  0.00     0.211 HD
ENDBRANCH  28  33
BRANCH  30  35
ATOM     35  O   UNL     1       5.247 -18.702   7.403  1.00  0.00    -0.387 OA
ATOM     36  H   UNL     1       5.379 -17.818   6.972  1.00  0.00     0.211 HD
ENDBRANCH  30  35
BRANCH  31  37
ATOM     37  C   UNL     1       4.503 -18.876   3.045  1.00  0.00     0.191 C 
BRANCH  37  38
ATOM     38  O   UNL     1       4.312 -20.255   2.876  1.00  0.00    -0.394 OA
ATOM     39  H   UNL     1       4.526 -20.459   1.930  1.00  0.00     0.210 HD
ENDBRANCH  37  38
ENDBRANCH  31  37
BRANCH  32  40
ATOM     40  O   UNL     1       5.341 -20.533   5.361  1.00  0.00    -0.387 OA
ATOM     41  H   UNL     1       6.148 -19.955   5.378  1.00  0.00     0.211 HD
ENDBRANCH  32  40
ENDBRANCH   1  27
TORSDOF 12
ENDMDL
