MODEL 1
REMARK VINA RESULT:    80.326      0.000      0.000
REMARK INTER + INTRA:         106.932
REMARK INTER:                 108.501
REMARK INTRA:                  -1.569
REMARK UNBOUND:                -1.569
REMARK SMILES CC[C@@H](CC[C@H](C)[C@H]1CC[C@@H]2[C@@H]3CC(=O)C4=CC(=O)CC[C@@]4(C)[C@@H]3CC[C@@]21C)C(C)C
REMARK SMILES IDX 4 1 3 2 2 3 1 4 29 5 30 6 31 7 5 8 6 9 7 10 8 11 9 12 27 13
REMARK SMILES IDX 10 14 11 15 26 16 28 17 12 18 25 19 24 20 13 21 22 22 14 23
REMARK SMILES IDX 16 24 21 25 23 26 15 27 17 28 20 29 18 30 19 31
REMARK H PARENT
REMARK Flexibility Score: inf
ROOT
ATOM      1  C   UNL     1       6.377 -23.894  11.335  1.00  0.00     0.004 C 
ENDROOT
BRANCH   1   2
ATOM      2  C   UNL     1       7.782 -23.309  10.972  1.00  0.00    -0.009 C 
BRANCH   2   3
ATOM      3  C   UNL     1       8.545 -24.264  10.006  1.00  0.00     0.000 C 
ATOM      4  C   UNL     1       9.124 -23.569   8.771  1.00  0.00     0.004 C 
ENDBRANCH   2   3
BRANCH   2   5
ATOM      5  C   UNL     1       8.599 -23.004  12.280  1.00  0.00    -0.014 C 
ATOM      6  C   UNL     1       9.125 -24.304  12.919  1.00  0.00     0.007 C 
ATOM      7  C   UNL     1       7.802 -22.232  13.348  1.00  0.00     0.007 C 
ENDBRANCH   2   5
ENDBRANCH   1   2
BRANCH   1   8
ATOM      8  C   UNL     1       6.000 -25.120  10.471  1.00  0.00     0.004 C 
BRANCH   8   9
ATOM      9  C   UNL     1       5.072 -24.780   9.261  1.00  0.00    -0.011 C 
ATOM     10  C   UNL     1       5.822 -24.787   7.916  1.00  0.00     0.008 C 
BRANCH   9  11
ATOM     11  C   UNL     1       4.132 -23.516   9.402  1.00  0.00    -0.002 C 
ATOM     12  C   UNL     1       4.539 -22.328   8.496  1.00  0.00     0.005 C 
ATOM     13  C   UNL     1       2.566 -23.609   9.298  1.00  0.00    -0.026 C 
ATOM     14  C   UNL     1       3.251 -21.616   8.075  1.00  0.00     0.005 C 
ATOM     15  C   UNL     1       2.148 -22.133   9.003  1.00  0.00    -0.001 C 
ATOM     16  C   UNL     1       1.838 -24.173  10.558  1.00  0.00     0.007 C 
ATOM     17  C   UNL     1       2.123 -24.492   8.103  1.00  0.00     0.012 C 
ATOM     18  C   UNL     1       1.905 -21.195  10.249  1.00  0.00     0.004 C 
ATOM     19  C   UNL     1       1.750 -23.219  11.746  1.00  0.00     0.005 C 
ATOM     20  C   UNL     1       1.054 -21.896  11.341  1.00  0.00     0.003 C 
ATOM     21  C   UNL     1       3.158 -20.532  10.885  1.00  0.00     0.085 C 
ATOM     22  C   UNL     1       0.641 -20.925  12.549  1.00  0.00    -0.000 C 
ATOM     23  C   UNL     1       2.760 -19.556  11.947  1.00  0.00     0.159 C 
ATOM     24  C   UNL     1       1.395 -19.590  12.503  1.00  0.00     0.005 C 
ATOM     25  C   UNL     1      -0.891 -20.640  12.434  1.00  0.00     0.020 C 
ATOM     26  C   UNL     1       0.928 -21.543  13.946  1.00  0.00     0.017 C 
ATOM     27  O   UNL     1       3.600 -18.702  12.346  1.00  0.00    -0.295 OA
ATOM     28  C   UNL     1       0.860 -18.463  13.009  1.00  0.00     0.055 C 
ATOM     29  C   UNL     1      -1.408 -19.618  13.457  1.00  0.00     0.081 C 
ATOM     30  C   UNL     1      -0.517 -18.415  13.523  1.00  0.00     0.156 C 
ATOM     31  O   UNL     1      -0.948 -17.353  14.048  1.00  0.00    -0.295 OA
ENDBRANCH   9  11
ENDBRANCH   8   9
ENDBRANCH   1   8
TORSDOF 6
ENDMDL
MODEL 2
REMARK VINA RESULT:    80.468      1.787      2.846
REMARK INTER + INTRA:         107.124
REMARK INTER:                 104.862
REMARK INTRA:                   2.263
REMARK UNBOUND:                -1.569
REMARK SMILES CC[C@@H](CC[C@H](C)[C@H]1CC[C@@H]2[C@@H]3CC(=O)C4=CC(=O)CC[C@@]4(C)[C@@H]3CC[C@@]21C)C(C)C
REMARK SMILES IDX 4 1 3 2 2 3 1 4 29 5 30 6 31 7 5 8 6 9 7 10 8 11 9 12 27 13
REMARK SMILES IDX 10 14 11 15 26 16 28 17 12 18 25 19 24 20 13 21 22 22 14 23
REMARK SMILES IDX 16 24 21 25 23 26 15 27 17 28 20 29 18 30 19 31
REMARK H PARENT
REMARK Flexibility Score: inf
ROOT
ATOM      1  C   UNL     1       7.138 -22.711  13.204  1.00  0.00     0.004 C 
ENDROOT
BRANCH   1   2
ATOM      2  C   UNL     1       8.243 -22.287  14.229  1.00  0.00    -0.009 C 
BRANCH   2   3
ATOM      3  C   UNL     1       9.111 -21.127  13.656  1.00  0.00     0.000 C 
ATOM      4  C   UNL     1       9.026 -20.979  12.134  1.00  0.00     0.004 C 
ENDBRANCH   2   3
BRANCH   2   5
ATOM      5  C   UNL     1       9.108 -23.534  14.642  1.00  0.00    -0.014 C 
ATOM      6  C   UNL     1       9.079 -24.615  13.544  1.00  0.00     0.007 C 
ATOM      7  C   UNL     1       8.671 -24.184  15.968  1.00  0.00     0.007 C 
ENDBRANCH   2   5
ENDBRANCH   1   2
BRANCH   1   8
ATOM      8  C   UNL     1       7.214 -24.210  12.833  1.00  0.00     0.004 C 
BRANCH   8   9
ATOM      9  C   UNL     1       6.694 -24.532  11.395  1.00  0.00    -0.011 C 
ATOM     10  C   UNL     1       7.835 -24.689  10.373  1.00  0.00     0.008 C 
BRANCH   9  11
ATOM     11  C   UNL     1       5.520 -23.635  10.830  1.00  0.00    -0.002 C 
ATOM     12  C   UNL     1       5.980 -22.244  10.329  1.00  0.00     0.005 C 
ATOM     13  C   UNL     1       4.499 -24.155   9.755  1.00  0.00    -0.026 C 
ATOM     14  C   UNL     1       5.087 -21.871   9.143  1.00  0.00     0.005 C 
ATOM     15  C   UNL     1       3.897 -22.834   9.178  1.00  0.00    -0.001 C 
ATOM     16  C   UNL     1       3.386 -25.112  10.287  1.00  0.00     0.007 C 
ATOM     17  C   UNL     1       5.214 -24.912   8.605  1.00  0.00     0.012 C 
ATOM     18  C   UNL     1       2.643 -22.233   9.925  1.00  0.00     0.004 C 
ATOM     19  C   UNL     1       2.274 -24.440  11.088  1.00  0.00     0.005 C 
ATOM     20  C   UNL     1       1.592 -23.324  10.258  1.00  0.00     0.003 C 
ATOM     21  C   UNL     1       2.925 -21.357  11.177  1.00  0.00     0.085 C 
ATOM     22  C   UNL     1       0.229 -22.735  10.865  1.00  0.00    -0.000 C 
ATOM     23  C   UNL     1       1.662 -20.732  11.682  1.00  0.00     0.159 C 
ATOM     24  C   UNL     1       0.355 -21.252  11.237  1.00  0.00     0.005 C 
ATOM     25  C   UNL     1      -0.885 -22.888   9.781  1.00  0.00     0.020 C 
ATOM     26  C   UNL     1      -0.226 -23.473  12.155  1.00  0.00     0.017 C 
ATOM     27  O   UNL     1       1.732 -19.754  12.476  1.00  0.00    -0.295 OA
ATOM     28  C   UNL     1      -0.711 -20.430  11.219  1.00  0.00     0.055 C 
ATOM     29  C   UNL     1      -2.224 -22.248  10.177  1.00  0.00     0.081 C 
ATOM     30  C   UNL     1      -2.027 -20.869  10.730  1.00  0.00     0.156 C 
ATOM     31  O   UNL     1      -3.009 -20.081  10.797  1.00  0.00    -0.295 OA
ENDBRANCH   9  11
ENDBRANCH   8   9
ENDBRANCH   1   8
TORSDOF 6
ENDMDL
MODEL 3
REMARK VINA RESULT:    80.496      1.719      2.928
REMARK INTER + INTRA:         107.162
REMARK INTER:                 106.141
REMARK INTRA:                   1.021
REMARK UNBOUND:                -1.569
REMARK SMILES CC[C@@H](CC[C@H](C)[C@H]1CC[C@@H]2[C@@H]3CC(=O)C4=CC(=O)CC[C@@]4(C)[C@@H]3CC[C@@]21C)C(C)C
REMARK SMILES IDX 4 1 3 2 2 3 1 4 29 5 30 6 31 7 5 8 6 9 7 10 8 11 9 12 27 13
REMARK SMILES IDX 10 14 11 15 26 16 28 17 12 18 25 19 24 20 13 21 22 22 14 23
REMARK SMILES IDX 16 24 21 25 23 26 15 27 17 28 20 29 18 30 19 31
REMARK H PARENT
REMARK Flexibility Score: inf
ROOT
ATOM      1  C   UNL     1       5.502 -24.033   8.452  1.00  0.00     0.004 C 
ENDROOT
BRANCH   1   2
ATOM      2  C   UNL     1       6.913 -24.651   8.171  1.00  0.00    -0.009 C 
BRANCH   2   3
ATOM      3  C   UNL     1       7.787 -24.639   9.460  1.00  0.00     0.000 C 
ATOM      4  C   UNL     1       6.978 -24.637  10.760  1.00  0.00     0.004 C 
ENDBRANCH   2   3
BRANCH   2   5
ATOM      5  C   UNL     1       7.605 -23.904   6.972  1.00  0.00    -0.014 C 
ATOM      6  C   UNL     1       9.097 -24.278   6.875  1.00  0.00     0.007 C 
ATOM      7  C   UNL     1       7.499 -22.369   7.049  1.00  0.00     0.007 C 
ENDBRANCH   2   5
ENDBRANCH   1   2
BRANCH   1   8
ATOM      8  C   UNL     1       4.467 -25.091   8.898  1.00  0.00     0.004 C 
BRANCH   8   9
ATOM      9  C   UNL     1       3.500 -24.596  10.020  1.00  0.00    -0.011 C 
ATOM     10  C   UNL     1       2.064 -25.125   9.844  1.00  0.00     0.008 C 
BRANCH   9  11
ATOM     11  C   UNL     1       3.518 -23.053  10.364  1.00  0.00    -0.002 C 
ATOM     12  C   UNL     1       4.921 -22.406  10.271  1.00  0.00     0.005 C 
ATOM     13  C   UNL     1       2.534 -22.024   9.698  1.00  0.00    -0.026 C 
ATOM     14  C   UNL     1       4.727 -20.967   9.789  1.00  0.00     0.005 C 
ATOM     15  C   UNL     1       3.237 -20.653   9.953  1.00  0.00    -0.001 C 
ATOM     16  C   UNL     1       1.073 -22.034  10.246  1.00  0.00     0.007 C 
ATOM     17  C   UNL     1       2.429 -22.244   8.166  1.00  0.00     0.012 C 
ATOM     18  C   UNL     1       2.910 -19.923  11.314  1.00  0.00     0.004 C 
ATOM     19  C   UNL     1       0.885 -21.395  11.619  1.00  0.00     0.005 C 
ATOM     20  C   UNL     1       1.390 -19.930  11.621  1.00  0.00     0.003 C 
ATOM     21  C   UNL     1       3.715 -20.375  12.564  1.00  0.00     0.085 C 
ATOM     22  C   UNL     1       0.994 -19.055  12.906  1.00  0.00    -0.000 C 
ATOM     23  C   UNL     1       3.412 -19.494  13.735  1.00  0.00     0.159 C 
ATOM     24  C   UNL     1       2.224 -18.620  13.711  1.00  0.00     0.005 C 
ATOM     25  C   UNL     1       0.244 -17.780  12.406  1.00  0.00     0.020 C 
ATOM     26  C   UNL     1       0.070 -19.820  13.895  1.00  0.00     0.017 C 
ATOM     27  O   UNL     1       4.190 -19.500  14.729  1.00  0.00    -0.295 OA
ATOM     28  C   UNL     1       2.223 -17.488  14.439  1.00  0.00     0.055 C 
ATOM     29  C   UNL     1      -0.088 -16.780  13.523  1.00  0.00     0.081 C 
ATOM     30  C   UNL     1       1.096 -16.543  14.412  1.00  0.00     0.156 C 
ATOM     31  O   UNL     1       1.114 -15.531  15.163  1.00  0.00    -0.295 OA
ENDBRANCH   9  11
ENDBRANCH   8   9
ENDBRANCH   1   8
TORSDOF 6
ENDMDL
