MODEL 1
REMARK VINA RESULT:    -5.243      0.000      0.000
REMARK INTER + INTRA:          -6.444
REMARK INTER:                  -6.163
REMARK INTRA:                  -0.281
REMARK UNBOUND:                -0.281
REMARK SMILES C=C[C@@]1(C)CC[C@H](C(=C)C)C[C@H]1C(=C)C
REMARK SMILES IDX 7 1 6 2 5 3 3 4 12 5 11 6 4 7 8 8 10 9 9 10 13 11 14 12
REMARK SMILES IDX 15 13 2 14 1 15
REMARK H PARENT
REMARK Flexibility Score: inf
ROOT
ATOM      1  C   UNL     1       9.084  51.651  23.896  1.00  0.00     0.015 C 
ATOM      2  C   UNL     1       9.877  52.120  25.125  1.00  0.00     0.009 C 
ATOM      3  C   UNL     1      11.321  52.484  24.754  1.00  0.00     0.012 C 
ATOM      4  C   UNL     1      12.096  51.334  24.040  1.00  0.00    -0.008 C 
ATOM      5  C   UNL     1      11.258  50.705  22.858  1.00  0.00     0.024 C 
ATOM      6  C   UNL     1       9.772  50.450  23.218  1.00  0.00     0.017 C 
ATOM      7  C   UNL     1      12.421  50.240  25.093  1.00  0.00     0.016 C 
ENDROOT
BRANCH   1   8
ATOM      8  C   UNL     1       7.641  51.323  24.264  1.00  0.00    -0.077 C 
ATOM      9  C   UNL     1       6.512  52.157  23.713  1.00  0.00     0.039 C 
ATOM     10  C   UNL     1       7.341  50.298  25.081  1.00  0.00     0.008 C 
ENDBRANCH   1   8
BRANCH   5  11
ATOM     11  C   UNL     1      11.404  51.381  21.485  1.00  0.00    -0.077 C 
ATOM     12  C   UNL     1      12.309  50.997  20.570  1.00  0.00     0.008 C 
ATOM     13  C   UNL     1      10.503  52.539  21.124  1.00  0.00     0.039 C 
ENDBRANCH   5  11
BRANCH   4  14
ATOM     14  C   UNL     1      13.424  51.896  23.535  1.00  0.00    -0.028 C 
ATOM     15  C   UNL     1      14.542  51.903  24.272  1.00  0.00     0.004 C 
ENDBRANCH   4  14
TORSDOF 3
ENDMDL
MODEL 2
REMARK VINA RESULT:    -4.979      2.617      5.167
REMARK INTER + INTRA:          -6.133
REMARK INTER:                  -5.673
REMARK INTRA:                  -0.460
REMARK UNBOUND:                -0.281
REMARK SMILES C=C[C@@]1(C)CC[C@H](C(=C)C)C[C@H]1C(=C)C
REMARK SMILES IDX 7 1 6 2 5 3 3 4 12 5 11 6 4 7 8 8 10 9 9 10 13 11 14 12
REMARK SMILES IDX 15 13 2 14 1 15
REMARK H PARENT
REMARK Flexibility Score: inf
ROOT
ATOM      1  C   UNL     1       9.056  51.935  22.678  1.00  0.00     0.015 C 
ATOM      2  C   UNL     1       7.590  51.499  22.531  1.00  0.00     0.009 C 
ATOM      3  C   UNL     1       7.161  51.469  21.059  1.00  0.00     0.012 C 
ATOM      4  C   UNL     1       7.382  52.821  20.311  1.00  0.00    -0.008 C 
ATOM      5  C   UNL     1       8.832  53.398  20.556  1.00  0.00     0.024 C 
ATOM      6  C   UNL     1       9.291  53.314  22.034  1.00  0.00     0.017 C 
ATOM      7  C   UNL     1       6.321  53.835  20.817  1.00  0.00     0.016 C 
ENDROOT
BRANCH   1   8
ATOM      8  C   UNL     1       9.488  51.929  24.141  1.00  0.00    -0.077 C 
ATOM      9  C   UNL     1      10.904  52.286  24.514  1.00  0.00     0.039 C 
ATOM     10  C   UNL     1       8.628  51.607  25.124  1.00  0.00     0.008 C 
ENDBRANCH   1   8
BRANCH   5  11
ATOM     11  C   UNL     1       9.928  52.918  19.589  1.00  0.00    -0.077 C 
ATOM     12  C   UNL     1      10.486  51.698  19.660  1.00  0.00     0.008 C 
ATOM     13  C   UNL     1      10.421  53.842  18.502  1.00  0.00     0.039 C 
ENDBRANCH   5  11
BRANCH   4  14
ATOM     14  C   UNL     1       7.125  52.589  18.823  1.00  0.00    -0.028 C 
ATOM     15  C   UNL     1       5.968  52.113  18.346  1.00  0.00     0.004 C 
ENDBRANCH   4  14
TORSDOF 3
ENDMDL
MODEL 3
REMARK VINA RESULT:    -4.859      2.889      5.069
REMARK INTER + INTRA:          -5.992
REMARK INTER:                  -5.633
REMARK INTRA:                  -0.360
REMARK UNBOUND:                -0.281
REMARK SMILES C=C[C@@]1(C)CC[C@H](C(=C)C)C[C@H]1C(=C)C
REMARK SMILES IDX 7 1 6 2 5 3 3 4 12 5 11 6 4 7 8 8 10 9 9 10 13 11 14 12
REMARK SMILES IDX 15 13 2 14 1 15
REMARK H PARENT
REMARK Flexibility Score: inf
ROOT
ATOM      1  C   UNL     1       6.837  52.756  20.118  1.00  0.00     0.015 C 
ATOM      2  C   UNL     1       7.711  52.445  18.894  1.00  0.00     0.009 C 
ATOM      3  C   UNL     1       9.065  51.854  19.308  1.00  0.00     0.012 C 
ATOM      4  C   UNL     1       9.862  52.749  20.308  1.00  0.00    -0.008 C 
ATOM      5  C   UNL     1       8.963  53.229  21.515  1.00  0.00     0.024 C 
ATOM      6  C   UNL     1       7.556  53.716  21.084  1.00  0.00     0.017 C 
ATOM      7  C   UNL     1      10.402  53.981  19.533  1.00  0.00     0.016 C 
ENDROOT
BRANCH   1   8
ATOM      8  C   UNL     1       5.479  53.310  19.698  1.00  0.00    -0.077 C 
ATOM      9  C   UNL     1       5.162  53.510  18.238  1.00  0.00     0.039 C 
ATOM     10  C   UNL     1       4.543  53.634  20.608  1.00  0.00     0.008 C 
ENDBRANCH   1   8
BRANCH   5  11
ATOM     11  C   UNL     1       8.895  52.287  22.728  1.00  0.00    -0.077 C 
ATOM     12  C   UNL     1       7.942  51.352  22.879  1.00  0.00     0.008 C 
ATOM     13  C   UNL     1       9.932  52.401  23.820  1.00  0.00     0.039 C 
ENDBRANCH   5  11
BRANCH   4  14
ATOM     14  C   UNL     1      11.069  51.952  20.802  1.00  0.00    -0.028 C 
ATOM     15  C   UNL     1      11.655  50.988  20.080  1.00  0.00     0.004 C 
ENDBRANCH   4  14
TORSDOF 3
ENDMDL
MODEL 4
REMARK VINA RESULT:    -4.812      1.411      2.034
REMARK INTER + INTRA:          -5.937
REMARK INTER:                  -5.599
REMARK INTRA:                  -0.337
REMARK UNBOUND:                -0.281
REMARK SMILES C=C[C@@]1(C)CC[C@H](C(=C)C)C[C@H]1C(=C)C
REMARK SMILES IDX 7 1 6 2 5 3 3 4 12 5 11 6 4 7 8 8 10 9 9 10 13 11 14 12
REMARK SMILES IDX 15 13 2 14 1 15
REMARK H PARENT
REMARK Flexibility Score: inf
ROOT
ATOM      1  C   UNL     1      10.346  52.296  23.019  1.00  0.00     0.015 C 
ATOM      2  C   UNL     1      10.554  52.306  24.541  1.00  0.00     0.009 C 
ATOM      3  C   UNL     1      12.041  52.192  24.903  1.00  0.00     0.012 C 
ATOM      4  C   UNL     1      12.745  50.944  24.287  1.00  0.00    -0.008 C 
ATOM      5  C   UNL     1      12.436  50.795  22.745  1.00  0.00     0.024 C 
ATOM      6  C   UNL     1      10.946  51.027  22.386  1.00  0.00     0.017 C 
ATOM      7  C   UNL     1      12.249  49.683  25.045  1.00  0.00     0.016 C 
ENDROOT
BRANCH   1   8
ATOM      8  C   UNL     1       8.870  52.444  22.665  1.00  0.00    -0.077 C 
ATOM      9  C   UNL     1       8.466  53.046  21.343  1.00  0.00     0.039 C 
ATOM     10  C   UNL     1       7.903  52.050  23.512  1.00  0.00     0.008 C 
ENDBRANCH   1   8
BRANCH   5  11
ATOM     11  C   UNL     1      13.377  51.545  21.787  1.00  0.00    -0.077 C 
ATOM     12  C   UNL     1      13.084  52.746  21.262  1.00  0.00     0.008 C 
ATOM     13  C   UNL     1      14.697  50.923  21.400  1.00  0.00     0.039 C 
ENDBRANCH   5  11
BRANCH   4  14
ATOM     14  C   UNL     1      14.247  51.071  24.538  1.00  0.00    -0.028 C 
ATOM     15  C   UNL     1      14.802  52.139  25.125  1.00  0.00     0.004 C 
ENDBRANCH   4  14
TORSDOF 3
ENDMDL
MODEL 5
REMARK VINA RESULT:    -4.544      1.252      4.134
REMARK INTER + INTRA:          -5.622
REMARK INTER:                  -5.405
REMARK INTRA:                  -0.217
REMARK UNBOUND:                -0.281
REMARK SMILES C=C[C@@]1(C)CC[C@H](C(=C)C)C[C@H]1C(=C)C
REMARK SMILES IDX 7 1 6 2 5 3 3 4 12 5 11 6 4 7 8 8 10 9 9 10 13 11 14 12
REMARK SMILES IDX 15 13 2 14 1 15
REMARK H PARENT
REMARK Flexibility Score: inf
ROOT
ATOM      1  C   UNL     1      10.209  52.008  21.304  1.00  0.00     0.015 C 
ATOM      2  C   UNL     1      11.577  51.311  21.352  1.00  0.00     0.009 C 
ATOM      3  C   UNL     1      11.730  50.468  22.625  1.00  0.00     0.012 C 
ATOM      4  C   UNL     1      11.506  51.272  23.943  1.00  0.00    -0.008 C 
ATOM      5  C   UNL     1      10.184  52.136  23.888  1.00  0.00     0.024 C 
ATOM      6  C   UNL     1       9.992  52.890  22.548  1.00  0.00     0.017 C 
ATOM      7  C   UNL     1      12.731  52.201  24.160  1.00  0.00     0.016 C 
ENDROOT
BRANCH   1   8
ATOM      8  C   UNL     1      10.049  52.817  20.020  1.00  0.00    -0.077 C 
ATOM      9  C   UNL     1      11.243  53.498  19.401  1.00  0.00     0.039 C 
ATOM     10  C   UNL     1       8.854  52.943  19.417  1.00  0.00     0.008 C 
ENDBRANCH   1   8
BRANCH   5  11
ATOM     11  C   UNL     1       8.893  51.432  24.337  1.00  0.00    -0.077 C 
ATOM     12  C   UNL     1       7.971  52.018  25.119  1.00  0.00     0.008 C 
ATOM     13  C   UNL     1       8.625  50.012  23.897  1.00  0.00     0.039 C 
ENDBRANCH   5  11
BRANCH   4  14
ATOM     14  C   UNL     1      11.468  50.281  25.105  1.00  0.00    -0.028 C 
ATOM     15  C   UNL     1      12.148  49.127  25.104  1.00  0.00     0.004 C 
ENDBRANCH   4  14
TORSDOF 3
ENDMDL
MODEL 6
REMARK VINA RESULT:    -4.530      2.898      4.999
REMARK INTER + INTRA:          -5.605
REMARK INTER:                  -5.167
REMARK INTRA:                  -0.438
REMARK UNBOUND:                -0.281
REMARK SMILES C=C[C@@]1(C)CC[C@H](C(=C)C)C[C@H]1C(=C)C
REMARK SMILES IDX 7 1 6 2 5 3 3 4 12 5 11 6 4 7 8 8 10 9 9 10 13 11 14 12
REMARK SMILES IDX 15 13 2 14 1 15
REMARK H PARENT
REMARK Flexibility Score: inf
ROOT
ATOM      1  C   UNL     1       7.864  52.447  22.495  1.00  0.00     0.015 C 
ATOM      2  C   UNL     1       9.281  52.966  22.211  1.00  0.00     0.009 C 
ATOM      3  C   UNL     1       9.393  53.541  20.794  1.00  0.00     0.012 C 
ATOM      4  C   UNL     1       8.968  52.542  19.674  1.00  0.00    -0.008 C 
ATOM      5  C   UNL     1       7.581  51.856  19.992  1.00  0.00     0.024 C 
ATOM      6  C   UNL     1       7.445  51.384  21.462  1.00  0.00     0.017 C 
ATOM      7  C   UNL     1      10.072  51.457  19.546  1.00  0.00     0.016 C 
ENDROOT
BRANCH   1   8
ATOM      8  C   UNL     1       7.749  51.908  23.918  1.00  0.00    -0.077 C 
ATOM      9  C   UNL     1       6.491  52.140  24.716  1.00  0.00     0.039 C 
ATOM     10  C   UNL     1       8.755  51.223  24.491  1.00  0.00     0.008 C 
ENDBRANCH   1   8
BRANCH   5  11
ATOM     11  C   UNL     1       6.326  52.607  19.516  1.00  0.00    -0.077 C 
ATOM     12  C   UNL     1       5.760  53.606  20.212  1.00  0.00     0.008 C 
ATOM     13  C   UNL     1       5.676  52.220  18.209  1.00  0.00     0.039 C 
ENDBRANCH   5  11
BRANCH   4  14
ATOM     14  C   UNL     1       8.915  53.303  18.350  1.00  0.00    -0.028 C 
ATOM     15  C   UNL     1       9.682  52.993  17.297  1.00  0.00     0.004 C 
ENDBRANCH   4  14
TORSDOF 3
ENDMDL
MODEL 7
REMARK VINA RESULT:    -4.527      2.065      3.974
REMARK INTER + INTRA:          -5.602
REMARK INTER:                  -5.043
REMARK INTRA:                  -0.559
REMARK UNBOUND:                -0.281
REMARK SMILES C=C[C@@]1(C)CC[C@H](C(=C)C)C[C@H]1C(=C)C
REMARK SMILES IDX 7 1 6 2 5 3 3 4 12 5 11 6 4 7 8 8 10 9 9 10 13 11 14 12
REMARK SMILES IDX 15 13 2 14 1 15
REMARK H PARENT
REMARK Flexibility Score: inf
ROOT
ATOM      1  C   UNL     1      12.292  51.729  23.149  1.00  0.00     0.015 C 
ATOM      2  C   UNL     1      13.716  52.290  23.277  1.00  0.00     0.009 C 
ATOM      3  C   UNL     1      14.216  52.856  21.942  1.00  0.00     0.012 C 
ATOM      4  C   UNL     1      14.160  51.834  20.764  1.00  0.00    -0.008 C 
ATOM      5  C   UNL     1      12.759  51.108  20.681  1.00  0.00     0.024 C 
ATOM      6  C   UNL     1      12.219  50.644  22.058  1.00  0.00     0.017 C 
ATOM      7  C   UNL     1      15.283  50.784  20.978  1.00  0.00     0.016 C 
ENDROOT
BRANCH   1   8
ATOM      8  C   UNL     1      11.787  51.198  24.488  1.00  0.00    -0.077 C 
ATOM      9  C   UNL     1      12.447  50.002  25.125  1.00  0.00     0.039 C 
ATOM     10  C   UNL     1      10.753  51.775  25.125  1.00  0.00     0.008 C 
ENDBRANCH   1   8
BRANCH   5  11
ATOM     11  C   UNL     1      11.675  51.816  19.851  1.00  0.00    -0.077 C 
ATOM     12  C   UNL     1      11.037  52.922  20.267  1.00  0.00     0.008 C 
ATOM     13  C   UNL     1      11.286  51.258  18.502  1.00  0.00     0.039 C 
ENDBRANCH   5  11
BRANCH   4  14
ATOM     14  C   UNL     1      14.470  52.583  19.469  1.00  0.00    -0.028 C 
ATOM     15  C   UNL     1      14.607  53.914  19.408  1.00  0.00     0.004 C 
ENDBRANCH   4  14
TORSDOF 3
ENDMDL
MODEL 8
REMARK VINA RESULT:    -4.394     16.632     18.910
REMARK INTER + INTRA:          -5.446
REMARK INTER:                  -4.989
REMARK INTRA:                  -0.457
REMARK UNBOUND:                -0.281
REMARK SMILES C=C[C@@]1(C)CC[C@H](C(=C)C)C[C@H]1C(=C)C
REMARK SMILES IDX 7 1 6 2 5 3 3 4 12 5 11 6 4 7 8 8 10 9 9 10 13 11 14 12
REMARK SMILES IDX 15 13 2 14 1 15
REMARK H PARENT
REMARK Flexibility Score: inf
ROOT
ATOM      1  C   UNL     1      16.845  50.744   5.354  1.00  0.00     0.015 C 
ATOM      2  C   UNL     1      15.422  50.245   5.061  1.00  0.00     0.009 C 
ATOM      3  C   UNL     1      14.423  51.407   4.999  1.00  0.00     0.012 C 
ATOM      4  C   UNL     1      14.412  52.296   6.281  1.00  0.00    -0.008 C 
ATOM      5  C   UNL     1      15.871  52.713   6.722  1.00  0.00     0.024 C 
ATOM      6  C   UNL     1      16.891  51.547   6.668  1.00  0.00     0.017 C 
ATOM      7  C   UNL     1      13.728  51.495   7.422  1.00  0.00     0.016 C 
ENDROOT
BRANCH   1   8
ATOM      8  C   UNL     1      17.840  49.587   5.381  1.00  0.00    -0.077 C 
ATOM      9  C   UNL     1      19.210  49.781   5.980  1.00  0.00     0.039 C 
ATOM     10  C   UNL     1      17.526  48.381   4.875  1.00  0.00     0.008 C 
ENDBRANCH   1   8
BRANCH   5  11
ATOM     11  C   UNL     1      16.434  53.994   6.084  1.00  0.00    -0.077 C 
ATOM     12  C   UNL     1      17.031  54.015   4.881  1.00  0.00     0.008 C 
ATOM     13  C   UNL     1      16.329  55.305   6.827  1.00  0.00     0.039 C 
ENDBRANCH   5  11
BRANCH   4  14
ATOM     14  C   UNL     1      13.549  53.526   6.000  1.00  0.00    -0.028 C 
ATOM     15  C   UNL     1      12.774  54.102   6.927  1.00  0.00     0.004 C 
ENDBRANCH   4  14
TORSDOF 3
ENDMDL
MODEL 9
REMARK VINA RESULT:    -3.371     16.270     18.190
REMARK INTER + INTRA:          -4.244
REMARK INTER:                  -3.811
REMARK INTRA:                  -0.433
REMARK UNBOUND:                -0.281
REMARK SMILES C=C[C@@]1(C)CC[C@H](C(=C)C)C[C@H]1C(=C)C
REMARK SMILES IDX 7 1 6 2 5 3 3 4 12 5 11 6 4 7 8 8 10 9 9 10 13 11 14 12
REMARK SMILES IDX 15 13 2 14 1 15
REMARK H PARENT
REMARK Flexibility Score: inf
ROOT
ATOM      1  C   UNL     1      14.744  49.949   7.026  1.00  0.00     0.015 C 
ATOM      2  C   UNL     1      15.715  48.811   7.378  1.00  0.00     0.009 C 
ATOM      3  C   UNL     1      17.175  49.274   7.291  1.00  0.00     0.012 C 
ATOM      4  C   UNL     1      17.560  49.882   5.907  1.00  0.00    -0.008 C 
ATOM      5  C   UNL     1      16.507  50.953   5.419  1.00  0.00     0.024 C 
ATOM      6  C   UNL     1      15.035  50.511   5.622  1.00  0.00     0.017 C 
ATOM      7  C   UNL     1      17.647  48.725   4.875  1.00  0.00     0.016 C 
ENDROOT
BRANCH   1   8
ATOM      8  C   UNL     1      13.294  49.492   7.147  1.00  0.00    -0.077 C 
ATOM      9  C   UNL     1      12.211  50.198   6.370  1.00  0.00     0.039 C 
ATOM     10  C   UNL     1      12.947  48.464   7.942  1.00  0.00     0.008 C 
ENDBRANCH   1   8
BRANCH   5  11
ATOM     11  C   UNL     1      16.739  52.398   5.891  1.00  0.00    -0.077 C 
ATOM     12  C   UNL     1      16.685  52.767   7.181  1.00  0.00     0.008 C 
ATOM     13  C   UNL     1      17.038  53.475   4.875  1.00  0.00     0.039 C 
ENDBRANCH   5  11
BRANCH   4  14
ATOM     14  C   UNL     1      18.955  50.496   6.028  1.00  0.00    -0.028 C 
ATOM     15  C   UNL     1      20.017  49.814   6.475  1.00  0.00     0.004 C 
ENDBRANCH   4  14
TORSDOF 3
ENDMDL
