MODEL 1
REMARK VINA RESULT:    -5.325      0.000      0.000
REMARK INTER + INTRA:          -7.881
REMARK INTER:                  -7.193
REMARK INTRA:                  -0.687
REMARK UNBOUND:                -0.687
REMARK SMILES CC(=O)OCC=C(C)CCC=C(C)C
REMARK SMILES IDX 7 1 6 2 8 3 9 4 10 5 11 6 13 7 12 8 14 9 5 10 4 11 2 12 3 13
REMARK SMILES IDX 1 14
REMARK H PARENT
REMARK Flexibility Score: inf
ROOT
ATOM      1  C   UNL     1      94.416 -61.511 103.262  1.00  0.00    -0.074 C 
ATOM      2  C   UNL     1      94.380 -60.179 103.483  1.00  0.00     0.013 C 
ATOM      3  C   UNL     1      93.238 -62.240 102.660  1.00  0.00     0.039 C 
ENDROOT
BRANCH   1   4
ATOM      4  C   UNL     1      95.663 -62.288 103.620  1.00  0.00     0.034 C 
BRANCH   4   5
ATOM      5  C   UNL     1      96.016 -62.100 105.100  1.00  0.00     0.032 C 
BRANCH   5   6
ATOM      6  C   UNL     1      97.497 -61.867 105.272  1.00  0.00    -0.028 C 
ATOM      7  C   UNL     1      99.551 -60.541 105.655  1.00  0.00     0.039 C 
ATOM      8  C   UNL     1      98.060 -60.654 105.467  1.00  0.00    -0.080 C 
ATOM      9  C   UNL     1      97.248 -59.382 105.461  1.00  0.00     0.039 C 
ENDBRANCH   5   6
ENDBRANCH   4   5
ENDBRANCH   1   4
BRANCH   2  10
ATOM     10  C   UNL     1      93.184 -59.320 103.160  1.00  0.00     0.260 C 
BRANCH  10  11
ATOM     11  O   UNL     1      93.188 -58.953 101.782  1.00  0.00    -0.462 OA
BRANCH  11  12
ATOM     12  C   UNL     1      92.035 -58.934 100.989  1.00  0.00     0.302 C 
ATOM     13  O   UNL     1      91.234 -57.961 101.039  1.00  0.00    -0.253 OA
ATOM     14  C   UNL     1      91.777 -60.053 100.039  1.00  0.00     0.139 C 
ENDBRANCH  11  12
ENDBRANCH  10  11
ENDBRANCH   2  10
TORSDOF 6
ENDMDL
MODEL 2
REMARK VINA RESULT:    -5.271      2.226      3.388
REMARK INTER + INTRA:          -7.808
REMARK INTER:                  -7.348
REMARK INTRA:                  -0.460
REMARK UNBOUND:                -0.687
REMARK SMILES CC(=O)OCC=C(C)CCC=C(C)C
REMARK SMILES IDX 7 1 6 2 8 3 9 4 10 5 11 6 13 7 12 8 14 9 5 10 4 11 2 12 3 13
REMARK SMILES IDX 1 14
REMARK H PARENT
REMARK Flexibility Score: inf
ROOT
ATOM      1  C   UNL     1      93.753 -59.842 103.132  1.00  0.00    -0.074 C 
ATOM      2  C   UNL     1      93.987 -61.040 102.554  1.00  0.00     0.013 C 
ATOM      3  C   UNL     1      92.521 -59.035 102.797  1.00  0.00     0.039 C 
ENDROOT
BRANCH   1   4
ATOM      4  C   UNL     1      94.741 -59.299 104.139  1.00  0.00     0.034 C 
BRANCH   4   5
ATOM      5  C   UNL     1      95.545 -60.436 104.782  1.00  0.00     0.032 C 
BRANCH   5   6
ATOM      6  C   UNL     1      96.920 -59.962 105.180  1.00  0.00    -0.028 C 
ATOM      7  C   UNL     1      99.289 -60.198 105.858  1.00  0.00     0.039 C 
ATOM      8  C   UNL     1      97.946 -60.782 105.503  1.00  0.00    -0.080 C 
ATOM      9  C   UNL     1      97.784 -62.280 105.565  1.00  0.00     0.039 C 
ENDBRANCH   5   6
ENDBRANCH   4   5
ENDBRANCH   1   4
BRANCH   2  10
ATOM     10  C   UNL     1      93.062 -61.664 101.540  1.00  0.00     0.260 C 
BRANCH  10  11
ATOM     11  O   UNL     1      92.963 -63.071 101.751  1.00  0.00    -0.462 OA
BRANCH  11  12
ATOM     12  C   UNL     1      91.984 -63.659 102.559  1.00  0.00     0.302 C 
ATOM     13  O   UNL     1      90.902 -64.075 102.061  1.00  0.00    -0.253 OA
ATOM     14  C   UNL     1      92.244 -63.841 104.015  1.00  0.00     0.139 C 
ENDBRANCH  11  12
ENDBRANCH  10  11
ENDBRANCH   2  10
TORSDOF 6
ENDMDL
MODEL 3
REMARK VINA RESULT:    -5.168      1.062      2.030
REMARK INTER + INTRA:          -7.668
REMARK INTER:                  -7.342
REMARK INTRA:                  -0.326
REMARK UNBOUND:                -0.687
REMARK SMILES CC(=O)OCC=C(C)CCC=C(C)C
REMARK SMILES IDX 7 1 6 2 8 3 9 4 10 5 11 6 13 7 12 8 14 9 5 10 4 11 2 12 3 13
REMARK SMILES IDX 1 14
REMARK H PARENT
REMARK Flexibility Score: inf
ROOT
ATOM      1  C   UNL     1      95.431 -60.090 104.447  1.00  0.00    -0.074 C 
ATOM      2  C   UNL     1      94.550 -59.137 104.071  1.00  0.00     0.013 C 
ATOM      3  C   UNL     1      95.193 -61.548 104.134  1.00  0.00     0.039 C 
ENDROOT
BRANCH   1   4
ATOM      4  C   UNL     1      96.683 -59.688 105.194  1.00  0.00     0.034 C 
BRANCH   4   5
ATOM      5  C   UNL     1      97.559 -60.912 105.486  1.00  0.00     0.032 C 
BRANCH   5   6
ATOM      6  C   UNL     1      98.971 -60.493 105.813  1.00  0.00    -0.028 C 
ATOM      7  C   UNL     1     101.439 -60.682 105.845  1.00  0.00     0.039 C 
ATOM      8  C   UNL     1     100.072 -61.210 105.494  1.00  0.00    -0.080 C 
ATOM      9  C   UNL     1      99.983 -62.561 104.828  1.00  0.00     0.039 C 
ENDBRANCH   5   6
ENDBRANCH   4   5
ENDBRANCH   1   4
BRANCH   2  10
ATOM     10  C   UNL     1      93.276 -59.439 103.324  1.00  0.00     0.260 C 
BRANCH  10  11
ATOM     11  O   UNL     1      93.133 -58.568 102.204  1.00  0.00    -0.462 OA
BRANCH  11  12
ATOM     12  C   UNL     1      92.113 -58.699 101.255  1.00  0.00     0.302 C 
ATOM     13  O   UNL     1      91.268 -57.778 101.087  1.00  0.00    -0.253 OA
ATOM     14  C   UNL     1      92.057 -59.918 100.399  1.00  0.00     0.139 C 
ENDBRANCH  11  12
ENDBRANCH  10  11
ENDBRANCH   2  10
TORSDOF 6
ENDMDL
MODEL 4
REMARK VINA RESULT:    -5.092      2.588      5.526
REMARK INTER + INTRA:          -7.565
REMARK INTER:                  -6.685
REMARK INTRA:                  -0.880
REMARK UNBOUND:                -0.687
REMARK SMILES CC(=O)OCC=C(C)CCC=C(C)C
REMARK SMILES IDX 7 1 6 2 8 3 9 4 10 5 11 6 13 7 12 8 14 9 5 10 4 11 2 12 3 13
REMARK SMILES IDX 1 14
REMARK H PARENT
REMARK Flexibility Score: inf
ROOT
ATOM      1  C   UNL     1      94.313 -62.984 103.073  1.00  0.00    -0.074 C 
ATOM      2  C   UNL     1      95.428 -62.221 103.059  1.00  0.00     0.013 C 
ATOM      3  C   UNL     1      93.893 -63.740 104.312  1.00  0.00     0.039 C 
ENDROOT
BRANCH   1   4
ATOM      4  C   UNL     1      93.466 -63.080 101.824  1.00  0.00     0.034 C 
BRANCH   4   5
ATOM      5  C   UNL     1      92.234 -62.173 101.930  1.00  0.00     0.032 C 
BRANCH   5   6
ATOM      6  C   UNL     1      92.417 -60.925 101.103  1.00  0.00    -0.028 C 
ATOM      7  C   UNL     1      92.943 -58.543 100.684  1.00  0.00     0.039 C 
ATOM      8  C   UNL     1      92.760 -59.719 101.609  1.00  0.00    -0.080 C 
ATOM      9  C   UNL     1      92.927 -59.489 103.090  1.00  0.00     0.039 C 
ENDBRANCH   5   6
ENDBRANCH   4   5
ENDBRANCH   1   4
BRANCH   2  10
ATOM     10  C   UNL     1      96.336 -62.063 104.252  1.00  0.00     0.260 C 
BRANCH  10  11
ATOM     11  O   UNL     1      95.936 -60.944 105.041  1.00  0.00    -0.462 OA
BRANCH  11  12
ATOM     12  C   UNL     1      96.732 -59.808 105.222  1.00  0.00     0.302 C 
ATOM     13  O   UNL     1      97.946 -59.917 105.545  1.00  0.00    -0.253 OA
ATOM     14  C   UNL     1      96.151 -58.457 104.979  1.00  0.00     0.139 C 
ENDBRANCH  11  12
ENDBRANCH  10  11
ENDBRANCH   2  10
TORSDOF 6
ENDMDL
MODEL 5
REMARK VINA RESULT:    -5.053      1.519      2.128
REMARK INTER + INTRA:          -7.514
REMARK INTER:                  -7.043
REMARK INTRA:                  -0.471
REMARK UNBOUND:                -0.687
REMARK SMILES CC(=O)OCC=C(C)CCC=C(C)C
REMARK SMILES IDX 7 1 6 2 8 3 9 4 10 5 11 6 13 7 12 8 14 9 5 10 4 11 2 12 3 13
REMARK SMILES IDX 1 14
REMARK H PARENT
REMARK Flexibility Score: inf
ROOT
ATOM      1  C   UNL     1      94.397 -62.823 103.270  1.00  0.00    -0.074 C 
ATOM      2  C   UNL     1      93.192 -62.272 103.007  1.00  0.00     0.013 C 
ATOM      3  C   UNL     1      95.380 -63.128 102.164  1.00  0.00     0.039 C 
ENDROOT
BRANCH   1   4
ATOM      4  C   UNL     1      94.771 -63.140 104.700  1.00  0.00     0.034 C 
BRANCH   4   5
ATOM      5  C   UNL     1      96.008 -62.342 105.129  1.00  0.00     0.032 C 
BRANCH   5   6
ATOM      6  C   UNL     1      95.749 -60.859 105.032  1.00  0.00    -0.028 C 
ATOM      7  C   UNL     1      96.333 -58.454 105.031  1.00  0.00     0.039 C 
ATOM      8  C   UNL     1      96.699 -59.908 105.176  1.00  0.00    -0.080 C 
ATOM      9  C   UNL     1      98.128 -60.249 105.524  1.00  0.00     0.039 C 
ENDBRANCH   5   6
ENDBRANCH   4   5
ENDBRANCH   1   4
BRANCH   2  10
ATOM     10  C   UNL     1      92.730 -61.922 101.615  1.00  0.00     0.260 C 
BRANCH  10  11
ATOM     11  O   UNL     1      92.944 -60.537 101.349  1.00  0.00    -0.462 OA
BRANCH  11  12
ATOM     12  C   UNL     1      92.050 -59.749 100.616  1.00  0.00     0.302 C 
ATOM     13  O   UNL     1      91.428 -60.229  99.629  1.00  0.00    -0.253 OA
ATOM     14  C   UNL     1      91.792 -58.343 101.038  1.00  0.00     0.139 C 
ENDBRANCH  11  12
ENDBRANCH  10  11
ENDBRANCH   2  10
TORSDOF 6
ENDMDL
MODEL 6
REMARK VINA RESULT:    -4.990      1.742      2.675
REMARK INTER + INTRA:          -7.428
REMARK INTER:                  -6.601
REMARK INTRA:                  -0.827
REMARK UNBOUND:                -0.687
REMARK SMILES CC(=O)OCC=C(C)CCC=C(C)C
REMARK SMILES IDX 7 1 6 2 8 3 9 4 10 5 11 6 13 7 12 8 14 9 5 10 4 11 2 12 3 13
REMARK SMILES IDX 1 14
REMARK H PARENT
REMARK Flexibility Score: inf
ROOT
ATOM      1  C   UNL     1      96.206 -62.601 103.655  1.00  0.00    -0.074 C 
ATOM      2  C   UNL     1      95.596 -62.338 102.479  1.00  0.00     0.013 C 
ATOM      3  C   UNL     1      95.492 -62.408 104.972  1.00  0.00     0.039 C 
ENDROOT
BRANCH   1   4
ATOM      4  C   UNL     1      97.633 -63.104 103.654  1.00  0.00     0.034 C 
BRANCH   4   5
ATOM      5  C   UNL     1      98.178 -63.201 105.084  1.00  0.00     0.032 C 
BRANCH   5   6
ATOM      6  C   UNL     1      99.562 -62.608 105.171  1.00  0.00    -0.028 C 
ATOM      7  C   UNL     1     101.247 -60.846 105.598  1.00  0.00     0.039 C 
ATOM      8  C   UNL     1      99.821 -61.326 105.516  1.00  0.00    -0.080 C 
ATOM      9  C   UNL     1      98.721 -60.329 105.783  1.00  0.00     0.039 C 
ENDBRANCH   5   6
ENDBRANCH   4   5
ENDBRANCH   1   4
BRANCH   2  10
ATOM     10  C   UNL     1      94.179 -61.834 102.378  1.00  0.00     0.260 C 
BRANCH  10  11
ATOM     11  O   UNL     1      94.162 -60.421 102.190  1.00  0.00    -0.462 OA
BRANCH  11  12
ATOM     12  C   UNL     1      93.695 -59.523 103.156  1.00  0.00     0.302 C 
ATOM     13  O   UNL     1      92.485 -59.168 103.176  1.00  0.00    -0.253 OA
ATOM     14  C   UNL     1      94.628 -59.019 104.204  1.00  0.00     0.139 C 
ENDBRANCH  11  12
ENDBRANCH  10  11
ENDBRANCH   2  10
TORSDOF 6
ENDMDL
MODEL 7
REMARK VINA RESULT:    -4.984      3.969      7.107
REMARK INTER + INTRA:          -7.420
REMARK INTER:                  -6.910
REMARK INTRA:                  -0.510
REMARK UNBOUND:                -0.687
REMARK SMILES CC(=O)OCC=C(C)CCC=C(C)C
REMARK SMILES IDX 7 1 6 2 8 3 9 4 10 5 11 6 13 7 12 8 14 9 5 10 4 11 2 12 3 13
REMARK SMILES IDX 1 14
REMARK H PARENT
REMARK Flexibility Score: inf
ROOT
ATOM      1  C   UNL     1      97.840 -60.597 105.475  1.00  0.00    -0.074 C 
ATOM      2  C   UNL     1      97.447 -61.883 105.351  1.00  0.00     0.013 C 
ATOM      3  C   UNL     1      99.255 -60.243 105.868  1.00  0.00     0.039 C 
ENDROOT
BRANCH   1   4
ATOM      4  C   UNL     1      96.846 -59.489 105.212  1.00  0.00     0.034 C 
BRANCH   4   5
ATOM      5  C   UNL     1      95.424 -60.051 105.087  1.00  0.00     0.032 C 
BRANCH   5   6
ATOM      6  C   UNL     1      94.692 -59.405 103.937  1.00  0.00    -0.028 C 
ATOM      7  C   UNL     1      93.255 -59.330 101.923  1.00  0.00     0.039 C 
ATOM      8  C   UNL     1      93.971 -60.082 103.016  1.00  0.00    -0.080 C 
ATOM      9  C   UNL     1      93.887 -61.588 103.012  1.00  0.00     0.039 C 
ENDBRANCH   5   6
ENDBRANCH   4   5
ENDBRANCH   1   4
BRANCH   2  10
ATOM     10  C   UNL     1      98.364 -63.055 105.592  1.00  0.00     0.260 C 
BRANCH  10  11
ATOM     11  O   UNL     1      98.479 -63.322 106.988  1.00  0.00    -0.462 OA
BRANCH  11  12
ATOM     12  C   UNL     1      97.941 -64.461 107.598  1.00  0.00     0.302 C 
ATOM     13  O   UNL     1      98.693 -65.327 108.122  1.00  0.00    -0.253 OA
ATOM     14  C   UNL     1      96.461 -64.626 107.673  1.00  0.00     0.139 C 
ENDBRANCH  11  12
ENDBRANCH  10  11
ENDBRANCH   2  10
TORSDOF 6
ENDMDL
MODEL 8
REMARK VINA RESULT:    -4.948      4.034      7.169
REMARK INTER + INTRA:          -7.371
REMARK INTER:                  -6.675
REMARK INTRA:                  -0.696
REMARK UNBOUND:                -0.687
REMARK SMILES CC(=O)OCC=C(C)CCC=C(C)C
REMARK SMILES IDX 7 1 6 2 8 3 9 4 10 5 11 6 13 7 12 8 14 9 5 10 4 11 2 12 3 13
REMARK SMILES IDX 1 14
REMARK H PARENT
REMARK Flexibility Score: inf
ROOT
ATOM      1  C   UNL     1      97.937 -60.532 105.477  1.00  0.00    -0.074 C 
ATOM      2  C   UNL     1      99.154 -60.138 105.911  1.00  0.00     0.013 C 
ATOM      3  C   UNL     1      97.601 -61.994 105.302  1.00  0.00     0.039 C 
ENDROOT
BRANCH   1   4
ATOM      4  C   UNL     1      96.889 -59.489 105.164  1.00  0.00     0.034 C 
BRANCH   4   5
ATOM      5  C   UNL     1      95.495 -60.123 105.087  1.00  0.00     0.032 C 
BRANCH   5   6
ATOM      6  C   UNL     1      94.612 -59.363 104.128  1.00  0.00    -0.028 C 
ATOM      7  C   UNL     1      93.201 -59.040 102.121  1.00  0.00     0.039 C 
ATOM      8  C   UNL     1      94.095 -59.884 102.993  1.00  0.00    -0.080 C 
ATOM      9  C   UNL     1      94.417 -61.284 102.534  1.00  0.00     0.039 C 
ENDBRANCH   5   6
ENDBRANCH   4   5
ENDBRANCH   1   4
BRANCH   2  10
ATOM     10  C   UNL     1     100.264 -61.101 106.248  1.00  0.00     0.260 C 
BRANCH  10  11
ATOM     11  O   UNL     1     101.163 -61.234 105.150  1.00  0.00    -0.462 OA
BRANCH  11  12
ATOM     12  C   UNL     1     101.410 -62.449 104.501  1.00  0.00     0.302 C 
ATOM     13  O   UNL     1     102.213 -63.289 104.990  1.00  0.00    -0.253 OA
ATOM     14  C   UNL     1     100.676 -62.774 103.245  1.00  0.00     0.139 C 
ENDBRANCH  11  12
ENDBRANCH  10  11
ENDBRANCH   2  10
TORSDOF 6
ENDMDL
MODEL 9
REMARK VINA RESULT:    -4.826      1.458      3.702
REMARK INTER + INTRA:          -7.206
REMARK INTER:                  -6.574
REMARK INTRA:                  -0.632
REMARK UNBOUND:                -0.687
REMARK SMILES CC(=O)OCC=C(C)CCC=C(C)C
REMARK SMILES IDX 7 1 6 2 8 3 9 4 10 5 11 6 13 7 12 8 14 9 5 10 4 11 2 12 3 13
REMARK SMILES IDX 1 14
REMARK H PARENT
REMARK Flexibility Score: inf
ROOT
ATOM      1  C   UNL     1      95.496 -60.594 104.492  1.00  0.00    -0.074 C 
ATOM      2  C   UNL     1      94.424 -60.390 103.697  1.00  0.00     0.013 C 
ATOM      3  C   UNL     1      96.245 -59.438 105.113  1.00  0.00     0.039 C 
ENDROOT
BRANCH   1   4
ATOM      4  C   UNL     1      95.954 -62.008 104.771  1.00  0.00     0.034 C 
BRANCH   4   5
ATOM      5  C   UNL     1      94.834 -63.012 104.473  1.00  0.00     0.032 C 
BRANCH   5   6
ATOM      6  C   UNL     1      95.135 -63.792 103.217  1.00  0.00    -0.028 C 
ATOM      7  C   UNL     1      94.699 -64.695 100.954  1.00  0.00     0.039 C 
ATOM      8  C   UNL     1      94.283 -63.914 102.174  1.00  0.00    -0.080 C 
ATOM      9  C   UNL     1      92.894 -63.327 102.200  1.00  0.00     0.039 C 
ENDBRANCH   5   6
ENDBRANCH   4   5
ENDBRANCH   1   4
BRANCH   2  10
ATOM     10  C   UNL     1      93.892 -59.020 103.360  1.00  0.00     0.260 C 
BRANCH  10  11
ATOM     11  O   UNL     1      92.519 -59.094 102.983  1.00  0.00    -0.462 OA
BRANCH  11  12
ATOM     12  C   UNL     1      92.072 -58.900 101.672  1.00  0.00     0.302 C 
ATOM     13  O   UNL     1      91.372 -57.894 101.372  1.00  0.00    -0.253 OA
ATOM     14  C   UNL     1      92.469 -59.866 100.609  1.00  0.00     0.139 C 
ENDBRANCH  11  12
ENDBRANCH  10  11
ENDBRANCH   2  10
TORSDOF 6
ENDMDL
