MODEL 1
REMARK VINA RESULT:    -3.890      0.000      0.000
REMARK INTER + INTRA:          -9.690
REMARK INTER:                  -7.300
REMARK INTRA:                  -2.389
REMARK UNBOUND:                -2.389
REMARK SMILES O=C([O-])CCCCCCCCCCCCCCC(=O)[O-]
REMARK SMILES IDX 10 1 9 2 8 3 7 4 6 5 5 6 4 7 2 8 1 9 3 10 11 11 12 12 13 13
REMARK SMILES IDX 14 14 15 15 16 16 17 17 18 18 19 19 20 20
REMARK H PARENT
REMARK Flexibility Score: inf
ROOT
ATOM      1  C   UNL     1    -113.481 -40.797 -67.062  1.00  0.00     0.000 C 
ENDROOT
BRANCH   1   2
ATOM      2  C   UNL     1    -114.215 -42.119 -67.350  1.00  0.00     0.000 C 
BRANCH   2   3
ATOM      3  C   UNL     1    -113.634 -42.861 -68.564  1.00  0.00     0.000 C 
BRANCH   3   4
ATOM      4  C   UNL     1    -112.204 -43.375 -68.312  1.00  0.00     0.000 C 
BRANCH   4   5
ATOM      5  C   UNL     1    -111.283 -43.174 -69.526  1.00  0.00     0.000 C 
BRANCH   5   6
ATOM      6  C   UNL     1    -109.906 -42.612 -69.140  1.00  0.00     0.006 C 
BRANCH   6   7
ATOM      7  C   UNL     1    -110.049 -41.356 -68.277  1.00  0.00     0.053 C 
BRANCH   7   8
ATOM      8  C   UNL     1    -108.760 -41.044 -67.584  1.00  0.00     0.041 C 
ATOM      9  O   UNL     1    -107.719 -41.695 -67.861  1.00  0.00    -0.550 OA
ATOM     10  O   UNL     1    -108.720 -40.067 -66.597  1.00  0.00    -0.550 OA
ENDBRANCH   7   8
ENDBRANCH   6   7
ENDBRANCH   5   6
ENDBRANCH   4   5
ENDBRANCH   3   4
ENDBRANCH   2   3
ENDBRANCH   1   2
BRANCH   1  11
ATOM     11  C   UNL     1    -112.809 -40.775 -65.677  1.00  0.00     0.000 C 
BRANCH  11  12
ATOM     12  C   UNL     1    -113.295 -41.855 -64.692  1.00  0.00     0.000 C 
BRANCH  12  13
ATOM     13  C   UNL     1    -112.201 -42.875 -64.334  1.00  0.00     0.000 C 
BRANCH  13  14
ATOM     14  C   UNL     1    -110.834 -42.507 -64.934  1.00  0.00     0.000 C 
BRANCH  14  15
ATOM     15  C   UNL     1    -109.994 -43.741 -65.296  1.00  0.00     0.000 C 
BRANCH  15  16
ATOM     16  C   UNL     1    -108.526 -43.543 -64.891  1.00  0.00     0.006 C 
BRANCH  16  17
ATOM     17  C   UNL     1    -108.346 -42.379 -63.907  1.00  0.00     0.053 C 
BRANCH  17  18
ATOM     18  C   UNL     1    -107.864 -42.851 -62.570  1.00  0.00     0.041 C 
ATOM     19  O   UNL     1    -107.799 -44.083 -62.318  1.00  0.00    -0.550 OA
ATOM     20  O   UNL     1    -107.456 -41.931 -61.611  1.00  0.00    -0.550 OA
ENDBRANCH  17  18
ENDBRANCH  16  17
ENDBRANCH  15  16
ENDBRANCH  14  15
ENDBRANCH  13  14
ENDBRANCH  12  13
ENDBRANCH  11  12
ENDBRANCH   1  11
TORSDOF 15
ENDMDL
MODEL 2
REMARK VINA RESULT:    -3.860      2.302      5.859
REMARK INTER + INTRA:          -9.635
REMARK INTER:                  -7.885
REMARK INTRA:                  -1.750
REMARK UNBOUND:                -2.389
REMARK SMILES O=C([O-])CCCCCCCCCCCCCCC(=O)[O-]
REMARK SMILES IDX 10 1 9 2 8 3 7 4 6 5 5 6 4 7 2 8 1 9 3 10 11 11 12 12 13 13
REMARK SMILES IDX 14 14 15 15 16 16 17 17 18 18 19 19 20 20
REMARK H PARENT
REMARK Flexibility Score: inf
ROOT
ATOM      1  C   UNL     1    -108.552 -43.084 -64.494  1.00  0.00     0.000 C 
ENDROOT
BRANCH   1   2
ATOM      2  C   UNL     1    -108.183 -43.281 -63.012  1.00  0.00     0.000 C 
BRANCH   2   3
ATOM      3  C   UNL     1    -107.690 -41.983 -62.352  1.00  0.00     0.000 C 
BRANCH   3   4
ATOM      4  C   UNL     1    -106.913 -41.083 -63.330  1.00  0.00     0.000 C 
BRANCH   4   5
ATOM      5  C   UNL     1    -107.314 -39.604 -63.215  1.00  0.00     0.000 C 
BRANCH   5   6
ATOM      6  C   UNL     1    -107.538 -38.941 -64.583  1.00  0.00     0.006 C 
BRANCH   6   7
ATOM      7  C   UNL     1    -108.719 -39.584 -65.316  1.00  0.00     0.053 C 
BRANCH   7   8
ATOM      8  C   UNL     1    -108.312 -40.015 -66.690  1.00  0.00     0.041 C 
ATOM      9  O   UNL     1    -107.180 -39.701 -67.143  1.00  0.00    -0.550 OA
ATOM     10  O   UNL     1    -109.201 -40.723 -67.489  1.00  0.00    -0.550 OA
ENDBRANCH   7   8
ENDBRANCH   6   7
ENDBRANCH   5   6
ENDBRANCH   4   5
ENDBRANCH   3   4
ENDBRANCH   2   3
ENDBRANCH   1   2
BRANCH   1  11
ATOM     11  C   UNL     1    -109.947 -43.636 -64.843  1.00  0.00     0.000 C 
BRANCH  11  12
ATOM     12  C   UNL     1    -111.023 -42.571 -65.125  1.00  0.00     0.000 C 
BRANCH  12  13
ATOM     13  C   UNL     1    -112.347 -42.849 -64.391  1.00  0.00     0.000 C 
BRANCH  13  14
ATOM     14  C   UNL     1    -113.386 -41.737 -64.612  1.00  0.00     0.000 C 
BRANCH  14  15
ATOM     15  C   UNL     1    -112.973 -40.748 -65.712  1.00  0.00     0.000 C 
BRANCH  15  16
ATOM     16  C   UNL     1    -113.759 -41.009 -67.006  1.00  0.00     0.006 C 
BRANCH  16  17
ATOM     17  C   UNL     1    -112.846 -41.074 -68.238  1.00  0.00     0.053 C 
BRANCH  17  18
ATOM     18  C   UNL     1    -112.534 -42.488 -68.624  1.00  0.00     0.041 C 
ATOM     19  O   UNL     1    -111.484 -42.752 -69.268  1.00  0.00    -0.550 OA
ATOM     20  O   UNL     1    -113.385 -43.518 -68.245  1.00  0.00    -0.550 OA
ENDBRANCH  17  18
ENDBRANCH  16  17
ENDBRANCH  15  16
ENDBRANCH  14  15
ENDBRANCH  13  14
ENDBRANCH  12  13
ENDBRANCH  11  12
ENDBRANCH   1  11
TORSDOF 15
ENDMDL
MODEL 3
REMARK VINA RESULT:    -3.858      0.981      4.680
REMARK INTER + INTRA:          -9.630
REMARK INTER:                  -7.668
REMARK INTRA:                  -1.963
REMARK UNBOUND:                -2.389
REMARK SMILES O=C([O-])CCCCCCCCCCCCCCC(=O)[O-]
REMARK SMILES IDX 10 1 9 2 8 3 7 4 6 5 5 6 4 7 2 8 1 9 3 10 11 11 12 12 13 13
REMARK SMILES IDX 14 14 15 15 16 16 17 17 18 18 19 19 20 20
REMARK H PARENT
REMARK Flexibility Score: inf
ROOT
ATOM      1  C   UNL     1    -113.149 -40.915 -66.274  1.00  0.00     0.000 C 
ENDROOT
BRANCH   1   2
ATOM      2  C   UNL     1    -113.770 -41.468 -64.978  1.00  0.00     0.000 C 
BRANCH   2   3
ATOM      3  C   UNL     1    -112.898 -42.552 -64.324  1.00  0.00     0.000 C 
BRANCH   3   4
ATOM      4  C   UNL     1    -111.490 -42.626 -64.942  1.00  0.00     0.000 C 
BRANCH   4   5
ATOM      5  C   UNL     1    -110.532 -43.507 -64.124  1.00  0.00     0.000 C 
BRANCH   5   6
ATOM      6  C   UNL     1    -109.086 -42.989 -64.142  1.00  0.00     0.006 C 
BRANCH   6   7
ATOM      7  C   UNL     1    -108.361 -43.345 -62.841  1.00  0.00     0.053 C 
BRANCH   7   8
ATOM      8  C   UNL     1    -107.648 -42.148 -62.294  1.00  0.00     0.041 C 
ATOM      9  O   UNL     1    -107.541 -41.103 -62.986  1.00  0.00    -0.550 OA
ATOM     10  O   UNL     1    -107.060 -42.205 -61.036  1.00  0.00    -0.550 OA
ENDBRANCH   7   8
ENDBRANCH   6   7
ENDBRANCH   5   6
ENDBRANCH   4   5
ENDBRANCH   3   4
ENDBRANCH   2   3
ENDBRANCH   1   2
BRANCH   1  11
ATOM     11  C   UNL     1    -113.908 -41.357 -67.538  1.00  0.00     0.000 C 
BRANCH  11  12
ATOM     12  C   UNL     1    -113.645 -42.806 -67.990  1.00  0.00     0.000 C 
BRANCH  12  13
ATOM     13  C   UNL     1    -113.317 -42.916 -69.489  1.00  0.00     0.000 C 
BRANCH  13  14
ATOM     14  C   UNL     1    -111.805 -42.968 -69.759  1.00  0.00     0.000 C 
BRANCH  14  15
ATOM     15  C   UNL     1    -111.035 -43.739 -68.677  1.00  0.00     0.000 C 
BRANCH  15  16
ATOM     16  C   UNL     1    -109.804 -42.948 -68.211  1.00  0.00     0.006 C 
BRANCH  16  17
ATOM     17  C   UNL     1    -110.086 -41.443 -68.103  1.00  0.00     0.053 C 
BRANCH  17  18
ATOM     18  C   UNL     1    -108.990 -40.723 -67.378  1.00  0.00     0.041 C 
ATOM     19  O   UNL     1    -107.834 -40.667 -67.873  1.00  0.00    -0.550 OA
ATOM     20  O   UNL     1    -109.254 -40.086 -66.172  1.00  0.00    -0.550 OA
ENDBRANCH  17  18
ENDBRANCH  16  17
ENDBRANCH  15  16
ENDBRANCH  14  15
ENDBRANCH  13  14
ENDBRANCH  12  13
ENDBRANCH  11  12
ENDBRANCH   1  11
TORSDOF 15
ENDMDL
MODEL 4
REMARK VINA RESULT:    -3.813     15.245     17.166
REMARK INTER + INTRA:          -9.546
REMARK INTER:                  -7.394
REMARK INTRA:                  -2.151
REMARK UNBOUND:                -2.389
REMARK SMILES O=C([O-])CCCCCCCCCCCCCCC(=O)[O-]
REMARK SMILES IDX 10 1 9 2 8 3 7 4 6 5 5 6 4 7 2 8 1 9 3 10 11 11 12 12 13 13
REMARK SMILES IDX 14 14 15 15 16 16 17 17 18 18 19 19 20 20
REMARK H PARENT
REMARK Flexibility Score: inf
ROOT
ATOM      1  C   UNL     1    -107.548 -26.412 -60.499  1.00  0.00     0.000 C 
ENDROOT
BRANCH   1   2
ATOM      2  C   UNL     1    -107.392 -27.425 -59.350  1.00  0.00     0.000 C 
BRANCH   2   3
ATOM      3  C   UNL     1    -106.633 -28.690 -59.782  1.00  0.00     0.000 C 
BRANCH   3   4
ATOM      4  C   UNL     1    -105.322 -28.886 -58.999  1.00  0.00     0.000 C 
BRANCH   4   5
ATOM      5  C   UNL     1    -104.077 -28.570 -59.843  1.00  0.00     0.000 C 
BRANCH   5   6
ATOM      6  C   UNL     1    -103.383 -27.269 -59.415  1.00  0.00     0.006 C 
BRANCH   6   7
ATOM      7  C   UNL     1    -103.915 -26.783 -58.063  1.00  0.00     0.053 C 
BRANCH   7   8
ATOM      8  C   UNL     1    -103.666 -25.317 -57.897  1.00  0.00     0.041 C 
ATOM      9  O   UNL     1    -102.879 -24.716 -58.674  1.00  0.00    -0.550 OA
ATOM     10  O   UNL     1    -104.268 -24.624 -56.854  1.00  0.00    -0.550 OA
ENDBRANCH   7   8
ENDBRANCH   6   7
ENDBRANCH   5   6
ENDBRANCH   4   5
ENDBRANCH   3   4
ENDBRANCH   2   3
ENDBRANCH   1   2
BRANCH   1  11
ATOM     11  C   UNL     1    -106.280 -25.570 -60.732  1.00  0.00     0.000 C 
BRANCH  11  12
ATOM     12  C   UNL     1    -106.253 -24.773 -62.050  1.00  0.00     0.000 C 
BRANCH  12  13
ATOM     13  C   UNL     1    -105.523 -25.515 -63.183  1.00  0.00     0.000 C 
BRANCH  13  14
ATOM     14  C   UNL     1    -105.164 -26.961 -62.804  1.00  0.00     0.000 C 
BRANCH  14  15
ATOM     15  C   UNL     1    -105.701 -27.989 -63.811  1.00  0.00     0.000 C 
BRANCH  15  16
ATOM     16  C   UNL     1    -107.164 -28.344 -63.504  1.00  0.00     0.006 C 
BRANCH  16  17
ATOM     17  C   UNL     1    -107.381 -29.859 -63.378  1.00  0.00     0.053 C 
BRANCH  17  18
ATOM     18  C   UNL     1    -106.883 -30.594 -64.584  1.00  0.00     0.041 C 
ATOM     19  O   UNL     1    -105.991 -31.475 -64.466  1.00  0.00    -0.550 OA
ATOM     20  O   UNL     1    -107.426 -30.329 -65.835  1.00  0.00    -0.550 OA
ENDBRANCH  17  18
ENDBRANCH  16  17
ENDBRANCH  15  16
ENDBRANCH  14  15
ENDBRANCH  13  14
ENDBRANCH  12  13
ENDBRANCH  11  12
ENDBRANCH   1  11
TORSDOF 15
ENDMDL
MODEL 5
REMARK VINA RESULT:    -3.810      2.277      6.134
REMARK INTER + INTRA:          -9.540
REMARK INTER:                  -7.615
REMARK INTRA:                  -1.925
REMARK UNBOUND:                -2.389
REMARK SMILES O=C([O-])CCCCCCCCCCCCCCC(=O)[O-]
REMARK SMILES IDX 10 1 9 2 8 3 7 4 6 5 5 6 4 7 2 8 1 9 3 10 11 11 12 12 13 13
REMARK SMILES IDX 14 14 15 15 16 16 17 17 18 18 19 19 20 20
REMARK H PARENT
REMARK Flexibility Score: inf
ROOT
ATOM      1  C   UNL     1    -112.599 -42.915 -63.502  1.00  0.00     0.000 C 
ENDROOT
BRANCH   1   2
ATOM      2  C   UNL     1    -111.313 -43.750 -63.354  1.00  0.00     0.000 C 
BRANCH   2   3
ATOM      3  C   UNL     1    -110.381 -43.614 -64.569  1.00  0.00     0.000 C 
BRANCH   3   4
ATOM      4  C   UNL     1    -108.919 -43.354 -64.164  1.00  0.00     0.000 C 
BRANCH   4   5
ATOM      5  C   UNL     1    -108.499 -41.891 -64.376  1.00  0.00     0.000 C 
BRANCH   5   6
ATOM      6  C   UNL     1    -107.362 -41.457 -63.439  1.00  0.00     0.006 C 
BRANCH   6   7
ATOM      7  C   UNL     1    -107.673 -41.836 -61.989  1.00  0.00     0.053 C 
BRANCH   7   8
ATOM      8  C   UNL     1    -106.571 -42.672 -61.416  1.00  0.00     0.041 C 
ATOM      9  O   UNL     1    -105.904 -43.437 -62.161  1.00  0.00    -0.550 OA
ATOM     10  O   UNL     1    -106.312 -42.641 -60.052  1.00  0.00    -0.550 OA
ENDBRANCH   7   8
ENDBRANCH   6   7
ENDBRANCH   5   6
ENDBRANCH   4   5
ENDBRANCH   3   4
ENDBRANCH   2   3
ENDBRANCH   1   2
BRANCH   1  11
ATOM     11  C   UNL     1    -112.956 -42.620 -64.970  1.00  0.00     0.000 C 
BRANCH  11  12
ATOM     12  C   UNL     1    -113.080 -41.127 -65.329  1.00  0.00     0.000 C 
BRANCH  12  13
ATOM     13  C   UNL     1    -111.794 -40.551 -65.947  1.00  0.00     0.000 C 
BRANCH  13  14
ATOM     14  C   UNL     1    -111.648 -40.904 -67.436  1.00  0.00     0.000 C 
BRANCH  14  15
ATOM     15  C   UNL     1    -110.458 -41.836 -67.710  1.00  0.00     0.000 C 
BRANCH  15  16
ATOM     16  C   UNL     1    -110.928 -43.149 -68.354  1.00  0.00     0.006 C 
BRANCH  16  17
ATOM     17  C   UNL     1    -112.395 -43.086 -68.799  1.00  0.00     0.053 C 
BRANCH  17  18
ATOM     18  C   UNL     1    -112.520 -43.002 -70.290  1.00  0.00     0.041 C 
ATOM     19  O   UNL     1    -111.541 -42.629 -70.988  1.00  0.00    -0.550 OA
ATOM     20  O   UNL     1    -113.708 -43.366 -70.911  1.00  0.00    -0.550 OA
ENDBRANCH  17  18
ENDBRANCH  16  17
ENDBRANCH  15  16
ENDBRANCH  14  15
ENDBRANCH  13  14
ENDBRANCH  12  13
ENDBRANCH  11  12
ENDBRANCH   1  11
TORSDOF 15
ENDMDL
MODEL 6
REMARK VINA RESULT:    -3.802      2.478      5.324
REMARK INTER + INTRA:          -9.525
REMARK INTER:                  -8.208
REMARK INTRA:                  -1.317
REMARK UNBOUND:                -2.389
REMARK SMILES O=C([O-])CCCCCCCCCCCCCCC(=O)[O-]
REMARK SMILES IDX 10 1 9 2 8 3 7 4 6 5 5 6 4 7 2 8 1 9 3 10 11 11 12 12 13 13
REMARK SMILES IDX 14 14 15 15 16 16 17 17 18 18 19 19 20 20
REMARK H PARENT
REMARK Flexibility Score: inf
ROOT
ATOM      1  C   UNL     1    -108.744 -42.975 -64.324  1.00  0.00     0.000 C 
ENDROOT
BRANCH   1   2
ATOM      2  C   UNL     1    -109.928 -43.599 -65.083  1.00  0.00     0.000 C 
BRANCH   2   3
ATOM      3  C   UNL     1    -111.095 -42.616 -65.263  1.00  0.00     0.000 C 
BRANCH   3   4
ATOM      4  C   UNL     1    -112.282 -42.933 -64.336  1.00  0.00     0.000 C 
BRANCH   4   5
ATOM      5  C   UNL     1    -113.353 -41.831 -64.349  1.00  0.00     0.000 C 
BRANCH   5   6
ATOM      6  C   UNL     1    -113.369 -41.033 -65.661  1.00  0.00     0.006 C 
BRANCH   6   7
ATOM      7  C   UNL     1    -114.347 -41.650 -66.665  1.00  0.00     0.053 C 
BRANCH   7   8
ATOM      8  C   UNL     1    -113.626 -42.076 -67.906  1.00  0.00     0.041 C 
ATOM      9  O   UNL     1    -113.190 -41.214 -68.712  1.00  0.00    -0.550 OA
ATOM     10  O   UNL     1    -113.478 -43.427 -68.194  1.00  0.00    -0.550 OA
ENDBRANCH   7   8
ENDBRANCH   6   7
ENDBRANCH   5   6
ENDBRANCH   4   5
ENDBRANCH   3   4
ENDBRANCH   2   3
ENDBRANCH   1   2
BRANCH   1  11
ATOM     11  C   UNL     1    -108.714 -43.364 -62.835  1.00  0.00     0.000 C 
BRANCH  11  12
ATOM     12  C   UNL     1    -107.326 -43.308 -62.168  1.00  0.00     0.000 C 
BRANCH  12  13
ATOM     13  C   UNL     1    -107.123 -42.046 -61.314  1.00  0.00     0.000 C 
BRANCH  13  14
ATOM     14  C   UNL     1    -105.837 -41.288 -61.681  1.00  0.00     0.000 C 
BRANCH  14  15
ATOM     15  C   UNL     1    -105.956 -40.524 -63.008  1.00  0.00     0.000 C 
BRANCH  15  16
ATOM     16  C   UNL     1    -107.291 -39.768 -63.088  1.00  0.00     0.006 C 
BRANCH  16  17
ATOM     17  C   UNL     1    -107.288 -38.696 -64.186  1.00  0.00     0.053 C 
BRANCH  17  18
ATOM     18  C   UNL     1    -107.931 -39.190 -65.446  1.00  0.00     0.041 C 
ATOM     19  O   UNL     1    -109.126 -39.585 -65.435  1.00  0.00    -0.550 OA
ATOM     20  O   UNL     1    -107.220 -39.184 -66.640  1.00  0.00    -0.550 OA
ENDBRANCH  17  18
ENDBRANCH  16  17
ENDBRANCH  15  16
ENDBRANCH  14  15
ENDBRANCH  13  14
ENDBRANCH  12  13
ENDBRANCH  11  12
ENDBRANCH   1  11
TORSDOF 15
ENDMDL
MODEL 7
REMARK VINA RESULT:    -3.782      1.530      5.169
REMARK INTER + INTRA:          -9.488
REMARK INTER:                  -7.427
REMARK INTRA:                  -2.061
REMARK UNBOUND:                -2.389
REMARK SMILES O=C([O-])CCCCCCCCCCCCCCC(=O)[O-]
REMARK SMILES IDX 10 1 9 2 8 3 7 4 6 5 5 6 4 7 2 8 1 9 3 10 11 11 12 12 13 13
REMARK SMILES IDX 14 14 15 15 16 16 17 17 18 18 19 19 20 20
REMARK H PARENT
REMARK Flexibility Score: inf
ROOT
ATOM      1  C   UNL     1    -112.703 -42.647 -64.271  1.00  0.00     0.000 C 
ENDROOT
BRANCH   1   2
ATOM      2  C   UNL     1    -111.324 -42.955 -64.883  1.00  0.00     0.000 C 
BRANCH   2   3
ATOM      3  C   UNL     1    -110.621 -41.695 -65.413  1.00  0.00     0.000 C 
BRANCH   3   4
ATOM      4  C   UNL     1    -109.087 -41.807 -65.355  1.00  0.00     0.000 C 
BRANCH   4   5
ATOM      5  C   UNL     1    -108.614 -43.188 -64.874  1.00  0.00     0.000 C 
BRANCH   5   6
ATOM      6  C   UNL     1    -107.494 -43.101 -63.826  1.00  0.00     0.006 C 
BRANCH   6   7
ATOM      7  C   UNL     1    -107.947 -42.293 -62.606  1.00  0.00     0.053 C 
BRANCH   7   8
ATOM      8  C   UNL     1    -107.039 -41.124 -62.384  1.00  0.00     0.041 C 
ATOM      9  O   UNL     1    -107.392 -39.971 -62.745  1.00  0.00    -0.550 OA
ATOM     10  O   UNL     1    -105.784 -41.316 -61.820  1.00  0.00    -0.550 OA
ENDBRANCH   7   8
ENDBRANCH   6   7
ENDBRANCH   5   6
ENDBRANCH   4   5
ENDBRANCH   3   4
ENDBRANCH   2   3
ENDBRANCH   1   2
BRANCH   1  11
ATOM     11  C   UNL     1    -113.433 -41.498 -64.989  1.00  0.00     0.000 C 
BRANCH  11  12
ATOM     12  C   UNL     1    -114.134 -41.884 -66.305  1.00  0.00     0.000 C 
BRANCH  12  13
ATOM     13  C   UNL     1    -113.750 -40.968 -67.480  1.00  0.00     0.000 C 
BRANCH  13  14
ATOM     14  C   UNL     1    -113.014 -41.722 -68.599  1.00  0.00     0.000 C 
BRANCH  14  15
ATOM     15  C   UNL     1    -112.927 -43.234 -68.339  1.00  0.00     0.000 C 
BRANCH  15  16
ATOM     16  C   UNL     1    -111.778 -43.862 -69.141  1.00  0.00     0.006 C 
BRANCH  16  17
ATOM     17  C   UNL     1    -110.440 -43.794 -68.393  1.00  0.00     0.053 C 
BRANCH  17  18
ATOM     18  C   UNL     1    -109.461 -42.897 -69.086  1.00  0.00     0.041 C 
ATOM     19  O   UNL     1    -108.603 -43.380 -69.871  1.00  0.00    -0.550 OA
ATOM     20  O   UNL     1    -109.515 -41.522 -68.890  1.00  0.00    -0.550 OA
ENDBRANCH  17  18
ENDBRANCH  16  17
ENDBRANCH  15  16
ENDBRANCH  14  15
ENDBRANCH  13  14
ENDBRANCH  12  13
ENDBRANCH  11  12
ENDBRANCH   1  11
TORSDOF 15
ENDMDL
MODEL 8
REMARK VINA RESULT:    -3.763      1.767      3.105
REMARK INTER + INTRA:          -9.451
REMARK INTER:                  -7.577
REMARK INTRA:                  -1.875
REMARK UNBOUND:                -2.389
REMARK SMILES O=C([O-])CCCCCCCCCCCCCCC(=O)[O-]
REMARK SMILES IDX 10 1 9 2 8 3 7 4 6 5 5 6 4 7 2 8 1 9 3 10 11 11 12 12 13 13
REMARK SMILES IDX 14 14 15 15 16 16 17 17 18 18 19 19 20 20
REMARK H PARENT
REMARK Flexibility Score: inf
ROOT
ATOM      1  C   UNL     1    -111.514 -40.744 -65.737  1.00  0.00     0.000 C 
ENDROOT
BRANCH   1   2
ATOM      2  C   UNL     1    -112.608 -41.634 -65.120  1.00  0.00     0.000 C 
BRANCH   2   3
ATOM      3  C   UNL     1    -113.996 -41.361 -65.721  1.00  0.00     0.000 C 
BRANCH   3   4
ATOM      4  C   UNL     1    -114.048 -41.640 -67.234  1.00  0.00     0.000 C 
BRANCH   4   5
ATOM      5  C   UNL     1    -113.676 -43.091 -67.580  1.00  0.00     0.000 C 
BRANCH   5   6
ATOM      6  C   UNL     1    -112.909 -43.208 -68.906  1.00  0.00     0.006 C 
BRANCH   6   7
ATOM      7  C   UNL     1    -111.433 -43.532 -68.657  1.00  0.00     0.053 C 
BRANCH   7   8
ATOM      8  C   UNL     1    -110.572 -42.359 -69.005  1.00  0.00     0.041 C 
ATOM      9  O   UNL     1    -109.319 -42.448 -68.929  1.00  0.00    -0.550 OA
ATOM     10  O   UNL     1    -111.156 -41.152 -69.369  1.00  0.00    -0.550 OA
ENDBRANCH   7   8
ENDBRANCH   6   7
ENDBRANCH   5   6
ENDBRANCH   4   5
ENDBRANCH   3   4
ENDBRANCH   2   3
ENDBRANCH   1   2
BRANCH   1  11
ATOM     11  C   UNL     1    -110.104 -41.347 -65.601  1.00  0.00     0.000 C 
BRANCH  11  12
ATOM     12  C   UNL     1    -110.053 -42.784 -65.049  1.00  0.00     0.000 C 
BRANCH  12  13
ATOM     13  C   UNL     1    -108.725 -43.497 -65.354  1.00  0.00     0.000 C 
BRANCH  13  14
ATOM     14  C   UNL     1    -107.700 -43.343 -64.218  1.00  0.00     0.000 C 
BRANCH  14  15
ATOM     15  C   UNL     1    -108.354 -43.309 -62.829  1.00  0.00     0.000 C 
BRANCH  15  16
ATOM     16  C   UNL     1    -107.728 -42.213 -61.955  1.00  0.00     0.006 C 
BRANCH  16  17
ATOM     17  C   UNL     1    -107.333 -40.973 -62.769  1.00  0.00     0.053 C 
BRANCH  17  18
ATOM     18  C   UNL     1    -106.037 -40.388 -62.299  1.00  0.00     0.041 C 
ATOM     19  O   UNL     1    -105.413 -39.567 -63.021  1.00  0.00    -0.550 OA
ATOM     20  O   UNL     1    -105.533 -40.725 -61.049  1.00  0.00    -0.550 OA
ENDBRANCH  17  18
ENDBRANCH  16  17
ENDBRANCH  15  16
ENDBRANCH  14  15
ENDBRANCH  13  14
ENDBRANCH  12  13
ENDBRANCH  11  12
ENDBRANCH   1  11
TORSDOF 15
ENDMDL
MODEL 9
REMARK VINA RESULT:    -3.747      2.097      5.238
REMARK INTER + INTRA:          -9.421
REMARK INTER:                  -7.604
REMARK INTRA:                  -1.818
REMARK UNBOUND:                -2.389
REMARK SMILES O=C([O-])CCCCCCCCCCCCCCC(=O)[O-]
REMARK SMILES IDX 10 1 9 2 8 3 7 4 6 5 5 6 4 7 2 8 1 9 3 10 11 11 12 12 13 13
REMARK SMILES IDX 14 14 15 15 16 16 17 17 18 18 19 19 20 20
REMARK H PARENT
REMARK Flexibility Score: inf
ROOT
ATOM      1  C   UNL     1    -111.643 -42.967 -64.632  1.00  0.00     0.000 C 
ENDROOT
BRANCH   1   2
ATOM      2  C   UNL     1    -110.692 -42.024 -65.392  1.00  0.00     0.000 C 
BRANCH   2   3
ATOM      3  C   UNL     1    -109.266 -42.586 -65.496  1.00  0.00     0.000 C 
BRANCH   3   4
ATOM      4  C   UNL     1    -108.831 -43.330 -64.221  1.00  0.00     0.000 C 
BRANCH   4   5
ATOM      5  C   UNL     1    -108.129 -42.409 -63.210  1.00  0.00     0.000 C 
BRANCH   5   6
ATOM      6  C   UNL     1    -107.224 -41.367 -63.883  1.00  0.00     0.006 C 
BRANCH   6   7
ATOM      7  C   UNL     1    -107.357 -40.003 -63.199  1.00  0.00     0.053 C 
BRANCH   7   8
ATOM      8  C   UNL     1    -107.401 -38.907 -64.217  1.00  0.00     0.041 C 
ATOM      9  O   UNL     1    -106.602 -37.937 -64.139  1.00  0.00    -0.550 OA
ATOM     10  O   UNL     1    -108.356 -38.933 -65.226  1.00  0.00    -0.550 OA
ENDBRANCH   7   8
ENDBRANCH   6   7
ENDBRANCH   5   6
ENDBRANCH   4   5
ENDBRANCH   3   4
ENDBRANCH   2   3
ENDBRANCH   1   2
BRANCH   1  11
ATOM     11  C   UNL     1    -112.992 -42.309 -64.290  1.00  0.00     0.000 C 
BRANCH  11  12
ATOM     12  C   UNL     1    -113.488 -41.260 -65.304  1.00  0.00     0.000 C 
BRANCH  12  13
ATOM     13  C   UNL     1    -114.479 -41.838 -66.327  1.00  0.00     0.000 C 
BRANCH  13  14
ATOM     14  C   UNL     1    -113.877 -41.941 -67.738  1.00  0.00     0.000 C 
BRANCH  14  15
ATOM     15  C   UNL     1    -113.294 -43.331 -68.034  1.00  0.00     0.000 C 
BRANCH  15  16
ATOM     16  C   UNL     1    -112.305 -43.272 -69.208  1.00  0.00     0.006 C 
BRANCH  16  17
ATOM     17  C   UNL     1    -110.915 -43.796 -68.824  1.00  0.00     0.053 C 
BRANCH  17  18
ATOM     18  C   UNL     1    -109.833 -42.828 -69.194  1.00  0.00     0.041 C 
ATOM     19  O   UNL     1    -109.934 -41.614 -68.877  1.00  0.00    -0.550 OA
ATOM     20  O   UNL     1    -108.698 -43.272 -69.861  1.00  0.00    -0.550 OA
ENDBRANCH  17  18
ENDBRANCH  16  17
ENDBRANCH  15  16
ENDBRANCH  14  15
ENDBRANCH  13  14
ENDBRANCH  12  13
ENDBRANCH  11  12
ENDBRANCH   1  11
TORSDOF 15
ENDMDL
