MODEL 1
REMARK VINA RESULT:    -3.988      0.000      0.000
REMARK INTER + INTRA:         -12.249
REMARK INTER:                 -10.399
REMARK INTRA:                  -1.850
REMARK UNBOUND:                -1.850
REMARK SMILES CCCCCCCCCCCCCCCCCCCCCCCCCCCCCO
REMARK SMILES IDX 16 1 15 2 14 3 13 4 12 5 11 6 10 7 9 8 8 9 7 10 6 11 5 12
REMARK SMILES IDX 4 13 3 14 2 15 1 16 17 17 18 18 19 19 20 20 21 21 22 22
REMARK SMILES IDX 23 23 24 24 25 25 26 26 27 27 28 28 29 29 30 30
REMARK H PARENT 30 31
REMARK Flexibility Score: inf
ROOT
ATOM      1  C   UNL     1     -26.261   2.163 -12.023  1.00  0.00     0.000 C 
ENDROOT
BRANCH   1   2
ATOM      2  C   UNL     1     -25.758   0.740 -11.725  1.00  0.00     0.000 C 
BRANCH   2   3
ATOM      3  C   UNL     1     -25.574   0.447 -10.220  1.00  0.00     0.000 C 
BRANCH   3   4
ATOM      4  C   UNL     1     -25.038  -0.972  -9.961  1.00  0.00     0.000 C 
BRANCH   4   5
ATOM      5  C   UNL     1     -23.851  -1.322 -10.874  1.00  0.00     0.000 C 
BRANCH   5   6
ATOM      6  C   UNL     1     -24.289  -2.139 -12.102  1.00  0.00     0.000 C 
BRANCH   6   7
ATOM      7  C   UNL     1     -23.250  -2.113 -13.235  1.00  0.00     0.000 C 
BRANCH   7   8
ATOM      8  C   UNL     1     -22.352  -0.866 -13.180  1.00  0.00    -0.000 C 
BRANCH   8   9
ATOM      9  C   UNL     1     -21.261  -1.021 -12.110  1.00  0.00    -0.000 C 
BRANCH   9  10
ATOM     10  C   UNL     1     -20.431  -2.301 -12.299  1.00  0.00    -0.000 C 
BRANCH  10  11
ATOM     11  C   UNL     1     -20.149  -3.022 -10.969  1.00  0.00    -0.000 C 
BRANCH  11  12
ATOM     12  C   UNL     1     -19.065  -4.113 -11.110  1.00  0.00    -0.000 C 
BRANCH  12  13
ATOM     13  C   UNL     1     -17.895  -3.721 -12.034  1.00  0.00    -0.000 C 
BRANCH  13  14
ATOM     14  C   UNL     1     -17.498  -4.785 -13.071  1.00  0.00    -0.000 C 
BRANCH  14  15
ATOM     15  C   UNL     1     -18.560  -4.973 -14.166  1.00  0.00    -0.003 C 
ATOM     16  C   UNL     1     -18.368  -3.965 -15.295  1.00  0.00     0.004 C 
ENDBRANCH  14  15
ENDBRANCH  13  14
ENDBRANCH  12  13
ENDBRANCH  11  12
ENDBRANCH  10  11
ENDBRANCH   9  10
ENDBRANCH   8   9
ENDBRANCH   7   8
ENDBRANCH   6   7
ENDBRANCH   5   6
ENDBRANCH   4   5
ENDBRANCH   3   4
ENDBRANCH   2   3
ENDBRANCH   1   2
BRANCH   1  17
ATOM     17  C   UNL     1     -27.748   2.348 -11.685  1.00  0.00     0.000 C 
BRANCH  17  18
ATOM     18  C   UNL     1     -27.982   2.954 -10.287  1.00  0.00     0.000 C 
BRANCH  18  19
ATOM     19  C   UNL     1     -29.357   3.616 -10.079  1.00  0.00     0.000 C 
BRANCH  19  20
ATOM     20  C   UNL     1     -29.331   5.142 -10.282  1.00  0.00     0.000 C 
BRANCH  20  21
ATOM     21  C   UNL     1     -27.903   5.713 -10.283  1.00  0.00     0.000 C 
BRANCH  21  22
ATOM     22  C   UNL     1     -27.528   6.349 -11.635  1.00  0.00     0.000 C 
BRANCH  22  23
ATOM     23  C   UNL     1     -28.343   5.776 -12.805  1.00  0.00     0.000 C 
BRANCH  23  24
ATOM     24  C   UNL     1     -29.022   6.870 -13.648  1.00  0.00     0.000 C 
BRANCH  24  25
ATOM     25  C   UNL     1     -29.281   8.162 -12.852  1.00  0.00     0.000 C 
BRANCH  25  26
ATOM     26  C   UNL     1     -30.742   8.645 -12.866  1.00  0.00     0.000 C 
BRANCH  26  27
ATOM     27  C   UNL     1     -31.488   8.329 -11.559  1.00  0.00     0.002 C 
BRANCH  27  28
ATOM     28  C   UNL     1     -31.937   6.862 -11.466  1.00  0.00     0.028 C 
BRANCH  28  29
ATOM     29  C   UNL     1     -33.429   6.662 -11.754  1.00  0.00     0.156 C 
BRANCH  29  30
ATOM     30  O   UNL     1     -33.602   5.934 -12.939  1.00  0.00    -0.396 OA
ATOM     31  H   UNL     1     -32.694   5.800 -13.315  1.00  0.00     0.210 HD
ENDBRANCH  29  30
ENDBRANCH  28  29
ENDBRANCH  27  28
ENDBRANCH  26  27
ENDBRANCH  25  26
ENDBRANCH  24  25
ENDBRANCH  23  24
ENDBRANCH  22  23
ENDBRANCH  21  22
ENDBRANCH  20  21
ENDBRANCH  19  20
ENDBRANCH  18  19
ENDBRANCH  17  18
ENDBRANCH   1  17
TORSDOF 28
ENDMDL
MODEL 2
REMARK VINA RESULT:    -3.929      1.411      2.267
REMARK INTER + INTRA:         -12.097
REMARK INTER:                  -9.470
REMARK INTRA:                  -2.627
REMARK UNBOUND:                -1.850
REMARK SMILES CCCCCCCCCCCCCCCCCCCCCCCCCCCCCO
REMARK SMILES IDX 16 1 15 2 14 3 13 4 12 5 11 6 10 7 9 8 8 9 7 10 6 11 5 12
REMARK SMILES IDX 4 13 3 14 2 15 1 16 17 17 18 18 19 19 20 20 21 21 22 22
REMARK SMILES IDX 23 23 24 24 25 25 26 26 27 27 28 28 29 29 30 30
REMARK H PARENT 30 31
REMARK Flexibility Score: inf
ROOT
ATOM      1  C   UNL     1     -25.865   1.330 -11.750  1.00  0.00     0.000 C 
ENDROOT
BRANCH   1   2
ATOM      2  C   UNL     1     -25.302  -0.101 -11.708  1.00  0.00     0.000 C 
BRANCH   2   3
ATOM      3  C   UNL     1     -25.404  -0.769 -10.319  1.00  0.00     0.000 C 
BRANCH   3   4
ATOM      4  C   UNL     1     -24.074  -1.405  -9.876  1.00  0.00     0.000 C 
BRANCH   4   5
ATOM      5  C   UNL     1     -23.359  -2.124 -11.031  1.00  0.00     0.000 C 
BRANCH   5   6
ATOM      6  C   UNL     1     -21.858  -1.790 -11.079  1.00  0.00     0.000 C 
BRANCH   6   7
ATOM      7  C   UNL     1     -21.415  -1.239 -12.444  1.00  0.00     0.000 C 
BRANCH   7   8
ATOM      8  C   UNL     1     -21.249  -2.344 -13.500  1.00  0.00    -0.000 C 
BRANCH   8   9
ATOM      9  C   UNL     1     -19.764  -2.662 -13.735  1.00  0.00    -0.000 C 
BRANCH   9  10
ATOM     10  C   UNL     1     -19.484  -4.173 -13.754  1.00  0.00    -0.000 C 
BRANCH  10  11
ATOM     11  C   UNL     1     -18.641  -4.631 -12.551  1.00  0.00    -0.000 C 
BRANCH  11  12
ATOM     12  C   UNL     1     -19.270  -4.221 -11.202  1.00  0.00    -0.000 C 
BRANCH  12  13
ATOM     13  C   UNL     1     -18.358  -3.340 -10.326  1.00  0.00    -0.000 C 
BRANCH  13  14
ATOM     14  C   UNL     1     -17.391  -2.427 -11.101  1.00  0.00    -0.000 C 
BRANCH  14  15
ATOM     15  C   UNL     1     -15.962  -2.460 -10.537  1.00  0.00    -0.003 C 
ATOM     16  C   UNL     1     -15.434  -3.889 -10.462  1.00  0.00     0.004 C 
ENDBRANCH  14  15
ENDBRANCH  13  14
ENDBRANCH  12  13
ENDBRANCH  11  12
ENDBRANCH  10  11
ENDBRANCH   9  10
ENDBRANCH   8   9
ENDBRANCH   7   8
ENDBRANCH   6   7
ENDBRANCH   5   6
ENDBRANCH   4   5
ENDBRANCH   3   4
ENDBRANCH   2   3
ENDBRANCH   1   2
BRANCH   1  17
ATOM     17  C   UNL     1     -26.839   1.617 -10.596  1.00  0.00     0.000 C 
BRANCH  17  18
ATOM     18  C   UNL     1     -27.245   3.100 -10.498  1.00  0.00     0.000 C 
BRANCH  18  19
ATOM     19  C   UNL     1     -28.548   3.475 -11.229  1.00  0.00     0.000 C 
BRANCH  19  20
ATOM     20  C   UNL     1     -28.368   4.627 -12.234  1.00  0.00     0.000 C 
BRANCH  20  21
ATOM     21  C   UNL     1     -26.990   5.299 -12.121  1.00  0.00     0.000 C 
BRANCH  21  22
ATOM     22  C   UNL     1     -27.077   6.834 -12.214  1.00  0.00     0.000 C 
BRANCH  22  23
ATOM     23  C   UNL     1     -28.423   7.317 -12.778  1.00  0.00     0.000 C 
BRANCH  23  24
ATOM     24  C   UNL     1     -28.759   8.759 -12.359  1.00  0.00     0.000 C 
BRANCH  24  25
ATOM     25  C   UNL     1     -29.636   8.824 -11.097  1.00  0.00     0.000 C 
BRANCH  25  26
ATOM     26  C   UNL     1     -30.349   7.507 -10.740  1.00  0.00     0.000 C 
BRANCH  26  27
ATOM     27  C   UNL     1     -31.882   7.624 -10.793  1.00  0.00     0.002 C 
BRANCH  27  28
ATOM     28  C   UNL     1     -32.485   7.009 -12.067  1.00  0.00     0.028 C 
BRANCH  28  29
ATOM     29  C   UNL     1     -33.501   5.897 -11.784  1.00  0.00     0.156 C 
BRANCH  29  30
ATOM     30  O   UNL     1     -33.039   5.066 -10.755  1.00  0.00    -0.396 OA
ATOM     31  H   UNL     1     -33.739   4.374 -10.623  1.00  0.00     0.210 HD
ENDBRANCH  29  30
ENDBRANCH  28  29
ENDBRANCH  27  28
ENDBRANCH  26  27
ENDBRANCH  25  26
ENDBRANCH  24  25
ENDBRANCH  23  24
ENDBRANCH  22  23
ENDBRANCH  21  22
ENDBRANCH  20  21
ENDBRANCH  19  20
ENDBRANCH  18  19
ENDBRANCH  17  18
ENDBRANCH   1  17
TORSDOF 28
ENDMDL
MODEL 3
REMARK VINA RESULT:    -3.782      3.624     12.756
REMARK INTER + INTRA:         -11.713
REMARK INTER:                  -9.201
REMARK INTRA:                  -2.512
REMARK UNBOUND:                -1.850
REMARK SMILES CCCCCCCCCCCCCCCCCCCCCCCCCCCCCO
REMARK SMILES IDX 16 1 15 2 14 3 13 4 12 5 11 6 10 7 9 8 8 9 7 10 6 11 5 12
REMARK SMILES IDX 4 13 3 14 2 15 1 16 17 17 18 18 19 19 20 20 21 21 22 22
REMARK SMILES IDX 23 23 24 24 25 25 26 26 27 27 28 28 29 29 30 30
REMARK H PARENT 30 31
REMARK Flexibility Score: inf
ROOT
ATOM      1  C   UNL     1     -24.944   0.527 -11.510  1.00  0.00     0.000 C 
ENDROOT
BRANCH   1   2
ATOM      2  C   UNL     1     -26.239   1.254 -11.913  1.00  0.00     0.000 C 
BRANCH   2   3
ATOM      3  C   UNL     1     -26.870   2.080 -10.770  1.00  0.00     0.000 C 
BRANCH   3   4
ATOM      4  C   UNL     1     -28.293   1.607 -10.422  1.00  0.00     0.000 C 
BRANCH   4   5
ATOM      5  C   UNL     1     -29.273   2.781 -10.265  1.00  0.00     0.000 C 
BRANCH   5   6
ATOM      6  C   UNL     1     -28.550   4.139 -10.246  1.00  0.00     0.000 C 
BRANCH   6   7
ATOM      7  C   UNL     1     -29.483   5.304  -9.876  1.00  0.00     0.000 C 
BRANCH   7   8
ATOM      8  C   UNL     1     -30.952   5.016 -10.226  1.00  0.00    -0.000 C 
BRANCH   8   9
ATOM      9  C   UNL     1     -31.842   6.226  -9.904  1.00  0.00    -0.000 C 
BRANCH   9  10
ATOM     10  C   UNL     1     -31.170   7.560 -10.264  1.00  0.00    -0.000 C 
BRANCH  10  11
ATOM     11  C   UNL     1     -31.318   7.912 -11.754  1.00  0.00    -0.000 C 
BRANCH  11  12
ATOM     12  C   UNL     1     -30.431   9.106 -12.168  1.00  0.00    -0.000 C 
BRANCH  12  13
ATOM     13  C   UNL     1     -29.076   8.700 -12.781  1.00  0.00    -0.000 C 
BRANCH  13  14
ATOM     14  C   UNL     1     -28.596   7.282 -12.422  1.00  0.00    -0.000 C 
BRANCH  14  15
ATOM     15  C   UNL     1     -27.088   7.220 -12.135  1.00  0.00    -0.003 C 
ATOM     16  C   UNL     1     -26.473   8.616 -12.125  1.00  0.00     0.004 C 
ENDBRANCH  14  15
ENDBRANCH  13  14
ENDBRANCH  12  13
ENDBRANCH  11  12
ENDBRANCH  10  11
ENDBRANCH   9  10
ENDBRANCH   8   9
ENDBRANCH   7   8
ENDBRANCH   6   7
ENDBRANCH   5   6
ENDBRANCH   4   5
ENDBRANCH   3   4
ENDBRANCH   2   3
ENDBRANCH   1   2
BRANCH   1  17
ATOM     17  C   UNL     1     -24.857  -0.893 -12.092  1.00  0.00     0.000 C 
BRANCH  17  18
ATOM     18  C   UNL     1     -25.100  -1.996 -11.043  1.00  0.00     0.000 C 
BRANCH  18  19
ATOM     19  C   UNL     1     -23.835  -2.721 -10.546  1.00  0.00     0.000 C 
BRANCH  19  20
ATOM     20  C   UNL     1     -22.729  -1.757 -10.081  1.00  0.00     0.000 C 
BRANCH  20  21
ATOM     21  C   UNL     1     -21.398  -1.986 -10.816  1.00  0.00     0.000 C 
BRANCH  21  22
ATOM     22  C   UNL     1     -21.309  -1.186 -12.129  1.00  0.00     0.000 C 
BRANCH  22  23
ATOM     23  C   UNL     1     -21.528  -2.063 -13.372  1.00  0.00     0.000 C 
BRANCH  23  24
ATOM     24  C   UNL     1     -20.848  -3.439 -13.255  1.00  0.00     0.000 C 
BRANCH  24  25
ATOM     25  C   UNL     1     -19.375  -3.417 -13.701  1.00  0.00     0.000 C 
BRANCH  25  26
ATOM     26  C   UNL     1     -18.442  -4.332 -12.889  1.00  0.00     0.000 C 
BRANCH  26  27
ATOM     27  C   UNL     1     -18.759  -4.323 -11.384  1.00  0.00     0.002 C 
BRANCH  27  28
ATOM     28  C   UNL     1     -17.992  -3.233 -10.618  1.00  0.00     0.028 C 
BRANCH  28  29
ATOM     29  C   UNL     1     -16.694  -2.801 -11.311  1.00  0.00     0.156 C 
BRANCH  29  30
ATOM     30  O   UNL     1     -16.635  -1.404 -11.405  1.00  0.00    -0.396 OA
ATOM     31  H   UNL     1     -15.923  -1.202 -12.066  1.00  0.00     0.210 HD
ENDBRANCH  29  30
ENDBRANCH  28  29
ENDBRANCH  27  28
ENDBRANCH  26  27
ENDBRANCH  25  26
ENDBRANCH  24  25
ENDBRANCH  23  24
ENDBRANCH  22  23
ENDBRANCH  21  22
ENDBRANCH  20  21
ENDBRANCH  19  20
ENDBRANCH  18  19
ENDBRANCH  17  18
ENDBRANCH   1  17
TORSDOF 28
ENDMDL
MODEL 4
REMARK VINA RESULT:    -3.742      3.872     12.926
REMARK INTER + INTRA:         -11.607
REMARK INTER:                  -9.600
REMARK INTRA:                  -2.007
REMARK UNBOUND:                -1.850
REMARK SMILES CCCCCCCCCCCCCCCCCCCCCCCCCCCCCO
REMARK SMILES IDX 16 1 15 2 14 3 13 4 12 5 11 6 10 7 9 8 8 9 7 10 6 11 5 12
REMARK SMILES IDX 4 13 3 14 2 15 1 16 17 17 18 18 19 19 20 20 21 21 22 22
REMARK SMILES IDX 23 23 24 24 25 25 26 26 27 27 28 28 29 29 30 30
REMARK H PARENT 30 31
REMARK Flexibility Score: inf
ROOT
ATOM      1  C   UNL     1     -26.483   1.428 -10.093  1.00  0.00     0.000 C 
ENDROOT
BRANCH   1   2
ATOM      2  C   UNL     1     -27.951   0.973 -10.012  1.00  0.00     0.000 C 
BRANCH   2   3
ATOM      3  C   UNL     1     -28.945   1.960 -10.664  1.00  0.00     0.000 C 
BRANCH   3   4
ATOM      4  C   UNL     1     -28.701   3.414 -10.220  1.00  0.00     0.000 C 
BRANCH   4   5
ATOM      5  C   UNL     1     -28.999   4.422 -11.342  1.00  0.00     0.000 C 
BRANCH   5   6
ATOM      6  C   UNL     1     -27.874   4.469 -12.390  1.00  0.00     0.000 C 
BRANCH   6   7
ATOM      7  C   UNL     1     -26.872   5.607 -12.137  1.00  0.00     0.000 C 
BRANCH   7   8
ATOM      8  C   UNL     1     -27.378   6.963 -12.656  1.00  0.00    -0.000 C 
BRANCH   8   9
ATOM      9  C   UNL     1     -26.982   8.100 -11.702  1.00  0.00    -0.000 C 
BRANCH   9  10
ATOM     10  C   UNL     1     -27.719   8.018 -10.355  1.00  0.00    -0.000 C 
BRANCH  10  11
ATOM     11  C   UNL     1     -29.235   8.242 -10.497  1.00  0.00    -0.000 C 
BRANCH  11  12
ATOM     12  C   UNL     1     -29.587   9.115 -11.721  1.00  0.00    -0.000 C 
BRANCH  12  13
ATOM     13  C   UNL     1     -30.858   8.665 -12.469  1.00  0.00    -0.000 C 
BRANCH  13  14
ATOM     14  C   UNL     1     -31.118   7.148 -12.458  1.00  0.00    -0.000 C 
BRANCH  14  15
ATOM     15  C   UNL     1     -32.194   6.737 -11.441  1.00  0.00    -0.003 C 
ATOM     16  C   UNL     1     -33.501   6.376 -12.140  1.00  0.00     0.004 C 
ENDBRANCH  14  15
ENDBRANCH  13  14
ENDBRANCH  12  13
ENDBRANCH  11  12
ENDBRANCH  10  11
ENDBRANCH   9  10
ENDBRANCH   8   9
ENDBRANCH   7   8
ENDBRANCH   6   7
ENDBRANCH   5   6
ENDBRANCH   4   5
ENDBRANCH   3   4
ENDBRANCH   2   3
ENDBRANCH   1   2
BRANCH   1  17
ATOM     17  C   UNL     1     -25.829   1.077 -11.438  1.00  0.00     0.000 C 
BRANCH  17  18
ATOM     18  C   UNL     1     -25.267  -0.358 -11.486  1.00  0.00     0.000 C 
BRANCH  18  19
ATOM     19  C   UNL     1     -25.041  -1.021 -10.114  1.00  0.00     0.000 C 
BRANCH  19  20
ATOM     20  C   UNL     1     -23.595  -1.507  -9.909  1.00  0.00     0.000 C 
BRANCH  20  21
ATOM     21  C   UNL     1     -22.903  -1.878 -11.232  1.00  0.00     0.000 C 
BRANCH  21  22
ATOM     22  C   UNL     1     -21.371  -1.950 -11.092  1.00  0.00     0.000 C 
BRANCH  22  23
ATOM     23  C   UNL     1     -20.921  -2.987 -10.050  1.00  0.00     0.000 C 
BRANCH  23  24
ATOM     24  C   UNL     1     -19.813  -3.916 -10.578  1.00  0.00     0.000 C 
BRANCH  24  25
ATOM     25  C   UNL     1     -18.423  -3.255 -10.563  1.00  0.00     0.000 C 
BRANCH  25  26
ATOM     26  C   UNL     1     -18.010  -2.595 -11.891  1.00  0.00     0.000 C 
BRANCH  26  27
ATOM     27  C   UNL     1     -19.013  -2.860 -13.027  1.00  0.00     0.002 C 
BRANCH  27  28
ATOM     28  C   UNL     1     -18.437  -3.756 -14.137  1.00  0.00     0.028 C 
BRANCH  28  29
ATOM     29  C   UNL     1     -18.690  -5.250 -13.906  1.00  0.00     0.156 C 
BRANCH  29  30
ATOM     30  O   UNL     1     -17.598  -6.003 -14.357  1.00  0.00    -0.396 OA
ATOM     31  H   UNL     1     -16.916  -5.958 -13.638  1.00  0.00     0.210 HD
ENDBRANCH  29  30
ENDBRANCH  28  29
ENDBRANCH  27  28
ENDBRANCH  26  27
ENDBRANCH  25  26
ENDBRANCH  24  25
ENDBRANCH  23  24
ENDBRANCH  22  23
ENDBRANCH  21  22
ENDBRANCH  20  21
ENDBRANCH  19  20
ENDBRANCH  18  19
ENDBRANCH  17  18
ENDBRANCH   1  17
TORSDOF 28
ENDMDL
MODEL 5
REMARK VINA RESULT:    -3.615      4.116     13.488
REMARK INTER + INTRA:         -11.276
REMARK INTER:                  -8.731
REMARK INTRA:                  -2.546
REMARK UNBOUND:                -1.850
REMARK SMILES CCCCCCCCCCCCCCCCCCCCCCCCCCCCCO
REMARK SMILES IDX 16 1 15 2 14 3 13 4 12 5 11 6 10 7 9 8 8 9 7 10 6 11 5 12
REMARK SMILES IDX 4 13 3 14 2 15 1 16 17 17 18 18 19 19 20 20 21 21 22 22
REMARK SMILES IDX 23 23 24 24 25 25 26 26 27 27 28 28 29 29 30 30
REMARK H PARENT 30 31
REMARK Flexibility Score: inf
ROOT
ATOM      1  C   UNL     1     -24.690  -0.860 -12.138  1.00  0.00     0.000 C 
ENDROOT
BRANCH   1   2
ATOM      2  C   UNL     1     -25.409   0.435 -11.719  1.00  0.00     0.000 C 
BRANCH   2   3
ATOM      3  C   UNL     1     -25.863   0.445 -10.243  1.00  0.00     0.000 C 
BRANCH   3   4
ATOM      4  C   UNL     1     -27.225   1.137 -10.054  1.00  0.00     0.000 C 
BRANCH   4   5
ATOM      5  C   UNL     1     -27.136   2.659 -10.251  1.00  0.00     0.000 C 
BRANCH   5   6
ATOM      6  C   UNL     1     -28.487   3.353 -10.003  1.00  0.00     0.000 C 
BRANCH   6   7
ATOM      7  C   UNL     1     -28.445   4.861 -10.302  1.00  0.00     0.000 C 
BRANCH   7   8
ATOM      8  C   UNL     1     -28.447   5.162 -11.809  1.00  0.00    -0.000 C 
BRANCH   8   9
ATOM      9  C   UNL     1     -28.452   6.676 -12.068  1.00  0.00    -0.000 C 
BRANCH   9  10
ATOM     10  C   UNL     1     -29.282   7.057 -13.305  1.00  0.00    -0.000 C 
BRANCH  10  11
ATOM     11  C   UNL     1     -30.440   8.012 -12.966  1.00  0.00    -0.000 C 
BRANCH  11  12
ATOM     12  C   UNL     1     -30.525   8.322 -11.456  1.00  0.00    -0.000 C 
BRANCH  12  13
ATOM     13  C   UNL     1     -31.793   7.774 -10.773  1.00  0.00    -0.000 C 
BRANCH  13  14
ATOM     14  C   UNL     1     -31.830   6.246 -10.594  1.00  0.00    -0.000 C 
BRANCH  14  15
ATOM     15  C   UNL     1     -33.148   5.623 -11.081  1.00  0.00    -0.003 C 
ATOM     16  C   UNL     1     -33.803   6.490 -12.151  1.00  0.00     0.004 C 
ENDBRANCH  14  15
ENDBRANCH  13  14
ENDBRANCH  12  13
ENDBRANCH  11  12
ENDBRANCH  10  11
ENDBRANCH   9  10
ENDBRANCH   8   9
ENDBRANCH   7   8
ENDBRANCH   6   7
ENDBRANCH   5   6
ENDBRANCH   4   5
ENDBRANCH   3   4
ENDBRANCH   2   3
ENDBRANCH   1   2
BRANCH   1  17
ATOM     17  C   UNL     1     -24.521  -1.846 -10.972  1.00  0.00     0.000 C 
BRANCH  17  18
ATOM     18  C   UNL     1     -23.207  -1.645 -10.191  1.00  0.00     0.000 C 
BRANCH  18  19
ATOM     19  C   UNL     1     -21.962  -2.298 -10.820  1.00  0.00     0.000 C 
BRANCH  19  20
ATOM     20  C   UNL     1     -21.165  -1.337 -11.721  1.00  0.00     0.000 C 
BRANCH  20  21
ATOM     21  C   UNL     1     -21.167  -1.772 -13.196  1.00  0.00     0.000 C 
BRANCH  21  22
ATOM     22  C   UNL     1     -20.810  -3.261 -13.368  1.00  0.00     0.000 C 
BRANCH  22  23
ATOM     23  C   UNL     1     -19.404  -3.468 -13.952  1.00  0.00     0.000 C 
BRANCH  23  24
ATOM     24  C   UNL     1     -18.494  -4.298 -13.029  1.00  0.00     0.000 C 
BRANCH  24  25
ATOM     25  C   UNL     1     -18.997  -4.339 -11.576  1.00  0.00     0.000 C 
BRANCH  25  26
ATOM     26  C   UNL     1     -18.283  -3.368 -10.620  1.00  0.00     0.000 C 
BRANCH  26  27
ATOM     27  C   UNL     1     -17.085  -2.658 -11.274  1.00  0.00     0.002 C 
BRANCH  27  28
ATOM     28  C   UNL     1     -16.059  -2.148 -10.249  1.00  0.00     0.028 C 
BRANCH  28  29
ATOM     29  C   UNL     1     -15.000  -3.193  -9.875  1.00  0.00     0.156 C 
BRANCH  29  30
ATOM     30  O   UNL     1     -15.100  -4.308 -10.717  1.00  0.00    -0.396 OA
ATOM     31  H   UNL     1     -14.168  -4.581 -10.924  1.00  0.00     0.210 HD
ENDBRANCH  29  30
ENDBRANCH  28  29
ENDBRANCH  27  28
ENDBRANCH  26  27
ENDBRANCH  25  26
ENDBRANCH  24  25
ENDBRANCH  23  24
ENDBRANCH  22  23
ENDBRANCH  21  22
ENDBRANCH  20  21
ENDBRANCH  19  20
ENDBRANCH  18  19
ENDBRANCH  17  18
ENDBRANCH   1  17
TORSDOF 28
ENDMDL
MODEL 6
REMARK VINA RESULT:    -3.221      3.263     12.819
REMARK INTER + INTRA:         -10.250
REMARK INTER:                  -8.492
REMARK INTRA:                  -1.759
REMARK UNBOUND:                -1.850
REMARK SMILES CCCCCCCCCCCCCCCCCCCCCCCCCCCCCO
REMARK SMILES IDX 16 1 15 2 14 3 13 4 12 5 11 6 10 7 9 8 8 9 7 10 6 11 5 12
REMARK SMILES IDX 4 13 3 14 2 15 1 16 17 17 18 18 19 19 20 20 21 21 22 22
REMARK SMILES IDX 23 23 24 24 25 25 26 26 27 27 28 28 29 29 30 30
REMARK H PARENT 30 31
REMARK Flexibility Score: inf
ROOT
ATOM      1  C   UNL     1     -25.877  -0.454  -9.876  1.00  0.00     0.000 C 
ENDROOT
BRANCH   1   2
ATOM      2  C   UNL     1     -26.247   0.777 -10.722  1.00  0.00     0.000 C 
BRANCH   2   3
ATOM      3  C   UNL     1     -27.139   1.797  -9.980  1.00  0.00     0.000 C 
BRANCH   3   4
ATOM      4  C   UNL     1     -28.629   1.416 -10.028  1.00  0.00     0.000 C 
BRANCH   4   5
ATOM      5  C   UNL     1     -29.504   2.558 -10.573  1.00  0.00     0.000 C 
BRANCH   5   6
ATOM      6  C   UNL     1     -28.702   3.856 -10.772  1.00  0.00     0.000 C 
BRANCH   6   7
ATOM      7  C   UNL     1     -28.211   4.035 -12.218  1.00  0.00     0.000 C 
BRANCH   7   8
ATOM      8  C   UNL     1     -28.160   5.512 -12.643  1.00  0.00    -0.000 C 
BRANCH   8   9
ATOM      9  C   UNL     1     -26.914   6.207 -12.073  1.00  0.00    -0.000 C 
BRANCH   9  10
ATOM     10  C   UNL     1     -26.998   7.738 -12.179  1.00  0.00    -0.000 C 
BRANCH  10  11
ATOM     11  C   UNL     1     -28.396   8.278 -11.830  1.00  0.00    -0.000 C 
BRANCH  11  12
ATOM     12  C   UNL     1     -28.573   8.514 -10.315  1.00  0.00    -0.000 C 
BRANCH  12  13
ATOM     13  C   UNL     1     -29.956   9.074  -9.924  1.00  0.00    -0.000 C 
BRANCH  13  14
ATOM     14  C   UNL     1     -31.157   8.255 -10.429  1.00  0.00    -0.000 C 
BRANCH  14  15
ATOM     15  C   UNL     1     -31.171   6.820  -9.880  1.00  0.00    -0.003 C 
ATOM     16  C   UNL     1     -32.162   5.949 -10.645  1.00  0.00     0.004 C 
ENDBRANCH  14  15
ENDBRANCH  13  14
ENDBRANCH  12  13
ENDBRANCH  11  12
ENDBRANCH  10  11
ENDBRANCH   9  10
ENDBRANCH   8   9
ENDBRANCH   7   8
ENDBRANCH   6   7
ENDBRANCH   5   6
ENDBRANCH   4   5
ENDBRANCH   3   4
ENDBRANCH   2   3
ENDBRANCH   1   2
BRANCH   1  17
ATOM     17  C   UNL     1     -24.446  -0.945 -10.142  1.00  0.00     0.000 C 
BRANCH  17  18
ATOM     18  C   UNL     1     -24.184  -1.282 -11.623  1.00  0.00     0.000 C 
BRANCH  18  19
ATOM     19  C   UNL     1     -23.402  -0.215 -12.412  1.00  0.00     0.000 C 
BRANCH  19  20
ATOM     20  C   UNL     1     -22.187  -0.789 -13.163  1.00  0.00     0.000 C 
BRANCH  20  21
ATOM     21  C   UNL     1     -21.900  -2.253 -12.791  1.00  0.00     0.000 C 
BRANCH  21  22
ATOM     22  C   UNL     1     -20.445  -2.660 -13.093  1.00  0.00     0.000 C 
BRANCH  22  23
ATOM     23  C   UNL     1     -20.321  -4.128 -13.531  1.00  0.00     0.000 C 
BRANCH  23  24
ATOM     24  C   UNL     1     -18.859  -4.564 -13.737  1.00  0.00     0.000 C 
BRANCH  24  25
ATOM     25  C   UNL     1     -17.849  -3.553 -13.164  1.00  0.00     0.000 C 
BRANCH  25  26
ATOM     26  C   UNL     1     -16.888  -4.131 -12.110  1.00  0.00     0.000 C 
BRANCH  26  27
ATOM     27  C   UNL     1     -17.103  -3.526 -10.711  1.00  0.00     0.002 C 
BRANCH  27  28
ATOM     28  C   UNL     1     -18.541  -3.029 -10.489  1.00  0.00     0.028 C 
BRANCH  28  29
ATOM     29  C   UNL     1     -19.489  -4.119  -9.974  1.00  0.00     0.156 C 
BRANCH  29  30
ATOM     30  O   UNL     1     -20.816  -3.671 -10.021  1.00  0.00    -0.396 OA
ATOM     31  H   UNL     1     -21.375  -4.434  -9.720  1.00  0.00     0.210 HD
ENDBRANCH  29  30
ENDBRANCH  28  29
ENDBRANCH  27  28
ENDBRANCH  26  27
ENDBRANCH  25  26
ENDBRANCH  24  25
ENDBRANCH  23  24
ENDBRANCH  22  23
ENDBRANCH  21  22
ENDBRANCH  20  21
ENDBRANCH  19  20
ENDBRANCH  18  19
ENDBRANCH  17  18
ENDBRANCH   1  17
TORSDOF 28
ENDMDL
MODEL 7
REMARK VINA RESULT:    -3.156      1.818      4.162
REMARK INTER + INTRA:         -10.079
REMARK INTER:                  -7.754
REMARK INTRA:                  -2.325
REMARK UNBOUND:                -1.850
REMARK SMILES CCCCCCCCCCCCCCCCCCCCCCCCCCCCCO
REMARK SMILES IDX 16 1 15 2 14 3 13 4 12 5 11 6 10 7 9 8 8 9 7 10 6 11 5 12
REMARK SMILES IDX 4 13 3 14 2 15 1 16 17 17 18 18 19 19 20 20 21 21 22 22
REMARK SMILES IDX 23 23 24 24 25 25 26 26 27 27 28 28 29 29 30 30
REMARK H PARENT 30 31
REMARK Flexibility Score: inf
ROOT
ATOM      1  C   UNL     1     -28.136   4.623 -12.773  1.00  0.00     0.000 C 
ENDROOT
BRANCH   1   2
ATOM      2  C   UNL     1     -27.338   4.653 -11.457  1.00  0.00     0.000 C 
BRANCH   2   3
ATOM      3  C   UNL     1     -26.534   3.362 -11.187  1.00  0.00     0.000 C 
BRANCH   3   4
ATOM      4  C   UNL     1     -26.781   2.283 -12.257  1.00  0.00     0.000 C 
BRANCH   4   5
ATOM      5  C   UNL     1     -26.136   0.938 -11.886  1.00  0.00     0.000 C 
BRANCH   5   6
ATOM      6  C   UNL     1     -25.836   0.837 -10.380  1.00  0.00     0.000 C 
BRANCH   6   7
ATOM      7  C   UNL     1     -25.138  -0.480 -10.001  1.00  0.00     0.000 C 
BRANCH   7   8
ATOM      8  C   UNL     1     -25.161  -1.509 -11.142  1.00  0.00    -0.000 C 
BRANCH   8   9
ATOM      9  C   UNL     1     -24.155  -2.640 -10.884  1.00  0.00    -0.000 C 
BRANCH   9  10
ATOM     10  C   UNL     1     -22.697  -2.174 -11.032  1.00  0.00    -0.000 C 
BRANCH  10  11
ATOM     11  C   UNL     1     -22.459  -1.389 -12.333  1.00  0.00    -0.000 C 
BRANCH  11  12
ATOM     12  C   UNL     1     -20.992  -1.469 -12.808  1.00  0.00    -0.000 C 
BRANCH  12  13
ATOM     13  C   UNL     1     -20.418  -2.900 -12.836  1.00  0.00    -0.000 C 
BRANCH  13  14
ATOM     14  C   UNL     1     -18.886  -2.990 -12.721  1.00  0.00    -0.000 C 
BRANCH  14  15
ATOM     15  C   UNL     1     -18.381  -4.439 -12.630  1.00  0.00    -0.003 C 
ATOM     16  C   UNL     1     -18.403  -5.115 -13.997  1.00  0.00     0.004 C 
ENDBRANCH  14  15
ENDBRANCH  13  14
ENDBRANCH  12  13
ENDBRANCH  11  12
ENDBRANCH  10  11
ENDBRANCH   9  10
ENDBRANCH   8   9
ENDBRANCH   7   8
ENDBRANCH   6   7
ENDBRANCH   5   6
ENDBRANCH   4   5
ENDBRANCH   3   4
ENDBRANCH   2   3
ENDBRANCH   1   2
BRANCH   1  17
ATOM     17  C   UNL     1     -28.191   5.994 -13.463  1.00  0.00     0.000 C 
BRANCH  17  18
ATOM     18  C   UNL     1     -27.699   7.147 -12.564  1.00  0.00     0.000 C 
BRANCH  18  19
ATOM     19  C   UNL     1     -28.617   8.382 -12.517  1.00  0.00     0.000 C 
BRANCH  19  20
ATOM     20  C   UNL     1     -29.642   8.329 -11.369  1.00  0.00     0.000 C 
BRANCH  20  21
ATOM     21  C   UNL     1     -31.035   8.821 -11.798  1.00  0.00     0.000 C 
BRANCH  21  22
ATOM     22  C   UNL     1     -31.674   7.914 -12.866  1.00  0.00     0.000 C 
BRANCH  22  23
ATOM     23  C   UNL     1     -32.482   6.759 -12.254  1.00  0.00     0.000 C 
BRANCH  23  24
ATOM     24  C   UNL     1     -33.108   7.125 -10.896  1.00  0.00     0.000 C 
BRANCH  24  25
ATOM     25  C   UNL     1     -33.154   5.936  -9.920  1.00  0.00     0.000 C 
BRANCH  25  26
ATOM     26  C   UNL     1     -32.952   4.558 -10.575  1.00  0.00     0.000 C 
BRANCH  26  27
ATOM     27  C   UNL     1     -31.617   3.901 -10.184  1.00  0.00     0.002 C 
BRANCH  27  28
ATOM     28  C   UNL     1     -31.695   2.366 -10.146  1.00  0.00     0.028 C 
BRANCH  28  29
ATOM     29  C   UNL     1     -30.321   1.686 -10.179  1.00  0.00     0.156 C 
BRANCH  29  30
ATOM     30  O   UNL     1     -30.409   0.443 -10.820  1.00  0.00    -0.396 OA
ATOM     31  H   UNL     1     -30.677   0.635 -11.757  1.00  0.00     0.210 HD
ENDBRANCH  29  30
ENDBRANCH  28  29
ENDBRANCH  27  28
ENDBRANCH  26  27
ENDBRANCH  25  26
ENDBRANCH  24  25
ENDBRANCH  23  24
ENDBRANCH  22  23
ENDBRANCH  21  22
ENDBRANCH  20  21
ENDBRANCH  19  20
ENDBRANCH  18  19
ENDBRANCH  17  18
ENDBRANCH   1  17
TORSDOF 28
ENDMDL
MODEL 8
REMARK VINA RESULT:    -3.102      1.493      3.094
REMARK INTER + INTRA:          -9.938
REMARK INTER:                  -7.702
REMARK INTRA:                  -2.236
REMARK UNBOUND:                -1.850
REMARK SMILES CCCCCCCCCCCCCCCCCCCCCCCCCCCCCO
REMARK SMILES IDX 16 1 15 2 14 3 13 4 12 5 11 6 10 7 9 8 8 9 7 10 6 11 5 12
REMARK SMILES IDX 4 13 3 14 2 15 1 16 17 17 18 18 19 19 20 20 21 21 22 22
REMARK SMILES IDX 23 23 24 24 25 25 26 26 27 27 28 28 29 29 30 30
REMARK H PARENT 30 31
REMARK Flexibility Score: inf
ROOT
ATOM      1  C   UNL     1     -27.562   4.445 -12.287  1.00  0.00     0.000 C 
ENDROOT
BRANCH   1   2
ATOM      2  C   UNL     1     -27.022   3.133 -11.691  1.00  0.00     0.000 C 
BRANCH   2   3
ATOM      3  C   UNL     1     -28.077   2.008 -11.604  1.00  0.00     0.000 C 
BRANCH   3   4
ATOM      4  C   UNL     1     -27.969   1.204 -10.296  1.00  0.00     0.000 C 
BRANCH   4   5
ATOM      5  C   UNL     1     -26.509   0.902  -9.918  1.00  0.00     0.000 C 
BRANCH   5   6
ATOM      6  C   UNL     1     -25.882  -0.158 -10.840  1.00  0.00     0.000 C 
BRANCH   6   7
ATOM      7  C   UNL     1     -24.726  -0.919 -10.170  1.00  0.00     0.000 C 
BRANCH   7   8
ATOM      8  C   UNL     1     -24.914  -2.444 -10.227  1.00  0.00    -0.000 C 
BRANCH   8   9
ATOM      9  C   UNL     1     -24.081  -3.060 -11.361  1.00  0.00    -0.000 C 
BRANCH   9  10
ATOM     10  C   UNL     1     -23.098  -2.052 -11.981  1.00  0.00    -0.000 C 
BRANCH  10  11
ATOM     11  C   UNL     1     -21.724  -2.068 -11.289  1.00  0.00    -0.000 C 
BRANCH  11  12
ATOM     12  C   UNL     1     -20.559  -1.946 -12.294  1.00  0.00    -0.000 C 
BRANCH  12  13
ATOM     13  C   UNL     1     -20.177  -3.274 -12.978  1.00  0.00    -0.000 C 
BRANCH  13  14
ATOM     14  C   UNL     1     -18.670  -3.482 -13.203  1.00  0.00    -0.000 C 
BRANCH  14  15
ATOM     15  C   UNL     1     -17.895  -3.685 -11.891  1.00  0.00    -0.003 C 
ATOM     16  C   UNL     1     -16.910  -2.545 -11.653  1.00  0.00     0.004 C 
ENDBRANCH  14  15
ENDBRANCH  13  14
ENDBRANCH  12  13
ENDBRANCH  11  12
ENDBRANCH  10  11
ENDBRANCH   9  10
ENDBRANCH   8   9
ENDBRANCH   7   8
ENDBRANCH   6   7
ENDBRANCH   5   6
ENDBRANCH   4   5
ENDBRANCH   3   4
ENDBRANCH   2   3
ENDBRANCH   1   2
BRANCH   1  17
ATOM     17  C   UNL     1     -28.760   5.001 -11.502  1.00  0.00     0.000 C 
BRANCH  17  18
ATOM     18  C   UNL     1     -28.385   5.500 -10.093  1.00  0.00     0.000 C 
BRANCH  18  19
ATOM     19  C   UNL     1     -27.126   6.385 -10.021  1.00  0.00     0.000 C 
BRANCH  19  20
ATOM     20  C   UNL     1     -27.370   7.823 -10.513  1.00  0.00     0.000 C 
BRANCH  20  21
ATOM     21  C   UNL     1     -27.397   7.926 -12.047  1.00  0.00     0.000 C 
BRANCH  21  22
ATOM     22  C   UNL     1     -28.632   8.689 -12.561  1.00  0.00     0.000 C 
BRANCH  22  23
ATOM     23  C   UNL     1     -29.685   8.915 -11.466  1.00  0.00     0.000 C 
BRANCH  23  24
ATOM     24  C   UNL     1     -31.120   8.957 -12.021  1.00  0.00     0.000 C 
BRANCH  24  25
ATOM     25  C   UNL     1     -32.036   7.894 -11.389  1.00  0.00     0.000 C 
BRANCH  25  26
ATOM     26  C   UNL     1     -31.473   7.233 -10.118  1.00  0.00     0.000 C 
BRANCH  26  27
ATOM     27  C   UNL     1     -32.043   5.825  -9.875  1.00  0.00     0.002 C 
BRANCH  27  28
ATOM     28  C   UNL     1     -33.565   5.753 -10.076  1.00  0.00     0.028 C 
BRANCH  28  29
ATOM     29  C   UNL     1     -34.000   4.646 -11.043  1.00  0.00     0.156 C 
BRANCH  29  30
ATOM     30  O   UNL     1     -33.595   3.394 -10.562  1.00  0.00    -0.396 OA
ATOM     31  H   UNL     1     -33.193   2.918 -11.335  1.00  0.00     0.210 HD
ENDBRANCH  29  30
ENDBRANCH  28  29
ENDBRANCH  27  28
ENDBRANCH  26  27
ENDBRANCH  25  26
ENDBRANCH  24  25
ENDBRANCH  23  24
ENDBRANCH  22  23
ENDBRANCH  21  22
ENDBRANCH  20  21
ENDBRANCH  19  20
ENDBRANCH  18  19
ENDBRANCH  17  18
ENDBRANCH   1  17
TORSDOF 28
ENDMDL
MODEL 9
REMARK VINA RESULT:    -2.949      3.575     12.613
REMARK INTER + INTRA:          -9.540
REMARK INTER:                  -7.181
REMARK INTRA:                  -2.359
REMARK UNBOUND:                -1.850
REMARK SMILES CCCCCCCCCCCCCCCCCCCCCCCCCCCCCO
REMARK SMILES IDX 16 1 15 2 14 3 13 4 12 5 11 6 10 7 9 8 8 9 7 10 6 11 5 12
REMARK SMILES IDX 4 13 3 14 2 15 1 16 17 17 18 18 19 19 20 20 21 21 22 22
REMARK SMILES IDX 23 23 24 24 25 25 26 26 27 27 28 28 29 29 30 30
REMARK H PARENT 30 31
REMARK Flexibility Score: inf
ROOT
ATOM      1  C   UNL     1     -25.139   0.407 -12.086  1.00  0.00     0.000 C 
ENDROOT
BRANCH   1   2
ATOM      2  C   UNL     1     -25.761   1.430 -11.119  1.00  0.00     0.000 C 
BRANCH   2   3
ATOM      3  C   UNL     1     -27.303   1.363 -11.050  1.00  0.00     0.000 C 
BRANCH   3   4
ATOM      4  C   UNL     1     -27.872   2.178  -9.875  1.00  0.00     0.000 C 
BRANCH   4   5
ATOM      5  C   UNL     1     -29.137   2.960 -10.268  1.00  0.00     0.000 C 
BRANCH   5   6
ATOM      6  C   UNL     1     -28.935   4.481 -10.148  1.00  0.00     0.000 C 
BRANCH   6   7
ATOM      7  C   UNL     1     -29.315   5.234 -11.433  1.00  0.00     0.000 C 
BRANCH   7   8
ATOM      8  C   UNL     1     -28.271   5.059 -12.548  1.00  0.00    -0.000 C 
BRANCH   8   9
ATOM      9  C   UNL     1     -26.911   5.635 -12.125  1.00  0.00    -0.000 C 
BRANCH   9  10
ATOM     10  C   UNL     1     -26.744   7.106 -12.539  1.00  0.00    -0.000 C 
BRANCH  10  11
ATOM     11  C   UNL     1     -26.563   8.042 -11.331  1.00  0.00    -0.000 C 
BRANCH  11  12
ATOM     12  C   UNL     1     -27.673   9.112 -11.245  1.00  0.00    -0.000 C 
BRANCH  12  13
ATOM     13  C   UNL     1     -28.986   8.606 -10.614  1.00  0.00    -0.000 C 
BRANCH  13  14
ATOM     14  C   UNL     1     -30.267   8.997 -11.372  1.00  0.00    -0.000 C 
BRANCH  14  15
ATOM     15  C   UNL     1     -30.426   8.240 -12.699  1.00  0.00    -0.003 C 
ATOM     16  C   UNL     1     -31.773   7.526 -12.766  1.00  0.00     0.004 C 
ENDBRANCH  14  15
ENDBRANCH  13  14
ENDBRANCH  12  13
ENDBRANCH  11  12
ENDBRANCH  10  11
ENDBRANCH   9  10
ENDBRANCH   8   9
ENDBRANCH   7   8
ENDBRANCH   6   7
ENDBRANCH   5   6
ENDBRANCH   4   5
ENDBRANCH   3   4
ENDBRANCH   2   3
ENDBRANCH   1   2
BRANCH   1  17
ATOM     17  C   UNL     1     -25.478  -1.043 -11.711  1.00  0.00     0.000 C 
BRANCH  17  18
ATOM     18  C   UNL     1     -25.088  -1.404 -10.264  1.00  0.00     0.000 C 
BRANCH  18  19
ATOM     19  C   UNL     1     -24.395  -2.769 -10.089  1.00  0.00     0.000 C 
BRANCH  19  20
ATOM     20  C   UNL     1     -22.875  -2.653  -9.878  1.00  0.00     0.000 C 
BRANCH  20  21
ATOM     21  C   UNL     1     -22.196  -1.773 -10.941  1.00  0.00     0.000 C 
BRANCH  21  22
ATOM     22  C   UNL     1     -22.290  -2.382 -12.352  1.00  0.00     0.000 C 
BRANCH  22  23
ATOM     23  C   UNL     1     -21.336  -1.708 -13.351  1.00  0.00     0.000 C 
BRANCH  23  24
ATOM     24  C   UNL     1     -19.909  -2.282 -13.290  1.00  0.00     0.000 C 
BRANCH  24  25
ATOM     25  C   UNL     1     -19.883  -3.776 -12.925  1.00  0.00     0.000 C 
BRANCH  25  26
ATOM     26  C   UNL     1     -18.606  -4.521 -13.351  1.00  0.00     0.000 C 
BRANCH  26  27
ATOM     27  C   UNL     1     -17.444  -4.329 -12.361  1.00  0.00     0.002 C 
BRANCH  27  28
ATOM     28  C   UNL     1     -17.791  -3.372 -11.210  1.00  0.00     0.028 C 
BRANCH  28  29
ATOM     29  C   UNL     1     -16.727  -2.295 -10.971  1.00  0.00     0.156 C 
BRANCH  29  30
ATOM     30  O   UNL     1     -17.021  -1.147 -11.718  1.00  0.00    -0.396 OA
ATOM     31  H   UNL     1     -16.765  -0.374 -11.149  1.00  0.00     0.210 HD
ENDBRANCH  29  30
ENDBRANCH  28  29
ENDBRANCH  27  28
ENDBRANCH  26  27
ENDBRANCH  25  26
ENDBRANCH  24  25
ENDBRANCH  23  24
ENDBRANCH  22  23
ENDBRANCH  21  22
ENDBRANCH  20  21
ENDBRANCH  19  20
ENDBRANCH  18  19
ENDBRANCH  17  18
ENDBRANCH   1  17
TORSDOF 28
ENDMDL
