MODEL 1
REMARK VINA RESULT:    -5.441      0.000      0.000
REMARK INTER + INTRA:          -7.994
REMARK INTER:                  -7.667
REMARK INTRA:                  -0.327
REMARK UNBOUND:                -0.327
REMARK SMILES OCC1=C[C@H](O)[C@@H]2C=CO[C@@H](O[C@H]3O[C@@H](CO)[C@@H](O)[C@H](O)[C@@H]3O)[C@H]12
REMARK SMILES IDX 12 1 11 2 8 3 9 4 7 5 10 6 24 7 5 8 3 9 4 10 6 11 2 13 1 14
REMARK SMILES IDX 13 16 22 17 14 18 20 19 15 20 18 21 23 22 21 24 16 26 17 27
REMARK SMILES IDX 19 29
REMARK H PARENT 6 12 1 15 23 23 21 25 17 28 19 30
REMARK Flexibility Score: inf
ROOT
ATOM      1  O   UNL     1      11.399  20.307  16.111  1.00  0.00    -0.310 OA
ENDROOT
BRANCH   1   2
ATOM      2  C   UNL     1      11.185  21.116  17.251  1.00  0.00     0.316 C 
ATOM      3  C   UNL     1      11.731  22.068  19.885  1.00  0.00     0.018 C 
ATOM      4  C   UNL     1      12.559  22.356  18.880  1.00  0.00     0.186 C 
ATOM      5  C   UNL     1      10.666  21.004  19.755  1.00  0.00     0.061 C 
ATOM      6  O   UNL     1      12.409  21.743  17.635  1.00  0.00    -0.472 OA
ATOM      7  C   UNL     1      10.667  20.240  18.410  1.00  0.00     0.096 C 
ATOM      8  C   UNL     1       9.226  21.525  19.923  1.00  0.00     0.145 C 
ATOM      9  C   UNL     1       9.215  19.910  18.228  1.00  0.00    -0.036 C 
ATOM     10  C   UNL     1       8.439  20.622  19.037  1.00  0.00     0.007 C 
BRANCH   8  11
ATOM     11  O   UNL     1       9.087  22.846  19.465  1.00  0.00    -0.388 OA
ATOM     12  H   UNL     1       9.617  23.417  20.079  1.00  0.00     0.211 HD
ENDBRANCH   8  11
BRANCH   9  13
ATOM     13  C   UNL     1       8.686  18.941  17.203  1.00  0.00     0.187 C 
BRANCH  13  14
ATOM     14  O   UNL     1       8.854  19.461  15.913  1.00  0.00    -0.392 OA
ATOM     15  H   UNL     1       8.354  20.320  15.887  1.00  0.00     0.211 HD
ENDBRANCH  13  14
ENDBRANCH   9  13
ENDBRANCH   1   2
BRANCH   1  16
ATOM     16  C   UNL     1      12.780  20.072  15.882  1.00  0.00     0.286 C 
ATOM     17  C   UNL     1      12.931  19.270  14.569  1.00  0.00     0.202 C 
ATOM     18  O   UNL     1      13.269  19.312  16.974  1.00  0.00    -0.341 OA
ATOM     19  C   UNL     1      14.388  18.792  14.359  1.00  0.00     0.179 C 
ATOM     20  C   UNL     1      14.665  19.102  16.860  1.00  0.00     0.178 C 
ATOM     21  C   UNL     1      14.971  18.185  15.651  1.00  0.00     0.177 C 
BRANCH  17  22
ATOM     22  O   UNL     1      12.519  20.059  13.482  1.00  0.00    -0.385 OA
ATOM     23  H   UNL     1      13.166  20.808  13.409  1.00  0.00     0.211 HD
ENDBRANCH  17  22
BRANCH  19  24
ATOM     24  O   UNL     1      15.212  19.816  13.855  1.00  0.00    -0.387 OA
ATOM     25  H   UNL     1      15.922  20.006  14.520  1.00  0.00     0.211 HD
ENDBRANCH  19  24
BRANCH  20  26
ATOM     26  C   UNL     1      15.187  18.492  18.170  1.00  0.00     0.191 C 
BRANCH  26  27
ATOM     27  O   UNL     1      14.172  17.762  18.805  1.00  0.00    -0.394 OA
ATOM     28  H   UNL     1      14.536  17.470  19.680  1.00  0.00     0.210 HD
ENDBRANCH  26  27
ENDBRANCH  20  26
BRANCH  21  29
ATOM     29  O   UNL     1      14.401  16.914  15.849  1.00  0.00    -0.387 OA
ATOM     30  H   UNL     1      14.629  16.630  16.772  1.00  0.00     0.211 HD
ENDBRANCH  21  29
ENDBRANCH   1  16
TORSDOF 10
ENDMDL
MODEL 2
REMARK VINA RESULT:    -5.038      1.072      2.660
REMARK INTER + INTRA:          -7.426
REMARK INTER:                  -7.382
REMARK INTRA:                  -0.044
REMARK UNBOUND:                -0.327
REMARK SMILES OCC1=C[C@H](O)[C@@H]2C=CO[C@@H](O[C@H]3O[C@@H](CO)[C@@H](O)[C@H](O)[C@@H]3O)[C@H]12
REMARK SMILES IDX 12 1 11 2 8 3 9 4 7 5 10 6 24 7 5 8 3 9 4 10 6 11 2 13 1 14
REMARK SMILES IDX 13 16 22 17 14 18 20 19 15 20 18 21 23 22 21 24 16 26 17 27
REMARK SMILES IDX 19 29
REMARK H PARENT 6 12 1 15 23 23 21 25 17 28 19 30
REMARK Flexibility Score: inf
ROOT
ATOM      1  O   UNL     1      11.290  20.312  15.649  1.00  0.00    -0.310 OA
ENDROOT
BRANCH   1   2
ATOM      2  C   UNL     1      10.719  20.218  16.939  1.00  0.00     0.316 C 
ATOM      3  C   UNL     1       8.639  20.503  18.873  1.00  0.00     0.018 C 
ATOM      4  C   UNL     1       8.550  19.574  17.921  1.00  0.00     0.186 C 
ATOM      5  C   UNL     1       9.656  21.618  18.799  1.00  0.00     0.061 C 
ATOM      6  O   UNL     1       9.460  19.548  16.862  1.00  0.00    -0.472 OA
ATOM      7  C   UNL     1      10.515  21.635  17.514  1.00  0.00     0.096 C 
ATOM      8  C   UNL     1      10.666  21.634  19.962  1.00  0.00     0.145 C 
ATOM      9  C   UNL     1      11.813  22.208  18.003  1.00  0.00    -0.036 C 
ATOM     10  C   UNL     1      11.895  22.188  19.329  1.00  0.00     0.007 C 
BRANCH   8  11
ATOM     11  O   UNL     1      10.942  20.340  20.436  1.00  0.00    -0.388 OA
ATOM     12  H   UNL     1      10.142  19.788  20.237  1.00  0.00     0.211 HD
ENDBRANCH   8  11
BRANCH   9  13
ATOM     13  C   UNL     1      12.924  22.685  17.105  1.00  0.00     0.187 C 
BRANCH  13  14
ATOM     14  O   UNL     1      14.144  22.124  17.504  1.00  0.00    -0.392 OA
ATOM     15  H   UNL     1      14.047  21.140  17.411  1.00  0.00     0.211 HD
ENDBRANCH  13  14
ENDBRANCH   9  13
ENDBRANCH   1   2
BRANCH   1  16
ATOM     16  C   UNL     1      12.682  20.037  15.666  1.00  0.00     0.286 C 
ATOM     17  C   UNL     1      13.028  19.170  14.434  1.00  0.00     0.202 C 
ATOM     18  O   UNL     1      12.960  19.321  16.858  1.00  0.00    -0.341 OA
ATOM     19  C   UNL     1      14.485  18.652  14.494  1.00  0.00     0.179 C 
ATOM     20  C   UNL     1      14.349  19.076  16.989  1.00  0.00     0.178 C 
ATOM     21  C   UNL     1      14.826  18.096  15.891  1.00  0.00     0.177 C 
BRANCH  17  22
ATOM     22  O   UNL     1      12.825  19.913  13.260  1.00  0.00    -0.385 OA
ATOM     23  H   UNL     1      13.661  19.841  12.728  1.00  0.00     0.211 HD
ENDBRANCH  17  22
BRANCH  19  24
ATOM     24  O   UNL     1      15.411  19.633  14.091  1.00  0.00    -0.387 OA
ATOM     25  H   UNL     1      15.354  20.397  14.718  1.00  0.00     0.211 HD
ENDBRANCH  19  24
BRANCH  20  26
ATOM     26  C   UNL     1      14.626  18.520  18.394  1.00  0.00     0.191 C 
BRANCH  26  27
ATOM     27  O   UNL     1      13.487  18.644  19.201  1.00  0.00    -0.394 OA
ATOM     28  H   UNL     1      13.778  19.089  20.039  1.00  0.00     0.210 HD
ENDBRANCH  26  27
ENDBRANCH  20  26
BRANCH  21  29
ATOM     29  O   UNL     1      14.194  16.849  16.046  1.00  0.00    -0.387 OA
ATOM     30  H   UNL     1      14.822  16.260  16.542  1.00  0.00     0.211 HD
ENDBRANCH  21  29
ENDBRANCH   1  16
TORSDOF 10
ENDMDL
MODEL 3
REMARK VINA RESULT:    -4.909     15.261     17.585
REMARK INTER + INTRA:          -7.245
REMARK INTER:                  -6.413
REMARK INTRA:                  -0.833
REMARK UNBOUND:                -0.327
REMARK SMILES OCC1=C[C@H](O)[C@@H]2C=CO[C@@H](O[C@H]3O[C@@H](CO)[C@@H](O)[C@H](O)[C@@H]3O)[C@H]12
REMARK SMILES IDX 12 1 11 2 8 3 9 4 7 5 10 6 24 7 5 8 3 9 4 10 6 11 2 13 1 14
REMARK SMILES IDX 13 16 22 17 14 18 20 19 15 20 18 21 23 22 21 24 16 26 17 27
REMARK SMILES IDX 19 29
REMARK H PARENT 6 12 1 15 23 23 21 25 17 28 19 30
REMARK Flexibility Score: inf
ROOT
ATOM      1  O   UNL     1      22.322  15.135   3.952  1.00  0.00    -0.310 OA
ENDROOT
BRANCH   1   2
ATOM      2  C   UNL     1      20.928  14.949   3.805  1.00  0.00     0.316 C 
ATOM      3  C   UNL     1      18.256  14.592   4.738  1.00  0.00     0.018 C 
ATOM      4  C   UNL     1      18.866  15.768   4.881  1.00  0.00     0.186 C 
ATOM      5  C   UNL     1      19.020  13.341   4.372  1.00  0.00     0.061 C 
ATOM      6  O   UNL     1      20.228  15.903   4.605  1.00  0.00    -0.472 OA
ATOM      7  C   UNL     1      20.551  13.523   4.253  1.00  0.00     0.096 C 
ATOM      8  C   UNL     1      18.584  12.699   3.041  1.00  0.00     0.145 C 
ATOM      9  C   UNL     1      20.913  12.515   3.202  1.00  0.00    -0.036 C 
ATOM     10  C   UNL     1      19.846  12.087   2.537  1.00  0.00     0.007 C 
BRANCH   8  11
ATOM     11  O   UNL     1      18.142  13.657   2.114  1.00  0.00    -0.388 OA
ATOM     12  H   UNL     1      17.165  13.521   2.009  1.00  0.00     0.211 HD
ENDBRANCH   8  11
BRANCH   9  13
ATOM     13  C   UNL     1      22.322  12.089   2.883  1.00  0.00     0.187 C 
BRANCH  13  14
ATOM     14  O   UNL     1      22.942  13.040   2.061  1.00  0.00    -0.392 OA
ATOM     15  H   UNL     1      23.368  13.702   2.667  1.00  0.00     0.211 HD
ENDBRANCH  13  14
ENDBRANCH   9  13
ENDBRANCH   1   2
BRANCH   1  16
ATOM     16  C   UNL     1      22.687  16.503   3.856  1.00  0.00     0.286 C 
ATOM     17  C   UNL     1      24.089  16.595   3.211  1.00  0.00     0.202 C 
ATOM     18  O   UNL     1      22.723  17.027   5.173  1.00  0.00    -0.341 OA
ATOM     19  C   UNL     1      24.646  18.038   3.265  1.00  0.00     0.179 C 
ATOM     20  C   UNL     1      23.003  18.415   5.158  1.00  0.00     0.178 C 
ATOM     21  C   UNL     1      24.447  18.665   4.660  1.00  0.00     0.177 C 
BRANCH  17  22
ATOM     22  O   UNL     1      24.028  16.148   1.881  1.00  0.00    -0.385 OA
ATOM     23  H   UNL     1      24.790  16.570   1.403  1.00  0.00     0.211 HD
ENDBRANCH  17  22
BRANCH  19  24
ATOM     24  O   UNL     1      24.103  18.852   2.253  1.00  0.00    -0.387 OA
ATOM     25  H   UNL     1      23.345  18.370   1.834  1.00  0.00     0.211 HD
ENDBRANCH  19  24
BRANCH  20  26
ATOM     26  C   UNL     1      22.795  18.981   6.571  1.00  0.00     0.191 C 
BRANCH  26  27
ATOM     27  O   UNL     1      23.513  20.175   6.729  1.00  0.00    -0.394 OA
ATOM     28  H   UNL     1      23.401  20.452   7.675  1.00  0.00     0.210 HD
ENDBRANCH  26  27
ENDBRANCH  20  26
BRANCH  21  29
ATOM     29  O   UNL     1      25.374  18.090   5.548  1.00  0.00    -0.387 OA
ATOM     30  H   UNL     1      26.146  17.778   5.008  1.00  0.00     0.211 HD
ENDBRANCH  21  29
ENDBRANCH   1  16
TORSDOF 10
ENDMDL
MODEL 4
REMARK VINA RESULT:    -4.718     14.549     17.599
REMARK INTER + INTRA:          -6.976
REMARK INTER:                  -6.537
REMARK INTRA:                  -0.439
REMARK UNBOUND:                -0.327
REMARK SMILES OCC1=C[C@H](O)[C@@H]2C=CO[C@@H](O[C@H]3O[C@@H](CO)[C@@H](O)[C@H](O)[C@@H]3O)[C@H]12
REMARK SMILES IDX 12 1 11 2 8 3 9 4 7 5 10 6 24 7 5 8 3 9 4 10 6 11 2 13 1 14
REMARK SMILES IDX 13 16 22 17 14 18 20 19 15 20 18 21 23 22 21 24 16 26 17 27
REMARK SMILES IDX 19 29
REMARK H PARENT 6 12 1 15 23 23 21 25 17 28 19 30
REMARK Flexibility Score: inf
ROOT
ATOM      1  O   UNL     1      22.908  16.069   5.523  1.00  0.00    -0.310 OA
ENDROOT
BRANCH   1   2
ATOM      2  C   UNL     1      22.948  15.096   4.498  1.00  0.00     0.316 C 
ATOM      3  C   UNL     1      23.516  14.126   1.875  1.00  0.00     0.018 C 
ATOM      4  C   UNL     1      24.509  14.394   2.723  1.00  0.00     0.186 C 
ATOM      5  C   UNL     1      22.103  14.595   2.135  1.00  0.00     0.061 C 
ATOM      6  O   UNL     1      24.258  15.045   3.932  1.00  0.00    -0.472 OA
ATOM      7  C   UNL     1      21.926  15.463   3.403  1.00  0.00     0.096 C 
ATOM      8  C   UNL     1      21.072  13.459   2.274  1.00  0.00     0.145 C 
ATOM      9  C   UNL     1      20.530  15.120   3.833  1.00  0.00    -0.036 C 
ATOM     10  C   UNL     1      20.081  14.024   3.232  1.00  0.00     0.007 C 
BRANCH   8  11
ATOM     11  O   UNL     1      21.638  12.302   2.835  1.00  0.00    -0.388 OA
ATOM     12  H   UNL     1      22.567  12.245   2.491  1.00  0.00     0.211 HD
ENDBRANCH   8  11
BRANCH   9  13
ATOM     13  C   UNL     1      19.752  15.879   4.875  1.00  0.00     0.187 C 
BRANCH  13  14
ATOM     14  O   UNL     1      19.395  17.144   4.388  1.00  0.00    -0.392 OA
ATOM     15  H   UNL     1      19.637  17.154   3.425  1.00  0.00     0.211 HD
ENDBRANCH  13  14
ENDBRANCH   9  13
ENDBRANCH   1   2
BRANCH   1  16
ATOM     16  C   UNL     1      22.900  17.388   5.000  1.00  0.00     0.286 C 
ATOM     17  C   UNL     1      24.327  17.971   5.109  1.00  0.00     0.202 C 
ATOM     18  O   UNL     1      22.001  18.152   5.787  1.00  0.00    -0.341 OA
ATOM     19  C   UNL     1      24.355  19.478   4.756  1.00  0.00     0.179 C 
ATOM     20  C   UNL     1      21.874  19.468   5.277  1.00  0.00     0.178 C 
ATOM     21  C   UNL     1      23.206  20.238   5.447  1.00  0.00     0.177 C 
BRANCH  17  22
ATOM     22  O   UNL     1      25.196  17.259   4.266  1.00  0.00    -0.385 OA
ATOM     23  H   UNL     1      25.818  17.924   3.869  1.00  0.00     0.211 HD
ENDBRANCH  17  22
BRANCH  19  24
ATOM     24  O   UNL     1      24.350  19.693   3.364  1.00  0.00    -0.387 OA
ATOM     25  H   UNL     1      23.414  19.826   3.069  1.00  0.00     0.211 HD
ENDBRANCH  19  24
BRANCH  20  26
ATOM     26  C   UNL     1      20.722  20.176   6.006  1.00  0.00     0.191 C 
BRANCH  26  27
ATOM     27  O   UNL     1      21.104  21.474   6.375  1.00  0.00    -0.394 OA
ATOM     28  H   UNL     1      20.837  22.072   5.630  1.00  0.00     0.210 HD
ENDBRANCH  26  27
ENDBRANCH  20  26
BRANCH  21  29
ATOM     29  O   UNL     1      23.515  20.377   6.812  1.00  0.00    -0.387 OA
ATOM     30  H   UNL     1      22.827  19.875   7.323  1.00  0.00     0.211 HD
ENDBRANCH  21  29
ENDBRANCH   1  16
TORSDOF 10
ENDMDL
MODEL 5
REMARK VINA RESULT:    -4.584     14.781     18.070
REMARK INTER + INTRA:          -6.786
REMARK INTER:                  -6.244
REMARK INTRA:                  -0.542
REMARK UNBOUND:                -0.327
REMARK SMILES OCC1=C[C@H](O)[C@@H]2C=CO[C@@H](O[C@H]3O[C@@H](CO)[C@@H](O)[C@H](O)[C@@H]3O)[C@H]12
REMARK SMILES IDX 12 1 11 2 8 3 9 4 7 5 10 6 24 7 5 8 3 9 4 10 6 11 2 13 1 14
REMARK SMILES IDX 13 16 22 17 14 18 20 19 15 20 18 21 23 22 21 24 16 26 17 27
REMARK SMILES IDX 19 29
REMARK H PARENT 6 12 1 15 23 23 21 25 17 28 19 30
REMARK Flexibility Score: inf
ROOT
ATOM      1  O   UNL     1      21.677  15.303   1.932  1.00  0.00    -0.310 OA
ENDROOT
BRANCH   1   2
ATOM      2  C   UNL     1      22.958  15.770   2.310  1.00  0.00     0.316 C 
ATOM      3  C   UNL     1      25.416  15.688   3.756  1.00  0.00     0.018 C 
ATOM      4  C   UNL     1      25.172  14.799   2.793  1.00  0.00     0.186 C 
ATOM      5  C   UNL     1      24.321  16.559   4.326  1.00  0.00     0.061 C 
ATOM      6  O   UNL     1      23.906  14.707   2.211  1.00  0.00    -0.472 OA
ATOM      7  C   UNL     1      22.907  16.284   3.763  1.00  0.00     0.096 C 
ATOM      8  C   UNL     1      24.548  18.071   4.132  1.00  0.00     0.145 C 
ATOM      9  C   UNL     1      22.266  17.639   3.832  1.00  0.00    -0.036 C 
ATOM     10  C   UNL     1      23.161  18.603   4.014  1.00  0.00     0.007 C 
BRANCH   8  11
ATOM     11  O   UNL     1      25.245  18.350   2.945  1.00  0.00    -0.388 OA
ATOM     12  H   UNL     1      25.313  17.494   2.448  1.00  0.00     0.211 HD
ENDBRANCH   8  11
BRANCH   9  13
ATOM     13  C   UNL     1      20.793  17.892   3.646  1.00  0.00     0.187 C 
BRANCH  13  14
ATOM     14  O   UNL     1      20.365  18.918   4.499  1.00  0.00    -0.392 OA
ATOM     15  H   UNL     1      19.373  18.894   4.495  1.00  0.00     0.211 HD
ENDBRANCH  13  14
ENDBRANCH   9  13
ENDBRANCH   1   2
BRANCH   1  16
ATOM     16  C   UNL     1      21.121  14.436   2.908  1.00  0.00     0.286 C 
ATOM     17  C   UNL     1      20.834  13.069   2.246  1.00  0.00     0.202 C 
ATOM     18  O   UNL     1      19.911  15.022   3.358  1.00  0.00    -0.341 OA
ATOM     19  C   UNL     1      20.033  12.138   3.188  1.00  0.00     0.179 C 
ATOM     20  C   UNL     1      19.331  14.253   4.397  1.00  0.00     0.178 C 
ATOM     21  C   UNL     1      18.858  12.885   3.850  1.00  0.00     0.177 C 
BRANCH  17  22
ATOM     22  O   UNL     1      22.043  12.459   1.875  1.00  0.00    -0.385 OA
ATOM     23  H   UNL     1      22.703  12.676   2.585  1.00  0.00     0.211 HD
ENDBRANCH  17  22
BRANCH  19  24
ATOM     24  O   UNL     1      20.858  11.524   4.150  1.00  0.00    -0.387 OA
ATOM     25  H   UNL     1      21.792  11.538   3.819  1.00  0.00     0.211 HD
ENDBRANCH  19  24
BRANCH  20  26
ATOM     26  C   UNL     1      18.166  15.042   5.011  1.00  0.00     0.191 C 
BRANCH  26  27
ATOM     27  O   UNL     1      18.414  16.420   4.929  1.00  0.00    -0.394 OA
ATOM     28  H   UNL     1      18.227  16.798   5.827  1.00  0.00     0.210 HD
ENDBRANCH  26  27
ENDBRANCH  20  26
BRANCH  21  29
ATOM     29  O   UNL     1      17.845  13.070   2.891  1.00  0.00    -0.387 OA
ATOM     30  H   UNL     1      17.742  14.048   2.757  1.00  0.00     0.211 HD
ENDBRANCH  21  29
ENDBRANCH   1  16
TORSDOF 10
ENDMDL
MODEL 6
REMARK VINA RESULT:    -4.490     14.942     17.780
REMARK INTER + INTRA:          -6.655
REMARK INTER:                  -7.060
REMARK INTRA:                   0.405
REMARK UNBOUND:                -0.327
REMARK SMILES OCC1=C[C@H](O)[C@@H]2C=CO[C@@H](O[C@H]3O[C@@H](CO)[C@@H](O)[C@H](O)[C@@H]3O)[C@H]12
REMARK SMILES IDX 12 1 11 2 8 3 9 4 7 5 10 6 24 7 5 8 3 9 4 10 6 11 2 13 1 14
REMARK SMILES IDX 13 16 22 17 14 18 20 19 15 20 18 21 23 22 21 24 16 26 17 27
REMARK SMILES IDX 19 29
REMARK H PARENT 6 12 1 15 23 23 21 25 17 28 19 30
REMARK Flexibility Score: inf
ROOT
ATOM      1  O   UNL     1      21.857  16.366   5.181  1.00  0.00    -0.310 OA
ENDROOT
BRANCH   1   2
ATOM      2  C   UNL     1      21.891  15.141   4.476  1.00  0.00     0.316 C 
ATOM      3  C   UNL     1      22.340  13.480   2.200  1.00  0.00     0.018 C 
ATOM      4  C   UNL     1      23.369  14.024   2.849  1.00  0.00     0.186 C 
ATOM      5  C   UNL     1      20.921  13.944   2.432  1.00  0.00     0.061 C 
ATOM      6  O   UNL     1      23.160  14.985   3.840  1.00  0.00    -0.472 OA
ATOM      7  C   UNL     1      20.774  15.132   3.412  1.00  0.00     0.096 C 
ATOM      8  C   UNL     1      19.978  12.854   2.975  1.00  0.00     0.145 C 
ATOM      9  C   UNL     1      19.437  14.869   4.037  1.00  0.00    -0.036 C 
ATOM     10  C   UNL     1      19.019  13.628   3.813  1.00  0.00     0.007 C 
BRANCH   8  11
ATOM     11  O   UNL     1      20.654  11.932   3.792  1.00  0.00    -0.388 OA
ATOM     12  H   UNL     1      20.503  11.036   3.395  1.00  0.00     0.211 HD
ENDBRANCH   8  11
BRANCH   9  13
ATOM     13  C   UNL     1      18.683  15.863   4.881  1.00  0.00     0.187 C 
BRANCH  13  14
ATOM     14  O   UNL     1      18.990  17.171   4.482  1.00  0.00    -0.392 OA
ATOM     15  H   UNL     1      19.642  17.092   3.736  1.00  0.00     0.211 HD
ENDBRANCH  13  14
ENDBRANCH   9  13
ENDBRANCH   1   2
BRANCH   1  16
ATOM     16  C   UNL     1      23.086  17.070   5.077  1.00  0.00     0.286 C 
ATOM     17  C   UNL     1      22.904  18.472   5.703  1.00  0.00     0.202 C 
ATOM     18  O   UNL     1      23.392  17.189   3.698  1.00  0.00    -0.341 OA
ATOM     19  C   UNL     1      24.133  19.375   5.440  1.00  0.00     0.179 C 
ATOM     20  C   UNL     1      24.650  17.813   3.511  1.00  0.00     0.178 C 
ATOM     21  C   UNL     1      24.588  19.290   3.969  1.00  0.00     0.177 C 
BRANCH  17  22
ATOM     22  O   UNL     1      22.680  18.349   7.084  1.00  0.00    -0.385 OA
ATOM     23  H   UNL     1      23.441  18.796   7.538  1.00  0.00     0.211 HD
ENDBRANCH  17  22
BRANCH  19  24
ATOM     24  O   UNL     1      25.193  19.094   6.322  1.00  0.00    -0.387 OA
ATOM     25  H   UNL     1      25.803  19.874   6.340  1.00  0.00     0.211 HD
ENDBRANCH  19  24
BRANCH  20  26
ATOM     26  C   UNL     1      25.046  17.703   2.031  1.00  0.00     0.191 C 
BRANCH  26  27
ATOM     27  O   UNL     1      26.102  16.795   1.875  1.00  0.00    -0.394 OA
ATOM     28  H   UNL     1      26.941  17.320   1.934  1.00  0.00     0.210 HD
ENDBRANCH  26  27
ENDBRANCH  20  26
BRANCH  21  29
ATOM     29  O   UNL     1      23.675  20.007   3.173  1.00  0.00    -0.387 OA
ATOM     30  H   UNL     1      23.101  19.341   2.711  1.00  0.00     0.211 HD
ENDBRANCH  21  29
ENDBRANCH   1  16
TORSDOF 10
ENDMDL
MODEL 7
REMARK VINA RESULT:    -4.448     14.661     17.726
REMARK INTER + INTRA:          -6.595
REMARK INTER:                  -7.932
REMARK INTRA:                   1.336
REMARK UNBOUND:                -0.327
REMARK SMILES OCC1=C[C@H](O)[C@@H]2C=CO[C@@H](O[C@H]3O[C@@H](CO)[C@@H](O)[C@H](O)[C@@H]3O)[C@H]12
REMARK SMILES IDX 12 1 11 2 8 3 9 4 7 5 10 6 24 7 5 8 3 9 4 10 6 11 2 13 1 14
REMARK SMILES IDX 13 16 22 17 14 18 20 19 15 20 18 21 23 22 21 24 16 26 17 27
REMARK SMILES IDX 19 29
REMARK H PARENT 6 12 1 15 23 23 21 25 17 28 19 30
REMARK Flexibility Score: inf
ROOT
ATOM      1  O   UNL     1      22.226  17.706   4.743  1.00  0.00    -0.310 OA
ENDROOT
BRANCH   1   2
ATOM      2  C   UNL     1      23.283  16.803   4.487  1.00  0.00     0.316 C 
ATOM      3  C   UNL     1      25.713  15.950   3.258  1.00  0.00     0.018 C 
ATOM      4  C   UNL     1      25.728  16.913   4.180  1.00  0.00     0.186 C 
ATOM      5  C   UNL     1      24.427  15.491   2.611  1.00  0.00     0.061 C 
ATOM      6  O   UNL     1      24.536  17.470   4.648  1.00  0.00    -0.472 OA
ATOM      7  C   UNL     1      23.163  16.270   3.045  1.00  0.00     0.096 C 
ATOM      8  C   UNL     1      24.091  14.007   2.852  1.00  0.00     0.145 C 
ATOM      9  C   UNL     1      22.092  15.225   2.945  1.00  0.00    -0.036 C 
ATOM     10  C   UNL     1      22.601  14.000   2.859  1.00  0.00     0.007 C 
BRANCH   8  11
ATOM     11  O   UNL     1      24.554  13.559   4.100  1.00  0.00    -0.388 OA
ATOM     12  H   UNL     1      23.936  13.929   4.782  1.00  0.00     0.211 HD
ENDBRANCH   8  11
BRANCH   9  13
ATOM     13  C   UNL     1      20.615  15.512   3.007  1.00  0.00     0.187 C 
BRANCH  13  14
ATOM     14  O   UNL     1      20.168  15.465   4.334  1.00  0.00    -0.392 OA
ATOM     15  H   UNL     1      19.697  14.597   4.443  1.00  0.00     0.211 HD
ENDBRANCH  13  14
ENDBRANCH   9  13
ENDBRANCH   1   2
BRANCH   1  16
ATOM     16  C   UNL     1      22.673  18.864   5.432  1.00  0.00     0.286 C 
ATOM     17  C   UNL     1      23.920  19.417   4.705  1.00  0.00     0.202 C 
ATOM     18  O   UNL     1      23.015  18.469   6.750  1.00  0.00    -0.341 OA
ATOM     19  C   UNL     1      24.592  20.553   5.513  1.00  0.00     0.179 C 
ATOM     20  C   UNL     1      23.398  19.588   7.530  1.00  0.00     0.178 C 
ATOM     21  C   UNL     1      24.727  20.178   7.003  1.00  0.00     0.177 C 
BRANCH  17  22
ATOM     22  O   UNL     1      23.559  19.879   3.429  1.00  0.00    -0.385 OA
ATOM     23  H   UNL     1      22.600  19.651   3.302  1.00  0.00     0.211 HD
ENDBRANCH  17  22
BRANCH  19  24
ATOM     24  O   UNL     1      23.924  21.782   5.351  1.00  0.00    -0.387 OA
ATOM     25  H   UNL     1      24.450  22.347   4.729  1.00  0.00     0.211 HD
ENDBRANCH  19  24
BRANCH  20  26
ATOM     26  C   UNL     1      23.523  19.153   8.998  1.00  0.00     0.191 C 
BRANCH  26  27
ATOM     27  O   UNL     1      24.487  19.929   9.655  1.00  0.00    -0.394 OA
ATOM     28  H   UNL     1      25.370  19.651   9.298  1.00  0.00     0.210 HD
ENDBRANCH  26  27
ENDBRANCH  20  26
BRANCH  21  29
ATOM     29  O   UNL     1      25.764  19.236   7.137  1.00  0.00    -0.387 OA
ATOM     30  H   UNL     1      25.797  18.712   6.295  1.00  0.00     0.211 HD
ENDBRANCH  21  29
ENDBRANCH   1  16
TORSDOF 10
ENDMDL
MODEL 8
REMARK VINA RESULT:    -4.332     14.562     17.260
REMARK INTER + INTRA:          -6.432
REMARK INTER:                  -5.438
REMARK INTRA:                  -0.994
REMARK UNBOUND:                -0.327
REMARK SMILES OCC1=C[C@H](O)[C@@H]2C=CO[C@@H](O[C@H]3O[C@@H](CO)[C@@H](O)[C@H](O)[C@@H]3O)[C@H]12
REMARK SMILES IDX 12 1 11 2 8 3 9 4 7 5 10 6 24 7 5 8 3 9 4 10 6 11 2 13 1 14
REMARK SMILES IDX 13 16 22 17 14 18 20 19 15 20 18 21 23 22 21 24 16 26 17 27
REMARK SMILES IDX 19 29
REMARK H PARENT 6 12 1 15 23 23 21 25 17 28 19 30
REMARK Flexibility Score: inf
ROOT
ATOM      1  O   UNL     1      23.546  17.752   4.210  1.00  0.00    -0.310 OA
ENDROOT
BRANCH   1   2
ATOM      2  C   UNL     1      22.293  17.213   3.835  1.00  0.00     0.316 C 
ATOM      3  C   UNL     1      19.625  16.311   4.295  1.00  0.00     0.018 C 
ATOM      4  C   UNL     1      19.917  17.611   4.359  1.00  0.00     0.186 C 
ATOM      5  C   UNL     1      20.706  15.256   4.284  1.00  0.00     0.061 C 
ATOM      6  O   UNL     1      21.243  18.046   4.326  1.00  0.00    -0.472 OA
ATOM      7  C   UNL     1      22.148  15.796   4.428  1.00  0.00     0.096 C 
ATOM      8  C   UNL     1      20.726  14.381   3.016  1.00  0.00     0.145 C 
ATOM      9  C   UNL     1      22.944  14.799   3.639  1.00  0.00    -0.036 C 
ATOM     10  C   UNL     1      22.170  14.048   2.863  1.00  0.00     0.007 C 
BRANCH   8  11
ATOM     11  O   UNL     1      20.300  15.091   1.881  1.00  0.00    -0.388 OA
ATOM     12  H   UNL     1      19.386  15.421   2.079  1.00  0.00     0.211 HD
ENDBRANCH   8  11
BRANCH   9  13
ATOM     13  C   UNL     1      24.447  14.701   3.662  1.00  0.00     0.187 C 
BRANCH  13  14
ATOM     14  O   UNL     1      25.008  15.655   2.803  1.00  0.00    -0.392 OA
ATOM     15  H   UNL     1      24.388  15.741   2.032  1.00  0.00     0.211 HD
ENDBRANCH  13  14
ENDBRANCH   9  13
ENDBRANCH   1   2
BRANCH   1  16
ATOM     16  C   UNL     1      23.403  18.889   5.047  1.00  0.00     0.286 C 
ATOM     17  C   UNL     1      24.502  19.912   4.681  1.00  0.00     0.202 C 
ATOM     18  O   UNL     1      23.571  18.453   6.386  1.00  0.00    -0.341 OA
ATOM     19  C   UNL     1      24.546  21.085   5.689  1.00  0.00     0.179 C 
ATOM     20  C   UNL     1      23.363  19.520   7.295  1.00  0.00     0.178 C 
ATOM     21  C   UNL     1      24.483  20.578   7.144  1.00  0.00     0.177 C 
BRANCH  17  22
ATOM     22  O   UNL     1      24.283  20.397   3.382  1.00  0.00    -0.385 OA
ATOM     23  H   UNL     1      25.171  20.657   3.020  1.00  0.00     0.211 HD
ENDBRANCH  17  22
BRANCH  19  24
ATOM     24  O   UNL     1      23.542  22.038   5.434  1.00  0.00    -0.387 OA
ATOM     25  H   UNL     1      22.984  21.714   4.682  1.00  0.00     0.211 HD
ENDBRANCH  19  24
BRANCH  20  26
ATOM     26  C   UNL     1      23.316  18.956   8.723  1.00  0.00     0.191 C 
BRANCH  26  27
ATOM     27  O   UNL     1      24.069  19.761   9.590  1.00  0.00    -0.394 OA
ATOM     28  H   UNL     1      23.795  19.521  10.513  1.00  0.00     0.210 HD
ENDBRANCH  26  27
ENDBRANCH  20  26
BRANCH  21  29
ATOM     29  O   UNL     1      25.728  20.017   7.480  1.00  0.00    -0.387 OA
ATOM     30  H   UNL     1      26.309  20.087   6.678  1.00  0.00     0.211 HD
ENDBRANCH  21  29
ENDBRANCH   1  16
TORSDOF 10
ENDMDL
