MODEL 1
REMARK VINA RESULT:    -3.067      0.000      0.000
REMARK INTER + INTRA:          -5.977
REMARK INTER:                  -4.860
REMARK INTRA:                  -1.117
REMARK UNBOUND:                -1.117
REMARK SMILES CCCCCCCCCCCC(=O)[O-]
REMARK SMILES IDX 7 1 8 2 9 3 10 4 11 5 12 6 13 7 14 8 6 9 5 10 4 11 3 12 2 13
REMARK SMILES IDX 1 14
REMARK H PARENT
REMARK Flexibility Score: inf
ROOT
ATOM      1  C   UNL     1      15.993  20.166  50.052  1.00  0.00     0.000 C 
ENDROOT
BRANCH   1   2
ATOM      2  C   UNL     1      17.485  19.793  50.163  1.00  0.00     0.000 C 
BRANCH   2   3
ATOM      3  C   UNL     1      17.778  18.282  50.247  1.00  0.00     0.000 C 
BRANCH   3   4
ATOM      4  C   UNL     1      18.158  17.767  51.649  1.00  0.00     0.006 C 
BRANCH   4   5
ATOM      5  C   UNL     1      16.959  17.471  52.565  1.00  0.00     0.053 C 
BRANCH   5   6
ATOM      6  C   UNL     1      16.897  18.413  53.728  1.00  0.00     0.041 C 
ATOM      7  O   UNL     1      17.936  19.006  54.119  1.00  0.00    -0.550 OA
ATOM      8  O   UNL     1      15.698  18.608  54.403  1.00  0.00    -0.550 OA
ENDBRANCH   5   6
ENDBRANCH   4   5
ENDBRANCH   3   4
ENDBRANCH   2   3
ENDBRANCH   1   2
BRANCH   1   9
ATOM      9  C   UNL     1      15.080  19.042  49.528  1.00  0.00     0.000 C 
BRANCH   9  10
ATOM     10  C   UNL     1      14.452  19.306  48.145  1.00  0.00    -0.000 C 
BRANCH  10  11
ATOM     11  C   UNL     1      14.753  18.204  47.107  1.00  0.00    -0.000 C 
BRANCH  11  12
ATOM     12  C   UNL     1      16.260  18.031  46.851  1.00  0.00    -0.000 C 
BRANCH  12  13
ATOM     13  C   UNL     1      16.881  19.244  46.140  1.00  0.00    -0.003 C 
ATOM     14  C   UNL     1      18.329  19.000  45.714  1.00  0.00     0.004 C 
ENDBRANCH  12  13
ENDBRANCH  11  12
ENDBRANCH  10  11
ENDBRANCH   9  10
ENDBRANCH   1   9
TORSDOF 10
ENDMDL
MODEL 2
REMARK VINA RESULT:    -3.040     10.773     12.865
REMARK INTER + INTRA:          -5.935
REMARK INTER:                  -4.759
REMARK INTRA:                  -1.176
REMARK UNBOUND:                -1.117
REMARK SMILES CCCCCCCCCCCC(=O)[O-]
REMARK SMILES IDX 7 1 8 2 9 3 10 4 11 5 12 6 13 7 14 8 6 9 5 10 4 11 3 12 2 13
REMARK SMILES IDX 1 14
REMARK H PARENT
REMARK Flexibility Score: inf
ROOT
ATOM      1  C   UNL     1      19.677  28.346  54.797  1.00  0.00     0.000 C 
ENDROOT
BRANCH   1   2
ATOM      2  C   UNL     1      19.291  29.835  54.903  1.00  0.00     0.000 C 
BRANCH   2   3
ATOM      3  C   UNL     1      18.074  30.258  54.058  1.00  0.00     0.000 C 
BRANCH   3   4
ATOM      4  C   UNL     1      17.043  29.142  53.794  1.00  0.00     0.006 C 
BRANCH   4   5
ATOM      5  C   UNL     1      15.844  29.144  54.756  1.00  0.00     0.053 C 
BRANCH   5   6
ATOM      6  C   UNL     1      14.888  28.029  54.462  1.00  0.00     0.041 C 
ATOM      7  O   UNL     1      14.895  26.987  55.169  1.00  0.00    -0.550 OA
ATOM      8  O   UNL     1      14.014  28.126  53.388  1.00  0.00    -0.550 OA
ENDBRANCH   5   6
ENDBRANCH   4   5
ENDBRANCH   3   4
ENDBRANCH   2   3
ENDBRANCH   1   2
BRANCH   1   9
ATOM      9  C   UNL     1      19.448  27.523  56.079  1.00  0.00     0.000 C 
BRANCH   9  10
ATOM     10  C   UNL     1      18.815  28.303  57.247  1.00  0.00    -0.000 C 
BRANCH  10  11
ATOM     11  C   UNL     1      19.583  28.157  58.579  1.00  0.00    -0.000 C 
BRANCH  11  12
ATOM     12  C   UNL     1      21.077  28.494  58.436  1.00  0.00    -0.000 C 
BRANCH  12  13
ATOM     13  C   UNL     1      21.322  29.984  58.155  1.00  0.00    -0.003 C 
ATOM     14  C   UNL     1      22.322  30.213  57.021  1.00  0.00     0.004 C 
ENDBRANCH  12  13
ENDBRANCH  11  12
ENDBRANCH  10  11
ENDBRANCH   9  10
ENDBRANCH   1   9
TORSDOF 10
ENDMDL
MODEL 3
REMARK VINA RESULT:    -3.013     11.483     12.889
REMARK INTER + INTRA:          -5.892
REMARK INTER:                  -4.649
REMARK INTRA:                  -1.243
REMARK UNBOUND:                -1.117
REMARK SMILES CCCCCCCCCCCC(=O)[O-]
REMARK SMILES IDX 7 1 8 2 9 3 10 4 11 5 12 6 13 7 14 8 6 9 5 10 4 11 3 12 2 13
REMARK SMILES IDX 1 14
REMARK H PARENT
REMARK Flexibility Score: inf
ROOT
ATOM      1  C   UNL     1      20.513  28.716  55.126  1.00  0.00     0.000 C 
ENDROOT
BRANCH   1   2
ATOM      2  C   UNL     1      20.657  29.978  56.003  1.00  0.00     0.000 C 
BRANCH   2   3
ATOM      3  C   UNL     1      22.065  30.217  56.580  1.00  0.00     0.000 C 
BRANCH   3   4
ATOM      4  C   UNL     1      22.143  30.263  58.119  1.00  0.00     0.006 C 
BRANCH   4   5
ATOM      5  C   UNL     1      20.873  29.773  58.834  1.00  0.00     0.053 C 
BRANCH   5   6
ATOM      6  C   UNL     1      20.994  28.347  59.277  1.00  0.00     0.041 C 
ATOM      7  O   UNL     1      20.042  27.790  59.883  1.00  0.00    -0.550 OA
ATOM      8  O   UNL     1      22.171  27.645  59.050  1.00  0.00    -0.550 OA
ENDBRANCH   5   6
ENDBRANCH   4   5
ENDBRANCH   3   4
ENDBRANCH   2   3
ENDBRANCH   1   2
BRANCH   1   9
ATOM      9  C   UNL     1      19.564  27.641  55.686  1.00  0.00     0.000 C 
BRANCH   9  10
ATOM     10  C   UNL     1      18.438  28.175  56.592  1.00  0.00    -0.000 C 
BRANCH  10  11
ATOM     11  C   UNL     1      17.029  28.040  55.976  1.00  0.00    -0.000 C 
BRANCH  11  12
ATOM     12  C   UNL     1      16.572  29.324  55.262  1.00  0.00    -0.000 C 
BRANCH  12  13
ATOM     13  C   UNL     1      16.988  29.357  53.784  1.00  0.00    -0.003 C 
ATOM     14  C   UNL     1      17.848  30.574  53.441  1.00  0.00     0.004 C 
ENDBRANCH  12  13
ENDBRANCH  11  12
ENDBRANCH  10  11
ENDBRANCH   9  10
ENDBRANCH   1   9
TORSDOF 10
ENDMDL
MODEL 4
REMARK VINA RESULT:    -2.973      3.103      6.001
REMARK INTER + INTRA:          -5.829
REMARK INTER:                  -4.610
REMARK INTRA:                  -1.218
REMARK UNBOUND:                -1.117
REMARK SMILES CCCCCCCCCCCC(=O)[O-]
REMARK SMILES IDX 7 1 8 2 9 3 10 4 11 5 12 6 13 7 14 8 6 9 5 10 4 11 3 12 2 13
REMARK SMILES IDX 1 14
REMARK H PARENT
REMARK Flexibility Score: inf
ROOT
ATOM      1  C   UNL     1      15.669  20.252  49.676  1.00  0.00     0.000 C 
ENDROOT
BRANCH   1   2
ATOM      2  C   UNL     1      14.843  18.968  49.454  1.00  0.00     0.000 C 
BRANCH   2   3
ATOM      3  C   UNL     1      14.168  18.855  48.073  1.00  0.00     0.000 C 
BRANCH   3   4
ATOM      4  C   UNL     1      15.039  19.299  46.881  1.00  0.00     0.006 C 
BRANCH   4   5
ATOM      5  C   UNL     1      16.240  18.384  46.596  1.00  0.00     0.053 C 
BRANCH   5   6
ATOM      6  C   UNL     1      17.486  19.166  46.312  1.00  0.00     0.041 C 
ATOM      7  O   UNL     1      17.590  20.356  46.708  1.00  0.00    -0.550 OA
ATOM      8  O   UNL     1      18.517  18.592  45.580  1.00  0.00    -0.550 OA
ENDBRANCH   5   6
ENDBRANCH   4   5
ENDBRANCH   3   4
ENDBRANCH   2   3
ENDBRANCH   1   2
BRANCH   1   9
ATOM      9  C   UNL     1      17.105  20.021  50.181  1.00  0.00     0.000 C 
BRANCH   9  10
ATOM     10  C   UNL     1      17.581  18.556  50.141  1.00  0.00    -0.000 C 
BRANCH  10  11
ATOM     11  C   UNL     1      18.042  18.016  51.512  1.00  0.00    -0.000 C 
BRANCH  11  12
ATOM     12  C   UNL     1      16.882  17.429  52.335  1.00  0.00    -0.000 C 
BRANCH  12  13
ATOM     13  C   UNL     1      16.630  18.206  53.637  1.00  0.00    -0.003 C 
ATOM     14  C   UNL     1      17.792  19.128  54.008  1.00  0.00     0.004 C 
ENDBRANCH  12  13
ENDBRANCH  11  12
ENDBRANCH  10  11
ENDBRANCH   9  10
ENDBRANCH   1   9
TORSDOF 10
ENDMDL
MODEL 5
REMARK VINA RESULT:    -2.965      3.518      6.052
REMARK INTER + INTRA:          -5.816
REMARK INTER:                  -4.546
REMARK INTRA:                  -1.270
REMARK UNBOUND:                -1.117
REMARK SMILES CCCCCCCCCCCC(=O)[O-]
REMARK SMILES IDX 7 1 8 2 9 3 10 4 11 5 12 6 13 7 14 8 6 9 5 10 4 11 3 12 2 13
REMARK SMILES IDX 1 14
REMARK H PARENT
REMARK Flexibility Score: inf
ROOT
ATOM      1  C   UNL     1      18.027  19.719  50.637  1.00  0.00     0.000 C 
ENDROOT
BRANCH   1   2
ATOM      2  C   UNL     1      16.867  20.301  49.803  1.00  0.00     0.000 C 
BRANCH   2   3
ATOM      3  C   UNL     1      16.101  19.277  48.943  1.00  0.00     0.000 C 
BRANCH   3   4
ATOM      4  C   UNL     1      14.662  18.979  49.410  1.00  0.00     0.006 C 
BRANCH   4   5
ATOM      5  C   UNL     1      13.570  19.408  48.416  1.00  0.00     0.053 C 
BRANCH   5   6
ATOM      6  C   UNL     1      13.932  19.066  47.004  1.00  0.00     0.041 C 
ATOM      7  O   UNL     1      14.158  19.982  46.169  1.00  0.00    -0.550 OA
ATOM      8  O   UNL     1      13.986  17.739  46.600  1.00  0.00    -0.550 OA
ENDBRANCH   5   6
ENDBRANCH   4   5
ENDBRANCH   3   4
ENDBRANCH   2   3
ENDBRANCH   1   2
BRANCH   1   9
ATOM      9  C   UNL     1      18.082  18.181  50.688  1.00  0.00     0.000 C 
BRANCH   9  10
ATOM     10  C   UNL     1      17.972  17.574  52.100  1.00  0.00    -0.000 C 
BRANCH  10  11
ATOM     11  C   UNL     1      16.522  17.479  52.623  1.00  0.00    -0.000 C 
BRANCH  11  12
ATOM     12  C   UNL     1      16.342  18.167  53.987  1.00  0.00    -0.000 C 
BRANCH  12  13
ATOM     13  C   UNL     1      16.190  19.691  53.863  1.00  0.00    -0.003 C 
ATOM     14  C   UNL     1      14.984  20.096  53.017  1.00  0.00     0.004 C 
ENDBRANCH  12  13
ENDBRANCH  11  12
ENDBRANCH  10  11
ENDBRANCH   9  10
ENDBRANCH   1   9
TORSDOF 10
ENDMDL
MODEL 6
REMARK VINA RESULT:    -2.964     11.180     13.097
REMARK INTER + INTRA:          -5.815
REMARK INTER:                  -5.083
REMARK INTRA:                  -0.732
REMARK UNBOUND:                -1.117
REMARK SMILES CCCCCCCCCCCC(=O)[O-]
REMARK SMILES IDX 7 1 8 2 9 3 10 4 11 5 12 6 13 7 14 8 6 9 5 10 4 11 3 12 2 13
REMARK SMILES IDX 1 14
REMARK H PARENT
REMARK Flexibility Score: inf
ROOT
ATOM      1  C   UNL     1      19.794  29.731  55.264  1.00  0.00     0.000 C 
ENDROOT
BRANCH   1   2
ATOM      2  C   UNL     1      18.410  29.723  54.582  1.00  0.00     0.000 C 
BRANCH   2   3
ATOM      3  C   UNL     1      17.269  29.123  55.426  1.00  0.00     0.000 C 
BRANCH   3   4
ATOM      4  C   UNL     1      15.852  29.341  54.858  1.00  0.00     0.006 C 
BRANCH   4   5
ATOM      5  C   UNL     1      15.409  28.284  53.834  1.00  0.00     0.053 C 
BRANCH   5   6
ATOM      6  C   UNL     1      14.083  27.683  54.186  1.00  0.00     0.041 C 
ATOM      7  O   UNL     1      14.026  26.662  54.921  1.00  0.00    -0.550 OA
ATOM      8  O   UNL     1      12.913  28.229  53.676  1.00  0.00    -0.550 OA
ENDBRANCH   5   6
ENDBRANCH   4   5
ENDBRANCH   3   4
ENDBRANCH   2   3
ENDBRANCH   1   2
BRANCH   1   9
ATOM      9  C   UNL     1      20.070  28.530  56.188  1.00  0.00     0.000 C 
BRANCH   9  10
ATOM     10  C   UNL     1      20.761  28.880  57.519  1.00  0.00    -0.000 C 
BRANCH  10  11
ATOM     11  C   UNL     1      21.507  30.232  57.494  1.00  0.00    -0.000 C 
BRANCH  11  12
ATOM     12  C   UNL     1      23.018  30.068  57.261  1.00  0.00    -0.000 C 
BRANCH  12  13
ATOM     13  C   UNL     1      23.469  30.618  55.900  1.00  0.00    -0.003 C 
ATOM     14  C   UNL     1      23.544  29.537  54.822  1.00  0.00     0.004 C 
ENDBRANCH  12  13
ENDBRANCH  11  12
ENDBRANCH  10  11
ENDBRANCH   9  10
ENDBRANCH   1   9
TORSDOF 10
ENDMDL
MODEL 7
REMARK VINA RESULT:    -2.914      1.315      2.482
REMARK INTER + INTRA:          -5.735
REMARK INTER:                  -4.329
REMARK INTRA:                  -1.406
REMARK UNBOUND:                -1.117
REMARK SMILES CCCCCCCCCCCC(=O)[O-]
REMARK SMILES IDX 7 1 8 2 9 3 10 4 11 5 12 6 13 7 14 8 6 9 5 10 4 11 3 12 2 13
REMARK SMILES IDX 1 14
REMARK H PARENT
REMARK Flexibility Score: inf
ROOT
ATOM      1  C   UNL     1      17.237  19.997  49.240  1.00  0.00     0.000 C 
ENDROOT
BRANCH   1   2
ATOM      2  C   UNL     1      15.951  20.024  50.092  1.00  0.00     0.000 C 
BRANCH   2   3
ATOM      3  C   UNL     1      15.500  18.656  50.639  1.00  0.00     0.000 C 
BRANCH   3   4
ATOM      4  C   UNL     1      15.948  18.349  52.082  1.00  0.00     0.006 C 
BRANCH   4   5
ATOM      5  C   UNL     1      17.323  17.670  52.190  1.00  0.00     0.053 C 
BRANCH   5   6
ATOM      6  C   UNL     1      18.391  18.631  52.610  1.00  0.00     0.041 C 
ATOM      7  O   UNL     1      19.396  18.821  51.875  1.00  0.00    -0.550 OA
ATOM      8  O   UNL     1      18.295  19.292  53.827  1.00  0.00    -0.550 OA
ENDBRANCH   5   6
ENDBRANCH   4   5
ENDBRANCH   3   4
ENDBRANCH   2   3
ENDBRANCH   1   2
BRANCH   1   9
ATOM      9  C   UNL     1      17.495  18.675  48.495  1.00  0.00     0.000 C 
BRANCH   9  10
ATOM     10  C   UNL     1      17.809  18.825  46.994  1.00  0.00    -0.000 C 
BRANCH  10  11
ATOM     11  C   UNL     1      16.576  18.645  46.082  1.00  0.00    -0.000 C 
BRANCH  11  12
ATOM     12  C   UNL     1      15.481  17.784  46.734  1.00  0.00    -0.000 C 
BRANCH  12  13
ATOM     13  C   UNL     1      14.133  18.514  46.827  1.00  0.00    -0.003 C 
ATOM     14  C   UNL     1      14.274  20.031  46.700  1.00  0.00     0.004 C 
ENDBRANCH  12  13
ENDBRANCH  11  12
ENDBRANCH  10  11
ENDBRANCH   9  10
ENDBRANCH   1   9
TORSDOF 10
ENDMDL
MODEL 8
REMARK VINA RESULT:    -2.908     11.910     13.725
REMARK INTER + INTRA:          -5.726
REMARK INTER:                  -3.992
REMARK INTRA:                  -1.735
REMARK UNBOUND:                -1.117
REMARK SMILES CCCCCCCCCCCC(=O)[O-]
REMARK SMILES IDX 7 1 8 2 9 3 10 4 11 5 12 6 13 7 14 8 6 9 5 10 4 11 3 12 2 13
REMARK SMILES IDX 1 14
REMARK H PARENT
REMARK Flexibility Score: inf
ROOT
ATOM      1  C   UNL     1      23.148  28.811  57.182  1.00  0.00     0.000 C 
ENDROOT
BRANCH   1   2
ATOM      2  C   UNL     1      22.762  28.242  55.801  1.00  0.00     0.000 C 
BRANCH   2   3
ATOM      3  C   UNL     1      22.002  29.218  54.881  1.00  0.00     0.000 C 
BRANCH   3   4
ATOM      4  C   UNL     1      20.518  28.873  54.646  1.00  0.00     0.006 C 
BRANCH   4   5
ATOM      5  C   UNL     1      19.532  29.957  55.110  1.00  0.00     0.053 C 
BRANCH   5   6
ATOM      6  C   UNL     1      18.112  29.589  54.812  1.00  0.00     0.041 C 
ATOM      7  O   UNL     1      17.512  28.747  55.532  1.00  0.00    -0.550 OA
ATOM      8  O   UNL     1      17.462  30.148  53.720  1.00  0.00    -0.550 OA
ENDBRANCH   5   6
ENDBRANCH   4   5
ENDBRANCH   3   4
ENDBRANCH   2   3
ENDBRANCH   1   2
BRANCH   1   9
ATOM      9  C   UNL     1      22.651  30.243  57.457  1.00  0.00     0.000 C 
BRANCH   9  10
ATOM     10  C   UNL     1      21.421  30.337  58.380  1.00  0.00    -0.000 C 
BRANCH  10  11
ATOM     11  C   UNL     1      21.031  28.993  59.033  1.00  0.00    -0.000 C 
BRANCH  11  12
ATOM     12  C   UNL     1      19.660  28.483  58.557  1.00  0.00    -0.000 C 
BRANCH  12  13
ATOM     13  C   UNL     1      19.756  27.150  57.801  1.00  0.00    -0.003 C 
ATOM     14  C   UNL     1      20.797  26.204  58.402  1.00  0.00     0.004 C 
ENDBRANCH  12  13
ENDBRANCH  11  12
ENDBRANCH  10  11
ENDBRANCH   9  10
ENDBRANCH   1   9
TORSDOF 10
ENDMDL
