MODEL 1
REMARK VINA RESULT:    -4.329      0.000      0.000
REMARK INTER + INTRA:          -6.746
REMARK INTER:                  -6.354
REMARK INTRA:                  -0.392
REMARK UNBOUND:                -0.392
REMARK SMILES O=C([O-])CCCCCCCC(=O)[O-]
REMARK SMILES IDX 7 1 6 2 5 3 4 4 2 5 1 6 3 7 8 8 9 9 10 10 11 11 12 12 13 13
REMARK H PARENT
REMARK Flexibility Score: inf
ROOT
ATOM      1  C   UNL     1       5.501   8.700  81.862  1.00  0.00     0.000 C 
ENDROOT
BRANCH   1   2
ATOM      2  C   UNL     1       6.917   8.611  81.283  1.00  0.00     0.000 C 
BRANCH   2   3
ATOM      3  C   UNL     1       7.049   7.417  80.330  1.00  0.00     0.006 C 
BRANCH   3   4
ATOM      4  C   UNL     1       8.120   7.678  79.267  1.00  0.00     0.053 C 
BRANCH   4   5
ATOM      5  C   UNL     1       9.086   6.538  79.206  1.00  0.00     0.041 C 
ATOM      6  O   UNL     1       8.673   5.352  79.297  1.00  0.00    -0.550 OA
ATOM      7  O   UNL     1      10.448   6.786  79.097  1.00  0.00    -0.550 OA
ENDBRANCH   4   5
ENDBRANCH   3   4
ENDBRANCH   2   3
ENDBRANCH   1   2
BRANCH   1   8
ATOM      8  C   UNL     1       5.269  10.054  82.543  1.00  0.00     0.000 C 
BRANCH   8   9
ATOM      9  C   UNL     1       4.418  10.978  81.658  1.00  0.00     0.006 C 
BRANCH   9  10
ATOM     10  C   UNL     1       5.204  12.202  81.172  1.00  0.00     0.053 C 
BRANCH  10  11
ATOM     11  C   UNL     1       5.505  12.123  79.707  1.00  0.00     0.041 C 
ATOM     12  O   UNL     1       4.813  12.772  78.880  1.00  0.00    -0.550 OA
ATOM     13  O   UNL     1       6.534  11.307  79.252  1.00  0.00    -0.550 OA
ENDBRANCH  10  11
ENDBRANCH   9  10
ENDBRANCH   8   9
ENDBRANCH   1   8
TORSDOF 8
ENDMDL
MODEL 2
REMARK VINA RESULT:    -4.299      0.273      5.612
REMARK INTER + INTRA:          -6.703
REMARK INTER:                  -6.267
REMARK INTRA:                  -0.435
REMARK UNBOUND:                -0.392
REMARK SMILES O=C([O-])CCCCCCCC(=O)[O-]
REMARK SMILES IDX 7 1 6 2 5 3 4 4 2 5 1 6 3 7 8 8 9 9 10 10 11 11 12 12 13 13
REMARK H PARENT
REMARK Flexibility Score: inf
ROOT
ATOM      1  C   UNL     1       5.379   8.782  81.885  1.00  0.00     0.000 C 
ENDROOT
BRANCH   1   2
ATOM      2  C   UNL     1       5.166  10.193  82.442  1.00  0.00     0.000 C 
BRANCH   2   3
ATOM      3  C   UNL     1       4.429  11.080  81.431  1.00  0.00     0.006 C 
BRANCH   3   4
ATOM      4  C   UNL     1       5.294  12.272  81.012  1.00  0.00     0.053 C 
BRANCH   4   5
ATOM      5  C   UNL     1       5.768  12.104  79.603  1.00  0.00     0.041 C 
ATOM      6  O   UNL     1       6.537  11.154  79.302  1.00  0.00    -0.550 OA
ATOM      7  O   UNL     1       5.401  13.026  78.631  1.00  0.00    -0.550 OA
ENDBRANCH   4   5
ENDBRANCH   3   4
ENDBRANCH   2   3
ENDBRANCH   1   2
BRANCH   1   8
ATOM      8  C   UNL     1       6.844   8.561  81.490  1.00  0.00     0.000 C 
BRANCH   8   9
ATOM      9  C   UNL     1       6.966   7.470  80.415  1.00  0.00     0.006 C 
BRANCH   9  10
ATOM     10  C   UNL     1       8.068   7.781  79.395  1.00  0.00     0.053 C 
BRANCH  10  11
ATOM     11  C   UNL     1       9.057   6.660  79.288  1.00  0.00     0.041 C 
ATOM     12  O   UNL     1      10.253   6.896  78.973  1.00  0.00    -0.550 OA
ATOM     13  O   UNL     1       8.649   5.350  79.509  1.00  0.00    -0.550 OA
ENDBRANCH  10  11
ENDBRANCH   9  10
ENDBRANCH   8   9
ENDBRANCH   1   8
TORSDOF 8
ENDMDL
MODEL 3
REMARK VINA RESULT:    -4.219      1.773      2.509
REMARK INTER + INTRA:          -6.585
REMARK INTER:                  -6.132
REMARK INTRA:                  -0.453
REMARK UNBOUND:                -0.392
REMARK SMILES O=C([O-])CCCCCCCC(=O)[O-]
REMARK SMILES IDX 7 1 6 2 5 3 4 4 2 5 1 6 3 7 8 8 9 9 10 10 11 11 12 12 13 13
REMARK H PARENT
REMARK Flexibility Score: inf
ROOT
ATOM      1  C   UNL     1       7.173   8.873  81.049  1.00  0.00     0.000 C 
ENDROOT
BRANCH   1   2
ATOM      2  C   UNL     1       7.784   8.674  79.657  1.00  0.00     0.000 C 
BRANCH   2   3
ATOM      3  C   UNL     1       9.108   7.904  79.741  1.00  0.00     0.006 C 
BRANCH   3   4
ATOM      4  C   UNL     1       9.106   6.702  78.793  1.00  0.00     0.053 C 
BRANCH   4   5
ATOM      5  C   UNL     1       8.780   5.447  79.539  1.00  0.00     0.041 C 
ATOM      6  O   UNL     1       7.593   5.202  79.880  1.00  0.00    -0.550 OA
ATOM      7  O   UNL     1       9.795   4.570  79.900  1.00  0.00    -0.550 OA
ENDBRANCH   4   5
ENDBRANCH   3   4
ENDBRANCH   2   3
ENDBRANCH   1   2
BRANCH   1   8
ATOM      8  C   UNL     1       5.932   7.993  81.237  1.00  0.00     0.000 C 
BRANCH   8   9
ATOM      9  C   UNL     1       4.903   8.681  82.147  1.00  0.00     0.006 C 
BRANCH   9  10
ATOM     10  C   UNL     1       5.374  10.063  82.617  1.00  0.00     0.053 C 
BRANCH  10  11
ATOM     11  C   UNL     1       4.382  11.133  82.275  1.00  0.00     0.041 C 
ATOM     12  O   UNL     1       4.094  11.372  81.073  1.00  0.00    -0.550 OA
ATOM     13  O   UNL     1       3.800  11.888  83.286  1.00  0.00    -0.550 OA
ENDBRANCH  10  11
ENDBRANCH   9  10
ENDBRANCH   8   9
ENDBRANCH   1   8
TORSDOF 8
ENDMDL
MODEL 4
REMARK VINA RESULT:    -4.186      2.636      6.488
REMARK INTER + INTRA:          -6.537
REMARK INTER:                  -6.325
REMARK INTRA:                  -0.211
REMARK UNBOUND:                -0.392
REMARK SMILES O=C([O-])CCCCCCCC(=O)[O-]
REMARK SMILES IDX 7 1 6 2 5 3 4 4 2 5 1 6 3 7 8 8 9 9 10 10 11 11 12 12 13 13
REMARK H PARENT
REMARK Flexibility Score: inf
ROOT
ATOM      1  C   UNL     1       7.082   8.404  80.359  1.00  0.00     0.000 C 
ENDROOT
BRANCH   1   2
ATOM      2  C   UNL     1       6.711   8.706  81.815  1.00  0.00     0.000 C 
BRANCH   2   3
ATOM      3  C   UNL     1       5.366   9.440  81.900  1.00  0.00     0.006 C 
BRANCH   3   4
ATOM      4  C   UNL     1       4.272   8.520  82.449  1.00  0.00     0.053 C 
BRANCH   4   5
ATOM      5  C   UNL     1       3.230   9.318  83.167  1.00  0.00     0.041 C 
ATOM      6  O   UNL     1       3.092  10.546  82.923  1.00  0.00    -0.550 OA
ATOM      7  O   UNL     1       2.442   8.717  84.140  1.00  0.00    -0.550 OA
ENDBRANCH   4   5
ENDBRANCH   3   4
ENDBRANCH   2   3
ENDBRANCH   1   2
BRANCH   1   8
ATOM      8  C   UNL     1       8.426   9.045  79.990  1.00  0.00     0.000 C 
BRANCH   8   9
ATOM      9  C   UNL     1       9.491   7.971  79.720  1.00  0.00     0.006 C 
BRANCH   9  10
ATOM     10  C   UNL     1       8.964   6.839  78.831  1.00  0.00     0.053 C 
BRANCH  10  11
ATOM     11  C   UNL     1       8.944   5.527  79.555  1.00  0.00     0.041 C 
ATOM     12  O   UNL     1       7.861   5.061  79.996  1.00  0.00    -0.550 OA
ATOM     13  O   UNL     1      10.129   4.835  79.770  1.00  0.00    -0.550 OA
ENDBRANCH  10  11
ENDBRANCH   9  10
ENDBRANCH   8   9
ENDBRANCH   1   8
TORSDOF 8
ENDMDL
MODEL 5
REMARK VINA RESULT:    -4.186      3.772      6.441
REMARK INTER + INTRA:          -6.536
REMARK INTER:                  -6.269
REMARK INTRA:                  -0.267
REMARK UNBOUND:                -0.392
REMARK SMILES O=C([O-])CCCCCCCC(=O)[O-]
REMARK SMILES IDX 7 1 6 2 5 3 4 4 2 5 1 6 3 7 8 8 9 9 10 10 11 11 12 12 13 13
REMARK H PARENT
REMARK Flexibility Score: inf
ROOT
ATOM      1  C   UNL     1       5.298   9.970  81.771  1.00  0.00     0.000 C 
ENDROOT
BRANCH   1   2
ATOM      2  C   UNL     1       4.170  10.195  82.783  1.00  0.00     0.000 C 
BRANCH   2   3
ATOM      3  C   UNL     1       3.389   8.900  83.037  1.00  0.00     0.006 C 
BRANCH   3   4
ATOM      4  C   UNL     1       2.410   9.068  84.202  1.00  0.00     0.053 C 
BRANCH   4   5
ATOM      5  C   UNL     1       2.499   7.901  85.134  1.00  0.00     0.041 C 
ATOM      6  O   UNL     1       2.059   7.995  86.310  1.00  0.00    -0.550 OA
ATOM      7  O   UNL     1       3.112   6.726  84.719  1.00  0.00    -0.550 OA
ENDBRANCH   4   5
ENDBRANCH   3   4
ENDBRANCH   2   3
ENDBRANCH   1   2
BRANCH   1   8
ATOM      8  C   UNL     1       5.808   8.525  81.828  1.00  0.00     0.000 C 
BRANCH   8   9
ATOM      9  C   UNL     1       7.001   8.325  80.880  1.00  0.00     0.006 C 
BRANCH   9  10
ATOM     10  C   UNL     1       6.906   7.009  80.098  1.00  0.00     0.053 C 
BRANCH  10  11
ATOM     11  C   UNL     1       8.244   6.572  79.583  1.00  0.00     0.041 C 
ATOM     12  O   UNL     1       8.629   5.384  79.742  1.00  0.00    -0.550 OA
ATOM     13  O   UNL     1       9.079   7.488  78.955  1.00  0.00    -0.550 OA
ENDBRANCH  10  11
ENDBRANCH   9  10
ENDBRANCH   8   9
ENDBRANCH   1   8
TORSDOF 8
ENDMDL
MODEL 6
REMARK VINA RESULT:    -4.184      3.805      4.571
REMARK INTER + INTRA:          -6.534
REMARK INTER:                  -6.252
REMARK INTRA:                  -0.281
REMARK UNBOUND:                -0.392
REMARK SMILES O=C([O-])CCCCCCCC(=O)[O-]
REMARK SMILES IDX 7 1 6 2 5 3 4 4 2 5 1 6 3 7 8 8 9 9 10 10 11 11 12 12 13 13
REMARK H PARENT
REMARK Flexibility Score: inf
ROOT
ATOM      1  C   UNL     1       5.236  10.159  81.976  1.00  0.00     0.000 C 
ENDROOT
BRANCH   1   2
ATOM      2  C   UNL     1       5.747   8.717  81.895  1.00  0.00     0.000 C 
BRANCH   2   3
ATOM      3  C   UNL     1       6.914   8.600  80.906  1.00  0.00     0.006 C 
BRANCH   3   4
ATOM      4  C   UNL     1       6.932   7.222  80.239  1.00  0.00     0.053 C 
BRANCH   4   5
ATOM      5  C   UNL     1       8.270   6.954  79.626  1.00  0.00     0.041 C 
ATOM      6  O   UNL     1       9.034   7.911  79.332  1.00  0.00    -0.550 OA
ATOM      7  O   UNL     1       8.653   5.652  79.333  1.00  0.00    -0.550 OA
ENDBRANCH   4   5
ENDBRANCH   3   4
ENDBRANCH   2   3
ENDBRANCH   1   2
BRANCH   1   8
ATOM      8  C   UNL     1       3.900  10.229  82.724  1.00  0.00     0.000 C 
BRANCH   8   9
ATOM      9  C   UNL     1       3.374   8.821  83.045  1.00  0.00     0.006 C 
BRANCH   9  10
ATOM     10  C   UNL     1       2.338   8.831  84.175  1.00  0.00     0.053 C 
BRANCH  10  11
ATOM     11  C   UNL     1       2.680   7.845  85.251  1.00  0.00     0.041 C 
ATOM     12  O   UNL     1       2.933   6.647  84.957  1.00  0.00    -0.550 OA
ATOM     13  O   UNL     1       2.689   8.244  86.581  1.00  0.00    -0.550 OA
ENDBRANCH  10  11
ENDBRANCH   9  10
ENDBRANCH   8   9
ENDBRANCH   1   8
TORSDOF 8
ENDMDL
MODEL 7
REMARK VINA RESULT:    -4.163      3.137      6.577
REMARK INTER + INTRA:          -6.502
REMARK INTER:                  -6.225
REMARK INTRA:                  -0.278
REMARK UNBOUND:                -0.392
REMARK SMILES O=C([O-])CCCCCCCC(=O)[O-]
REMARK SMILES IDX 7 1 6 2 5 3 4 4 2 5 1 6 3 7 8 8 9 9 10 10 11 11 12 12 13 13
REMARK H PARENT
REMARK Flexibility Score: inf
ROOT
ATOM      1  C   UNL     1       5.717   8.751  81.856  1.00  0.00     0.000 C 
ENDROOT
BRANCH   1   2
ATOM      2  C   UNL     1       5.263  10.212  81.939  1.00  0.00     0.000 C 
BRANCH   2   3
ATOM      3  C   UNL     1       3.807  10.312  82.411  1.00  0.00     0.006 C 
BRANCH   3   4
ATOM      4  C   UNL     1       3.336   8.990  83.022  1.00  0.00     0.053 C 
BRANCH   4   5
ATOM      5  C   UNL     1       2.340   9.242  84.110  1.00  0.00     0.041 C 
ATOM      6  O   UNL     1       1.261   9.837  83.855  1.00  0.00    -0.550 OA
ATOM      7  O   UNL     1       2.626   8.863  85.415  1.00  0.00    -0.550 OA
ENDBRANCH   4   5
ENDBRANCH   3   4
ENDBRANCH   2   3
ENDBRANCH   1   2
BRANCH   1   8
ATOM      8  C   UNL     1       7.152   8.649  81.325  1.00  0.00     0.000 C 
BRANCH   8   9
ATOM      9  C   UNL     1       7.174   8.043  79.913  1.00  0.00     0.006 C 
BRANCH   9  10
ATOM     10  C   UNL     1       7.314   6.516  79.939  1.00  0.00     0.053 C 
BRANCH  10  11
ATOM     11  C   UNL     1       8.667   6.075  79.469  1.00  0.00     0.041 C 
ATOM     12  O   UNL     1       9.381   6.846  78.776  1.00  0.00    -0.550 OA
ATOM     13  O   UNL     1       9.126   4.799  79.774  1.00  0.00    -0.550 OA
ENDBRANCH  10  11
ENDBRANCH   9  10
ENDBRANCH   8   9
ENDBRANCH   1   8
TORSDOF 8
ENDMDL
MODEL 8
REMARK VINA RESULT:    -4.138      1.629      6.533
REMARK INTER + INTRA:          -6.466
REMARK INTER:                  -6.280
REMARK INTRA:                  -0.186
REMARK UNBOUND:                -0.392
REMARK SMILES O=C([O-])CCCCCCCC(=O)[O-]
REMARK SMILES IDX 7 1 6 2 5 3 4 4 2 5 1 6 3 7 8 8 9 9 10 10 11 11 12 12 13 13
REMARK H PARENT
REMARK Flexibility Score: inf
ROOT
ATOM      1  C   UNL     1       5.604   8.556  81.898  1.00  0.00     0.000 C 
ENDROOT
BRANCH   1   2
ATOM      2  C   UNL     1       5.162   9.975  82.271  1.00  0.00     0.000 C 
BRANCH   2   3
ATOM      3  C   UNL     1       3.649  10.034  82.519  1.00  0.00     0.006 C 
BRANCH   3   4
ATOM      4  C   UNL     1       3.140  11.477  82.462  1.00  0.00     0.053 C 
BRANCH   4   5
ATOM      5  C   UNL     1       2.605  11.790  81.101  1.00  0.00     0.041 C 
ATOM      6  O   UNL     1       3.384  12.159  80.183  1.00  0.00    -0.550 OA
ATOM      7  O   UNL     1       1.239  11.721  80.858  1.00  0.00    -0.550 OA
ENDBRANCH   4   5
ENDBRANCH   3   4
ENDBRANCH   2   3
ENDBRANCH   1   2
BRANCH   1   8
ATOM      8  C   UNL     1       6.969   8.570  81.199  1.00  0.00     0.000 C 
BRANCH   8   9
ATOM      9  C   UNL     1       7.083   7.416  80.192  1.00  0.00     0.006 C 
BRANCH   9  10
ATOM     10  C   UNL     1       8.192   7.653  79.159  1.00  0.00     0.053 C 
BRANCH  10  11
ATOM     11  C   UNL     1       9.260   6.606  79.242  1.00  0.00     0.041 C 
ATOM     12  O   UNL     1      10.474   6.929  79.158  1.00  0.00    -0.550 OA
ATOM     13  O   UNL     1       8.913   5.268  79.381  1.00  0.00    -0.550 OA
ENDBRANCH  10  11
ENDBRANCH   9  10
ENDBRANCH   8   9
ENDBRANCH   1   8
TORSDOF 8
ENDMDL
MODEL 9
REMARK VINA RESULT:    -3.970      1.882      2.407
REMARK INTER + INTRA:          -6.219
REMARK INTER:                  -6.005
REMARK INTRA:                  -0.214
REMARK UNBOUND:                -0.392
REMARK SMILES O=C([O-])CCCCCCCC(=O)[O-]
REMARK SMILES IDX 7 1 6 2 5 3 4 4 2 5 1 6 3 7 8 8 9 9 10 10 11 11 12 12 13 13
REMARK H PARENT
REMARK Flexibility Score: inf
ROOT
ATOM      1  C   UNL     1       5.456   8.661  81.878  1.00  0.00     0.000 C 
ENDROOT
BRANCH   1   2
ATOM      2  C   UNL     1       6.955   8.721  81.568  1.00  0.00     0.000 C 
BRANCH   2   3
ATOM      3  C   UNL     1       7.238   8.285  80.125  1.00  0.00     0.006 C 
BRANCH   3   4
ATOM      4  C   UNL     1       7.164   6.763  79.986  1.00  0.00     0.053 C 
BRANCH   4   5
ATOM      5  C   UNL     1       8.485   6.211  79.550  1.00  0.00     0.041 C 
ATOM      6  O   UNL     1       8.831   5.050  79.893  1.00  0.00    -0.550 OA
ATOM      7  O   UNL     1       9.355   6.998  78.807  1.00  0.00    -0.550 OA
ENDBRANCH   4   5
ENDBRANCH   3   4
ENDBRANCH   2   3
ENDBRANCH   1   2
BRANCH   1   8
ATOM      8  C   UNL     1       4.926  10.034  82.306  1.00  0.00     0.000 C 
BRANCH   8   9
ATOM      9  C   UNL     1       3.401  10.005  82.485  1.00  0.00     0.006 C 
BRANCH   9  10
ATOM     10  C   UNL     1       2.799  11.412  82.581  1.00  0.00     0.053 C 
BRANCH  10  11
ATOM     11  C   UNL     1       2.131  11.818  81.303  1.00  0.00     0.041 C 
ATOM     12  O   UNL     1       2.811  11.998  80.259  1.00  0.00    -0.550 OA
ATOM     13  O   UNL     1       0.757  12.027  81.274  1.00  0.00    -0.550 OA
ENDBRANCH  10  11
ENDBRANCH   9  10
ENDBRANCH   8   9
ENDBRANCH   1   8
TORSDOF 8
ENDMDL
