MODEL 1
REMARK VINA RESULT:    -4.097      0.000      0.000
REMARK INTER + INTRA:          -4.200
REMARK INTER:                  -5.056
REMARK INTRA:                   0.856
REMARK UNBOUND:                 0.856
REMARK SMILES CC1=CC=CC(C)(C)CC1=O
REMARK SMILES IDX 1 1 2 2 3 3 10 4 11 5 9 6 4 8 5 9 6 10 7 11 8 12
REMARK H PARENT
REMARK Flexibility Score: 80.00
ROOT
ATOM      1  C   UNL     1       4.597  -2.895  44.504  1.00  0.00     0.048 C 
ATOM      2  C   UNL     1       5.277  -2.456  45.781  1.00  0.00    -0.008 C 
ATOM      3  C   UNL     1       5.645  -1.161  45.887  1.00  0.00     0.007 C 
ENDROOT
BRANCH   2   4
ATOM      4  C   UNL     1       5.434  -3.487  46.841  1.00  0.00     0.159 C 
ATOM      5  O   UNL     1       5.076  -4.671  46.590  1.00  0.00    -0.295 OA
BRANCH   4   6
ATOM      6  C   UNL     1       5.958  -3.204  48.217  1.00  0.00     0.091 CG0
ATOM      7  G   UNL     1       7.306  -2.448  48.232  1.00  0.00     0.000 G0
ENDBRANCH   4   6
ENDBRANCH   2   4
BRANCH   3   8
ATOM      8  C   UNL     1       6.329  -0.460  46.996  1.00  0.00    -0.003 C 
ATOM      9  C   UNL     1       7.067  -0.980  47.984  1.00  0.00    -0.020 C 
BRANCH   9  10
ATOM     10  C   UNL     1       7.317  -2.448  48.230  1.00  0.00    -0.010 CG0
ATOM     11  C   UNL     1       8.326  -3.001  47.197  1.00  0.00     0.016 C 
ATOM     12  C   UNL     1       7.943  -2.603  49.635  1.00  0.00     0.016 C 
ATOM     13  G   UNL     1       5.972  -3.209  48.217  1.00  0.00     0.000 G0
ENDBRANCH   9  10
ENDBRANCH   3   8
TORSDOF 0
ENDMDL
MODEL 2
REMARK VINA RESULT:    -4.071      2.027      2.916
REMARK INTER + INTRA:          -4.166
REMARK INTER:                  -5.006
REMARK INTRA:                   0.840
REMARK UNBOUND:                 0.856
REMARK SMILES CC1=CC=CC(C)(C)CC1=O
REMARK SMILES IDX 1 1 2 2 3 3 10 4 11 5 9 6 4 8 5 9 6 10 7 11 8 12
REMARK H PARENT
REMARK Flexibility Score: 80.00
ROOT
ATOM      1  C   UNL     1       5.852  -0.820  47.485  1.00  0.00     0.048 C 
ATOM      2  C   UNL     1       6.811  -1.822  48.085  1.00  0.00    -0.008 C 
ATOM      3  C   UNL     1       8.130  -1.660  47.840  1.00  0.00     0.007 C 
ENDROOT
BRANCH   2   4
ATOM      4  C   UNL     1       6.219  -2.881  48.946  1.00  0.00     0.159 C 
ATOM      5  O   UNL     1       4.963  -2.939  49.053  1.00  0.00    -0.295 OA
BRANCH   4   6
ATOM      6  C   UNL     1       7.024  -3.869  49.736  1.00  0.00     0.091 CG0
ATOM      7  G   UNL     1       8.076  -4.632  48.901  1.00  0.00     0.000 G0
ENDBRANCH   4   6
ENDBRANCH   2   4
BRANCH   3   8
ATOM      8  C   UNL     1       9.282  -2.479  48.277  1.00  0.00    -0.003 C 
ATOM      9  C   UNL     1       9.291  -3.747  48.704  1.00  0.00    -0.020 C 
BRANCH   9  10
ATOM     10  C   UNL     1       8.081  -4.627  48.904  1.00  0.00    -0.010 CG0
ATOM     11  C   UNL     1       7.548  -5.124  47.540  1.00  0.00     0.016 C 
ATOM     12  C   UNL     1       8.514  -5.865  49.724  1.00  0.00     0.016 C 
ATOM     13  G   UNL     1       7.015  -3.860  49.718  1.00  0.00     0.000 G0
ENDBRANCH   9  10
ENDBRANCH   3   8
TORSDOF 0
ENDMDL
MODEL 3
REMARK VINA RESULT:    -3.887      1.611      2.713
REMARK INTER + INTRA:          -3.940
REMARK INTER:                  -4.794
REMARK INTRA:                   0.853
REMARK UNBOUND:                 0.856
REMARK SMILES CC1=CC=CC(C)(C)CC1=O
REMARK SMILES IDX 1 1 2 2 3 3 10 4 11 5 9 6 4 8 5 9 6 10 7 11 8 12
REMARK H PARENT
REMARK Flexibility Score: 80.00
ROOT
ATOM      1  C   UNL     1       6.374  -0.248  46.761  1.00  0.00     0.048 C 
ATOM      2  C   UNL     1       6.181  -1.511  47.568  1.00  0.00    -0.008 C 
ATOM      3  C   UNL     1       6.534  -1.488  48.871  1.00  0.00     0.007 C 
ENDROOT
BRANCH   2   4
ATOM      4  C   UNL     1       5.562  -2.665  46.863  1.00  0.00     0.159 C 
ATOM      5  O   UNL     1       5.317  -2.558  45.630  1.00  0.00    -0.295 OA
BRANCH   4   6
ATOM      6  C   UNL     1       5.169  -3.947  47.534  1.00  0.00     0.091 CG0
ATOM      7  G   UNL     1       6.299  -4.591  48.368  1.00  0.00     0.000 G0
ENDBRANCH   4   6
ENDBRANCH   2   4
BRANCH   3   8
ATOM      8  C   UNL     1       6.472  -2.562  49.888  1.00  0.00    -0.003 C 
ATOM      9  C   UNL     1       6.397  -3.885  49.702  1.00  0.00    -0.020 C 
BRANCH   9  10
ATOM     10  C   UNL     1       6.289  -4.592  48.372  1.00  0.00    -0.010 CG0
ATOM     11  C   UNL     1       7.657  -4.586  47.649  1.00  0.00     0.016 C 
ATOM     12  C   UNL     1       5.899  -6.064  48.637  1.00  0.00     0.016 C 
ATOM     13  G   UNL     1       5.167  -3.941  47.532  1.00  0.00     0.000 G0
ENDBRANCH   9  10
ENDBRANCH   3   8
TORSDOF 0
ENDMDL
MODEL 4
REMARK VINA RESULT:    -3.809      2.125      3.187
REMARK INTER + INTRA:          -3.843
REMARK INTER:                  -4.689
REMARK INTRA:                   0.845
REMARK UNBOUND:                 0.856
REMARK SMILES CC1=CC=CC(C)(C)CC1=O
REMARK SMILES IDX 1 1 2 2 3 3 10 4 11 5 9 6 4 8 5 9 6 10 7 11 8 12
REMARK H PARENT
REMARK Flexibility Score: 80.00
ROOT
ATOM      1  C   UNL     1       7.370  -0.139  47.050  1.00  0.00     0.048 C 
ATOM      2  C   UNL     1       6.810  -1.403  47.659  1.00  0.00    -0.008 C 
ATOM      3  C   UNL     1       5.489  -1.645  47.510  1.00  0.00     0.007 C 
ENDROOT
BRANCH   2   4
ATOM      4  C   UNL     1       7.780  -2.307  48.332  1.00  0.00     0.159 C 
ATOM      5  O   UNL     1       8.979  -1.929  48.444  1.00  0.00    -0.295 OA
BRANCH   4   6
ATOM      6  C   UNL     1       7.436  -3.669  48.857  1.00  0.00     0.091 CG0
ATOM      7  G   UNL     1       6.221  -3.685  49.811  1.00  0.00     0.000 G0
ENDBRANCH   4   6
ENDBRANCH   2   4
BRANCH   3   8
ATOM      8  C   UNL     1       4.672  -2.777  48.002  1.00  0.00    -0.003 C 
ATOM      9  C   UNL     1       4.945  -3.636  48.991  1.00  0.00    -0.020 C 
BRANCH   9  10
ATOM     10  C   UNL     1       6.217  -3.682  49.804  1.00  0.00    -0.010 CG0
ATOM     11  C   UNL     1       6.235  -2.530  50.836  1.00  0.00     0.016 C 
ATOM     12  C   UNL     1       6.244  -5.017  50.582  1.00  0.00     0.016 C 
ATOM     13  G   UNL     1       7.436  -3.654  48.855  1.00  0.00     0.000 G0
ENDBRANCH   9  10
ENDBRANCH   3   8
TORSDOF 0
ENDMDL
MODEL 5
REMARK VINA RESULT:    -3.777      2.134      3.506
REMARK INTER + INTRA:          -3.804
REMARK INTER:                  -4.652
REMARK INTRA:                   0.848
REMARK UNBOUND:                 0.856
REMARK SMILES CC1=CC=CC(C)(C)CC1=O
REMARK SMILES IDX 1 1 2 2 3 3 10 4 11 5 9 6 4 8 5 9 6 10 7 11 8 12
REMARK H PARENT
REMARK Flexibility Score: 80.00
ROOT
ATOM      1  C   UNL     1       9.794  -2.448  48.741  1.00  0.00     0.048 C 
ATOM      2  C   UNL     1       8.321  -2.678  48.492  1.00  0.00    -0.008 C 
ATOM      3  C   UNL     1       7.583  -1.632  48.063  1.00  0.00     0.007 C 
ENDROOT
BRANCH   2   4
ATOM      4  C   UNL     1       7.819  -4.064  48.691  1.00  0.00     0.159 C 
ATOM      5  O   UNL     1       8.616  -4.936  49.134  1.00  0.00    -0.295 OA
BRANCH   4   6
ATOM      6  C   UNL     1       6.425  -4.508  48.361  1.00  0.00     0.091 CG0
ATOM      7  G   UNL     1       5.321  -3.631  48.993  1.00  0.00     0.000 G0
ENDBRANCH   4   6
ENDBRANCH   2   4
BRANCH   3   8
ATOM      8  C   UNL     1       6.137  -1.557  47.753  1.00  0.00    -0.003 C 
ATOM      9  C   UNL     1       5.155  -2.373  48.151  1.00  0.00    -0.020 C 
BRANCH   9  10
ATOM     10  C   UNL     1       5.319  -3.628  48.975  1.00  0.00    -0.010 CG0
ATOM     11  C   UNL     1       5.586  -3.266  50.455  1.00  0.00     0.016 C 
ATOM     12  C   UNL     1       3.995  -4.424  48.913  1.00  0.00     0.016 C 
ATOM     13  G   UNL     1       6.436  -4.503  48.364  1.00  0.00     0.000 G0
ENDBRANCH   9  10
ENDBRANCH   3   8
TORSDOF 0
ENDMDL
MODEL 6
REMARK VINA RESULT:    -3.626      2.073      3.606
REMARK INTER + INTRA:          -3.618
REMARK INTER:                  -4.457
REMARK INTRA:                   0.840
REMARK UNBOUND:                 0.856
REMARK SMILES CC1=CC=CC(C)(C)CC1=O
REMARK SMILES IDX 1 1 2 2 3 3 10 4 11 5 9 6 4 8 5 9 6 10 7 11 8 12
REMARK H PARENT
REMARK Flexibility Score: 80.00
ROOT
ATOM      1  C   UNL     1       6.404  -5.830  50.870  1.00  0.00     0.048 C 
ATOM      2  C   UNL     1       6.572  -4.546  50.091  1.00  0.00    -0.008 C 
ATOM      3  C   UNL     1       5.952  -3.440  50.557  1.00  0.00     0.007 C 
ENDROOT
BRANCH   2   4
ATOM      4  C   UNL     1       7.456  -4.600  48.896  1.00  0.00     0.159 C 
ATOM      5  O   UNL     1       7.940  -5.714  48.554  1.00  0.00    -0.295 OA
BRANCH   4   6
ATOM      6  C   UNL     1       7.848  -3.401  48.086  1.00  0.00     0.091 CG0
ATOM      7  G   UNL     1       6.652  -2.538  47.624  1.00  0.00     0.000 G0
ENDBRANCH   4   6
ENDBRANCH   2   4
BRANCH   3   8
ATOM      8  C   UNL     1       5.927  -2.066  50.006  1.00  0.00    -0.003 C 
ATOM      9  C   UNL     1       6.192  -1.662  48.759  1.00  0.00    -0.020 C 
BRANCH   9  10
ATOM     10  C   UNL     1       6.655  -2.537  47.619  1.00  0.00    -0.010 CG0
ATOM     11  C   UNL     1       5.474  -3.367  47.065  1.00  0.00     0.016 C 
ATOM     12  C   UNL     1       7.165  -1.621  46.483  1.00  0.00     0.016 C 
ATOM     13  G   UNL     1       7.834  -3.418  48.092  1.00  0.00     0.000 G0
ENDBRANCH   9  10
ENDBRANCH   3   8
TORSDOF 0
ENDMDL
MODEL 7
REMARK VINA RESULT:    -3.496      2.300      2.850
REMARK INTER + INTRA:          -3.458
REMARK INTER:                  -4.304
REMARK INTRA:                   0.846
REMARK UNBOUND:                 0.856
REMARK SMILES CC1=CC=CC(C)(C)CC1=O
REMARK SMILES IDX 1 1 2 2 3 3 10 4 11 5 9 6 4 8 5 9 6 10 7 11 8 12
REMARK H PARENT
REMARK Flexibility Score: 80.00
ROOT
ATOM      1  C   UNL     1       4.278  -4.869  48.349  1.00  0.00     0.048 C 
ATOM      2  C   UNL     1       5.546  -4.225  48.861  1.00  0.00    -0.008 C 
ATOM      3  C   UNL     1       5.425  -3.217  49.753  1.00  0.00     0.007 C 
ENDROOT
BRANCH   2   4
ATOM      4  C   UNL     1       6.830  -4.797  48.376  1.00  0.00     0.159 C 
ATOM      5  O   UNL     1       6.793  -5.702  47.497  1.00  0.00    -0.295 OA
BRANCH   4   6
ATOM      6  C   UNL     1       8.179  -4.394  48.892  1.00  0.00     0.091 CG0
ATOM      7  G   UNL     1       8.429  -2.870  48.871  1.00  0.00     0.000 G0
ENDBRANCH   4   6
ENDBRANCH   2   4
BRANCH   3   8
ATOM      8  C   UNL     1       6.473  -2.403  50.408  1.00  0.00    -0.003 C 
ATOM      9  C   UNL     1       7.744  -2.219  50.032  1.00  0.00    -0.020 C 
BRANCH   9  10
ATOM     10  C   UNL     1       8.429  -2.876  48.858  1.00  0.00    -0.010 CG0
ATOM     11  C   UNL     1       7.973  -2.219  47.534  1.00  0.00     0.016 C 
ATOM     12  C   UNL     1       9.952  -2.650  48.999  1.00  0.00     0.016 C 
ATOM     13  G   UNL     1       8.164  -4.397  48.892  1.00  0.00     0.000 G0
ENDBRANCH   9  10
ENDBRANCH   3   8
TORSDOF 0
ENDMDL
MODEL 8
REMARK VINA RESULT:    -3.436      9.150      9.747
REMARK INTER + INTRA:          -3.383
REMARK INTER:                  -4.228
REMARK INTRA:                   0.845
REMARK UNBOUND:                 0.856
REMARK SMILES CC1=CC=CC(C)(C)CC1=O
REMARK SMILES IDX 1 1 2 2 3 3 10 4 11 5 9 6 4 8 5 9 6 10 7 11 8 12
REMARK H PARENT
REMARK Flexibility Score: 80.00
ROOT
ATOM      1  C   UNL     1       6.244   4.802  53.041  1.00  0.00     0.048 C 
ATOM      2  C   UNL     1       7.521   4.034  53.298  1.00  0.00    -0.008 C 
ATOM      3  C   UNL     1       7.445   2.920  54.057  1.00  0.00     0.007 C 
ENDROOT
BRANCH   2   4
ATOM      4  C   UNL     1       8.753   4.548  52.641  1.00  0.00     0.159 C 
ATOM      5  O   UNL     1       8.683   5.624  51.986  1.00  0.00    -0.295 OA
BRANCH   4   6
ATOM      6  C   UNL     1      10.077   3.846  52.674  1.00  0.00     0.091 CG0
ATOM      7  G   UNL     1      10.549   3.462  54.094  1.00  0.00     0.000 G0
ENDBRANCH   4   6
ENDBRANCH   2   4
BRANCH   3   8
ATOM      8  C   UNL     1       8.514   1.988  54.480  1.00  0.00    -0.003 C 
ATOM      9  C   UNL     1       9.835   2.198  54.526  1.00  0.00    -0.020 C 
BRANCH   9  10
ATOM     10  C   UNL     1      10.553   3.449  54.079  1.00  0.00    -0.010 CG0
ATOM     11  C   UNL     1      10.363   4.577  55.119  1.00  0.00     0.016 C 
ATOM     12  C   UNL     1      12.064   3.133  53.991  1.00  0.00     0.016 C 
ATOM     13  G   UNL     1      10.063   3.848  52.669  1.00  0.00     0.000 G0
ENDBRANCH   9  10
ENDBRANCH   3   8
TORSDOF 0
ENDMDL
MODEL 9
REMARK VINA RESULT:    -3.334      2.198      4.068
REMARK INTER + INTRA:          -3.257
REMARK INTER:                  -4.367
REMARK INTRA:                   1.109
REMARK UNBOUND:                 0.856
REMARK SMILES CC1=CC=CC(C)(C)CC1=O
REMARK SMILES IDX 1 1 2 2 3 3 10 4 11 5 9 6 4 8 5 9 6 10 7 11 8 12
REMARK H PARENT
REMARK Flexibility Score: 80.00
ROOT
ATOM      1  C   UNL     1       9.987  -2.427  48.776  1.00  0.00     0.048 C 
ATOM      2  C   UNL     1       8.696  -3.203  48.651  1.00  0.00    -0.008 C 
ATOM      3  C   UNL     1       8.683  -4.481  49.087  1.00  0.00     0.007 C 
ENDROOT
BRANCH   2   4
ATOM      4  C   UNL     1       7.526  -2.469  48.100  1.00  0.00     0.159 C 
ATOM      5  O   UNL     1       7.606  -1.216  47.972  1.00  0.00    -0.295 OA
BRANCH   4   6
ATOM      6  C   UNL     1       6.229  -3.118  47.720  1.00  0.00     0.091 CG0
ATOM      7  G   UNL     1       5.574  -3.927  48.861  1.00  0.00     0.000 G0
ENDBRANCH   4   6
ENDBRANCH   2   4
BRANCH   3   8
ATOM      8  C   UNL     1       7.584  -5.473  49.080  1.00  0.00    -0.003 C 
ATOM      9  C   UNL     1       6.269  -5.261  48.957  1.00  0.00    -0.020 C 
BRANCH   9  10
ATOM     10  C   UNL     1       5.589  -3.916  48.864  1.00  0.00    -0.010 CG0
ATOM     11  C   UNL     1       4.063  -4.097  48.686  1.00  0.00     0.016 C 
ATOM     12  C   UNL     1       5.826  -3.161  50.192  1.00  0.00     0.016 C 
ATOM     13  G   UNL     1       6.229  -3.093  47.723  1.00  0.00     0.000 G0
ENDBRANCH   9  10
ENDBRANCH   3   8
TORSDOF 0
ENDMDL
