MODEL 1
REMARK VINA RESULT:    -2.448      0.000      0.000
REMARK INTER + INTRA:          -2.862
REMARK INTER:                  -2.591
REMARK INTRA:                  -0.271
REMARK UNBOUND:                -0.271
REMARK SMILES CC(C)[C@H]1CC[C@H](C)[C@H]2C=C[C@@H](C)C[C@@H]21
REMARK SMILES IDX 8 1 7 2 6 3 5 4 4 5 15 6 9 7 10 8 11 9 12 10 14 11 13 12
REMARK SMILES IDX 2 13 1 14 3 15
REMARK H PARENT
REMARK Flexibility Score: inf
ROOT
ATOM      1  C   UNL     1     157.233 156.215 136.875  1.00  0.00     0.008 C 
ATOM      2  C   UNL     1     157.023 156.959 138.206  1.00  0.00    -0.007 C 
ATOM      3  C   UNL     1     156.680 155.934 139.302  1.00  0.00     0.004 C 
ATOM      4  C   UNL     1     156.467 156.616 140.653  1.00  0.00     0.004 C 
ATOM      5  C   UNL     1     157.737 157.378 141.098  1.00  0.00    -0.005 C 
ATOM      6  C   UNL     1     158.128 158.431 140.014  1.00  0.00    -0.000 C 
ATOM      7  C   UNL     1     158.277 157.780 138.608  1.00  0.00     0.018 C 
ATOM      8  C   UNL     1     158.556 158.897 137.623  1.00  0.00    -0.027 C 
ATOM      9  C   UNL     1     159.482 159.814 137.922  1.00  0.00    -0.028 C 
ATOM     10  C   UNL     1     160.297 159.665 139.185  1.00  0.00     0.008 C 
ATOM     11  C   UNL     1     159.421 159.224 140.393  1.00  0.00     0.012 C 
ATOM     12  C   UNL     1     161.070 160.951 139.495  1.00  0.00     0.012 C 
ENDROOT
BRANCH   5  13
ATOM     13  C   UNL     1     157.590 157.988 142.537  1.00  0.00    -0.014 C 
ATOM     14  C   UNL     1     156.471 159.035 142.665  1.00  0.00     0.007 C 
ATOM     15  C   UNL     1     157.413 156.898 143.606  1.00  0.00     0.007 C 
ENDBRANCH   5  13
TORSDOF 1
ENDMDL
MODEL 2
REMARK VINA RESULT:    -2.361      4.736      6.976
REMARK INTER + INTRA:          -2.770
REMARK INTER:                  -2.502
REMARK INTRA:                  -0.268
REMARK UNBOUND:                -0.271
REMARK SMILES CC(C)[C@H]1CC[C@H](C)[C@H]2C=C[C@@H](C)C[C@@H]21
REMARK SMILES IDX 8 1 7 2 6 3 5 4 4 5 15 6 9 7 10 8 11 9 12 10 14 11 13 12
REMARK SMILES IDX 2 13 1 14 3 15
REMARK H PARENT
REMARK Flexibility Score: inf
ROOT
ATOM      1  C   UNL     1     166.685 155.875 139.523  1.00  0.00     0.008 C 
ATOM      2  C   UNL     1     165.682 157.009 139.246  1.00  0.00    -0.007 C 
ATOM      3  C   UNL     1     164.573 156.481 138.320  1.00  0.00     0.004 C 
ATOM      4  C   UNL     1     163.540 157.564 138.016  1.00  0.00     0.004 C 
ATOM      5  C   UNL     1     162.870 158.076 139.312  1.00  0.00    -0.005 C 
ATOM      6  C   UNL     1     163.959 158.622 140.289  1.00  0.00    -0.000 C 
ATOM      7  C   UNL     1     165.070 157.566 140.559  1.00  0.00     0.018 C 
ATOM      8  C   UNL     1     166.118 158.229 141.430  1.00  0.00    -0.027 C 
ATOM      9  C   UNL     1     165.727 158.927 142.503  1.00  0.00    -0.028 C 
ATOM     10  C   UNL     1     164.265 158.959 142.879  1.00  0.00     0.008 C 
ATOM     11  C   UNL     1     163.349 159.136 141.634  1.00  0.00     0.012 C 
ATOM     12  C   UNL     1     163.992 160.038 143.931  1.00  0.00     0.012 C 
ENDROOT
BRANCH   5  13
ATOM     13  C   UNL     1     161.719 159.102 139.022  1.00  0.00    -0.014 C 
ATOM     14  C   UNL     1     161.692 159.624 137.575  1.00  0.00     0.007 C 
ATOM     15  C   UNL     1     160.339 158.541 139.404  1.00  0.00     0.007 C 
ENDBRANCH   5  13
TORSDOF 1
ENDMDL
MODEL 3
REMARK VINA RESULT:    -2.356     17.451     19.066
REMARK INTER + INTRA:          -2.764
REMARK INTER:                  -2.505
REMARK INTRA:                  -0.259
REMARK UNBOUND:                -0.271
REMARK SMILES CC(C)[C@H]1CC[C@H](C)[C@H]2C=C[C@@H](C)C[C@@H]21
REMARK SMILES IDX 8 1 7 2 6 3 5 4 4 5 15 6 9 7 10 8 11 9 12 10 14 11 13 12
REMARK SMILES IDX 2 13 1 14 3 15
REMARK H PARENT
REMARK Flexibility Score: inf
ROOT
ATOM      1  C   UNL     1     165.272 176.125 139.636  1.00  0.00     0.008 C 
ATOM      2  C   UNL     1     166.264 174.992 139.318  1.00  0.00    -0.007 C 
ATOM      3  C   UNL     1     167.343 175.527 138.361  1.00  0.00     0.004 C 
ATOM      4  C   UNL     1     168.364 174.444 138.014  1.00  0.00     0.004 C 
ATOM      5  C   UNL     1     169.074 173.920 139.285  1.00  0.00    -0.005 C 
ATOM      6  C   UNL     1     168.016 173.367 140.290  1.00  0.00    -0.000 C 
ATOM      7  C   UNL     1     166.916 174.422 140.606  1.00  0.00     0.018 C 
ATOM      8  C   UNL     1     165.895 173.753 141.503  1.00  0.00    -0.027 C 
ATOM      9  C   UNL     1     166.318 173.045 142.557  1.00  0.00    -0.028 C 
ATOM     10  C   UNL     1     167.792 173.007 142.886  1.00  0.00     0.008 C 
ATOM     11  C   UNL     1     168.667 172.840 141.611  1.00  0.00     0.012 C 
ATOM     12  C   UNL     1     168.096 171.919 143.919  1.00  0.00     0.012 C 
ENDROOT
BRANCH   5  13
ATOM     13  C   UNL     1     170.213 172.894 138.948  1.00  0.00    -0.014 C 
ATOM     14  C   UNL     1     170.262 172.471 137.470  1.00  0.00     0.007 C 
ATOM     15  C   UNL     1     171.593 173.402 139.395  1.00  0.00     0.007 C 
ENDBRANCH   5  13
TORSDOF 1
ENDMDL
MODEL 4
REMARK VINA RESULT:    -2.353     17.173     18.613
REMARK INTER + INTRA:          -2.761
REMARK INTER:                  -2.537
REMARK INTRA:                  -0.224
REMARK UNBOUND:                -0.271
REMARK SMILES CC(C)[C@H]1CC[C@H](C)[C@H]2C=C[C@@H](C)C[C@@H]21
REMARK SMILES IDX 8 1 7 2 6 3 5 4 4 5 15 6 9 7 10 8 11 9 12 10 14 11 13 12
REMARK SMILES IDX 2 13 1 14 3 15
REMARK H PARENT
REMARK Flexibility Score: inf
ROOT
ATOM      1  C   UNL     1     164.572 176.045 139.527  1.00  0.00     0.008 C 
ATOM      2  C   UNL     1     165.774 175.602 140.381  1.00  0.00    -0.007 C 
ATOM      3  C   UNL     1     165.255 174.977 141.687  1.00  0.00     0.004 C 
ATOM      4  C   UNL     1     166.408 174.510 142.575  1.00  0.00     0.004 C 
ATOM      5  C   UNL     1     167.274 173.451 141.854  1.00  0.00    -0.005 C 
ATOM      6  C   UNL     1     167.822 174.040 140.517  1.00  0.00    -0.000 C 
ATOM      7  C   UNL     1     166.677 174.595 139.620  1.00  0.00     0.018 C 
ATOM      8  C   UNL     1     167.324 175.228 138.406  1.00  0.00    -0.027 C 
ATOM      9  C   UNL     1     168.279 174.557 137.751  1.00  0.00    -0.028 C 
ATOM     10  C   UNL     1     168.624 173.149 138.176  1.00  0.00     0.008 C 
ATOM     11  C   UNL     1     168.691 173.009 139.724  1.00  0.00     0.012 C 
ATOM     12  C   UNL     1     169.924 172.679 137.516  1.00  0.00     0.012 C 
ENDROOT
BRANCH   5  13
ATOM     13  C   UNL     1     168.393 172.864 142.785  1.00  0.00    -0.014 C 
ATOM     14  C   UNL     1     168.425 173.479 144.194  1.00  0.00     0.007 C 
ATOM     15  C   UNL     1     168.313 171.332 142.882  1.00  0.00     0.007 C 
ENDBRANCH   5  13
TORSDOF 1
ENDMDL
MODEL 5
REMARK VINA RESULT:    -2.342     19.199     22.881
REMARK INTER + INTRA:          -2.750
REMARK INTER:                  -2.485
REMARK INTRA:                  -0.265
REMARK UNBOUND:                -0.271
REMARK SMILES CC(C)[C@H]1CC[C@H](C)[C@H]2C=C[C@@H](C)C[C@@H]21
REMARK SMILES IDX 8 1 7 2 6 3 5 4 4 5 15 6 9 7 10 8 11 9 12 10 14 11 13 12
REMARK SMILES IDX 2 13 1 14 3 15
REMARK H PARENT
REMARK Flexibility Score: inf
ROOT
ATOM      1  C   UNL     1     175.144 175.723 143.595  1.00  0.00     0.008 C 
ATOM      2  C   UNL     1     175.001 174.533 142.629  1.00  0.00    -0.007 C 
ATOM      3  C   UNL     1     173.905 173.590 143.156  1.00  0.00     0.004 C 
ATOM      4  C   UNL     1     173.713 172.390 142.231  1.00  0.00     0.004 C 
ATOM      5  C   UNL     1     173.307 172.841 140.809  1.00  0.00    -0.005 C 
ATOM      6  C   UNL     1     174.391 173.805 140.231  1.00  0.00    -0.000 C 
ATOM      7  C   UNL     1     174.666 175.001 141.188  1.00  0.00     0.018 C 
ATOM      8  C   UNL     1     175.795 175.810 140.584  1.00  0.00    -0.027 C 
ATOM      9  C   UNL     1     175.748 176.125 139.284  1.00  0.00    -0.028 C 
ATOM     10  C   UNL     1     174.531 175.753 138.471  1.00  0.00     0.008 C 
ATOM     11  C   UNL     1     174.029 174.318 138.799  1.00  0.00     0.012 C 
ATOM     12  C   UNL     1     174.798 175.923 136.972  1.00  0.00     0.012 C 
ENDROOT
BRANCH   5  13
ATOM     13  C   UNL     1     172.985 171.626 139.869  1.00  0.00    -0.014 C 
ATOM     14  C   UNL     1     173.388 170.259 140.448  1.00  0.00     0.007 C 
ATOM     15  C   UNL     1     171.507 171.603 139.447  1.00  0.00     0.007 C 
ENDBRANCH   5  13
TORSDOF 1
ENDMDL
MODEL 6
REMARK VINA RESULT:    -2.319      1.223      4.675
REMARK INTER + INTRA:          -2.725
REMARK INTER:                  -2.465
REMARK INTRA:                  -0.260
REMARK UNBOUND:                -0.271
REMARK SMILES CC(C)[C@H]1CC[C@H](C)[C@H]2C=C[C@@H](C)C[C@@H]21
REMARK SMILES IDX 8 1 7 2 6 3 5 4 4 5 15 6 9 7 10 8 11 9 12 10 14 11 13 12
REMARK SMILES IDX 2 13 1 14 3 15
REMARK H PARENT
REMARK Flexibility Score: inf
ROOT
ATOM      1  C   UNL     1     157.312 156.812 143.778  1.00  0.00     0.008 C 
ATOM      2  C   UNL     1     157.266 157.896 142.686  1.00  0.00    -0.007 C 
ATOM      3  C   UNL     1     158.287 158.994 143.029  1.00  0.00     0.004 C 
ATOM      4  C   UNL     1     158.291 160.097 141.971  1.00  0.00     0.004 C 
ATOM      5  C   UNL     1     158.652 159.533 140.578  1.00  0.00    -0.005 C 
ATOM      6  C   UNL     1     157.642 158.409 140.186  1.00  0.00    -0.000 C 
ATOM      7  C   UNL     1     157.557 157.306 141.281  1.00  0.00     0.018 C 
ATOM      8  C   UNL     1     156.483 156.327 140.850  1.00  0.00    -0.027 C 
ATOM      9  C   UNL     1     156.481 155.875 139.591  1.00  0.00    -0.028 C 
ATOM     10  C   UNL     1     157.597 156.272 138.655  1.00  0.00     0.008 C 
ATOM     11  C   UNL     1     157.965 157.777 138.792  1.00  0.00     0.012 C 
ATOM     12  C   UNL     1     157.255 155.910 137.206  1.00  0.00     0.012 C 
ENDROOT
BRANCH   5  13
ATOM     13  C   UNL     1     158.783 160.661 139.495  1.00  0.00    -0.014 C 
ATOM     14  C   UNL     1     158.329 162.049 139.975  1.00  0.00     0.007 C 
ATOM     15  C   UNL     1     160.207 160.744 138.921  1.00  0.00     0.007 C 
ENDBRANCH   5  13
TORSDOF 1
ENDMDL
MODEL 7
REMARK VINA RESULT:    -2.292     18.673     22.579
REMARK INTER + INTRA:          -2.697
REMARK INTER:                  -2.422
REMARK INTRA:                  -0.275
REMARK UNBOUND:                -0.271
REMARK SMILES CC(C)[C@H]1CC[C@H](C)[C@H]2C=C[C@@H](C)C[C@@H]21
REMARK SMILES IDX 8 1 7 2 6 3 5 4 4 5 15 6 9 7 10 8 11 9 12 10 14 11 13 12
REMARK SMILES IDX 2 13 1 14 3 15
REMARK H PARENT
REMARK Flexibility Score: inf
ROOT
ATOM      1  C   UNL     1     176.038 175.311 136.875  1.00  0.00     0.008 C 
ATOM      2  C   UNL     1     174.729 174.852 137.544  1.00  0.00    -0.007 C 
ATOM      3  C   UNL     1     174.264 173.542 136.885  1.00  0.00     0.004 C 
ATOM      4  C   UNL     1     172.969 173.033 137.516  1.00  0.00     0.004 C 
ATOM      5  C   UNL     1     173.154 172.763 139.027  1.00  0.00    -0.005 C 
ATOM      6  C   UNL     1     173.630 174.067 139.742  1.00  0.00    -0.000 C 
ATOM      7  C   UNL     1     174.906 174.655 139.073  1.00  0.00     0.018 C 
ATOM      8  C   UNL     1     175.219 175.961 139.774  1.00  0.00    -0.027 C 
ATOM      9  C   UNL     1     175.212 176.001 141.112  1.00  0.00    -0.028 C 
ATOM     10  C   UNL     1     174.988 174.729 141.894  1.00  0.00     0.008 C 
ATOM     11  C   UNL     1     173.858 173.857 141.274  1.00  0.00     0.012 C 
ATOM     12  C   UNL     1     174.715 175.032 143.370  1.00  0.00     0.012 C 
ENDROOT
BRANCH   5  13
ATOM     13  C   UNL     1     171.876 172.125 139.677  1.00  0.00    -0.014 C 
ATOM     14  C   UNL     1     170.594 172.952 139.488  1.00  0.00     0.007 C 
ATOM     15  C   UNL     1     171.646 170.683 139.195  1.00  0.00     0.007 C 
ENDBRANCH   5  13
TORSDOF 1
ENDMDL
MODEL 8
REMARK VINA RESULT:    -2.264     16.108     18.730
REMARK INTER + INTRA:          -2.667
REMARK INTER:                  -2.392
REMARK INTRA:                  -0.275
REMARK UNBOUND:                -0.271
REMARK SMILES CC(C)[C@H]1CC[C@H](C)[C@H]2C=C[C@@H](C)C[C@@H]21
REMARK SMILES IDX 8 1 7 2 6 3 5 4 4 5 15 6 9 7 10 8 11 9 12 10 14 11 13 12
REMARK SMILES IDX 2 13 1 14 3 15
REMARK H PARENT
REMARK Flexibility Score: inf
ROOT
ATOM      1  C   UNL     1     168.373 169.872 136.896  1.00  0.00     0.008 C 
ATOM      2  C   UNL     1     168.238 171.380 137.177  1.00  0.00    -0.007 C 
ATOM      3  C   UNL     1     166.882 171.642 137.855  1.00  0.00     0.004 C 
ATOM      4  C   UNL     1     166.694 173.126 138.167  1.00  0.00     0.004 C 
ATOM      5  C   UNL     1     167.804 173.641 139.113  1.00  0.00    -0.005 C 
ATOM      6  C   UNL     1     169.204 173.394 138.468  1.00  0.00    -0.000 C 
ATOM      7  C   UNL     1     169.397 171.902 138.068  1.00  0.00     0.018 C 
ATOM      8  C   UNL     1     170.735 171.795 137.366  1.00  0.00    -0.027 C 
ATOM      9  C   UNL     1     171.808 172.376 137.915  1.00  0.00    -0.028 C 
ATOM     10  C   UNL     1     171.685 173.042 139.265  1.00  0.00     0.008 C 
ATOM     11  C   UNL     1     170.375 173.873 139.386  1.00  0.00     0.012 C 
ATOM     12  C   UNL     1     172.919 173.895 139.572  1.00  0.00     0.012 C 
ENDROOT
BRANCH   5  13
ATOM     13  C   UNL     1     167.570 175.130 139.547  1.00  0.00    -0.014 C 
ATOM     14  C   UNL     1     167.498 176.124 138.376  1.00  0.00     0.007 C 
ATOM     15  C   UNL     1     166.325 175.279 140.439  1.00  0.00     0.007 C 
ENDBRANCH   5  13
TORSDOF 1
ENDMDL
MODEL 9
REMARK VINA RESULT:    -2.199      3.890      6.890
REMARK INTER + INTRA:          -2.598
REMARK INTER:                  -2.323
REMARK INTRA:                  -0.275
REMARK UNBOUND:                -0.271
REMARK SMILES CC(C)[C@H]1CC[C@H](C)[C@H]2C=C[C@@H](C)C[C@@H]21
REMARK SMILES IDX 8 1 7 2 6 3 5 4 4 5 15 6 9 7 10 8 11 9 12 10 14 11 13 12
REMARK SMILES IDX 2 13 1 14 3 15
REMARK H PARENT
REMARK Flexibility Score: inf
ROOT
ATOM      1  C   UNL     1     164.236 162.241 137.357  1.00  0.00     0.008 C 
ATOM      2  C   UNL     1     164.279 160.715 137.555  1.00  0.00    -0.007 C 
ATOM      3  C   UNL     1     165.556 160.347 138.329  1.00  0.00     0.004 C 
ATOM      4  C   UNL     1     165.649 158.840 138.563  1.00  0.00     0.004 C 
ATOM      5  C   UNL     1     164.438 158.326 139.376  1.00  0.00    -0.005 C 
ATOM      6  C   UNL     1     163.113 158.679 138.629  1.00  0.00    -0.000 C 
ATOM      7  C   UNL     1     163.023 160.199 138.307  1.00  0.00     0.018 C 
ATOM      8  C   UNL     1     161.758 160.413 137.500  1.00  0.00    -0.027 C 
ATOM      9  C   UNL     1     160.616 159.855 137.918  1.00  0.00    -0.028 C 
ATOM     10  C   UNL     1     160.589 159.107 139.229  1.00  0.00     0.008 C 
ATOM     11  C   UNL     1     161.844 158.206 139.411  1.00  0.00     0.012 C 
ATOM     12  C   UNL     1     159.295 158.299 139.374  1.00  0.00     0.012 C 
ENDROOT
BRANCH   5  13
ATOM     13  C   UNL     1     164.566 156.804 139.735  1.00  0.00    -0.014 C 
ATOM     14  C   UNL     1     164.712 155.879 138.515  1.00  0.00     0.007 C 
ATOM     15  C   UNL     1     165.708 156.543 140.731  1.00  0.00     0.007 C 
ENDBRANCH   5  13
TORSDOF 1
ENDMDL
