MODEL 1
REMARK VINA RESULT:    -4.122      0.000      0.000
REMARK INTER + INTRA:          -5.943
REMARK INTER:                  -5.567
REMARK INTRA:                  -0.375
REMARK UNBOUND:                -0.375
REMARK SMILES CCCCCCC=CC(=O)[O-]
REMARK SMILES IDX 5 1 6 2 7 3 8 4 9 5 10 6 11 7 4 8 3 9 2 10 1 11
REMARK H PARENT
REMARK Flexibility Score: inf
ROOT
ATOM      1  C   UNL     1      -8.449  15.364 -12.113  1.00  0.00     0.004 C 
ENDROOT
BRANCH   1   2
ATOM      2  C   UNL     1      -9.557  16.222 -12.734  1.00  0.00     0.027 C 
BRANCH   2   3
ATOM      3  C   UNL     1      -9.185  17.677 -12.732  1.00  0.00    -0.025 C 
ATOM      4  C   UNL     1      -8.409  18.202 -13.688  1.00  0.00     0.020 C 
BRANCH   4   5
ATOM      5  C   UNL     1      -8.021  19.621 -13.698  1.00  0.00     0.064 C 
ATOM      6  O   UNL     1      -8.344  20.378 -14.652  1.00  0.00    -0.545 OA
ATOM      7  O   UNL     1      -7.283  20.134 -12.639  1.00  0.00    -0.545 OA
ENDBRANCH   4   5
ENDBRANCH   2   3
ENDBRANCH   1   2
BRANCH   1   8
ATOM      8  C   UNL     1      -7.862  14.392 -13.144  1.00  0.00     0.000 C 
BRANCH   8   9
ATOM      9  C   UNL     1      -8.812  14.218 -14.338  1.00  0.00    -0.000 C 
BRANCH   9  10
ATOM     10  C   UNL     1      -8.779  12.794 -14.916  1.00  0.00    -0.003 C 
ATOM     11  C   UNL     1     -10.074  12.418 -15.635  1.00  0.00     0.004 C 
ENDBRANCH   9  10
ENDBRANCH   8   9
ENDBRANCH   1   8
TORSDOF 6
ENDMDL
MODEL 2
REMARK VINA RESULT:    -3.903      0.486      1.089
REMARK INTER + INTRA:          -5.647
REMARK INTER:                  -5.391
REMARK INTRA:                  -0.256
REMARK UNBOUND:                -0.375
REMARK SMILES CCCCCCC=CC(=O)[O-]
REMARK SMILES IDX 5 1 6 2 7 3 8 4 9 5 10 6 11 7 4 8 3 9 2 10 1 11
REMARK H PARENT
REMARK Flexibility Score: inf
ROOT
ATOM      1  C   UNL     1      -8.259  15.200 -12.501  1.00  0.00     0.004 C 
ENDROOT
BRANCH   1   2
ATOM      2  C   UNL     1      -9.478  16.098 -12.742  1.00  0.00     0.027 C 
BRANCH   2   3
ATOM      3  C   UNL     1      -9.101  17.551 -12.695  1.00  0.00    -0.025 C 
ATOM      4  C   UNL     1      -8.429  18.132 -13.695  1.00  0.00     0.020 C 
BRANCH   4   5
ATOM      5  C   UNL     1      -8.038  19.549 -13.665  1.00  0.00     0.064 C 
ATOM      6  O   UNL     1      -7.392  20.026 -12.693  1.00  0.00    -0.545 OA
ATOM      7  O   UNL     1      -8.387  20.377 -14.724  1.00  0.00    -0.545 OA
ENDBRANCH   4   5
ENDBRANCH   2   3
ENDBRANCH   1   2
BRANCH   1   8
ATOM      8  C   UNL     1      -7.732  14.622 -13.820  1.00  0.00     0.000 C 
BRANCH   8   9
ATOM      9  C   UNL     1      -8.410  13.282 -14.143  1.00  0.00    -0.000 C 
BRANCH   9  10
ATOM     10  C   UNL     1      -8.950  13.224 -15.581  1.00  0.00    -0.003 C 
ATOM     11  C   UNL     1     -10.147  12.285 -15.725  1.00  0.00     0.004 C 
ENDBRANCH   9  10
ENDBRANCH   8   9
ENDBRANCH   1   8
TORSDOF 6
ENDMDL
MODEL 3
REMARK VINA RESULT:    -3.826      2.224      3.041
REMARK INTER + INTRA:          -5.543
REMARK INTER:                  -5.040
REMARK INTRA:                  -0.503
REMARK UNBOUND:                -0.375
REMARK SMILES CCCCCCC=CC(=O)[O-]
REMARK SMILES IDX 5 1 6 2 7 3 8 4 9 5 10 6 11 7 4 8 3 9 2 10 1 11
REMARK H PARENT
REMARK Flexibility Score: inf
ROOT
ATOM      1  C   UNL     1      -6.549  13.665 -14.255  1.00  0.00     0.004 C 
ENDROOT
BRANCH   1   2
ATOM      2  C   UNL     1      -6.461  15.038 -14.933  1.00  0.00     0.027 C 
BRANCH   2   3
ATOM      3  C   UNL     1      -7.469  15.993 -14.361  1.00  0.00    -0.025 C 
ATOM      4  C   UNL     1      -8.198  15.679 -13.284  1.00  0.00     0.020 C 
BRANCH   4   5
ATOM      5  C   UNL     1      -9.200  16.594 -12.716  1.00  0.00     0.064 C 
ATOM      6  O   UNL     1     -10.427  16.454 -12.968  1.00  0.00    -0.545 OA
ATOM      7  O   UNL     1      -8.787  17.630 -11.888  1.00  0.00    -0.545 OA
ENDBRANCH   4   5
ENDBRANCH   2   3
ENDBRANCH   1   2
BRANCH   1   8
ATOM      8  C   UNL     1      -6.625  12.541 -15.296  1.00  0.00     0.000 C 
BRANCH   8   9
ATOM      9  C   UNL     1      -7.913  12.646 -16.125  1.00  0.00    -0.000 C 
BRANCH   9  10
ATOM     10  C   UNL     1      -9.176  12.690 -15.250  1.00  0.00    -0.003 C 
ATOM     11  C   UNL     1     -10.385  12.044 -15.924  1.00  0.00     0.004 C 
ENDBRANCH   9  10
ENDBRANCH   8   9
ENDBRANCH   1   8
TORSDOF 6
ENDMDL
MODEL 4
REMARK VINA RESULT:    -3.619      3.474      5.871
REMARK INTER + INTRA:          -5.264
REMARK INTER:                  -4.900
REMARK INTRA:                  -0.364
REMARK UNBOUND:                -0.375
REMARK SMILES CCCCCCC=CC(=O)[O-]
REMARK SMILES IDX 5 1 6 2 7 3 8 4 9 5 10 6 11 7 4 8 3 9 2 10 1 11
REMARK H PARENT
REMARK Flexibility Score: inf
ROOT
ATOM      1  C   UNL     1      -8.942  18.151 -13.009  1.00  0.00     0.004 C 
ENDROOT
BRANCH   1   2
ATOM      2  C   UNL     1      -9.366  16.806 -12.407  1.00  0.00     0.027 C 
BRANCH   2   3
ATOM      3  C   UNL     1      -8.736  15.658 -13.142  1.00  0.00    -0.025 C 
ATOM      4  C   UNL     1      -8.125  14.662 -12.492  1.00  0.00     0.020 C 
BRANCH   4   5
ATOM      5  C   UNL     1      -7.489  13.535 -13.191  1.00  0.00     0.064 C 
ATOM      6  O   UNL     1      -6.285  13.231 -12.977  1.00  0.00    -0.545 OA
ATOM      7  O   UNL     1      -8.227  12.794 -14.105  1.00  0.00    -0.545 OA
ENDBRANCH   4   5
ENDBRANCH   2   3
ENDBRANCH   1   2
BRANCH   1   8
ATOM      8  C   UNL     1      -7.973  17.948 -14.180  1.00  0.00     0.000 C 
BRANCH   8   9
ATOM      9  C   UNL     1      -6.929  19.073 -14.231  1.00  0.00    -0.000 C 
BRANCH   9  10
ATOM     10  C   UNL     1      -7.421  20.366 -13.561  1.00  0.00    -0.003 C 
ATOM     11  C   UNL     1      -6.340  21.046 -12.721  1.00  0.00     0.004 C 
ENDBRANCH   9  10
ENDBRANCH   8   9
ENDBRANCH   1   8
TORSDOF 6
ENDMDL
MODEL 5
REMARK VINA RESULT:    -3.466      3.539      5.826
REMARK INTER + INTRA:          -5.057
REMARK INTER:                  -4.636
REMARK INTRA:                  -0.421
REMARK UNBOUND:                -0.375
REMARK SMILES CCCCCCC=CC(=O)[O-]
REMARK SMILES IDX 5 1 6 2 7 3 8 4 9 5 10 6 11 7 4 8 3 9 2 10 1 11
REMARK H PARENT
REMARK Flexibility Score: inf
ROOT
ATOM      1  C   UNL     1      -9.309  16.951 -12.716  1.00  0.00     0.004 C 
ENDROOT
BRANCH   1   2
ATOM      2  C   UNL     1      -8.134  15.970 -12.800  1.00  0.00     0.027 C 
BRANCH   2   3
ATOM      3  C   UNL     1      -8.557  14.664 -13.409  1.00  0.00    -0.025 C 
ATOM      4  C   UNL     1      -8.570  14.482 -14.735  1.00  0.00     0.020 C 
BRANCH   4   5
ATOM      5  C   UNL     1      -8.994  13.217 -15.353  1.00  0.00     0.064 C 
ATOM      6  O   UNL     1      -8.157  12.439 -15.885  1.00  0.00    -0.545 OA
ATOM      7  O   UNL     1     -10.340  12.875 -15.354  1.00  0.00    -0.545 OA
ENDBRANCH   4   5
ENDBRANCH   2   3
ENDBRANCH   1   2
BRANCH   1   8
ATOM      8  C   UNL     1      -8.867  18.372 -13.086  1.00  0.00     0.000 C 
BRANCH   8   9
ATOM      9  C   UNL     1      -7.884  18.351 -14.266  1.00  0.00    -0.000 C 
BRANCH   9  10
ATOM     10  C   UNL     1      -6.823  19.460 -14.169  1.00  0.00    -0.003 C 
ATOM     11  C   UNL     1      -7.176  20.526 -13.133  1.00  0.00     0.004 C 
ENDBRANCH   9  10
ENDBRANCH   8   9
ENDBRANCH   1   8
TORSDOF 6
ENDMDL
MODEL 6
REMARK VINA RESULT:    -3.434      3.347      5.007
REMARK INTER + INTRA:          -5.014
REMARK INTER:                  -4.325
REMARK INTRA:                  -0.689
REMARK UNBOUND:                -0.375
REMARK SMILES CCCCCCC=CC(=O)[O-]
REMARK SMILES IDX 5 1 6 2 7 3 8 4 9 5 10 6 11 7 4 8 3 9 2 10 1 11
REMARK H PARENT
REMARK Flexibility Score: inf
ROOT
ATOM      1  C   UNL     1      -8.872  18.308 -12.835  1.00  0.00     0.004 C 
ENDROOT
BRANCH   1   2
ATOM      2  C   UNL     1      -9.613  16.966 -12.824  1.00  0.00     0.027 C 
BRANCH   2   3
ATOM      3  C   UNL     1      -8.653  15.815 -12.724  1.00  0.00    -0.025 C 
ATOM      4  C   UNL     1      -8.698  14.790 -13.582  1.00  0.00     0.020 C 
BRANCH   4   5
ATOM      5  C   UNL     1      -7.777  13.647 -13.495  1.00  0.00     0.064 C 
ATOM      6  O   UNL     1      -7.686  12.811 -14.434  1.00  0.00    -0.545 OA
ATOM      7  O   UNL     1      -6.995  13.485 -12.359  1.00  0.00    -0.545 OA
ENDBRANCH   4   5
ENDBRANCH   2   3
ENDBRANCH   1   2
BRANCH   1   8
ATOM      8  C   UNL     1      -8.376  18.651 -14.245  1.00  0.00     0.000 C 
BRANCH   8   9
ATOM      9  C   UNL     1      -6.880  18.996 -14.232  1.00  0.00    -0.000 C 
BRANCH   9  10
ATOM     10  C   UNL     1      -5.988  17.758 -14.419  1.00  0.00    -0.003 C 
ATOM     11  C   UNL     1      -6.403  16.906 -15.619  1.00  0.00     0.004 C 
ENDBRANCH   9  10
ENDBRANCH   8   9
ENDBRANCH   1   8
TORSDOF 6
ENDMDL
MODEL 7
REMARK VINA RESULT:    -3.380      1.877      3.008
REMARK INTER + INTRA:          -4.941
REMARK INTER:                  -4.202
REMARK INTRA:                  -0.739
REMARK UNBOUND:                -0.375
REMARK SMILES CCCCCCC=CC(=O)[O-]
REMARK SMILES IDX 5 1 6 2 7 3 8 4 9 5 10 6 11 7 4 8 3 9 2 10 1 11
REMARK H PARENT
REMARK Flexibility Score: inf
ROOT
ATOM      1  C   UNL     1      -6.925  14.423 -15.849  1.00  0.00     0.004 C 
ENDROOT
BRANCH   1   2
ATOM      2  C   UNL     1      -7.255  15.895 -16.125  1.00  0.00     0.027 C 
BRANCH   2   3
ATOM      3  C   UNL     1      -7.329  16.685 -14.850  1.00  0.00    -0.025 C 
ATOM      4  C   UNL     1      -8.495  17.129 -14.368  1.00  0.00     0.020 C 
BRANCH   4   5
ATOM      5  C   UNL     1      -8.589  17.915 -13.129  1.00  0.00     0.064 C 
ATOM      6  O   UNL     1      -8.950  17.383 -12.045  1.00  0.00    -0.545 OA
ATOM      7  O   UNL     1      -8.278  19.268 -13.154  1.00  0.00    -0.545 OA
ENDBRANCH   4   5
ENDBRANCH   2   3
ENDBRANCH   1   2
BRANCH   1   8
ATOM      8  C   UNL     1      -8.192  13.560 -15.883  1.00  0.00     0.000 C 
BRANCH   8   9
ATOM      9  C   UNL     1      -8.460  12.923 -14.512  1.00  0.00    -0.000 C 
BRANCH   9  10
ATOM     10  C   UNL     1      -7.331  13.193 -13.505  1.00  0.00    -0.003 C 
ATOM     11  C   UNL     1      -7.794  14.020 -12.305  1.00  0.00     0.004 C 
ENDBRANCH   9  10
ENDBRANCH   8   9
ENDBRANCH   1   8
TORSDOF 6
ENDMDL
MODEL 8
REMARK VINA RESULT:    -3.202      3.379      5.892
REMARK INTER + INTRA:          -4.701
REMARK INTER:                  -4.271
REMARK INTRA:                  -0.430
REMARK UNBOUND:                -0.375
REMARK SMILES CCCCCCC=CC(=O)[O-]
REMARK SMILES IDX 5 1 6 2 7 3 8 4 9 5 10 6 11 7 4 8 3 9 2 10 1 11
REMARK H PARENT
REMARK Flexibility Score: inf
ROOT
ATOM      1  C   UNL     1      -6.812  17.594 -15.739  1.00  0.00     0.004 C 
ENDROOT
BRANCH   1   2
ATOM      2  C   UNL     1      -8.165  16.952 -15.409  1.00  0.00     0.027 C 
BRANCH   2   3
ATOM      3  C   UNL     1      -7.986  15.634 -14.711  1.00  0.00    -0.025 C 
ATOM      4  C   UNL     1      -7.991  15.543 -13.377  1.00  0.00     0.020 C 
BRANCH   4   5
ATOM      5  C   UNL     1      -7.804  14.265 -12.673  1.00  0.00     0.064 C 
ATOM      6  O   UNL     1      -7.667  14.225 -11.420  1.00  0.00    -0.545 OA
ATOM      7  O   UNL     1      -7.775  13.082 -13.400  1.00  0.00    -0.545 OA
ENDBRANCH   4   5
ENDBRANCH   2   3
ENDBRANCH   1   2
BRANCH   1   8
ATOM      8  C   UNL     1      -6.564  18.833 -14.869  1.00  0.00     0.000 C 
BRANCH   8   9
ATOM      9  C   UNL     1      -7.853  19.270 -14.156  1.00  0.00    -0.000 C 
BRANCH   9  10
ATOM     10  C   UNL     1      -7.608  20.386 -13.127  1.00  0.00    -0.003 C 
ATOM     11  C   UNL     1      -6.139  20.800 -13.043  1.00  0.00     0.004 C 
ENDBRANCH   9  10
ENDBRANCH   8   9
ENDBRANCH   1   8
TORSDOF 6
ENDMDL
MODEL 9
REMARK VINA RESULT:    -3.185      1.597      2.885
REMARK INTER + INTRA:          -4.677
REMARK INTER:                  -3.960
REMARK INTRA:                  -0.718
REMARK UNBOUND:                -0.375
REMARK SMILES CCCCCCC=CC(=O)[O-]
REMARK SMILES IDX 5 1 6 2 7 3 8 4 9 5 10 6 11 7 4 8 3 9 2 10 1 11
REMARK H PARENT
REMARK Flexibility Score: inf
ROOT
ATOM      1  C   UNL     1      -6.589  15.364 -14.941  1.00  0.00     0.004 C 
ENDROOT
BRANCH   1   2
ATOM      2  C   UNL     1      -6.253  16.680 -15.652  1.00  0.00     0.027 C 
BRANCH   2   3
ATOM      3  C   UNL     1      -6.540  17.863 -14.773  1.00  0.00    -0.025 C 
ATOM      4  C   UNL     1      -7.548  18.703 -15.037  1.00  0.00     0.020 C 
BRANCH   4   5
ATOM      5  C   UNL     1      -7.839  19.875 -14.197  1.00  0.00     0.064 C 
ATOM      6  O   UNL     1      -8.193  20.971 -14.708  1.00  0.00    -0.545 OA
ATOM      7  O   UNL     1      -7.719  19.773 -12.817  1.00  0.00    -0.545 OA
ENDBRANCH   4   5
ENDBRANCH   2   3
ENDBRANCH   1   2
BRANCH   1   8
ATOM      8  C   UNL     1      -8.083  15.038 -15.064  1.00  0.00     0.000 C 
BRANCH   8   9
ATOM      9  C   UNL     1      -8.652  14.556 -13.721  1.00  0.00    -0.000 C 
BRANCH   9  10
ATOM     10  C   UNL     1      -8.486  15.596 -12.602  1.00  0.00    -0.003 C 
ATOM     11  C   UNL     1      -9.559  16.684 -12.643  1.00  0.00     0.004 C 
ENDBRANCH   9  10
ENDBRANCH   8   9
ENDBRANCH   1   8
TORSDOF 6
ENDMDL
