MODEL 1
REMARK VINA RESULT:    -3.879      0.000      0.000
REMARK INTER + INTRA:          -5.994
REMARK INTER:                  -5.466
REMARK INTRA:                  -0.528
REMARK UNBOUND:                -0.528
REMARK SMILES C=CCCCCCCC(=O)[O-]
REMARK SMILES IDX 6 1 7 2 8 3 9 4 10 5 11 6 5 7 4 8 3 9 2 10 1 11
REMARK H PARENT
REMARK Flexibility Score: inf
ROOT
ATOM      1  C   UNL     1       3.227  -7.558   6.763  1.00  0.00     0.000 C 
ENDROOT
BRANCH   1   2
ATOM      2  C   UNL     1       3.459  -8.929   6.107  1.00  0.00     0.006 C 
BRANCH   2   3
ATOM      3  C   UNL     1       2.306  -9.347   5.187  1.00  0.00     0.053 C 
BRANCH   3   4
ATOM      4  C   UNL     1       2.681  -9.141   3.753  1.00  0.00     0.041 C 
ATOM      5  O   UNL     1       1.841  -9.361   2.841  1.00  0.00    -0.550 OA
ATOM      6  O   UNL     1       3.943  -8.662   3.427  1.00  0.00    -0.550 OA
ENDBRANCH   3   4
ENDBRANCH   2   3
ENDBRANCH   1   2
BRANCH   1   7
ATOM      7  C   UNL     1       4.527  -6.765   6.952  1.00  0.00     0.000 C 
BRANCH   7   8
ATOM      8  C   UNL     1       5.671  -7.382   6.136  1.00  0.00     0.004 C 
BRANCH   8   9
ATOM      9  C   UNL     1       6.947  -7.499   6.978  1.00  0.00     0.027 C 
BRANCH   9  10
ATOM     10  C   UNL     1       6.940  -8.754   7.806  1.00  0.00    -0.035 C 
ATOM     11  C   UNL     1       7.545  -9.873   7.394  1.00  0.00     0.004 C 
ENDBRANCH   9  10
ENDBRANCH   8   9
ENDBRANCH   7   8
ENDBRANCH   1   7
TORSDOF 7
ENDMDL
MODEL 2
REMARK VINA RESULT:    -3.866      1.002      1.807
REMARK INTER + INTRA:          -5.976
REMARK INTER:                  -5.563
REMARK INTRA:                  -0.413
REMARK UNBOUND:                -0.528
REMARK SMILES C=CCCCCCCC(=O)[O-]
REMARK SMILES IDX 6 1 7 2 8 3 9 4 10 5 11 6 5 7 4 8 3 9 2 10 1 11
REMARK H PARENT
REMARK Flexibility Score: inf
ROOT
ATOM      1  C   UNL     1       3.135  -7.526   6.678  1.00  0.00     0.000 C 
ENDROOT
BRANCH   1   2
ATOM      2  C   UNL     1       3.368  -8.946   6.137  1.00  0.00     0.006 C 
BRANCH   2   3
ATOM      3  C   UNL     1       2.261  -9.402   5.178  1.00  0.00     0.053 C 
BRANCH   3   4
ATOM      4  C   UNL     1       2.650  -9.121   3.761  1.00  0.00     0.041 C 
ATOM      5  O   UNL     1       1.774  -9.101   2.856  1.00  0.00    -0.550 OA
ATOM      6  O   UNL     1       3.972  -8.836   3.447  1.00  0.00    -0.550 OA
ENDBRANCH   3   4
ENDBRANCH   2   3
ENDBRANCH   1   2
BRANCH   1   7
ATOM      7  C   UNL     1       4.440  -6.731   6.833  1.00  0.00     0.000 C 
BRANCH   7   8
ATOM      8  C   UNL     1       5.631  -7.516   6.269  1.00  0.00     0.004 C 
BRANCH   8   9
ATOM      9  C   UNL     1       6.917  -7.191   7.036  1.00  0.00     0.027 C 
BRANCH   9  10
ATOM     10  C   UNL     1       7.583  -5.959   6.488  1.00  0.00    -0.035 C 
ATOM     11  C   UNL     1       7.616  -4.812   7.174  1.00  0.00     0.004 C 
ENDBRANCH   9  10
ENDBRANCH   8   9
ENDBRANCH   7   8
ENDBRANCH   1   7
TORSDOF 7
ENDMDL
MODEL 3
REMARK VINA RESULT:    -3.465     18.539     19.591
REMARK INTER + INTRA:          -5.411
REMARK INTER:                  -5.077
REMARK INTRA:                  -0.333
REMARK UNBOUND:                -0.528
REMARK SMILES C=CCCCCCCC(=O)[O-]
REMARK SMILES IDX 6 1 7 2 8 3 9 4 10 5 11 6 5 7 4 8 3 9 2 10 1 11
REMARK H PARENT
REMARK Flexibility Score: inf
ROOT
ATOM      1  C   UNL     1      13.491   1.395  -8.396  1.00  0.00     0.000 C 
ENDROOT
BRANCH   1   2
ATOM      2  C   UNL     1      14.340   0.520  -9.333  1.00  0.00     0.006 C 
BRANCH   2   3
ATOM      3  C   UNL     1      14.562  -0.894  -8.782  1.00  0.00     0.053 C 
BRANCH   3   4
ATOM      4  C   UNL     1      13.602  -1.856  -9.409  1.00  0.00     0.041 C 
ATOM      5  O   UNL     1      13.949  -2.530 -10.415  1.00  0.00    -0.550 OA
ATOM      6  O   UNL     1      12.342  -2.042  -8.856  1.00  0.00    -0.550 OA
ENDBRANCH   3   4
ENDBRANCH   2   3
ENDBRANCH   1   2
BRANCH   1   7
ATOM      7  C   UNL     1      13.516   2.879  -8.790  1.00  0.00     0.000 C 
BRANCH   7   8
ATOM      8  C   UNL     1      12.209   3.575  -8.389  1.00  0.00     0.004 C 
BRANCH   8   9
ATOM      9  C   UNL     1      11.302   2.627  -7.595  1.00  0.00     0.027 C 
BRANCH   9  10
ATOM     10  C   UNL     1       9.849   2.942  -7.828  1.00  0.00    -0.035 C 
ATOM     11  C   UNL     1       9.450   4.143  -8.260  1.00  0.00     0.004 C 
ENDBRANCH   9  10
ENDBRANCH   8   9
ENDBRANCH   7   8
ENDBRANCH   1   7
TORSDOF 7
ENDMDL
MODEL 4
REMARK VINA RESULT:    -3.461     12.751     14.026
REMARK INTER + INTRA:          -5.406
REMARK INTER:                  -5.179
REMARK INTRA:                  -0.227
REMARK UNBOUND:                -0.528
REMARK SMILES C=CCCCCCCC(=O)[O-]
REMARK SMILES IDX 6 1 7 2 8 3 9 4 10 5 11 6 5 7 4 8 3 9 2 10 1 11
REMARK H PARENT
REMARK Flexibility Score: inf
ROOT
ATOM      1  C   UNL     1      14.148  -9.608  -2.961  1.00  0.00     0.000 C 
ENDROOT
BRANCH   1   2
ATOM      2  C   UNL     1      14.771  -8.997  -1.695  1.00  0.00     0.006 C 
BRANCH   2   3
ATOM      3  C   UNL     1      14.226  -9.625  -0.406  1.00  0.00     0.053 C 
BRANCH   3   4
ATOM      4  C   UNL     1      12.761  -9.348  -0.270  1.00  0.00     0.041 C 
ATOM      5  O   UNL     1      12.357  -8.177  -0.048  1.00  0.00    -0.550 OA
ATOM      6  O   UNL     1      11.842 -10.375  -0.436  1.00  0.00    -0.550 OA
ENDBRANCH   3   4
ENDBRANCH   2   3
ENDBRANCH   1   2
BRANCH   1   7
ATOM      7  C   UNL     1      14.896 -10.859  -3.443  1.00  0.00     0.000 C 
BRANCH   7   8
ATOM      8  C   UNL     1      15.124 -10.811  -4.960  1.00  0.00     0.004 C 
BRANCH   8   9
ATOM      9  C   UNL     1      15.018 -12.211  -5.576  1.00  0.00     0.027 C 
BRANCH   9  10
ATOM     10  C   UNL     1      14.291 -12.173  -6.893  1.00  0.00    -0.035 C 
ATOM     11  C   UNL     1      14.166 -13.261  -7.660  1.00  0.00     0.004 C 
ENDBRANCH   9  10
ENDBRANCH   8   9
ENDBRANCH   7   8
ENDBRANCH   1   7
TORSDOF 7
ENDMDL
MODEL 5
REMARK VINA RESULT:    -3.442      9.761     11.438
REMARK INTER + INTRA:          -5.379
REMARK INTER:                  -4.697
REMARK INTRA:                  -0.681
REMARK UNBOUND:                -0.528
REMARK SMILES C=CCCCCCCC(=O)[O-]
REMARK SMILES IDX 6 1 7 2 8 3 9 4 10 5 11 6 5 7 4 8 3 9 2 10 1 11
REMARK H PARENT
REMARK Flexibility Score: inf
ROOT
ATOM      1  C   UNL     1      14.252 -11.013  -1.996  1.00  0.00     0.000 C 
ENDROOT
BRANCH   1   2
ATOM      2  C   UNL     1      13.714  -9.593  -1.756  1.00  0.00     0.006 C 
BRANCH   2   3
ATOM      3  C   UNL     1      14.244  -8.972  -0.457  1.00  0.00     0.053 C 
BRANCH   3   4
ATOM      4  C   UNL     1      13.109  -8.607   0.448  1.00  0.00     0.041 C 
ATOM      5  O   UNL     1      12.029  -8.174  -0.035  1.00  0.00    -0.550 OA
ATOM      6  O   UNL     1      13.227  -8.790   1.819  1.00  0.00    -0.550 OA
ENDBRANCH   3   4
ENDBRANCH   2   3
ENDBRANCH   1   2
BRANCH   1   7
ATOM      7  C   UNL     1      14.522 -11.772  -0.689  1.00  0.00     0.000 C 
BRANCH   7   8
ATOM      8  C   UNL     1      13.394 -12.768  -0.390  1.00  0.00     0.004 C 
BRANCH   8   9
ATOM      9  C   UNL     1      12.392 -12.180   0.611  1.00  0.00     0.027 C 
BRANCH   9  10
ATOM     10  C   UNL     1      11.093 -11.829  -0.061  1.00  0.00    -0.035 C 
ATOM     11  C   UNL     1      10.048 -12.663  -0.054  1.00  0.00     0.004 C 
ENDBRANCH   9  10
ENDBRANCH   8   9
ENDBRANCH   7   8
ENDBRANCH   1   7
TORSDOF 7
ENDMDL
MODEL 6
REMARK VINA RESULT:    -3.397      9.499     11.098
REMARK INTER + INTRA:          -5.315
REMARK INTER:                  -4.734
REMARK INTRA:                  -0.581
REMARK UNBOUND:                -0.528
REMARK SMILES C=CCCCCCCC(=O)[O-]
REMARK SMILES IDX 6 1 7 2 8 3 9 4 10 5 11 6 5 7 4 8 3 9 2 10 1 11
REMARK H PARENT
REMARK Flexibility Score: inf
ROOT
ATOM      1  C   UNL     1      14.516 -11.011   1.012  1.00  0.00     0.000 C 
ENDROOT
BRANCH   1   2
ATOM      2  C   UNL     1      14.760  -9.521   1.303  1.00  0.00     0.006 C 
BRANCH   2   3
ATOM      3  C   UNL     1      13.520  -8.819   1.869  1.00  0.00     0.053 C 
BRANCH   3   4
ATOM      4  C   UNL     1      12.908  -7.926   0.836  1.00  0.00     0.041 C 
ATOM      5  O   UNL     1      12.166  -8.409  -0.059  1.00  0.00    -0.550 OA
ATOM      6  O   UNL     1      13.118  -6.554   0.890  1.00  0.00    -0.550 OA
ENDBRANCH   3   4
ENDBRANCH   2   3
ENDBRANCH   1   2
BRANCH   1   7
ATOM      7  C   UNL     1      14.653 -11.353  -0.478  1.00  0.00     0.000 C 
BRANCH   7   8
ATOM      8  C   UNL     1      13.321 -11.858  -1.050  1.00  0.00     0.004 C 
BRANCH   8   9
ATOM      9  C   UNL     1      12.428 -12.427   0.058  1.00  0.00     0.027 C 
BRANCH   9  10
ATOM     10  C   UNL     1      11.022 -11.903  -0.053  1.00  0.00    -0.035 C 
ATOM     11  C   UNL     1       9.963 -12.720  -0.036  1.00  0.00     0.004 C 
ENDBRANCH   9  10
ENDBRANCH   8   9
ENDBRANCH   7   8
ENDBRANCH   1   7
TORSDOF 7
ENDMDL
MODEL 7
REMARK VINA RESULT:    -3.385      1.491      2.958
REMARK INTER + INTRA:          -5.298
REMARK INTER:                  -4.766
REMARK INTRA:                  -0.532
REMARK UNBOUND:                -0.528
REMARK SMILES C=CCCCCCCC(=O)[O-]
REMARK SMILES IDX 6 1 7 2 8 3 9 4 10 5 11 6 5 7 4 8 3 9 2 10 1 11
REMARK H PARENT
REMARK Flexibility Score: inf
ROOT
ATOM      1  C   UNL     1       6.090  -8.042   5.564  1.00  0.00     0.000 C 
ENDROOT
BRANCH   1   2
ATOM      2  C   UNL     1       4.608  -8.436   5.459  1.00  0.00     0.006 C 
BRANCH   2   3
ATOM      3  C   UNL     1       4.105  -8.461   4.010  1.00  0.00     0.053 C 
BRANCH   3   4
ATOM      4  C   UNL     1       2.857  -9.280   3.905  1.00  0.00     0.041 C 
ATOM      5  O   UNL     1       2.548  -9.826   2.813  1.00  0.00    -0.550 OA
ATOM      6  O   UNL     1       2.061  -9.480   5.025  1.00  0.00    -0.550 OA
ENDBRANCH   3   4
ENDBRANCH   2   3
ENDBRANCH   1   2
BRANCH   1   7
ATOM      7  C   UNL     1       6.591  -8.006   7.015  1.00  0.00     0.000 C 
BRANCH   7   8
ATOM      8  C   UNL     1       5.734  -7.062   7.868  1.00  0.00     0.004 C 
BRANCH   8   9
ATOM      9  C   UNL     1       5.891  -5.608   7.407  1.00  0.00     0.027 C 
BRANCH   9  10
ATOM     10  C   UNL     1       4.600  -4.849   7.547  1.00  0.00    -0.035 C 
ATOM     11  C   UNL     1       3.418  -5.419   7.292  1.00  0.00     0.004 C 
ENDBRANCH   9  10
ENDBRANCH   8   9
ENDBRANCH   7   8
ENDBRANCH   1   7
TORSDOF 7
ENDMDL
MODEL 8
REMARK VINA RESULT:    -3.338      1.904      3.556
REMARK INTER + INTRA:          -5.233
REMARK INTER:                  -4.929
REMARK INTRA:                  -0.303
REMARK UNBOUND:                -0.528
REMARK SMILES C=CCCCCCCC(=O)[O-]
REMARK SMILES IDX 6 1 7 2 8 3 9 4 10 5 11 6 5 7 4 8 3 9 2 10 1 11
REMARK H PARENT
REMARK Flexibility Score: inf
ROOT
ATOM      1  C   UNL     1       4.174  -8.306   6.900  1.00  0.00     0.000 C 
ENDROOT
BRANCH   1   2
ATOM      2  C   UNL     1       2.932  -8.206   5.999  1.00  0.00     0.006 C 
BRANCH   2   3
ATOM      3  C   UNL     1       2.677  -9.490   5.200  1.00  0.00     0.053 C 
BRANCH   3   4
ATOM      4  C   UNL     1       2.912  -9.252   3.741  1.00  0.00     0.041 C 
ATOM      5  O   UNL     1       1.952  -9.310   2.928  1.00  0.00    -0.550 OA
ATOM      6  O   UNL     1       4.181  -8.919   3.287  1.00  0.00    -0.550 OA
ENDBRANCH   3   4
ENDBRANCH   2   3
ENDBRANCH   1   2
BRANCH   1   7
ATOM      7  C   UNL     1       4.293  -7.126   7.875  1.00  0.00     0.000 C 
BRANCH   7   8
ATOM      8  C   UNL     1       3.510  -5.909   7.364  1.00  0.00     0.004 C 
BRANCH   8   9
ATOM      9  C   UNL     1       4.194  -4.601   7.777  1.00  0.00     0.027 C 
BRANCH   9  10
ATOM     10  C   UNL     1       3.706  -3.445   6.947  1.00  0.00    -0.035 C 
ATOM     11  C   UNL     1       2.403  -3.228   6.741  1.00  0.00     0.004 C 
ENDBRANCH   9  10
ENDBRANCH   8   9
ENDBRANCH   7   8
ENDBRANCH   1   7
TORSDOF 7
ENDMDL
MODEL 9
REMARK VINA RESULT:    -3.278      9.531     11.623
REMARK INTER + INTRA:          -5.148
REMARK INTER:                  -4.607
REMARK INTRA:                  -0.541
REMARK UNBOUND:                -0.528
REMARK SMILES C=CCCCCCCC(=O)[O-]
REMARK SMILES IDX 6 1 7 2 8 3 9 4 10 5 11 6 5 7 4 8 3 9 2 10 1 11
REMARK H PARENT
REMARK Flexibility Score: inf
ROOT
ATOM      1  C   UNL     1      -2.971 -11.007  -3.698  1.00  0.00     0.000 C 
ENDROOT
BRANCH   1   2
ATOM      2  C   UNL     1      -3.086 -11.817  -2.397  1.00  0.00     0.006 C 
BRANCH   2   3
ATOM      3  C   UNL     1      -1.766 -11.875  -1.618  1.00  0.00     0.053 C 
BRANCH   3   4
ATOM      4  C   UNL     1      -1.998 -11.559  -0.174  1.00  0.00     0.041 C 
ATOM      5  O   UNL     1      -3.045 -11.959   0.401  1.00  0.00    -0.550 OA
ATOM      6  O   UNL     1      -1.037 -10.866   0.549  1.00  0.00    -0.550 OA
ENDBRANCH   3   4
ENDBRANCH   2   3
ENDBRANCH   1   2
BRANCH   1   7
ATOM      7  C   UNL     1      -1.516 -10.682  -4.066  1.00  0.00     0.000 C 
BRANCH   7   8
ATOM      8  C   UNL     1      -1.284 -10.835  -5.575  1.00  0.00     0.004 C 
BRANCH   8   9
ATOM      9  C   UNL     1      -0.421 -12.065  -5.877  1.00  0.00     0.027 C 
BRANCH   9  10
ATOM     10  C   UNL     1       0.334 -12.514  -4.656  1.00  0.00    -0.035 C 
ATOM     11  C   UNL     1       1.602 -12.933  -4.727  1.00  0.00     0.004 C 
ENDBRANCH   9  10
ENDBRANCH   8   9
ENDBRANCH   7   8
ENDBRANCH   1   7
TORSDOF 7
ENDMDL
