MODEL 1
REMARK VINA RESULT:    -5.581      0.000      0.000
REMARK INTER + INTRA:          -7.222
REMARK INTER:                  -6.886
REMARK INTRA:                  -0.336
REMARK UNBOUND:                -0.336
REMARK SMILES C=CC[C@@H](C)C(=O)CC
REMARK SMILES IDX 4 1 5 2 6 3 7 4 8 5 9 6 3 7 2 8 1 9
REMARK H PARENT
REMARK Flexibility Score: inf
ROOT
ATOM      1  C   UNL     1     108.241  47.423  64.623  1.00  0.00     0.057 C 
ATOM      2  C   UNL     1     108.389  46.043  65.271  1.00  0.00     0.016 C 
ENDROOT
BRANCH   1   3
ATOM      3  C   UNL     1     108.399  47.309  63.120  1.00  0.00     0.135 C 
ATOM      4  O   UNL     1     108.907  46.307  62.637  1.00  0.00    -0.299 OA
BRANCH   3   5
ATOM      5  C   UNL     1     107.924  48.406  62.203  1.00  0.00     0.072 C 
ATOM      6  C   UNL     1     109.081  49.316  61.806  1.00  0.00     0.012 C 
ENDBRANCH   3   5
ENDBRANCH   1   3
BRANCH   1   7
ATOM      7  C   UNL     1     106.882  48.053  64.993  1.00  0.00     0.038 C 
BRANCH   7   8
ATOM      8  C   UNL     1     107.035  49.444  65.553  1.00  0.00    -0.034 C 
ATOM      9  C   UNL     1     106.462  50.503  64.973  1.00  0.00     0.004 C 
ENDBRANCH   7   8
ENDBRANCH   1   7
TORSDOF 4
ENDMDL
MODEL 2
REMARK VINA RESULT:    -5.349      8.797     10.542
REMARK INTER + INTRA:          -6.937
REMARK INTER:                  -6.491
REMARK INTRA:                  -0.446
REMARK UNBOUND:                -0.336
REMARK SMILES C=CC[C@@H](C)C(=O)CC
REMARK SMILES IDX 4 1 5 2 6 3 7 4 8 5 9 6 3 7 2 8 1 9
REMARK H PARENT
REMARK Flexibility Score: inf
ROOT
ATOM      1  C   UNL     1     103.932  48.798  54.901  1.00  0.00     0.057 C 
ATOM      2  C   UNL     1     105.112  49.612  54.360  1.00  0.00     0.016 C 
ENDROOT
BRANCH   1   3
ATOM      3  C   UNL     1     103.136  49.631  55.886  1.00  0.00     0.135 C 
ATOM      4  O   UNL     1     102.474  50.578  55.485  1.00  0.00    -0.299 OA
BRANCH   3   5
ATOM      5  C   UNL     1     103.134  49.304  57.357  1.00  0.00     0.072 C 
ATOM      6  C   UNL     1     103.527  47.849  57.586  1.00  0.00     0.012 C 
ENDBRANCH   3   5
ENDBRANCH   1   3
BRANCH   1   7
ATOM      7  C   UNL     1     103.039  48.303  53.744  1.00  0.00     0.038 C 
BRANCH   7   8
ATOM      8  C   UNL     1     102.729  46.832  53.856  1.00  0.00    -0.034 C 
ATOM      9  C   UNL     1     101.786  46.372  54.683  1.00  0.00     0.004 C 
ENDBRANCH   7   8
ENDBRANCH   1   7
TORSDOF 4
ENDMDL
MODEL 3
REMARK VINA RESULT:    -5.348      1.887      3.233
REMARK INTER + INTRA:          -6.935
REMARK INTER:                  -6.478
REMARK INTRA:                  -0.457
REMARK UNBOUND:                -0.336
REMARK SMILES C=CC[C@@H](C)C(=O)CC
REMARK SMILES IDX 4 1 5 2 6 3 7 4 8 5 9 6 3 7 2 8 1 9
REMARK H PARENT
REMARK Flexibility Score: inf
ROOT
ATOM      1  C   UNL     1     107.278  49.346  64.496  1.00  0.00     0.057 C 
ATOM      2  C   UNL     1     106.445  50.529  65.002  1.00  0.00     0.016 C 
ENDROOT
BRANCH   1   3
ATOM      3  C   UNL     1     108.534  49.852  63.814  1.00  0.00     0.135 C 
ATOM      4  O   UNL     1     109.109  50.837  64.254  1.00  0.00    -0.299 OA
BRANCH   3   5
ATOM      5  C   UNL     1     109.099  49.150  62.607  1.00  0.00     0.072 C 
ATOM      6  C   UNL     1     107.989  48.489  61.798  1.00  0.00     0.012 C 
ENDBRANCH   3   5
ENDBRANCH   1   3
BRANCH   1   7
ATOM      7  C   UNL     1     107.621  48.389  65.656  1.00  0.00     0.038 C 
BRANCH   7   8
ATOM      8  C   UNL     1     107.608  46.946  65.223  1.00  0.00    -0.034 C 
ATOM      9  C   UNL     1     108.725  46.213  65.179  1.00  0.00     0.004 C 
ENDBRANCH   7   8
ENDBRANCH   1   7
TORSDOF 4
ENDMDL
MODEL 4
REMARK VINA RESULT:    -5.327      8.743     10.427
REMARK INTER + INTRA:          -6.909
REMARK INTER:                  -6.545
REMARK INTRA:                  -0.364
REMARK UNBOUND:                -0.336
REMARK SMILES C=CC[C@@H](C)C(=O)CC
REMARK SMILES IDX 4 1 5 2 6 3 7 4 8 5 9 6 3 7 2 8 1 9
REMARK H PARENT
REMARK Flexibility Score: inf
ROOT
ATOM      1  C   UNL     1     102.757  47.841  54.518  1.00  0.00     0.057 C 
ATOM      2  C   UNL     1     102.180  46.644  53.754  1.00  0.00     0.016 C 
ENDROOT
BRANCH   1   3
ATOM      3  C   UNL     1     102.579  47.637  56.010  1.00  0.00     0.135 C 
ATOM      4  O   UNL     1     101.747  46.839  56.418  1.00  0.00    -0.299 OA
BRANCH   3   5
ATOM      5  C   UNL     1     103.422  48.392  57.004  1.00  0.00     0.072 C 
ATOM      6  C   UNL     1     102.866  49.793  57.230  1.00  0.00     0.012 C 
ENDBRANCH   3   5
ENDBRANCH   1   3
BRANCH   1   7
ATOM      7  C   UNL     1     104.242  48.050  54.159  1.00  0.00     0.038 C 
BRANCH   7   8
ATOM      8  C   UNL     1     104.516  49.446  53.664  1.00  0.00    -0.034 C 
ATOM      9  C   UNL     1     105.610  50.122  54.029  1.00  0.00     0.004 C 
ENDBRANCH   7   8
ENDBRANCH   1   7
TORSDOF 4
ENDMDL
MODEL 5
REMARK VINA RESULT:    -5.230      1.695      3.777
REMARK INTER + INTRA:          -6.790
REMARK INTER:                  -6.476
REMARK INTRA:                  -0.313
REMARK UNBOUND:                -0.336
REMARK SMILES C=CC[C@@H](C)C(=O)CC
REMARK SMILES IDX 4 1 5 2 6 3 7 4 8 5 9 6 3 7 2 8 1 9
REMARK H PARENT
REMARK Flexibility Score: inf
ROOT
ATOM      1  C   UNL     1     107.805  49.719  65.175  1.00  0.00     0.057 C 
ATOM      2  C   UNL     1     106.539  50.539  64.902  1.00  0.00     0.016 C 
ENDROOT
BRANCH   1   3
ATOM      3  C   UNL     1     107.434  48.280  65.475  1.00  0.00     0.135 C 
ATOM      4  O   UNL     1     106.288  47.897  65.292  1.00  0.00    -0.299 OA
BRANCH   3   5
ATOM      5  C   UNL     1     108.462  47.303  65.982  1.00  0.00     0.072 C 
ATOM      6  C   UNL     1     108.455  46.028  65.146  1.00  0.00     0.012 C 
ENDBRANCH   3   5
ENDBRANCH   1   3
BRANCH   1   7
ATOM      7  C   UNL     1     108.775  49.806  63.979  1.00  0.00     0.038 C 
BRANCH   7   8
ATOM      8  C   UNL     1     108.282  49.022  62.790  1.00  0.00    -0.034 C 
ATOM      9  C   UNL     1     108.982  48.952  61.654  1.00  0.00     0.004 C 
ENDBRANCH   7   8
ENDBRANCH   1   7
TORSDOF 4
ENDMDL
MODEL 6
REMARK VINA RESULT:    -5.228      0.992      2.835
REMARK INTER + INTRA:          -6.787
REMARK INTER:                  -6.504
REMARK INTRA:                  -0.283
REMARK UNBOUND:                -0.336
REMARK SMILES C=CC[C@@H](C)C(=O)CC
REMARK SMILES IDX 4 1 5 2 6 3 7 4 8 5 9 6 3 7 2 8 1 9
REMARK H PARENT
REMARK Flexibility Score: inf
ROOT
ATOM      1  C   UNL     1     108.289  49.017  63.078  1.00  0.00     0.057 C 
ATOM      2  C   UNL     1     109.087  49.279  61.796  1.00  0.00     0.016 C 
ENDROOT
BRANCH   1   3
ATOM      3  C   UNL     1     108.388  47.553  63.458  1.00  0.00     0.135 C 
ATOM      4  O   UNL     1     108.740  46.731  62.624  1.00  0.00    -0.299 OA
BRANCH   3   5
ATOM      5  C   UNL     1     108.074  47.091  64.857  1.00  0.00     0.072 C 
ATOM      6  C   UNL     1     108.445  45.623  65.037  1.00  0.00     0.012 C 
ENDBRANCH   3   5
ENDBRANCH   1   3
BRANCH   1   7
ATOM      7  C   UNL     1     108.788  49.924  64.222  1.00  0.00     0.038 C 
BRANCH   7   8
ATOM      8  C   UNL     1     107.697  50.817  64.754  1.00  0.00    -0.034 C 
ATOM      9  C   UNL     1     106.440  50.385  64.896  1.00  0.00     0.004 C 
ENDBRANCH   7   8
ENDBRANCH   1   7
TORSDOF 4
ENDMDL
MODEL 7
REMARK VINA RESULT:    -5.224      9.071     10.431
REMARK INTER + INTRA:          -6.782
REMARK INTER:                  -6.478
REMARK INTRA:                  -0.305
REMARK UNBOUND:                -0.336
REMARK SMILES C=CC[C@@H](C)C(=O)CC
REMARK SMILES IDX 4 1 5 2 6 3 7 4 8 5 9 6 3 7 2 8 1 9
REMARK H PARENT
REMARK Flexibility Score: inf
ROOT
ATOM      1  C   UNL     1     102.598  49.131  55.921  1.00  0.00     0.057 C 
ATOM      2  C   UNL     1     102.772  49.782  57.297  1.00  0.00     0.016 C 
ENDROOT
BRANCH   1   3
ATOM      3  C   UNL     1     103.394  49.895  54.882  1.00  0.00     0.135 C 
ATOM      4  O   UNL     1     103.151  51.075  54.678  1.00  0.00    -0.299 OA
BRANCH   3   5
ATOM      5  C   UNL     1     104.498  49.228  54.103  1.00  0.00     0.072 C 
ATOM      6  C   UNL     1     105.685  50.169  53.934  1.00  0.00     0.012 C 
ENDBRANCH   3   5
ENDBRANCH   1   3
BRANCH   1   7
ATOM      7  C   UNL     1     103.020  47.647  55.965  1.00  0.00     0.038 C 
BRANCH   7   8
ATOM      8  C   UNL     1     101.968  46.741  55.380  1.00  0.00    -0.034 C 
ATOM      9  C   UNL     1     101.967  46.408  54.085  1.00  0.00     0.004 C 
ENDBRANCH   7   8
ENDBRANCH   1   7
TORSDOF 4
ENDMDL
MODEL 8
REMARK VINA RESULT:    -5.183      1.888      3.814
REMARK INTER + INTRA:          -6.731
REMARK INTER:                  -6.404
REMARK INTRA:                  -0.327
REMARK UNBOUND:                -0.336
REMARK SMILES C=CC[C@@H](C)C(=O)CC
REMARK SMILES IDX 4 1 5 2 6 3 7 4 8 5 9 6 3 7 2 8 1 9
REMARK H PARENT
REMARK Flexibility Score: inf
ROOT
ATOM      1  C   UNL     1     108.945  48.710  63.257  1.00  0.00     0.057 C 
ATOM      2  C   UNL     1     109.091  49.271  61.838  1.00  0.00     0.016 C 
ENDROOT
BRANCH   1   3
ATOM      3  C   UNL     1     108.505  49.808  64.205  1.00  0.00     0.135 C 
ATOM      4  O   UNL     1     109.061  50.896  64.174  1.00  0.00    -0.299 OA
BRANCH   3   5
ATOM      5  C   UNL     1     107.378  49.587  65.180  1.00  0.00     0.072 C 
ATOM      6  C   UNL     1     106.260  50.598  64.950  1.00  0.00     0.012 C 
ENDBRANCH   3   5
ENDBRANCH   1   3
BRANCH   1   7
ATOM      7  C   UNL     1     107.953  47.529  63.274  1.00  0.00     0.038 C 
BRANCH   7   8
ATOM      8  C   UNL     1     108.553  46.293  63.893  1.00  0.00    -0.034 C 
ATOM      9  C   UNL     1     108.475  46.054  65.205  1.00  0.00     0.004 C 
ENDBRANCH   7   8
ENDBRANCH   1   7
TORSDOF 4
ENDMDL
MODEL 9
REMARK VINA RESULT:    -5.058      1.572      3.231
REMARK INTER + INTRA:          -6.577
REMARK INTER:                  -6.191
REMARK INTRA:                  -0.386
REMARK UNBOUND:                -0.336
REMARK SMILES C=CC[C@@H](C)C(=O)CC
REMARK SMILES IDX 4 1 5 2 6 3 7 4 8 5 9 6 3 7 2 8 1 9
REMARK H PARENT
REMARK Flexibility Score: inf
ROOT
ATOM      1  C   UNL     1     108.037  47.202  64.118  1.00  0.00     0.057 C 
ATOM      2  C   UNL     1     108.463  45.817  64.617  1.00  0.00     0.016 C 
ENDROOT
BRANCH   1   3
ATOM      3  C   UNL     1     107.766  48.116  65.297  1.00  0.00     0.135 C 
ATOM      4  O   UNL     1     108.357  47.937  66.352  1.00  0.00    -0.299 OA
BRANCH   3   5
ATOM      5  C   UNL     1     106.788  49.257  65.187  1.00  0.00     0.072 C 
ATOM      6  C   UNL     1     107.518  50.571  64.934  1.00  0.00     0.012 C 
ENDBRANCH   3   5
ENDBRANCH   1   3
BRANCH   1   7
ATOM      7  C   UNL     1     109.114  47.799  63.188  1.00  0.00     0.038 C 
BRANCH   7   8
ATOM      8  C   UNL     1     108.511  48.474  61.983  1.00  0.00    -0.034 C 
ATOM      9  C   UNL     1     107.540  47.901  61.266  1.00  0.00     0.004 C 
ENDBRANCH   7   8
ENDBRANCH   1   7
TORSDOF 4
ENDMDL
