MODEL 1
REMARK VINA RESULT:    64.482      0.000      0.000
REMARK INTER + INTRA:          86.977
REMARK INTER:                  87.099
REMARK INTRA:                  -0.122
REMARK UNBOUND:                -0.122
REMARK SMILES O=c1c(-c2ccc(O)cc2)coc2c([C@@H]3O[C@@H](CO)[C@@H](O)[C@@H](O)[C@@H]3O)c(O)ccc12
REMARK SMILES IDX 3 1 11 2 12 3 13 4 30 5 2 6 1 7 29 8 28 9 26 10 14 11 4 12
REMARK SMILES IDX 5 13 6 14 7 15 10 16 9 17 8 18 15 20 24 21 16 22 22 23 17 24
REMARK SMILES IDX 20 25 25 26 23 28 18 30 19 31 21 33 27 35
REMARK H PARENT 8 19 25 27 23 29 19 32 21 34 27 36
REMARK Flexibility Score: inf
ROOT
ATOM      1  C   UNL     1       9.668  69.605   4.136  1.00  0.00     0.065 A 
ATOM      2  C   UNL     1       9.277  70.901   3.772  1.00  0.00     0.208 A 
ATOM      3  O   UNL     1       9.956  71.960   4.193  1.00  0.00    -0.463 OA
ATOM      4  C   UNL     1      11.033  71.879   4.970  1.00  0.00     0.147 A 
ATOM      5  C   UNL     1      11.504  70.607   5.372  1.00  0.00     0.066 A 
ATOM      6  C   UNL     1      10.810  69.462   4.943  1.00  0.00     0.200 A 
ATOM      7  O   UNL     1      11.218  68.311   5.263  1.00  0.00    -0.288 OA
ATOM      8  C   UNL     1      12.651  70.513   6.172  1.00  0.00     0.020 A 
ATOM      9  C   UNL     1      13.338  71.662   6.547  1.00  0.00     0.047 A 
ATOM     10  C   UNL     1      12.900  72.926   6.149  1.00  0.00     0.125 A 
ATOM     11  C   UNL     1      11.706  73.060   5.386  1.00  0.00     0.069 A 
ENDROOT
BRANCH   1  12
ATOM     12  C   UNL     1       8.887  68.436   3.661  1.00  0.00    -0.011 A 
ATOM     13  C   UNL     1       9.257  67.768   2.479  1.00  0.00     0.013 A 
ATOM     14  C   UNL     1       8.518  66.671   2.026  1.00  0.00     0.047 A 
ATOM     15  C   UNL     1       7.398  66.232   2.740  1.00  0.00     0.115 A 
ATOM     16  C   UNL     1       7.756  67.993   4.370  1.00  0.00     0.013 A 
ATOM     17  C   UNL     1       7.019  66.896   3.914  1.00  0.00     0.047 A 
BRANCH  15  18
ATOM     18  O   UNL     1       6.672  65.138   2.276  1.00  0.00    -0.508 OA
ATOM     19  H   UNL     1       7.112  64.239   2.119  1.00  0.00     0.293 HD
ENDBRANCH  15  18
ENDBRANCH   1  12
BRANCH  11  20
ATOM     20  C   UNL     1      11.190  74.440   4.982  1.00  0.00     0.188 C 
ATOM     21  C   UNL     1       9.643  74.451   4.957  1.00  0.00     0.179 C 
ATOM     22  O   UNL     1      11.701  75.442   5.853  1.00  0.00    -0.362 OA
ATOM     23  C   UNL     1       9.118  75.840   4.542  1.00  0.00     0.177 C 
ATOM     24  C   UNL     1      11.349  76.759   5.445  1.00  0.00     0.176 C 
ATOM     25  C   UNL     1       9.811  76.955   5.353  1.00  0.00     0.177 C 
BRANCH  21  26
ATOM     26  O   UNL     1       9.094  74.052   6.190  1.00  0.00    -0.387 OA
ATOM     27  H   UNL     1       9.835  73.760   6.781  1.00  0.00     0.211 HD
ENDBRANCH  21  26
BRANCH  23  28
ATOM     28  O   UNL     1       9.328  76.045   3.167  1.00  0.00    -0.387 OA
ATOM     29  H   UNL     1       9.726  75.210   2.808  1.00  0.00     0.211 HD
ENDBRANCH  23  28
BRANCH  24  30
ATOM     30  C   UNL     1      12.146  77.212   4.198  1.00  0.00     0.191 C 
BRANCH  30  31
ATOM     31  O   UNL     1      13.198  78.067   4.557  1.00  0.00    -0.394 OA
ATOM     32  H   UNL     1      13.613  78.380   3.712  1.00  0.00     0.210 HD
ENDBRANCH  30  31
ENDBRANCH  24  30
BRANCH  25  33
ATOM     33  O   UNL     1       9.507  78.217   4.815  1.00  0.00    -0.388 OA
ATOM     34  H   UNL     1       9.293  78.813   5.579  1.00  0.00     0.211 HD
ENDBRANCH  25  33
ENDBRANCH  11  20
BRANCH  10  35
ATOM     35  O   UNL     1      13.689  74.020   6.522  1.00  0.00    -0.507 OA
ATOM     36  H   UNL     1      13.628  74.492   7.413  1.00  0.00     0.293 HD
ENDBRANCH  10  35
TORSDOF 9
ENDMDL
MODEL 2
REMARK VINA RESULT:    65.644      5.322     10.064
REMARK INTER + INTRA:          88.547
REMARK INTER:                  85.429
REMARK INTRA:                   3.118
REMARK UNBOUND:                -0.122
REMARK SMILES O=c1c(-c2ccc(O)cc2)coc2c([C@@H]3O[C@@H](CO)[C@@H](O)[C@@H](O)[C@@H]3O)c(O)ccc12
REMARK SMILES IDX 3 1 11 2 12 3 13 4 30 5 2 6 1 7 29 8 28 9 26 10 14 11 4 12
REMARK SMILES IDX 5 13 6 14 7 15 10 16 9 17 8 18 15 20 24 21 16 22 22 23 17 24
REMARK SMILES IDX 20 25 25 26 23 28 18 30 19 31 21 33 27 35
REMARK H PARENT 8 19 25 27 23 29 19 32 21 34 27 36
REMARK Flexibility Score: inf
ROOT
ATOM      1  C   UNL     1      12.724  79.621  -0.950  1.00  0.00     0.065 A 
ATOM      2  C   UNL     1      11.861  78.660  -0.408  1.00  0.00     0.208 A 
ATOM      3  O   UNL     1      11.938  78.321   0.873  1.00  0.00    -0.463 OA
ATOM      4  C   UNL     1      12.815  78.853   1.721  1.00  0.00     0.147 A 
ATOM      5  C   UNL     1      13.714  79.842   1.258  1.00  0.00     0.066 A 
ATOM      6  C   UNL     1      13.661  80.227  -0.094  1.00  0.00     0.200 A 
ATOM      7  O   UNL     1      14.432  81.125  -0.533  1.00  0.00    -0.288 OA
ATOM      8  C   UNL     1      14.626  80.423   2.150  1.00  0.00     0.020 A 
ATOM      9  C   UNL     1      14.629  80.049   3.490  1.00  0.00     0.047 A 
ATOM     10  C   UNL     1      13.739  79.087   3.971  1.00  0.00     0.125 A 
ATOM     11  C   UNL     1      12.842  78.435   3.079  1.00  0.00     0.069 A 
ENDROOT
BRANCH   1  12
ATOM     12  C   UNL     1      12.626  79.977  -2.388  1.00  0.00    -0.011 A 
ATOM     13  C   UNL     1      11.496  79.600  -3.137  1.00  0.00     0.013 A 
ATOM     14  C   UNL     1      11.405  79.928  -4.493  1.00  0.00     0.047 A 
ATOM     15  C   UNL     1      12.441  80.628  -5.119  1.00  0.00     0.115 A 
ATOM     16  C   UNL     1      13.666  80.675  -3.026  1.00  0.00     0.013 A 
ATOM     17  C   UNL     1      13.573  81.001  -4.383  1.00  0.00     0.047 A 
BRANCH  15  18
ATOM     18  O   UNL     1      12.336  80.947  -6.471  1.00  0.00    -0.508 OA
ATOM     19  H   UNL     1      12.820  80.409  -7.181  1.00  0.00     0.293 HD
ENDBRANCH  15  18
ENDBRANCH   1  12
BRANCH  11  20
ATOM     20  C   UNL     1      11.894  77.348   3.584  1.00  0.00     0.188 C 
ATOM     21  C   UNL     1      12.156  77.058   5.081  1.00  0.00     0.179 C 
ATOM     22  O   UNL     1      10.539  77.717   3.358  1.00  0.00    -0.362 OA
ATOM     23  C   UNL     1      11.208  75.956   5.593  1.00  0.00     0.177 C 
ATOM     24  C   UNL     1       9.621  76.685   3.698  1.00  0.00     0.176 C 
ATOM     25  C   UNL     1       9.749  76.251   5.184  1.00  0.00     0.177 C 
BRANCH  21  26
ATOM     26  O   UNL     1      12.052  78.221   5.869  1.00  0.00    -0.387 OA
ATOM     27  H   UNL     1      12.758  78.190   6.564  1.00  0.00     0.211 HD
ENDBRANCH  21  26
BRANCH  23  28
ATOM     28  O   UNL     1      11.604  74.705   5.090  1.00  0.00    -0.387 OA
ATOM     29  H   UNL     1      11.773  74.824   4.119  1.00  0.00     0.211 HD
ENDBRANCH  23  28
BRANCH  24  30
ATOM     30  C   UNL     1       9.644  75.528   2.671  1.00  0.00     0.191 C 
BRANCH  30  31
ATOM     31  O   UNL     1       9.931  76.005   1.384  1.00  0.00    -0.394 OA
ATOM     32  H   UNL     1      10.894  75.829   1.222  1.00  0.00     0.210 HD
ENDBRANCH  30  31
ENDBRANCH  24  30
BRANCH  25  33
ATOM     33  O   UNL     1       8.930  75.140   5.445  1.00  0.00    -0.388 OA
ATOM     34  H   UNL     1       8.166  75.190   4.814  1.00  0.00     0.211 HD
ENDBRANCH  25  33
ENDBRANCH  11  20
BRANCH  10  35
ATOM     35  O   UNL     1      13.773  78.820   5.344  1.00  0.00    -0.507 OA
ATOM     36  H   UNL     1      13.859  79.525   6.062  1.00  0.00     0.293 HD
ENDBRANCH  10  35
TORSDOF 9
ENDMDL
MODEL 3
REMARK VINA RESULT:    67.281      5.295      6.959
REMARK INTER + INTRA:          90.758
REMARK INTER:                  89.286
REMARK INTRA:                   1.472
REMARK UNBOUND:                -0.122
REMARK SMILES O=c1c(-c2ccc(O)cc2)coc2c([C@@H]3O[C@@H](CO)[C@@H](O)[C@@H](O)[C@@H]3O)c(O)ccc12
REMARK SMILES IDX 3 1 11 2 12 3 13 4 30 5 2 6 1 7 29 8 28 9 26 10 14 11 4 12
REMARK SMILES IDX 5 13 6 14 7 15 10 16 9 17 8 18 15 20 24 21 16 22 22 23 17 24
REMARK SMILES IDX 20 25 25 26 23 28 18 30 19 31 21 33 27 35
REMARK H PARENT 8 19 25 27 23 29 19 32 21 34 27 36
REMARK Flexibility Score: inf
ROOT
ATOM      1  C   UNL     1      12.132  74.247  -1.297  1.00  0.00     0.065 A 
ATOM      2  C   UNL     1      11.572  74.220  -0.013  1.00  0.00     0.208 A 
ATOM      3  O   UNL     1      11.571  75.304   0.752  1.00  0.00    -0.463 OA
ATOM      4  C   UNL     1      12.084  76.471   0.372  1.00  0.00     0.147 A 
ATOM      5  C   UNL     1      12.656  76.589  -0.917  1.00  0.00     0.066 A 
ATOM      6  C   UNL     1      12.674  75.461  -1.756  1.00  0.00     0.200 A 
ATOM      7  O   UNL     1      13.154  75.539  -2.921  1.00  0.00    -0.288 OA
ATOM      8  C   UNL     1      13.179  77.821  -1.333  1.00  0.00     0.020 A 
ATOM      9  C   UNL     1      13.112  78.929  -0.495  1.00  0.00     0.047 A 
ATOM     10  C   UNL     1      12.537  78.838   0.774  1.00  0.00     0.125 A 
ATOM     11  C   UNL     1      12.052  77.588   1.250  1.00  0.00     0.069 A 
ENDROOT
BRANCH   1  12
ATOM     12  C   UNL     1      12.130  73.020  -2.132  1.00  0.00    -0.011 A 
ATOM     13  C   UNL     1      12.310  71.757  -1.538  1.00  0.00     0.013 A 
ATOM     14  C   UNL     1      12.317  70.601  -2.323  1.00  0.00     0.047 A 
ATOM     15  C   UNL     1      12.151  70.689  -3.708  1.00  0.00     0.115 A 
ATOM     16  C   UNL     1      11.971  73.101  -3.526  1.00  0.00     0.013 A 
ATOM     17  C   UNL     1      11.979  71.942  -4.309  1.00  0.00     0.047 A 
BRANCH  15  18
ATOM     18  O   UNL     1      12.161  69.527  -4.478  1.00  0.00    -0.508 OA
ATOM     19  H   UNL     1      11.953  68.623  -4.072  1.00  0.00     0.293 HD
ENDBRANCH  15  18
ENDBRANCH   1  12
BRANCH  11  20
ATOM     20  C   UNL     1      11.462  77.464   2.654  1.00  0.00     0.188 C 
ATOM     21  C   UNL     1       9.953  77.131   2.577  1.00  0.00     0.179 C 
ATOM     22  O   UNL     1      12.169  76.491   3.413  1.00  0.00    -0.362 OA
ATOM     23  C   UNL     1       9.352  77.013   3.992  1.00  0.00     0.177 C 
ATOM     24  C   UNL     1      11.738  76.426   4.767  1.00  0.00     0.176 C 
ATOM     25  C   UNL     1      10.223  76.106   4.887  1.00  0.00     0.177 C 
BRANCH  21  26
ATOM     26  O   UNL     1       9.709  75.965   1.826  1.00  0.00    -0.387 OA
ATOM     27  H   UNL     1       9.391  75.258   2.445  1.00  0.00     0.211 HD
ENDBRANCH  21  26
BRANCH  23  28
ATOM     28  O   UNL     1       9.231  78.287   4.573  1.00  0.00    -0.387 OA
ATOM     29  H   UNL     1       8.351  78.313   5.032  1.00  0.00     0.211 HD
ENDBRANCH  23  28
BRANCH  24  30
ATOM     30  C   UNL     1      12.219  77.648   5.587  1.00  0.00     0.191 C 
BRANCH  30  31
ATOM     31  O   UNL     1      13.353  78.230   5.002  1.00  0.00    -0.394 OA
ATOM     32  H   UNL     1      13.611  78.995   5.579  1.00  0.00     0.210 HD
ENDBRANCH  30  31
ENDBRANCH  24  30
BRANCH  25  33
ATOM     33  O   UNL     1       9.806  76.189   6.225  1.00  0.00    -0.388 OA
ATOM     34  H   UNL     1      10.594  75.969   6.788  1.00  0.00     0.211 HD
ENDBRANCH  25  33
ENDBRANCH  11  20
BRANCH  10  35
ATOM     35  O   UNL     1      12.458  80.018   1.522  1.00  0.00    -0.507 OA
ATOM     36  H   UNL     1      11.725  80.228   2.184  1.00  0.00     0.293 HD
ENDBRANCH  10  35
TORSDOF 9
ENDMDL
