MODEL 1
REMARK VINA RESULT:    -4.841      0.000      0.000
REMARK INTER + INTRA:          -6.054
REMARK INTER:                  -6.822
REMARK INTRA:                   0.769
REMARK UNBOUND:                 0.769
REMARK SMILES CC1=CCC(=C(C)C)C(=O)CC(C)=CCC1
REMARK SMILES IDX 12 1 14 2 13 3 15 4 16 5 2 6 1 7 3 8 11 10 9 11 10 12 5 13
REMARK SMILES IDX 6 14 7 15 8 16 4 17
REMARK H PARENT
REMARK Flexibility Score: 60.00
ROOT
ATOM      1  C   UNL     1     -10.380 -16.201  31.882  1.00  0.00    -0.070 C 
ATOM      2  C   UNL     1      -9.952 -15.594  30.749  1.00  0.00    -0.027 C 
ATOM      3  C   UNL     1     -10.266 -15.425  33.171  1.00  0.00     0.039 C 
ENDROOT
BRANCH   2   4
ATOM      4  C   UNL     1      -9.875 -16.218  29.375  1.00  0.00     0.032 C 
BRANCH   4   5
ATOM      5  C   UNL     1     -10.968 -15.693  28.425  1.00  0.00     0.034 C 
BRANCH   5   6
ATOM      6  C   UNL     1     -11.636 -16.810  27.648  1.00  0.00    -0.077 C 
ATOM      7  C   UNL     1     -11.044 -17.213  26.321  1.00  0.00     0.039 C 
ATOM      8  C   UNL     1     -12.721 -17.487  28.089  1.00  0.00    -0.023 CG0
ATOM      9  G   UNL     1     -13.433 -17.256  29.400  1.00  0.00     0.000 G0
ENDBRANCH   5   6
ENDBRANCH   4   5
ENDBRANCH   2   4
BRANCH   1  10
ATOM     10  C   UNL     1     -10.900 -17.628  31.931  1.00  0.00     0.111 C 
BRANCH  10  11
ATOM     11  C   UNL     1     -12.392 -17.681  31.710  1.00  0.00     0.163 C 
ATOM     12  O   UNL     1     -13.142 -17.200  32.604  1.00  0.00    -0.294 OA
BRANCH  11  13
ATOM     13  C   UNL     1     -12.988 -18.235  30.456  1.00  0.00    -0.002 C 
ATOM     14  C   UNL     1     -13.071 -19.582  30.233  1.00  0.00    -0.069 C 
ATOM     15  C   UNL     1     -13.710 -20.135  28.976  1.00  0.00     0.039 C 
ATOM     16  C   UNL     1     -12.498 -20.584  31.209  1.00  0.00     0.039 C 
BRANCH  13  17
ATOM     17  C   UNL     1     -13.431 -17.236  29.401  1.00  0.00     0.066 CG0
ATOM     18  G   UNL     1     -12.708 -17.508  28.103  1.00  0.00     0.000 G0
ENDBRANCH  13  17
ENDBRANCH  11  13
ENDBRANCH  10  11
ENDBRANCH   1  10
TORSDOF 0
ENDMDL
MODEL 2
REMARK VINA RESULT:    -4.638      1.800      3.690
REMARK INTER + INTRA:          -5.767
REMARK INTER:                  -6.284
REMARK INTRA:                   0.518
REMARK UNBOUND:                 0.769
REMARK SMILES CC1=CCC(=C(C)C)C(=O)CC(C)=CCC1
REMARK SMILES IDX 12 1 14 2 13 3 15 4 16 5 2 6 1 7 3 8 11 10 9 11 10 12 5 13
REMARK SMILES IDX 6 14 7 15 8 16 4 17
REMARK H PARENT
REMARK Flexibility Score: 60.00
ROOT
ATOM      1  C   UNL     1     -12.037 -16.602  32.152  1.00  0.00    -0.070 C 
ATOM      2  C   UNL     1     -12.028 -17.941  32.354  1.00  0.00    -0.027 C 
ATOM      3  C   UNL     1     -11.313 -15.743  33.159  1.00  0.00     0.039 C 
ENDROOT
BRANCH   2   4
ATOM      4  C   UNL     1     -12.770 -18.973  31.538  1.00  0.00     0.032 C 
BRANCH   4   5
ATOM      5  C   UNL     1     -12.060 -19.301  30.211  1.00  0.00     0.034 C 
BRANCH   5   6
ATOM      6  C   UNL     1     -13.025 -19.358  29.044  1.00  0.00    -0.077 C 
ATOM      7  C   UNL     1     -14.133 -20.381  29.080  1.00  0.00     0.039 C 
ATOM      8  C   UNL     1     -12.968 -18.526  27.980  1.00  0.00    -0.023 CG0
ATOM      9  G   UNL     1     -11.959 -17.420  27.779  1.00  0.00     0.000 G0
ENDBRANCH   5   6
ENDBRANCH   4   5
ENDBRANCH   2   4
BRANCH   1  10
ATOM     10  C   UNL     1     -12.783 -15.924  31.014  1.00  0.00     0.111 C 
BRANCH  10  11
ATOM     11  C   UNL     1     -11.926 -15.814  29.778  1.00  0.00     0.163 C 
ATOM     12  O   UNL     1     -10.717 -15.482  29.921  1.00  0.00    -0.294 OA
BRANCH  11  13
ATOM     13  C   UNL     1     -12.455 -16.134  28.416  1.00  0.00    -0.002 C 
ATOM     14  C   UNL     1     -13.397 -15.351  27.808  1.00  0.00    -0.069 C 
ATOM     15  C   UNL     1     -13.899 -15.662  26.413  1.00  0.00     0.039 C 
ATOM     16  C   UNL     1     -14.010 -14.160  28.509  1.00  0.00     0.039 C 
BRANCH  13  17
ATOM     17  C   UNL     1     -11.956 -17.412  27.764  1.00  0.00     0.066 CG0
ATOM     18  G   UNL     1     -12.964 -18.518  27.968  1.00  0.00     0.000 G0
ENDBRANCH  13  17
ENDBRANCH  11  13
ENDBRANCH  10  11
ENDBRANCH   1  10
TORSDOF 0
ENDMDL
MODEL 3
REMARK VINA RESULT:    -4.513      2.242      4.755
REMARK INTER + INTRA:          -5.591
REMARK INTER:                  -6.420
REMARK INTRA:                   0.829
REMARK UNBOUND:                 0.769
REMARK SMILES CC1=CCC(=C(C)C)C(=O)CC(C)=CCC1
REMARK SMILES IDX 12 1 14 2 13 3 15 4 16 5 2 6 1 7 3 8 11 10 9 11 10 12 5 13
REMARK SMILES IDX 6 14 7 15 8 16 4 17
REMARK H PARENT
REMARK Flexibility Score: 60.00
ROOT
ATOM      1  C   UNL     1     -12.824 -19.115  29.508  1.00  0.00    -0.070 C 
ATOM      2  C   UNL     1     -13.160 -19.294  30.808  1.00  0.00    -0.027 C 
ATOM      3  C   UNL     1     -13.846 -19.503  28.468  1.00  0.00     0.039 C 
ENDROOT
BRANCH   2   4
ATOM      4  C   UNL     1     -12.260 -19.075  32.002  1.00  0.00     0.032 C 
BRANCH   4   5
ATOM      5  C   UNL     1     -11.825 -17.605  32.154  1.00  0.00     0.034 C 
BRANCH   5   6
ATOM      6  C   UNL     1     -12.972 -16.642  31.922  1.00  0.00    -0.077 C 
ATOM      7  C   UNL     1     -14.137 -16.671  32.879  1.00  0.00     0.039 C 
ATOM      8  C   UNL     1     -13.000 -15.736  30.919  1.00  0.00    -0.023 CG0
ATOM      9  G   UNL     1     -11.918 -15.530  29.885  1.00  0.00     0.000 G0
ENDBRANCH   5   6
ENDBRANCH   4   5
ENDBRANCH   2   4
BRANCH   1  10
ATOM     10  C   UNL     1     -11.466 -18.612  29.048  1.00  0.00     0.111 C 
BRANCH  10  11
ATOM     11  C   UNL     1     -11.597 -17.409  28.147  1.00  0.00     0.163 C 
ATOM     12  O   UNL     1     -11.095 -17.476  26.991  1.00  0.00    -0.294 OA
BRANCH  11  13
ATOM     13  C   UNL     1     -12.340 -16.181  28.568  1.00  0.00    -0.002 C 
ATOM     14  C   UNL     1     -13.306 -15.620  27.779  1.00  0.00    -0.069 C 
ATOM     15  C   UNL     1     -14.079 -14.398  28.230  1.00  0.00     0.039 C 
ATOM     16  C   UNL     1     -13.625 -16.166  26.406  1.00  0.00     0.039 C 
BRANCH  13  17
ATOM     17  C   UNL     1     -11.923 -15.537  29.878  1.00  0.00     0.066 CG0
ATOM     18  G   UNL     1     -13.005 -15.737  30.913  1.00  0.00     0.000 G0
ENDBRANCH  13  17
ENDBRANCH  11  13
ENDBRANCH  10  11
ENDBRANCH   1  10
TORSDOF 0
ENDMDL
MODEL 4
REMARK VINA RESULT:    -4.295      2.296      4.385
REMARK INTER + INTRA:          -5.284
REMARK INTER:                  -6.271
REMARK INTRA:                   0.987
REMARK UNBOUND:                 0.769
REMARK SMILES CC1=CCC(=C(C)C)C(=O)CC(C)=CCC1
REMARK SMILES IDX 12 1 14 2 13 3 15 4 16 5 2 6 1 7 3 8 11 10 9 11 10 12 5 13
REMARK SMILES IDX 6 14 7 15 8 16 4 17
REMARK H PARENT
REMARK Flexibility Score: 60.00
ROOT
ATOM      1  C   UNL     1     -10.945 -16.833  28.457  1.00  0.00    -0.070 C 
ATOM      2  C   UNL     1     -10.296 -17.695  29.276  1.00  0.00    -0.027 C 
ATOM      3  C   UNL     1     -11.093 -17.228  27.009  1.00  0.00     0.039 C 
ENDROOT
BRANCH   2   4
ATOM      4  C   UNL     1      -9.944 -17.458  30.725  1.00  0.00     0.032 C 
BRANCH   4   5
ATOM      5  C   UNL     1     -10.611 -18.475  31.670  1.00  0.00     0.034 C 
BRANCH   5   6
ATOM      6  C   UNL     1     -12.049 -18.758  31.284  1.00  0.00    -0.077 C 
ATOM      7  C   UNL     1     -12.435 -20.178  30.956  1.00  0.00     0.039 C 
ATOM      8  C   UNL     1     -13.015 -17.813  31.243  1.00  0.00    -0.023 CG0
ATOM      9  G   UNL     1     -12.834 -16.350  31.570  1.00  0.00     0.000 G0
ENDBRANCH   5   6
ENDBRANCH   4   5
ENDBRANCH   2   4
BRANCH   1  10
ATOM     10  C   UNL     1     -11.468 -15.477  28.902  1.00  0.00     0.111 C 
BRANCH  10  11
ATOM     11  C   UNL     1     -12.955 -15.513  29.158  1.00  0.00     0.163 C 
ATOM     12  O   UNL     1     -13.725 -15.613  28.164  1.00  0.00    -0.294 OA
BRANCH  11  13
ATOM     13  C   UNL     1     -13.522 -15.485  30.541  1.00  0.00    -0.002 C 
ATOM     14  C   UNL     1     -14.569 -14.670  30.873  1.00  0.00    -0.069 C 
ATOM     15  C   UNL     1     -15.161 -14.675  32.267  1.00  0.00     0.039 C 
ATOM     16  C   UNL     1     -15.163 -13.698  29.879  1.00  0.00     0.039 C 
BRANCH  13  17
ATOM     17  C   UNL     1     -12.836 -16.347  31.586  1.00  0.00     0.066 CG0
ATOM     18  G   UNL     1     -13.018 -17.807  31.244  1.00  0.00     0.000 G0
ENDBRANCH  13  17
ENDBRANCH  11  13
ENDBRANCH  10  11
ENDBRANCH   1  10
TORSDOF 0
ENDMDL
MODEL 5
REMARK VINA RESULT:    -4.092      1.846      2.488
REMARK INTER + INTRA:          -4.998
REMARK INTER:                  -5.738
REMARK INTRA:                   0.740
REMARK UNBOUND:                 0.769
REMARK SMILES CC1=CCC(=C(C)C)C(=O)CC(C)=CCC1
REMARK SMILES IDX 12 1 14 2 13 3 15 4 16 5 2 6 1 7 3 8 11 10 9 11 10 12 5 13
REMARK SMILES IDX 6 14 7 15 8 16 4 17
REMARK H PARENT
REMARK Flexibility Score: 60.00
ROOT
ATOM      1  C   UNL     1     -12.993 -15.688  30.552  1.00  0.00    -0.070 C 
ATOM      2  C   UNL     1     -13.735 -15.324  29.480  1.00  0.00    -0.027 C 
ATOM      3  C   UNL     1     -13.715 -15.879  31.863  1.00  0.00     0.039 C 
ENDROOT
BRANCH   2   4
ATOM      4  C   UNL     1     -13.212 -14.977  28.106  1.00  0.00     0.032 C 
BRANCH   4   5
ATOM      5  C   UNL     1     -13.506 -16.075  27.066  1.00  0.00     0.034 C 
BRANCH   5   6
ATOM      6  C   UNL     1     -12.313 -16.980  26.835  1.00  0.00    -0.077 C 
ATOM      7  C   UNL     1     -11.355 -16.633  25.724  1.00  0.00     0.039 C 
ATOM      8  C   UNL     1     -12.041 -18.071  27.587  1.00  0.00    -0.023 CG0
ATOM      9  G   UNL     1     -12.858 -18.560  28.760  1.00  0.00     0.000 G0
ENDBRANCH   5   6
ENDBRANCH   4   5
ENDBRANCH   2   4
BRANCH   1  10
ATOM     10  C   UNL     1     -11.482 -15.848  30.519  1.00  0.00     0.111 C 
BRANCH  10  11
ATOM     11  C   UNL     1     -11.082 -17.235  30.079  1.00  0.00     0.163 C 
ATOM     12  O   UNL     1      -9.875 -17.434  29.769  1.00  0.00    -0.294 OA
BRANCH  11  13
ATOM     13  C   UNL     1     -12.055 -18.370  30.052  1.00  0.00    -0.002 C 
ATOM     14  C   UNL     1     -12.178 -19.237  31.102  1.00  0.00    -0.069 C 
ATOM     15  C   UNL     1     -13.194 -20.361  31.081  1.00  0.00     0.039 C 
ATOM     16  C   UNL     1     -11.286 -19.142  32.318  1.00  0.00     0.039 C 
BRANCH  13  17
ATOM     17  C   UNL     1     -12.852 -18.565  28.774  1.00  0.00     0.066 CG0
ATOM     18  G   UNL     1     -12.051 -18.076  27.591  1.00  0.00     0.000 G0
ENDBRANCH  13  17
ENDBRANCH  11  13
ENDBRANCH  10  11
ENDBRANCH   1  10
TORSDOF 0
ENDMDL
MODEL 6
REMARK VINA RESULT:    -4.024      1.582      4.347
REMARK INTER + INTRA:          -4.902
REMARK INTER:                  -5.809
REMARK INTRA:                   0.907
REMARK UNBOUND:                 0.769
REMARK SMILES CC1=CCC(=C(C)C)C(=O)CC(C)=CCC1
REMARK SMILES IDX 12 1 14 2 13 3 15 4 16 5 2 6 1 7 3 8 11 10 9 11 10 12 5 13
REMARK SMILES IDX 6 14 7 15 8 16 4 17
REMARK H PARENT
REMARK Flexibility Score: 60.00
ROOT
ATOM      1  C   UNL     1     -12.924 -18.872  29.888  1.00  0.00    -0.070 C 
ATOM      2  C   UNL     1     -11.964 -19.372  30.701  1.00  0.00    -0.027 C 
ATOM      3  C   UNL     1     -13.249 -19.650  28.637  1.00  0.00     0.039 C 
ENDROOT
BRANCH   2   4
ATOM      4  C   UNL     1     -11.408 -18.711  31.940  1.00  0.00     0.032 C 
BRANCH   4   5
ATOM      5  C   UNL     1     -10.017 -18.092  31.708  1.00  0.00     0.034 C 
BRANCH   5   6
ATOM      6  C   UNL     1     -10.091 -16.603  31.432  1.00  0.00    -0.077 C 
ATOM      7  C   UNL     1      -9.891 -15.651  32.584  1.00  0.00     0.039 C 
ATOM      8  C   UNL     1     -10.300 -16.076  30.204  1.00  0.00    -0.023 CG0
ATOM      9  G   UNL     1     -10.487 -16.861  28.927  1.00  0.00     0.000 G0
ENDBRANCH   5   6
ENDBRANCH   4   5
ENDBRANCH   2   4
BRANCH   1  10
ATOM     10  C   UNL     1     -13.636 -17.552  30.134  1.00  0.00     0.111 C 
BRANCH  10  11
ATOM     11  C   UNL     1     -12.982 -16.420  29.381  1.00  0.00     0.163 C 
ATOM     12  O   UNL     1     -13.344 -15.242  29.647  1.00  0.00    -0.294 OA
BRANCH  11  13
ATOM     13  C   UNL     1     -11.896 -16.658  28.380  1.00  0.00    -0.002 C 
ATOM     14  C   UNL     1     -12.159 -16.749  27.041  1.00  0.00    -0.069 C 
ATOM     15  C   UNL     1     -11.048 -16.952  26.032  1.00  0.00     0.039 C 
ATOM     16  C   UNL     1     -13.571 -16.689  26.505  1.00  0.00     0.039 C 
BRANCH  13  17
ATOM     17  C   UNL     1     -10.493 -16.869  28.921  1.00  0.00     0.066 CG0
ATOM     18  G   UNL     1     -10.311 -16.079  30.195  1.00  0.00     0.000 G0
ENDBRANCH  13  17
ENDBRANCH  11  13
ENDBRANCH  10  11
ENDBRANCH   1  10
TORSDOF 0
ENDMDL
MODEL 7
REMARK VINA RESULT:    -3.963      1.852      4.453
REMARK INTER + INTRA:          -4.817
REMARK INTER:                  -5.969
REMARK INTRA:                   1.152
REMARK UNBOUND:                 0.769
REMARK SMILES CC1=CCC(=C(C)C)C(=O)CC(C)=CCC1
REMARK SMILES IDX 12 1 14 2 13 3 15 4 16 5 2 6 1 7 3 8 11 10 9 11 10 12 5 13
REMARK SMILES IDX 6 14 7 15 8 16 4 17
REMARK H PARENT
REMARK Flexibility Score: 60.00
ROOT
ATOM      1  C   UNL     1     -12.320 -16.207  28.734  1.00  0.00    -0.070 C 
ATOM      2  C   UNL     1     -13.051 -17.325  28.507  1.00  0.00    -0.027 C 
ATOM      3  C   UNL     1     -12.912 -14.890  28.296  1.00  0.00     0.039 C 
ENDROOT
BRANCH   2   4
ATOM      4  C   UNL     1     -12.613 -18.747  28.765  1.00  0.00     0.032 C 
BRANCH   4   5
ATOM      5  C   UNL     1     -13.577 -19.504  29.698  1.00  0.00     0.034 C 
BRANCH   5   6
ATOM      6  C   UNL     1     -12.923 -19.885  31.010  1.00  0.00    -0.077 C 
ATOM      7  C   UNL     1     -12.498 -21.318  31.209  1.00  0.00     0.039 C 
ATOM      8  C   UNL     1     -12.673 -19.007  32.008  1.00  0.00    -0.023 CG0
ATOM      9  G   UNL     1     -12.991 -17.530  31.984  1.00  0.00     0.000 G0
ENDBRANCH   5   6
ENDBRANCH   4   5
ENDBRANCH   2   4
BRANCH   1  10
ATOM     10  C   UNL     1     -10.925 -16.218  29.337  1.00  0.00     0.111 C 
BRANCH  10  11
ATOM     11  C   UNL     1     -10.870 -17.060  30.588  1.00  0.00     0.163 C 
ATOM     12  O   UNL     1     -10.072 -18.037  30.610  1.00  0.00    -0.294 OA
BRANCH  11  13
ATOM     13  C   UNL     1     -11.687 -16.737  31.798  1.00  0.00    -0.002 C 
ATOM     14  C   UNL     1     -11.270 -15.820  32.723  1.00  0.00    -0.069 C 
ATOM     15  C   UNL     1     -12.122 -15.471  33.926  1.00  0.00     0.039 C 
ATOM     16  C   UNL     1      -9.927 -15.136  32.612  1.00  0.00     0.039 C 
BRANCH  13  17
ATOM     17  C   UNL     1     -12.968 -17.527  31.997  1.00  0.00     0.066 CG0
ATOM     18  G   UNL     1     -12.663 -19.006  31.993  1.00  0.00     0.000 G0
ENDBRANCH  13  17
ENDBRANCH  11  13
ENDBRANCH  10  11
ENDBRANCH   1  10
TORSDOF 0
ENDMDL
MODEL 8
REMARK VINA RESULT:    -3.818      1.781      3.576
REMARK INTER + INTRA:          -4.611
REMARK INTER:                  -5.453
REMARK INTRA:                   0.841
REMARK UNBOUND:                 0.769
REMARK SMILES CC1=CCC(=C(C)C)C(=O)CC(C)=CCC1
REMARK SMILES IDX 12 1 14 2 13 3 15 4 16 5 2 6 1 7 3 8 11 10 9 11 10 12 5 13
REMARK SMILES IDX 6 14 7 15 8 16 4 17
REMARK H PARENT
REMARK Flexibility Score: 60.00
ROOT
ATOM      1  C   UNL     1     -11.880 -19.243  30.906  1.00  0.00    -0.070 C 
ATOM      2  C   UNL     1     -12.853 -19.579  30.026  1.00  0.00    -0.027 C 
ATOM      3  C   UNL     1     -12.123 -19.553  32.362  1.00  0.00     0.039 C 
ENDROOT
BRANCH   2   4
ATOM      4  C   UNL     1     -12.867 -19.270  28.547  1.00  0.00     0.032 C 
BRANCH   4   5
ATOM      5  C   UNL     1     -13.889 -18.177  28.181  1.00  0.00     0.034 C 
BRANCH   5   6
ATOM      6  C   UNL     1     -13.232 -16.830  27.956  1.00  0.00    -0.077 C 
ATOM      7  C   UNL     1     -12.899 -16.424  26.542  1.00  0.00     0.039 C 
ATOM      8  C   UNL     1     -12.948 -15.957  28.948  1.00  0.00    -0.023 CG0
ATOM      9  G   UNL     1     -13.235 -16.167  30.416  1.00  0.00     0.000 G0
ENDBRANCH   5   6
ENDBRANCH   4   5
ENDBRANCH   2   4
BRANCH   1  10
ATOM     10  C   UNL     1     -10.601 -18.521  30.515  1.00  0.00     0.111 C 
BRANCH  10  11
ATOM     11  C   UNL     1     -10.805 -17.028  30.451  1.00  0.00     0.163 C 
ATOM     12  O   UNL     1     -10.027 -16.353  29.722  1.00  0.00    -0.294 OA
BRANCH  11  13
ATOM     13  C   UNL     1     -11.921 -16.348  31.178  1.00  0.00    -0.002 C 
ATOM     14  C   UNL     1     -11.795 -15.954  32.482  1.00  0.00    -0.069 C 
ATOM     15  C   UNL     1     -12.917 -15.233  33.198  1.00  0.00     0.039 C 
ATOM     16  C   UNL     1     -10.547 -16.248  33.282  1.00  0.00     0.039 C 
BRANCH  13  17
ATOM     17  C   UNL     1     -13.232 -16.181  30.430  1.00  0.00     0.066 CG0
ATOM     18  G   UNL     1     -12.960 -15.983  28.958  1.00  0.00     0.000 G0
ENDBRANCH  13  17
ENDBRANCH  11  13
ENDBRANCH  10  11
ENDBRANCH   1  10
TORSDOF 0
ENDMDL
MODEL 9
REMARK VINA RESULT:    -3.663      1.923      3.846
REMARK INTER + INTRA:          -4.393
REMARK INTER:                  -6.466
REMARK INTRA:                   2.073
REMARK UNBOUND:                 0.769
REMARK SMILES CC1=CCC(=C(C)C)C(=O)CC(C)=CCC1
REMARK SMILES IDX 12 1 14 2 13 3 15 4 16 5 2 6 1 7 3 8 11 10 9 11 10 12 5 13
REMARK SMILES IDX 6 14 7 15 8 16 4 17
REMARK H PARENT
REMARK Flexibility Score: 60.00
ROOT
ATOM      1  C   UNL     1     -13.279 -15.868  32.004  1.00  0.00    -0.070 C 
ATOM      2  C   UNL     1     -12.019 -15.980  32.486  1.00  0.00    -0.027 C 
ATOM      3  C   UNL     1     -14.273 -15.092  32.833  1.00  0.00     0.039 C 
ENDROOT
BRANCH   2   4
ATOM      4  C   UNL     1     -10.899 -16.793  31.881  1.00  0.00     0.032 C 
BRANCH   4   5
ATOM      5  C   UNL     1     -10.988 -18.287  32.245  1.00  0.00     0.034 C 
BRANCH   5   6
ATOM      6  C   UNL     1     -11.689 -19.097  31.173  1.00  0.00    -0.077 C 
ATOM      7  C   UNL     1     -12.401 -20.362  31.582  1.00  0.00     0.039 C 
ATOM      8  C   UNL     1     -11.737 -18.737  29.871  1.00  0.00    -0.023 CG0
ATOM      9  G   UNL     1     -11.118 -17.494  29.275  1.00  0.00     0.000 G0
ENDBRANCH   5   6
ENDBRANCH   4   5
ENDBRANCH   2   4
BRANCH   1  10
ATOM     10  C   UNL     1     -13.755 -16.530  30.722  1.00  0.00     0.111 C 
BRANCH  10  11
ATOM     11  C   UNL     1     -13.131 -15.893  29.505  1.00  0.00     0.163 C 
ATOM     12  O   UNL     1     -13.380 -14.677  29.279  1.00  0.00    -0.294 OA
BRANCH  11  13
ATOM     13  C   UNL     1     -12.201 -16.643  28.606  1.00  0.00    -0.002 C 
ATOM     14  C   UNL     1     -12.349 -16.631  27.246  1.00  0.00    -0.069 C 
ATOM     15  C   UNL     1     -11.380 -17.363  26.342  1.00  0.00     0.039 C 
ATOM     16  C   UNL     1     -13.504 -15.918  26.581  1.00  0.00     0.039 C 
BRANCH  13  17
ATOM     17  C   UNL     1     -11.126 -17.484  29.271  1.00  0.00     0.066 CG0
ATOM     18  G   UNL     1     -11.743 -18.732  29.859  1.00  0.00     0.000 G0
ENDBRANCH  13  17
ENDBRANCH  11  13
ENDBRANCH  10  11
ENDBRANCH   1  10
TORSDOF 0
ENDMDL
