MODEL 1
REMARK VINA RESULT:    -3.434      0.000      0.000
REMARK INTER + INTRA:          -3.874
REMARK INTER:                  -3.836
REMARK INTRA:                  -0.038
REMARK UNBOUND:                -0.038
REMARK SMILES CCCC(=O)[O-]
REMARK SMILES IDX 3 1 4 2 5 3 6 4 2 5 1 6
REMARK H PARENT
REMARK Flexibility Score: inf
ROOT
ATOM      1  C   UNL     1      -2.708   5.691   4.814  1.00  0.00     0.052 C 
ENDROOT
BRANCH   1   2
ATOM      2  C   UNL     1      -3.333   5.119   6.047  1.00  0.00     0.041 C 
ATOM      3  O   UNL     1      -3.661   3.903   6.085  1.00  0.00    -0.550 OA
ATOM      4  O   UNL     1      -3.599   5.937   7.137  1.00  0.00    -0.550 OA
ENDBRANCH   1   2
BRANCH   1   5
ATOM      5  C   UNL     1      -2.204   7.113   5.079  1.00  0.00     0.003 C 
ATOM      6  C   UNL     1      -3.014   8.139   4.294  1.00  0.00     0.004 C 
ENDBRANCH   1   5
TORSDOF 2
ENDMDL
MODEL 2
REMARK VINA RESULT:    -3.172      1.651      1.852
REMARK INTER + INTRA:          -3.581
REMARK INTER:                  -3.556
REMARK INTRA:                  -0.025
REMARK UNBOUND:                -0.038
REMARK SMILES CCCC(=O)[O-]
REMARK SMILES IDX 3 1 4 2 5 3 6 4 2 5 1 6
REMARK H PARENT
REMARK Flexibility Score: inf
ROOT
ATOM      1  C   UNL     1      -2.447   7.456   5.148  1.00  0.00     0.052 C 
ENDROOT
BRANCH   1   2
ATOM      2  C   UNL     1      -2.754   6.014   5.397  1.00  0.00     0.041 C 
ATOM      3  O   UNL     1      -2.406   5.138   4.562  1.00  0.00    -0.550 OA
ATOM      4  O   UNL     1      -3.469   5.639   6.528  1.00  0.00    -0.550 OA
ENDBRANCH   1   2
BRANCH   1   5
ATOM      5  C   UNL     1      -2.232   8.195   6.472  1.00  0.00     0.003 C 
ATOM      6  C   UNL     1      -2.933   9.549   6.468  1.00  0.00     0.004 C 
ENDBRANCH   1   5
TORSDOF 2
ENDMDL
MODEL 3
REMARK VINA RESULT:    -3.146      2.042      3.208
REMARK INTER + INTRA:          -3.552
REMARK INTER:                  -3.545
REMARK INTRA:                  -0.008
REMARK UNBOUND:                -0.038
REMARK SMILES CCCC(=O)[O-]
REMARK SMILES IDX 3 1 4 2 5 3 6 4 2 5 1 6
REMARK H PARENT
REMARK Flexibility Score: inf
ROOT
ATOM      1  C   UNL     1      -2.674   8.262   5.550  1.00  0.00     0.052 C 
ENDROOT
BRANCH   1   2
ATOM      2  C   UNL     1      -2.326   8.308   7.004  1.00  0.00     0.041 C 
ATOM      3  O   UNL     1      -1.330   8.972   7.396  1.00  0.00    -0.550 OA
ATOM      4  O   UNL     1      -3.070   7.578   7.921  1.00  0.00    -0.550 OA
ENDBRANCH   1   2
BRANCH   1   5
ATOM      5  C   UNL     1      -2.010   7.056   4.877  1.00  0.00     0.003 C 
ATOM      6  C   UNL     1      -2.871   5.805   5.018  1.00  0.00     0.004 C 
ENDBRANCH   1   5
TORSDOF 2
ENDMDL
MODEL 4
REMARK VINA RESULT:    -3.093      2.133      3.150
REMARK INTER + INTRA:          -3.493
REMARK INTER:                  -3.457
REMARK INTRA:                  -0.036
REMARK UNBOUND:                -0.038
REMARK SMILES CCCC(=O)[O-]
REMARK SMILES IDX 3 1 4 2 5 3 6 4 2 5 1 6
REMARK H PARENT
REMARK Flexibility Score: inf
ROOT
ATOM      1  C   UNL     1      -2.141   6.105   4.811  1.00  0.00     0.052 C 
ENDROOT
BRANCH   1   2
ATOM      2  C   UNL     1      -2.453   7.496   5.264  1.00  0.00     0.041 C 
ATOM      3  O   UNL     1      -2.910   8.341   4.449  1.00  0.00    -0.550 OA
ATOM      4  O   UNL     1      -2.195   7.876   6.575  1.00  0.00    -0.550 OA
ENDBRANCH   1   2
BRANCH   1   5
ATOM      5  C   UNL     1      -3.397   5.230   4.863  1.00  0.00     0.003 C 
ATOM      6  C   UNL     1      -3.371   4.300   6.070  1.00  0.00     0.004 C 
ENDBRANCH   1   5
TORSDOF 2
ENDMDL
MODEL 5
REMARK VINA RESULT:    -3.050     13.510     14.062
REMARK INTER + INTRA:          -3.444
REMARK INTER:                  -3.421
REMARK INTRA:                  -0.023
REMARK UNBOUND:                -0.038
REMARK SMILES CCCC(=O)[O-]
REMARK SMILES IDX 3 1 4 2 5 3 6 4 2 5 1 6
REMARK H PARENT
REMARK Flexibility Score: inf
ROOT
ATOM      1  C   UNL     1      -4.106   2.533  -7.560  1.00  0.00     0.052 C 
ENDROOT
BRANCH   1   2
ATOM      2  C   UNL     1      -3.500   3.717  -8.244  1.00  0.00     0.041 C 
ATOM      3  O   UNL     1      -2.280   3.984  -8.086  1.00  0.00    -0.550 OA
ATOM      4  O   UNL     1      -4.293   4.556  -9.017  1.00  0.00    -0.550 OA
ENDBRANCH   1   2
BRANCH   1   5
ATOM      5  C   UNL     1      -5.335   2.954  -6.747  1.00  0.00     0.003 C 
ATOM      6  C   UNL     1      -6.625   2.522  -7.435  1.00  0.00     0.004 C 
ENDBRANCH   1   5
TORSDOF 2
ENDMDL
MODEL 6
REMARK VINA RESULT:    -3.020     11.911     12.898
REMARK INTER + INTRA:          -3.411
REMARK INTER:                  -3.373
REMARK INTRA:                  -0.039
REMARK UNBOUND:                -0.038
REMARK SMILES CCCC(=O)[O-]
REMARK SMILES IDX 3 1 4 2 5 3 6 4 2 5 1 6
REMARK H PARENT
REMARK Flexibility Score: inf
ROOT
ATOM      1  C   UNL     1       2.060  -4.768   7.745  1.00  0.00     0.052 C 
ENDROOT
BRANCH   1   2
ATOM      2  C   UNL     1       0.774  -5.441   7.387  1.00  0.00     0.041 C 
ATOM      3  O   UNL     1       0.662  -6.691   7.494  1.00  0.00    -0.550 OA
ATOM      4  O   UNL     1      -0.287  -4.697   6.887  1.00  0.00    -0.550 OA
ENDBRANCH   1   2
BRANCH   1   5
ATOM      5  C   UNL     1       2.939  -5.701   8.583  1.00  0.00     0.003 C 
ATOM      6  C   UNL     1       4.197  -6.105   7.822  1.00  0.00     0.004 C 
ENDBRANCH   1   5
TORSDOF 2
ENDMDL
MODEL 7
REMARK VINA RESULT:    -2.985     13.598     14.140
REMARK INTER + INTRA:          -3.373
REMARK INTER:                  -3.343
REMARK INTRA:                  -0.030
REMARK UNBOUND:                -0.038
REMARK SMILES CCCC(=O)[O-]
REMARK SMILES IDX 3 1 4 2 5 3 6 4 2 5 1 6
REMARK H PARENT
REMARK Flexibility Score: inf
ROOT
ATOM      1  C   UNL     1      -6.065   2.706  -7.246  1.00  0.00     0.052 C 
ENDROOT
BRANCH   1   2
ATOM      2  C   UNL     1      -4.593   2.961  -7.163  1.00  0.00     0.041 C 
ATOM      3  O   UNL     1      -3.776   2.087  -7.555  1.00  0.00    -0.550 OA
ATOM      4  O   UNL     1      -4.122   4.143  -6.607  1.00  0.00    -0.550 OA
ENDBRANCH   1   2
BRANCH   1   5
ATOM      5  C   UNL     1      -6.523   2.685  -8.708  1.00  0.00     0.003 C 
ATOM      6  C   UNL     1      -6.767   1.259  -9.189  1.00  0.00     0.004 C 
ENDBRANCH   1   5
TORSDOF 2
ENDMDL
MODEL 8
REMARK VINA RESULT:    -2.916      2.384      3.396
REMARK INTER + INTRA:          -3.295
REMARK INTER:                  -3.262
REMARK INTRA:                  -0.034
REMARK UNBOUND:                -0.038
REMARK SMILES CCCC(=O)[O-]
REMARK SMILES IDX 3 1 4 2 5 3 6 4 2 5 1 6
REMARK H PARENT
REMARK Flexibility Score: inf
ROOT
ATOM      1  C   UNL     1      -2.061   8.557   6.940  1.00  0.00     0.052 C 
ENDROOT
BRANCH   1   2
ATOM      2  C   UNL     1      -3.073   8.298   8.011  1.00  0.00     0.041 C 
ATOM      3  O   UNL     1      -3.490   9.243   8.731  1.00  0.00    -0.550 OA
ATOM      4  O   UNL     1      -3.521   7.004   8.248  1.00  0.00    -0.550 OA
ENDBRANCH   1   2
BRANCH   1   5
ATOM      5  C   UNL     1      -2.693   8.392   5.555  1.00  0.00     0.003 C 
ATOM      6  C   UNL     1      -2.020   7.271   4.772  1.00  0.00     0.004 C 
ENDBRANCH   1   5
TORSDOF 2
ENDMDL
MODEL 9
REMARK VINA RESULT:    -2.830     12.770     13.442
REMARK INTER + INTRA:          -3.199
REMARK INTER:                  -3.193
REMARK INTRA:                  -0.006
REMARK UNBOUND:                -0.038
REMARK SMILES CCCC(=O)[O-]
REMARK SMILES IDX 3 1 4 2 5 3 6 4 2 5 1 6
REMARK H PARENT
REMARK Flexibility Score: inf
ROOT
ATOM      1  C   UNL     1       1.997  -5.199   7.885  1.00  0.00     0.052 C 
ENDROOT
BRANCH   1   2
ATOM      2  C   UNL     1       3.193  -5.977   8.333  1.00  0.00     0.041 C 
ATOM      3  O   UNL     1       4.261  -5.937   7.667  1.00  0.00    -0.550 OA
ATOM      4  O   UNL     1       3.116  -6.787   9.459  1.00  0.00    -0.550 OA
ENDBRANCH   1   2
BRANCH   1   5
ATOM      5  C   UNL     1       0.838  -6.143   7.551  1.00  0.00     0.003 C 
ATOM      6  C   UNL     1      -0.419  -5.363   7.183  1.00  0.00     0.004 C 
ENDBRANCH   1   5
TORSDOF 2
ENDMDL
