MODEL 1
REMARK VINA RESULT:    -4.123      0.000      0.000
REMARK INTER + INTRA:          -5.033
REMARK INTER:                  -4.847
REMARK INTRA:                  -0.186
REMARK UNBOUND:                -0.186
REMARK SMILES [NH3+][C@H](CO)C(=O)[O-]
REMARK SMILES IDX 3 1 2 2 1 3 5 7 6 8 7 9 4 10
REMARK H PARENT 1 4 1 5 1 6 4 11
REMARK Flexibility Score: inf
ROOT
ATOM      1  C   UNL     1      92.455  78.547  70.919  1.00  0.00     0.227 C 
ENDROOT
BRANCH   1   2
ATOM      2  C   UNL     1      92.269  79.955  70.324  1.00  0.00     0.253 C 
BRANCH   2   3
ATOM      3  N   UNL     1      92.619  80.983  71.311  1.00  0.00    -0.348 N 
ATOM      4  H   UNL     1      93.567  80.803  71.716  1.00  0.00     0.345 HD
ATOM      5  H   UNL     1      91.913  80.987  72.083  1.00  0.00     0.345 HD
ATOM      6  H   UNL     1      92.612  81.927  70.857  1.00  0.00     0.345 HD
ENDBRANCH   2   3
BRANCH   2   7
ATOM      7  C   UNL     1      93.097  80.120  69.077  1.00  0.00     0.102 C 
ATOM      8  O   UNL     1      94.234  79.584  68.988  1.00  0.00    -0.544 OA
ATOM      9  O   UNL     1      92.601  80.855  68.008  1.00  0.00    -0.544 OA
ENDBRANCH   2   7
ENDBRANCH   1   2
BRANCH   1  10
ATOM     10  O   UNL     1      93.775  78.363  71.357  1.00  0.00    -0.390 OA
ATOM     11  H   UNL     1      93.951  79.066  72.035  1.00  0.00     0.210 HD
ENDBRANCH   1  10
TORSDOF 4
ENDMDL
MODEL 2
REMARK VINA RESULT:    -3.999     13.116     13.710
REMARK INTER + INTRA:          -4.887
REMARK INTER:                  -4.850
REMARK INTRA:                  -0.037
REMARK UNBOUND:                -0.186
REMARK SMILES [NH3+][C@H](CO)C(=O)[O-]
REMARK SMILES IDX 3 1 2 2 1 3 5 7 6 8 7 9 4 10
REMARK H PARENT 1 4 1 5 1 6 4 11
REMARK Flexibility Score: inf
ROOT
ATOM      1  C   UNL     1     102.581  71.256  74.773  1.00  0.00     0.227 C 
ENDROOT
BRANCH   1   2
ATOM      2  C   UNL     1     101.537  70.186  75.142  1.00  0.00     0.253 C 
BRANCH   2   3
ATOM      3  N   UNL     1     100.291  70.815  75.593  1.00  0.00    -0.348 N 
ATOM      4  H   UNL     1      99.468  70.204  75.382  1.00  0.00     0.345 HD
ATOM      5  H   UNL     1     100.164  71.736  75.111  1.00  0.00     0.345 HD
ATOM      6  H   UNL     1     100.335  70.990  76.624  1.00  0.00     0.345 HD
ENDBRANCH   2   3
BRANCH   2   7
ATOM      7  C   UNL     1     101.273  69.274  73.974  1.00  0.00     0.102 C 
ATOM      8  O   UNL     1     100.472  69.615  73.063  1.00  0.00    -0.544 OA
ATOM      9  O   UNL     1     101.927  68.051  73.887  1.00  0.00    -0.544 OA
ENDBRANCH   2   7
ENDBRANCH   1   2
BRANCH   1  10
ATOM     10  O   UNL     1     101.956  72.469  74.447  1.00  0.00    -0.390 OA
ATOM     11  H   UNL     1     101.290  72.647  75.162  1.00  0.00     0.210 HD
ENDBRANCH   1  10
TORSDOF 4
ENDMDL
MODEL 3
REMARK VINA RESULT:    -3.992      2.070      2.732
REMARK INTER + INTRA:          -4.878
REMARK INTER:                  -4.638
REMARK INTRA:                  -0.240
REMARK UNBOUND:                -0.186
REMARK SMILES [NH3+][C@H](CO)C(=O)[O-]
REMARK SMILES IDX 3 1 2 2 1 3 5 7 6 8 7 9 4 10
REMARK H PARENT 1 4 1 5 1 6 4 11
REMARK Flexibility Score: inf
ROOT
ATOM      1  C   UNL     1      92.150  81.270  69.937  1.00  0.00     0.227 C 
ENDROOT
BRANCH   1   2
ATOM      2  C   UNL     1      92.823  80.229  69.023  1.00  0.00     0.253 C 
BRANCH   2   3
ATOM      3  N   UNL     1      94.158  80.684  68.618  1.00  0.00    -0.348 N 
ATOM      4  H   UNL     1      94.165  80.964  67.610  1.00  0.00     0.345 HD
ATOM      5  H   UNL     1      94.854  79.916  68.764  1.00  0.00     0.345 HD
ATOM      6  H   UNL     1      94.447  81.502  69.205  1.00  0.00     0.345 HD
ENDBRANCH   2   3
BRANCH   2   7
ATOM      7  C   UNL     1      92.910  78.893  69.712  1.00  0.00     0.102 C 
ATOM      8  O   UNL     1      92.122  77.960  69.401  1.00  0.00    -0.544 OA
ATOM      9  O   UNL     1      93.873  78.678  70.690  1.00  0.00    -0.544 OA
ENDBRANCH   2   7
ENDBRANCH   1   2
BRANCH   1  10
ATOM     10  O   UNL     1      92.653  81.184  71.244  1.00  0.00    -0.390 OA
ATOM     11  H   UNL     1      93.519  80.701  71.185  1.00  0.00     0.210 HD
ENDBRANCH   1  10
TORSDOF 4
ENDMDL
MODEL 4
REMARK VINA RESULT:    -3.729     10.634     11.479
REMARK INTER + INTRA:          -4.570
REMARK INTER:                  -4.563
REMARK INTRA:                  -0.006
REMARK UNBOUND:                -0.186
REMARK SMILES [NH3+][C@H](CO)C(=O)[O-]
REMARK SMILES IDX 3 1 2 2 1 3 5 7 6 8 7 9 4 10
REMARK H PARENT 1 4 1 5 1 6 4 11
REMARK Flexibility Score: inf
ROOT
ATOM      1  C   UNL     1      98.694  71.707  68.556  1.00  0.00     0.227 C 
ENDROOT
BRANCH   1   2
ATOM      2  C   UNL     1      98.401  70.499  69.464  1.00  0.00     0.253 C 
BRANCH   2   3
ATOM      3  N   UNL     1      97.160  69.832  69.051  1.00  0.00    -0.348 N 
ATOM      4  H   UNL     1      96.324  70.388  69.344  1.00  0.00     0.345 HD
ATOM      5  H   UNL     1      97.108  68.882  69.486  1.00  0.00     0.345 HD
ATOM      6  H   UNL     1      97.150  69.716  68.010  1.00  0.00     0.345 HD
ENDBRANCH   2   3
BRANCH   2   7
ATOM      7  C   UNL     1      99.551  69.528  69.446  1.00  0.00     0.102 C 
ATOM      8  O   UNL     1     100.125  69.236  68.363  1.00  0.00    -0.544 OA
ATOM      9  O   UNL     1      99.996  68.958  70.632  1.00  0.00    -0.544 OA
ENDBRANCH   2   7
ENDBRANCH   1   2
BRANCH   1  10
ATOM     10  O   UNL     1      98.019  72.849  69.015  1.00  0.00    -0.390 OA
ATOM     11  H   UNL     1      98.121  73.542  68.310  1.00  0.00     0.210 HD
ENDBRANCH   1  10
TORSDOF 4
ENDMDL
MODEL 5
REMARK VINA RESULT:    -3.568     12.892     13.759
REMARK INTER + INTRA:          -4.380
REMARK INTER:                  -4.159
REMARK INTRA:                  -0.221
REMARK UNBOUND:                -0.186
REMARK SMILES [NH3+][C@H](CO)C(=O)[O-]
REMARK SMILES IDX 3 1 2 2 1 3 5 7 6 8 7 9 4 10
REMARK H PARENT 1 4 1 5 1 6 4 11
REMARK Flexibility Score: inf
ROOT
ATOM      1  C   UNL     1     101.623  68.984  75.070  1.00  0.00     0.227 C 
ENDROOT
BRANCH   1   2
ATOM      2  C   UNL     1     101.153  70.415  74.748  1.00  0.00     0.253 C 
BRANCH   2   3
ATOM      3  N   UNL     1     100.227  70.898  75.779  1.00  0.00    -0.348 N 
ATOM      4  H   UNL     1     100.217  71.943  75.809  1.00  0.00     0.345 HD
ATOM      5  H   UNL     1     100.517  70.532  76.715  1.00  0.00     0.345 HD
ATOM      6  H   UNL     1      99.260  70.549  75.577  1.00  0.00     0.345 HD
ENDBRANCH   2   3
BRANCH   2   7
ATOM      7  C   UNL     1     102.329  71.346  74.619  1.00  0.00     0.102 C 
ATOM      8  O   UNL     1     103.506  70.911  74.742  1.00  0.00    -0.544 OA
ATOM      9  O   UNL     1     102.121  72.692  74.349  1.00  0.00    -0.544 OA
ENDBRANCH   2   7
ENDBRANCH   1   2
BRANCH   1  10
ATOM     10  O   UNL     1     102.325  68.435  73.986  1.00  0.00    -0.390 OA
ATOM     11  H   UNL     1     102.106  67.467  73.967  1.00  0.00     0.210 HD
ENDBRANCH   1  10
TORSDOF 4
ENDMDL
MODEL 6
REMARK VINA RESULT:    -3.443      1.217      2.924
REMARK INTER + INTRA:          -4.233
REMARK INTER:                  -4.201
REMARK INTRA:                  -0.032
REMARK UNBOUND:                -0.186
REMARK SMILES [NH3+][C@H](CO)C(=O)[O-]
REMARK SMILES IDX 3 1 2 2 1 3 5 7 6 8 7 9 4 10
REMARK H PARENT 1 4 1 5 1 6 4 11
REMARK Flexibility Score: inf
ROOT
ATOM      1  C   UNL     1      92.093  80.838  68.561  1.00  0.00     0.227 C 
ENDROOT
BRANCH   1   2
ATOM      2  C   UNL     1      92.910  80.508  69.824  1.00  0.00     0.253 C 
BRANCH   2   3
ATOM      3  N   UNL     1      92.309  81.137  71.006  1.00  0.00    -0.348 N 
ATOM      4  H   UNL     1      91.295  80.891  71.083  1.00  0.00     0.345 HD
ATOM      5  H   UNL     1      92.404  82.177  70.941  1.00  0.00     0.345 HD
ATOM      6  H   UNL     1      92.808  80.818  71.870  1.00  0.00     0.345 HD
ENDBRANCH   2   3
BRANCH   2   7
ATOM      7  C   UNL     1      93.015  79.019  70.017  1.00  0.00     0.102 C 
ATOM      8  O   UNL     1      92.334  78.232  69.307  1.00  0.00    -0.544 OA
ATOM      9  O   UNL     1      93.880  78.503  70.974  1.00  0.00    -0.544 OA
ENDBRANCH   2   7
ENDBRANCH   1   2
BRANCH   1  10
ATOM     10  O   UNL     1      92.924  81.343  67.549  1.00  0.00    -0.390 OA
ATOM     11  H   UNL     1      93.350  82.163  67.914  1.00  0.00     0.210 HD
ENDBRANCH   1  10
TORSDOF 4
ENDMDL
MODEL 7
REMARK VINA RESULT:    -3.325     11.946     12.858
REMARK INTER + INTRA:          -4.094
REMARK INTER:                  -4.078
REMARK INTRA:                  -0.017
REMARK UNBOUND:                -0.186
REMARK SMILES [NH3+][C@H](CO)C(=O)[O-]
REMARK SMILES IDX 3 1 2 2 1 3 5 7 6 8 7 9 4 10
REMARK H PARENT 1 4 1 5 1 6 4 11
REMARK Flexibility Score: inf
ROOT
ATOM      1  C   UNL     1      98.355  70.038  69.667  1.00  0.00     0.227 C 
ENDROOT
BRANCH   1   2
ATOM      2  C   UNL     1      99.383  69.032  69.119  1.00  0.00     0.253 C 
BRANCH   2   3
ATOM      3  N   UNL     1     100.105  69.603  67.976  1.00  0.00    -0.348 N 
ATOM      4  H   UNL     1     101.101  69.801  68.226  1.00  0.00     0.345 HD
ATOM      5  H   UNL     1      99.645  70.494  67.676  1.00  0.00     0.345 HD
ATOM      6  H   UNL     1     100.078  68.935  67.170  1.00  0.00     0.345 HD
ENDBRANCH   2   3
BRANCH   2   7
ATOM      7  C   UNL     1     100.349  68.617  70.196  1.00  0.00     0.102 C 
ATOM      8  O   UNL     1     100.137  68.925  71.399  1.00  0.00    -0.544 OA
ATOM      9  O   UNL     1     101.477  67.875  69.869  1.00  0.00    -0.544 OA
ENDBRANCH   2   7
ENDBRANCH   1   2
BRANCH   1  10
ATOM     10  O   UNL     1      97.084  69.797  69.123  1.00  0.00    -0.390 OA
ATOM     11  H   UNL     1      97.168  69.913  68.140  1.00  0.00     0.210 HD
ENDBRANCH   1  10
TORSDOF 4
ENDMDL
MODEL 8
REMARK VINA RESULT:    -3.275     10.676     11.384
REMARK INTER + INTRA:          -4.036
REMARK INTER:                  -3.787
REMARK INTRA:                  -0.249
REMARK UNBOUND:                -0.186
REMARK SMILES [NH3+][C@H](CO)C(=O)[O-]
REMARK SMILES IDX 3 1 2 2 1 3 5 7 6 8 7 9 4 10
REMARK H PARENT 1 4 1 5 1 6 4 11
REMARK Flexibility Score: inf
ROOT
ATOM      1  C   UNL     1      97.152  70.612  69.068  1.00  0.00     0.227 C 
ENDROOT
BRANCH   1   2
ATOM      2  C   UNL     1      98.607  70.914  68.665  1.00  0.00     0.253 C 
BRANCH   2   3
ATOM      3  N   UNL     1      99.010  72.240  69.145  1.00  0.00    -0.348 N 
ATOM      4  H   UNL     1     100.021  72.246  69.415  1.00  0.00     0.345 HD
ATOM      5  H   UNL     1      98.433  72.507  69.976  1.00  0.00     0.345 HD
ATOM      6  H   UNL     1      98.850  72.953  68.394  1.00  0.00     0.345 HD
ENDBRANCH   2   3
BRANCH   2   7
ATOM      7  C   UNL     1      99.537  69.856  69.197  1.00  0.00     0.102 C 
ATOM      8  O   UNL     1     100.187  69.120  68.407  1.00  0.00    -0.544 OA
ATOM      9  O   UNL     1      99.694  69.697  70.568  1.00  0.00    -0.544 OA
ENDBRANCH   2   7
ENDBRANCH   1   2
BRANCH   1  10
ATOM     10  O   UNL     1      96.912  69.229  69.070  1.00  0.00    -0.390 OA
ATOM     11  H   UNL     1      96.503  69.010  68.192  1.00  0.00     0.210 HD
ENDBRANCH   1  10
TORSDOF 4
ENDMDL
MODEL 9
REMARK VINA RESULT:    -3.262      1.791      2.252
REMARK INTER + INTRA:          -4.020
REMARK INTER:                  -3.797
REMARK INTRA:                  -0.223
REMARK UNBOUND:                -0.186
REMARK SMILES [NH3+][C@H](CO)C(=O)[O-]
REMARK SMILES IDX 3 1 2 2 1 3 5 7 6 8 7 9 4 10
REMARK H PARENT 1 4 1 5 1 6 4 11
REMARK Flexibility Score: inf
ROOT
ATOM      1  C   UNL     1      93.302  78.719  69.128  1.00  0.00     0.227 C 
ENDROOT
BRANCH   1   2
ATOM      2  C   UNL     1      92.307  79.117  70.234  1.00  0.00     0.253 C 
BRANCH   2   3
ATOM      3  N   UNL     1      92.717  78.552  71.525  1.00  0.00    -0.348 N 
ATOM      4  H   UNL     1      93.559  77.941  71.413  1.00  0.00     0.345 HD
ATOM      5  H   UNL     1      91.935  77.986  71.928  1.00  0.00     0.345 HD
ATOM      6  H   UNL     1      92.940  79.325  72.195  1.00  0.00     0.345 HD
ENDBRANCH   2   3
BRANCH   2   7
ATOM      7  C   UNL     1      92.189  80.615  70.329  1.00  0.00     0.102 C 
ATOM      8  O   UNL     1      91.875  81.165  71.419  1.00  0.00    -0.544 OA
ATOM      9  O   UNL     1      92.439  81.403  69.213  1.00  0.00    -0.544 OA
ENDBRANCH   2   7
ENDBRANCH   1   2
BRANCH   1  10
ATOM     10  O   UNL     1      94.460  79.509  69.192  1.00  0.00    -0.390 OA
ATOM     11  H   UNL     1      94.194  80.370  69.610  1.00  0.00     0.210 HD
ENDBRANCH   1  10
TORSDOF 4
ENDMDL
