MODEL 1
REMARK VINA RESULT:    -1.137      0.000      0.000
REMARK INTER + INTRA:          -0.414
REMARK INTER:                  -1.736
REMARK INTRA:                   1.322
REMARK UNBOUND:                 1.322
REMARK SMILES CC1=CCC[C@@H](C)C(=O)C[C@H](C(C)C)C(=O)C1
REMARK SMILES IDX 8 1 9 2 6 3 7 4 5 5 4 6 3 7 2 8 1 9 10 11 11 12 15 13 16 14
REMARK SMILES IDX 17 15 12 17 13 18 14 19
REMARK H PARENT
REMARK Flexibility Score: 70.00
ROOT
ATOM      1  C   UNL     1      10.519  -4.964  -1.022  1.00  0.00     0.136 C 
ATOM      2  O   UNL     1      11.115  -4.052  -0.468  1.00  0.00    -0.299 OA
ENDROOT
BRANCH   1   3
ATOM      3  C   UNL     1       9.821  -6.003  -0.157  1.00  0.00     0.053 C 
ATOM      4  C   UNL     1      10.270  -7.421  -0.540  1.00  0.00     0.016 C 
BRANCH   3   5
ATOM      5  C   UNL     1       8.279  -5.874  -0.208  1.00  0.00     0.015 C 
BRANCH   5   6
ATOM      6  C   UNL     1       7.725  -4.456   0.046  1.00  0.00     0.028 C 
BRANCH   6   7
ATOM      7  C   UNL     1       6.999  -3.798  -1.107  1.00  0.00    -0.028 C 
ATOM      8  C   UNL     1       7.479  -2.809  -1.897  1.00  0.00    -0.070 CG0
ATOM      9  C   UNL     1       6.650  -2.395  -3.087  1.00  0.00     0.039 C 
ATOM     10  G   UNL     1       8.763  -2.056  -1.616  1.00  0.00     0.000 G0
ENDBRANCH   6   7
ENDBRANCH   5   6
ENDBRANCH   3   5
ENDBRANCH   1   3
BRANCH   1  11
ATOM     11  C   UNL     1      10.541  -5.020  -2.542  1.00  0.00     0.087 C 
BRANCH  11  12
ATOM     12  C   UNL     1       9.786  -3.859  -3.248  1.00  0.00     0.066 C 
BRANCH  12  13
ATOM     13  C   UNL     1       9.918  -2.573  -2.452  1.00  0.00     0.140 C 
ATOM     14  O   UNL     1      10.977  -1.961  -2.467  1.00  0.00    -0.299 OA
BRANCH  13  15
ATOM     15  C   UNL     1       8.772  -2.050  -1.618  1.00  0.00     0.106 CG0
ATOM     16  G   UNL     1       7.509  -2.829  -1.924  1.00  0.00     0.000 G0
ENDBRANCH  13  15
ENDBRANCH  12  13
BRANCH  12  17
ATOM     17  C   UNL     1      10.265  -3.656  -4.720  1.00  0.00    -0.006 C 
ATOM     18  C   UNL     1      10.972  -4.907  -5.272  1.00  0.00     0.008 C 
ATOM     19  C   UNL     1       9.088  -3.299  -5.647  1.00  0.00     0.008 C 
ENDBRANCH  12  17
ENDBRANCH  11  12
ENDBRANCH   1  11
TORSDOF 1
ENDMDL
MODEL 2
REMARK VINA RESULT:     0.490      1.695      3.838
REMARK INTER + INTRA:           2.070
REMARK INTER:                  -1.160
REMARK INTRA:                   3.230
REMARK UNBOUND:                 1.322
REMARK SMILES CC1=CCC[C@@H](C)C(=O)C[C@H](C(C)C)C(=O)C1
REMARK SMILES IDX 8 1 9 2 6 3 7 4 5 5 4 6 3 7 2 8 1 9 10 11 11 12 15 13 16 14
REMARK SMILES IDX 17 15 12 17 13 18 14 19
REMARK H PARENT
REMARK Flexibility Score: 70.00
ROOT
ATOM      1  C   UNL     1      10.358  -4.350  -2.858  1.00  0.00     0.136 C 
ATOM      2  O   UNL     1       9.910  -5.315  -3.458  1.00  0.00    -0.299 OA
ENDROOT
BRANCH   1   3
ATOM      3  C   UNL     1      10.262  -2.981  -3.515  1.00  0.00     0.053 C 
ATOM      4  C   UNL     1      10.926  -1.909  -2.639  1.00  0.00     0.016 C 
BRANCH   3   5
ATOM      5  C   UNL     1       8.804  -2.592  -3.860  1.00  0.00     0.015 C 
BRANCH   5   6
ATOM      6  C   UNL     1       7.720  -3.552  -3.325  1.00  0.00     0.028 C 
BRANCH   6   7
ATOM      7  C   UNL     1       6.852  -3.033  -2.200  1.00  0.00    -0.028 C 
ATOM      8  C   UNL     1       7.251  -2.784  -0.930  1.00  0.00    -0.070 CG0
ATOM      9  C   UNL     1       6.264  -2.127   0.001  1.00  0.00     0.039 C 
ATOM     10  G   UNL     1       8.604  -3.186  -0.379  1.00  0.00     0.000 G0
ENDBRANCH   6   7
ENDBRANCH   5   6
ENDBRANCH   3   5
ENDBRANCH   1   3
BRANCH   1  11
ATOM     11  C   UNL     1      11.012  -4.583  -1.505  1.00  0.00     0.087 C 
BRANCH  11  12
ATOM     12  C   UNL     1      10.129  -5.341  -0.475  1.00  0.00     0.066 C 
BRANCH  12  13
ATOM     13  C   UNL     1       8.770  -4.677  -0.347  1.00  0.00     0.140 C 
ATOM     14  O   UNL     1       7.770  -5.372  -0.231  1.00  0.00    -0.299 OA
BRANCH  13  15
ATOM     15  C   UNL     1       8.627  -3.174  -0.386  1.00  0.00     0.106 CG0
ATOM     16  G   UNL     1       7.261  -2.796  -0.923  1.00  0.00     0.000 G0
ENDBRANCH  13  15
ENDBRANCH  12  13
BRANCH  12  17
ATOM     17  C   UNL     1       9.981  -6.855  -0.827  1.00  0.00    -0.006 C 
ATOM     18  C   UNL     1      11.049  -7.714  -0.128  1.00  0.00     0.008 C 
ATOM     19  C   UNL     1       8.586  -7.384  -0.447  1.00  0.00     0.008 C 
ENDBRANCH  12  17
ENDBRANCH  11  12
ENDBRANCH   1  11
TORSDOF 1
ENDMDL
MODEL 3
REMARK VINA RESULT:     1.057      2.007      4.829
REMARK INTER + INTRA:           2.935
REMARK INTER:                   0.168
REMARK INTRA:                   2.767
REMARK UNBOUND:                 1.322
REMARK SMILES CC1=CCC[C@@H](C)C(=O)C[C@H](C(C)C)C(=O)C1
REMARK SMILES IDX 8 1 9 2 6 3 7 4 5 5 4 6 3 7 2 8 1 9 10 11 11 12 15 13 16 14
REMARK SMILES IDX 17 15 12 17 13 18 14 19
REMARK H PARENT
REMARK Flexibility Score: 70.00
ROOT
ATOM      1  C   UNL     1       7.918  -2.836  -3.802  1.00  0.00     0.136 C 
ATOM      2  O   UNL     1       8.148  -1.875  -3.084  1.00  0.00    -0.299 OA
ENDROOT
BRANCH   1   3
ATOM      3  C   UNL     1       8.827  -3.079  -4.998  1.00  0.00     0.053 C 
ATOM      4  C   UNL     1       8.637  -4.502  -5.545  1.00  0.00     0.016 C 
BRANCH   3   5
ATOM      5  C   UNL     1      10.315  -2.801  -4.676  1.00  0.00     0.015 C 
BRANCH   5   6
ATOM      6  C   UNL     1      11.003  -3.847  -3.774  1.00  0.00     0.028 C 
BRANCH   6   7
ATOM      7  C   UNL     1      10.967  -3.582  -2.284  1.00  0.00    -0.028 C 
ATOM      8  C   UNL     1      10.053  -4.060  -1.408  1.00  0.00    -0.070 CG0
ATOM      9  C   UNL     1      10.282  -3.800   0.060  1.00  0.00     0.039 C 
ATOM     10  G   UNL     1       8.786  -4.781  -1.822  1.00  0.00     0.000 G0
ENDBRANCH   6   7
ENDBRANCH   5   6
ENDBRANCH   3   5
ENDBRANCH   1   3
BRANCH   1  11
ATOM     11  C   UNL     1       6.718  -3.710  -3.473  1.00  0.00     0.087 C 
BRANCH  11  12
ATOM     12  C   UNL     1       6.362  -3.789  -1.962  1.00  0.00     0.066 C 
BRANCH  12  13
ATOM     13  C   UNL     1       7.553  -4.277  -1.158  1.00  0.00     0.140 C 
ATOM     14  O   UNL     1       7.520  -4.217   0.063  1.00  0.00    -0.299 OA
BRANCH  13  15
ATOM     15  C   UNL     1       8.790  -4.812  -1.840  1.00  0.00     0.106 CG0
ATOM     16  G   UNL     1      10.018  -4.082  -1.335  1.00  0.00     0.000 G0
ENDBRANCH  13  15
ENDBRANCH  12  13
BRANCH  12  17
ATOM     17  C   UNL     1       5.836  -2.426  -1.410  1.00  0.00    -0.006 C 
ATOM     18  C   UNL     1       4.663  -1.882  -2.245  1.00  0.00     0.008 C 
ATOM     19  C   UNL     1       5.386  -2.554   0.058  1.00  0.00     0.008 C 
ENDBRANCH  12  17
ENDBRANCH  11  12
ENDBRANCH   1  11
TORSDOF 1
ENDMDL
MODEL 4
REMARK VINA RESULT:     1.745      1.771      2.490
REMARK INTER + INTRA:           3.985
REMARK INTER:                  -0.717
REMARK INTRA:                   4.701
REMARK UNBOUND:                 1.322
REMARK SMILES CC1=CCC[C@@H](C)C(=O)C[C@H](C(C)C)C(=O)C1
REMARK SMILES IDX 8 1 9 2 6 3 7 4 5 5 4 6 3 7 2 8 1 9 10 11 11 12 15 13 16 14
REMARK SMILES IDX 17 15 12 17 13 18 14 19
REMARK H PARENT
REMARK Flexibility Score: 70.00
ROOT
ATOM      1  C   UNL     1       9.507  -3.186  -2.515  1.00  0.00     0.136 C 
ATOM      2  O   UNL     1       9.333  -1.990  -2.333  1.00  0.00    -0.299 OA
ENDROOT
BRANCH   1   3
ATOM      3  C   UNL     1       9.384  -4.124  -1.323  1.00  0.00     0.053 C 
ATOM      4  C   UNL     1      10.363  -5.300  -1.454  1.00  0.00     0.016 C 
BRANCH   3   5
ATOM      5  C   UNL     1       7.935  -4.627  -1.114  1.00  0.00     0.015 C 
BRANCH   5   6
ATOM      6  C   UNL     1       7.028  -3.699  -0.278  1.00  0.00     0.028 C 
BRANCH   6   7
ATOM      7  C   UNL     1       5.939  -2.964  -1.029  1.00  0.00    -0.028 C 
ATOM      8  C   UNL     1       6.028  -2.464  -2.284  1.00  0.00    -0.070 CG0
ATOM      9  C   UNL     1       4.777  -1.895  -2.905  1.00  0.00     0.039 C 
ATOM     10  G   UNL     1       7.322  -2.385  -3.069  1.00  0.00     0.000 G0
ENDBRANCH   6   7
ENDBRANCH   5   6
ENDBRANCH   3   5
ENDBRANCH   1   3
BRANCH   1  11
ATOM     11  C   UNL     1       9.866  -3.656  -3.916  1.00  0.00     0.087 C 
BRANCH  11  12
ATOM     12  C   UNL     1       8.654  -3.847  -4.871  1.00  0.00     0.066 C 
BRANCH  12  13
ATOM     13  C   UNL     1       7.361  -3.460  -4.177  1.00  0.00     0.140 C 
ATOM     14  O   UNL     1       6.325  -4.042  -4.468  1.00  0.00    -0.299 OA
BRANCH  13  15
ATOM     15  C   UNL     1       7.325  -2.351  -3.153  1.00  0.00     0.106 CG0
ATOM     16  G   UNL     1       6.098  -2.493  -2.275  1.00  0.00     0.000 G0
ENDBRANCH  13  15
ENDBRANCH  12  13
BRANCH  12  17
ATOM     17  C   UNL     1       8.830  -3.059  -6.207  1.00  0.00    -0.006 C 
ATOM     18  C   UNL     1       9.833  -1.901  -6.065  1.00  0.00     0.008 C 
ATOM     19  C   UNL     1       9.296  -3.987  -7.346  1.00  0.00     0.008 C 
ENDBRANCH  12  17
ENDBRANCH  11  12
ENDBRANCH   1  11
TORSDOF 1
ENDMDL
