MODEL 1
REMARK VINA RESULT:    -7.379      0.000      0.000
REMARK INTER + INTRA:          -9.197
REMARK INTER:                  -8.888
REMARK INTRA:                  -0.309
REMARK UNBOUND:                -0.309
REMARK SMILES O=c1c(O)c(-c2ccc(O)c(O)c2)oc2cc(O)cc(O)c12
REMARK SMILES IDX 5 1 3 2 2 3 1 4 22 5 20 6 19 7 17 8 16 9 15 10 14 11 6 12
REMARK SMILES IDX 7 13 8 14 9 15 13 16 11 17 10 18 12 20 4 22 21 24 18 26
REMARK H PARENT 10 19 12 21 4 23 21 25 18 27
REMARK Flexibility Score: inf
ROOT
ATOM      1  C   UNL     1     -31.931  13.576   1.744  1.00  0.00     0.180 A 
ATOM      2  C   UNL     1     -31.222  14.528   2.498  1.00  0.00     0.208 A 
ATOM      3  C   UNL     1     -29.823  14.580   2.386  1.00  0.00     0.238 A 
ATOM      4  O   UNL     1     -29.203  15.482   3.006  1.00  0.00    -0.285 OA
ATOM      5  C   UNL     1     -29.146  13.644   1.567  1.00  0.00     0.111 A 
ATOM      6  C   UNL     1     -27.728  13.575   1.415  1.00  0.00     0.134 A 
ATOM      7  C   UNL     1     -27.175  12.675   0.495  1.00  0.00     0.093 A 
ATOM      8  C   UNL     1     -27.981  11.800  -0.230  1.00  0.00     0.123 A 
ATOM      9  C   UNL     1     -29.365  11.820  -0.049  1.00  0.00     0.094 A 
ATOM     10  C   UNL     1     -29.949  12.732   0.833  1.00  0.00     0.146 A 
ATOM     11  O   UNL     1     -31.270  12.733   0.960  1.00  0.00    -0.452 OA
ENDROOT
BRANCH   1  12
ATOM     12  C   UNL     1     -33.407  13.469   1.797  1.00  0.00     0.025 A 
ATOM     13  C   UNL     1     -34.045  12.559   2.658  1.00  0.00     0.016 A 
ATOM     14  C   UNL     1     -35.441  12.493   2.707  1.00  0.00     0.051 A 
ATOM     15  C   UNL     1     -36.216  13.343   1.908  1.00  0.00     0.157 A 
ATOM     16  C   UNL     1     -34.190  14.332   1.013  1.00  0.00     0.062 A 
ATOM     17  C   UNL     1     -35.590  14.267   1.063  1.00  0.00     0.158 A 
BRANCH  15  18
ATOM     18  O   UNL     1     -37.608  13.279   1.954  1.00  0.00    -0.504 OA
ATOM     19  H   UNL     1     -38.178  13.602   1.181  1.00  0.00     0.293 HD
ENDBRANCH  15  18
BRANCH  17  20
ATOM     20  O   UNL     1     -36.364  15.116   0.275  1.00  0.00    -0.504 OA
ATOM     21  H   UNL     1     -35.974  15.600  -0.525  1.00  0.00     0.293 HD
ENDBRANCH  17  20
ENDBRANCH   1  12
BRANCH   2  22
ATOM     22  O   UNL     1     -31.904  15.393   3.359  1.00  0.00    -0.502 OA
ATOM     23  H   UNL     1     -31.535  15.660   4.263  1.00  0.00     0.293 HD
ENDBRANCH   2  22
BRANCH   6  24
ATOM     24  O   UNL     1     -26.822  14.342   2.154  1.00  0.00    -0.507 OA
ATOM     25  H   UNL     1     -26.179  13.976   2.839  1.00  0.00     0.293 HD
ENDBRANCH   6  24
BRANCH   8  26
ATOM     26  O   UNL     1     -27.395  10.906  -1.124  1.00  0.00    -0.508 OA
ATOM     27  H   UNL     1     -27.558  10.971  -2.122  1.00  0.00     0.293 HD
ENDBRANCH   8  26
TORSDOF 6
ENDMDL
MODEL 2
REMARK VINA RESULT:    -7.334      1.032      1.736
REMARK INTER + INTRA:          -9.144
REMARK INTER:                  -8.826
REMARK INTRA:                  -0.318
REMARK UNBOUND:                -0.309
REMARK SMILES O=c1c(O)c(-c2ccc(O)c(O)c2)oc2cc(O)cc(O)c12
REMARK SMILES IDX 5 1 3 2 2 3 1 4 22 5 20 6 19 7 17 8 16 9 15 10 14 11 6 12
REMARK SMILES IDX 7 13 8 14 9 15 13 16 11 17 10 18 12 20 4 22 21 24 18 26
REMARK H PARENT 10 19 12 21 4 23 21 25 18 27
REMARK Flexibility Score: inf
ROOT
ATOM      1  C   UNL     1     -31.900  14.079   0.688  1.00  0.00     0.180 A 
ATOM      2  C   UNL     1     -31.101  14.958   1.440  1.00  0.00     0.208 A 
ATOM      3  C   UNL     1     -29.725  14.699   1.554  1.00  0.00     0.238 A 
ATOM      4  O   UNL     1     -29.005  15.530   2.165  1.00  0.00    -0.285 OA
ATOM      5  C   UNL     1     -29.176  13.536   0.963  1.00  0.00     0.111 A 
ATOM      6  C   UNL     1     -27.804  13.150   1.053  1.00  0.00     0.134 A 
ATOM      7  C   UNL     1     -27.352  12.034   0.339  1.00  0.00     0.093 A 
ATOM      8  C   UNL     1     -28.231  11.253  -0.409  1.00  0.00     0.123 A 
ATOM      9  C   UNL     1     -29.585  11.588  -0.460  1.00  0.00     0.094 A 
ATOM     10  C   UNL     1     -30.058  12.718   0.211  1.00  0.00     0.146 A 
ATOM     11  O   UNL     1     -31.350  13.014   0.119  1.00  0.00    -0.452 OA
ENDROOT
BRANCH   1  12
ATOM     12  C   UNL     1     -33.354  14.292   0.510  1.00  0.00     0.025 A 
ATOM     13  C   UNL     1     -33.866  14.933  -0.633  1.00  0.00     0.016 A 
ATOM     14  C   UNL     1     -35.244  15.102  -0.791  1.00  0.00     0.051 A 
ATOM     15  C   UNL     1     -36.130  14.621   0.182  1.00  0.00     0.157 A 
ATOM     16  C   UNL     1     -34.248  13.795   1.472  1.00  0.00     0.062 A 
ATOM     17  C   UNL     1     -35.632  13.964   1.314  1.00  0.00     0.158 A 
BRANCH  15  18
ATOM     18  O   UNL     1     -37.506  14.789   0.029  1.00  0.00    -0.504 OA
ATOM     19  H   UNL     1     -37.972  14.571  -0.843  1.00  0.00     0.293 HD
ENDBRANCH  15  18
BRANCH  17  20
ATOM     20  O   UNL     1     -36.516  13.481   2.276  1.00  0.00    -0.504 OA
ATOM     21  H   UNL     1     -37.034  14.107   2.882  1.00  0.00     0.293 HD
ENDBRANCH  17  20
ENDBRANCH   1  12
BRANCH   2  22
ATOM     22  O   UNL     1     -31.677  16.060   2.079  1.00  0.00    -0.502 OA
ATOM     23  H   UNL     1     -32.650  16.311   1.958  1.00  0.00     0.293 HD
ENDBRANCH   2  22
BRANCH   6  24
ATOM     24  O   UNL     1     -26.855  13.807   1.843  1.00  0.00    -0.507 OA
ATOM     25  H   UNL     1     -27.063  14.536   2.509  1.00  0.00     0.293 HD
ENDBRANCH   6  24
BRANCH   8  26
ATOM     26  O   UNL     1     -27.749  10.139  -1.093  1.00  0.00    -0.508 OA
ATOM     27  H   UNL     1     -27.665   9.236  -0.642  1.00  0.00     0.293 HD
ENDBRANCH   8  26
TORSDOF 6
ENDMDL
MODEL 3
REMARK VINA RESULT:    -7.316      2.302      6.290
REMARK INTER + INTRA:          -9.122
REMARK INTER:                  -8.831
REMARK INTRA:                  -0.290
REMARK UNBOUND:                -0.309
REMARK SMILES O=c1c(O)c(-c2ccc(O)c(O)c2)oc2cc(O)cc(O)c12
REMARK SMILES IDX 5 1 3 2 2 3 1 4 22 5 20 6 19 7 17 8 16 9 15 10 14 11 6 12
REMARK SMILES IDX 7 13 8 14 9 15 13 16 11 17 10 18 12 20 4 22 21 24 18 26
REMARK H PARENT 10 19 12 21 4 23 21 25 18 27
REMARK Flexibility Score: inf
ROOT
ATOM      1  C   UNL     1     -30.610  14.202   1.634  1.00  0.00     0.180 A 
ATOM      2  C   UNL     1     -31.761  14.702   2.268  1.00  0.00     0.208 A 
ATOM      3  C   UNL     1     -32.968  13.994   2.144  1.00  0.00     0.238 A 
ATOM      4  O   UNL     1     -33.975  14.407   2.775  1.00  0.00    -0.285 OA
ATOM      5  C   UNL     1     -33.023  12.829   1.342  1.00  0.00     0.111 A 
ATOM      6  C   UNL     1     -34.203  12.059   1.108  1.00  0.00     0.134 A 
ATOM      7  C   UNL     1     -34.115  10.864   0.383  1.00  0.00     0.093 A 
ATOM      8  C   UNL     1     -32.907  10.444  -0.171  1.00  0.00     0.123 A 
ATOM      9  C   UNL     1     -31.758  11.217   0.004  1.00  0.00     0.094 A 
ATOM     10  C   UNL     1     -31.806  12.394   0.755  1.00  0.00     0.146 A 
ATOM     11  O   UNL     1     -30.686  13.089   0.916  1.00  0.00    -0.452 OA
ENDROOT
BRANCH   1  12
ATOM     12  C   UNL     1     -29.299  14.882   1.731  1.00  0.00     0.025 A 
ATOM     13  C   UNL     1     -28.505  14.782   2.888  1.00  0.00     0.016 A 
ATOM     14  C   UNL     1     -27.260  15.414   2.946  1.00  0.00     0.051 A 
ATOM     15  C   UNL     1     -26.784  16.141   1.848  1.00  0.00     0.157 A 
ATOM     16  C   UNL     1     -28.807  15.595   0.625  1.00  0.00     0.062 A 
ATOM     17  C   UNL     1     -27.558  16.229   0.684  1.00  0.00     0.158 A 
BRANCH  15  18
ATOM     18  O   UNL     1     -25.543  16.773   1.903  1.00  0.00    -0.504 OA
ATOM     19  H   UNL     1     -25.465  17.780   1.991  1.00  0.00     0.293 HD
ENDBRANCH  15  18
BRANCH  17  20
ATOM     20  O   UNL     1     -27.078  16.947  -0.410  1.00  0.00    -0.504 OA
ATOM     21  H   UNL     1     -26.107  17.229  -0.475  1.00  0.00     0.293 HD
ENDBRANCH  17  20
ENDBRANCH   1  12
BRANCH   2  22
ATOM     22  O   UNL     1     -31.703  15.896   2.993  1.00  0.00    -0.502 OA
ATOM     23  H   UNL     1     -32.416  16.160   3.662  1.00  0.00     0.293 HD
ENDBRANCH   2  22
BRANCH   6  24
ATOM     24  O   UNL     1     -35.480  12.431   1.540  1.00  0.00    -0.507 OA
ATOM     25  H   UNL     1     -36.314  12.393   0.975  1.00  0.00     0.293 HD
ENDBRANCH   6  24
BRANCH   8  26
ATOM     26  O   UNL     1     -32.860   9.259  -0.901  1.00  0.00    -0.508 OA
ATOM     27  H   UNL     1     -32.693   9.258  -1.900  1.00  0.00     0.293 HD
ENDBRANCH   8  26
TORSDOF 6
ENDMDL
MODEL 4
REMARK VINA RESULT:    -7.215      2.125      6.904
REMARK INTER + INTRA:          -9.000
REMARK INTER:                  -8.815
REMARK INTRA:                  -0.185
REMARK UNBOUND:                -0.309
REMARK SMILES O=c1c(O)c(-c2ccc(O)c(O)c2)oc2cc(O)cc(O)c12
REMARK SMILES IDX 5 1 3 2 2 3 1 4 22 5 20 6 19 7 17 8 16 9 15 10 14 11 6 12
REMARK SMILES IDX 7 13 8 14 9 15 13 16 11 17 10 18 12 20 4 22 21 24 18 26
REMARK H PARENT 10 19 12 21 4 23 21 25 18 27
REMARK Flexibility Score: inf
ROOT
ATOM      1  C   UNL     1     -30.407  13.546   1.082  1.00  0.00     0.180 A 
ATOM      2  C   UNL     1     -30.382  12.515   0.126  1.00  0.00     0.208 A 
ATOM      3  C   UNL     1     -31.545  11.756  -0.088  1.00  0.00     0.238 A 
ATOM      4  O   UNL     1     -31.537  10.886  -0.996  1.00  0.00    -0.285 OA
ATOM      5  C   UNL     1     -32.699  12.000   0.695  1.00  0.00     0.111 A 
ATOM      6  C   UNL     1     -33.918  11.262   0.596  1.00  0.00     0.134 A 
ATOM      7  C   UNL     1     -35.030  11.662   1.348  1.00  0.00     0.093 A 
ATOM      8  C   UNL     1     -34.950  12.728   2.241  1.00  0.00     0.123 A 
ATOM      9  C   UNL     1     -33.748  13.422   2.388  1.00  0.00     0.094 A 
ATOM     10  C   UNL     1     -32.633  13.072   1.623  1.00  0.00     0.146 A 
ATOM     11  O   UNL     1     -31.514  13.771   1.778  1.00  0.00    -0.452 OA
ENDROOT
BRANCH   1  12
ATOM     12  C   UNL     1     -29.227  14.397   1.353  1.00  0.00     0.025 A 
ATOM     13  C   UNL     1     -28.523  14.310   2.567  1.00  0.00     0.016 A 
ATOM     14  C   UNL     1     -27.398  15.108   2.791  1.00  0.00     0.051 A 
ATOM     15  C   UNL     1     -26.952  15.993   1.801  1.00  0.00     0.157 A 
ATOM     16  C   UNL     1     -28.763  15.272   0.356  1.00  0.00     0.062 A 
ATOM     17  C   UNL     1     -27.633  16.073   0.580  1.00  0.00     0.158 A 
BRANCH  15  18
ATOM     18  O   UNL     1     -25.831  16.792   2.021  1.00  0.00    -0.504 OA
ATOM     19  H   UNL     1     -25.048  16.794   1.377  1.00  0.00     0.293 HD
ENDBRANCH  15  18
BRANCH  17  20
ATOM     20  O   UNL     1     -27.183  16.949  -0.405  1.00  0.00    -0.504 OA
ATOM     21  H   UNL     1     -27.521  16.893  -1.359  1.00  0.00     0.293 HD
ENDBRANCH  17  20
ENDBRANCH   1  12
BRANCH   2  22
ATOM     22  O   UNL     1     -29.209  12.241  -0.584  1.00  0.00    -0.502 OA
ATOM     23  H   UNL     1     -28.290  12.327  -0.167  1.00  0.00     0.293 HD
ENDBRANCH   2  22
BRANCH   6  24
ATOM     24  O   UNL     1     -34.083  10.124  -0.200  1.00  0.00    -0.507 OA
ATOM     25  H   UNL     1     -34.034   9.174   0.134  1.00  0.00     0.293 HD
ENDBRANCH   6  24
BRANCH   8  26
ATOM     26  O   UNL     1     -36.072  13.087   2.987  1.00  0.00    -0.508 OA
ATOM     27  H   UNL     1     -36.368  12.547   3.791  1.00  0.00     0.293 HD
ENDBRANCH   8  26
TORSDOF 6
ENDMDL
MODEL 5
REMARK VINA RESULT:    -7.055      1.757      2.625
REMARK INTER + INTRA:          -8.807
REMARK INTER:                  -8.982
REMARK INTRA:                   0.175
REMARK UNBOUND:                -0.309
REMARK SMILES O=c1c(O)c(-c2ccc(O)c(O)c2)oc2cc(O)cc(O)c12
REMARK SMILES IDX 5 1 3 2 2 3 1 4 22 5 20 6 19 7 17 8 16 9 15 10 14 11 6 12
REMARK SMILES IDX 7 13 8 14 9 15 13 16 11 17 10 18 12 20 4 22 21 24 18 26
REMARK H PARENT 10 19 12 21 4 23 21 25 18 27
REMARK Flexibility Score: inf
ROOT
ATOM      1  C   UNL     1     -33.442  13.106   2.011  1.00  0.00     0.180 A 
ATOM      2  C   UNL     1     -33.116  14.368   2.538  1.00  0.00     0.208 A 
ATOM      3  C   UNL     1     -31.869  14.935   2.226  1.00  0.00     0.238 A 
ATOM      4  O   UNL     1     -31.616  16.096   2.640  1.00  0.00    -0.285 OA
ATOM      5  C   UNL     1     -30.943  14.211   1.439  1.00  0.00     0.111 A 
ATOM      6  C   UNL     1     -29.633  14.669   1.098  1.00  0.00     0.134 A 
ATOM      7  C   UNL     1     -28.843  13.913   0.224  1.00  0.00     0.093 A 
ATOM      8  C   UNL     1     -29.286  12.687  -0.271  1.00  0.00     0.123 A 
ATOM      9  C   UNL     1     -30.541  12.203   0.099  1.00  0.00     0.094 A 
ATOM     10  C   UNL     1     -31.368  12.953   0.938  1.00  0.00     0.146 A 
ATOM     11  O   UNL     1     -32.564  12.465   1.248  1.00  0.00    -0.452 OA
ENDROOT
BRANCH   1  12
ATOM     12  C   UNL     1     -34.740  12.450   2.282  1.00  0.00     0.025 A 
ATOM     13  C   UNL     1     -35.929  13.193   2.388  1.00  0.00     0.016 A 
ATOM     14  C   UNL     1     -37.147  12.549   2.621  1.00  0.00     0.051 A 
ATOM     15  C   UNL     1     -37.197  11.154   2.736  1.00  0.00     0.157 A 
ATOM     16  C   UNL     1     -34.800  11.050   2.378  1.00  0.00     0.062 A 
ATOM     17  C   UNL     1     -36.022  10.402   2.610  1.00  0.00     0.158 A 
BRANCH  15  18
ATOM     18  O   UNL     1     -38.410  10.507   2.970  1.00  0.00    -0.504 OA
ATOM     19  H   UNL     1     -38.997  10.751   3.759  1.00  0.00     0.293 HD
ENDBRANCH  15  18
BRANCH  17  20
ATOM     20  O   UNL     1     -36.076   9.014   2.718  1.00  0.00    -0.504 OA
ATOM     21  H   UNL     1     -36.685   8.557   3.387  1.00  0.00     0.293 HD
ENDBRANCH  17  20
ENDBRANCH   1  12
BRANCH   2  22
ATOM     22  O   UNL     1     -34.015  15.034   3.376  1.00  0.00    -0.502 OA
ATOM     23  H   UNL     1     -34.936  15.318   3.067  1.00  0.00     0.293 HD
ENDBRANCH   2  22
BRANCH   6  24
ATOM     24  O   UNL     1     -29.055  15.836   1.606  1.00  0.00    -0.507 OA
ATOM     25  H   UNL     1     -28.846  16.661   1.064  1.00  0.00     0.293 HD
ENDBRANCH   6  24
BRANCH   8  26
ATOM     26  O   UNL     1     -28.465  11.953  -1.125  1.00  0.00    -0.508 OA
ATOM     27  H   UNL     1     -28.608  11.954  -2.127  1.00  0.00     0.293 HD
ENDBRANCH   8  26
TORSDOF 6
ENDMDL
MODEL 6
REMARK VINA RESULT:    -6.819      1.413      3.296
REMARK INTER + INTRA:          -8.523
REMARK INTER:                  -8.206
REMARK INTRA:                  -0.317
REMARK UNBOUND:                -0.309
REMARK SMILES O=c1c(O)c(-c2ccc(O)c(O)c2)oc2cc(O)cc(O)c12
REMARK SMILES IDX 5 1 3 2 2 3 1 4 22 5 20 6 19 7 17 8 16 9 15 10 14 11 6 12
REMARK SMILES IDX 7 13 8 14 9 15 13 16 11 17 10 18 12 20 4 22 21 24 18 26
REMARK H PARENT 10 19 12 21 4 23 21 25 18 27
REMARK Flexibility Score: inf
ROOT
ATOM      1  C   UNL     1     -32.032  13.450   0.366  1.00  0.00     0.180 A 
ATOM      2  C   UNL     1     -31.573  12.279  -0.263  1.00  0.00     0.208 A 
ATOM      3  C   UNL     1     -30.224  11.914  -0.122  1.00  0.00     0.238 A 
ATOM      4  O   UNL     1     -29.839  10.827  -0.625  1.00  0.00    -0.285 OA
ATOM      5  C   UNL     1     -29.338  12.752   0.596  1.00  0.00     0.111 A 
ATOM      6  C   UNL     1     -27.942  12.505   0.765  1.00  0.00     0.134 A 
ATOM      7  C   UNL     1     -27.185  13.349   1.586  1.00  0.00     0.093 A 
ATOM      8  C   UNL     1     -27.756  14.465   2.193  1.00  0.00     0.123 A 
ATOM      9  C   UNL     1     -29.107  14.749   1.992  1.00  0.00     0.094 A 
ATOM     10  C   UNL     1     -29.898  13.904   1.209  1.00  0.00     0.146 A 
ATOM     11  O   UNL     1     -31.184  14.199   1.060  1.00  0.00    -0.452 OA
ENDROOT
BRANCH   1  12
ATOM     12  C   UNL     1     -33.441  13.892   0.276  1.00  0.00     0.025 A 
ATOM     13  C   UNL     1     -33.903  14.654  -0.812  1.00  0.00     0.016 A 
ATOM     14  C   UNL     1     -35.244  15.040  -0.886  1.00  0.00     0.051 A 
ATOM     15  C   UNL     1     -36.144  14.660   0.117  1.00  0.00     0.157 A 
ATOM     16  C   UNL     1     -34.354  13.497   1.268  1.00  0.00     0.062 A 
ATOM     17  C   UNL     1     -35.700  13.883   1.194  1.00  0.00     0.158 A 
BRANCH  15  18
ATOM     18  O   UNL     1     -37.483  15.044   0.047  1.00  0.00    -0.504 OA
ATOM     19  H   UNL     1     -38.186  14.625   0.644  1.00  0.00     0.293 HD
ENDBRANCH  15  18
BRANCH  17  20
ATOM     20  O   UNL     1     -36.600  13.500   2.186  1.00  0.00    -0.504 OA
ATOM     21  H   UNL     1     -36.733  14.055   3.024  1.00  0.00     0.293 HD
ENDBRANCH  17  20
ENDBRANCH   1  12
BRANCH   2  22
ATOM     22  O   UNL     1     -32.447  11.505  -1.032  1.00  0.00    -0.502 OA
ATOM     23  H   UNL     1     -32.948  11.880  -1.827  1.00  0.00     0.293 HD
ENDBRANCH   2  22
BRANCH   6  24
ATOM     24  O   UNL     1     -27.249  11.467   0.133  1.00  0.00    -0.507 OA
ATOM     25  H   UNL     1     -26.506  10.929   0.552  1.00  0.00     0.293 HD
ENDBRANCH   6  24
BRANCH   8  26
ATOM     26  O   UNL     1     -26.968  15.293   2.990  1.00  0.00    -0.508 OA
ATOM     27  H   UNL     1     -26.682  16.214   2.678  1.00  0.00     0.293 HD
ENDBRANCH   8  26
TORSDOF 6
ENDMDL
MODEL 7
REMARK VINA RESULT:    -6.737      2.208      7.015
REMARK INTER + INTRA:          -8.424
REMARK INTER:                  -8.171
REMARK INTRA:                  -0.253
REMARK UNBOUND:                -0.309
REMARK SMILES O=c1c(O)c(-c2ccc(O)c(O)c2)oc2cc(O)cc(O)c12
REMARK SMILES IDX 5 1 3 2 2 3 1 4 22 5 20 6 19 7 17 8 16 9 15 10 14 11 6 12
REMARK SMILES IDX 7 13 8 14 9 15 13 16 11 17 10 18 12 20 4 22 21 24 18 26
REMARK H PARENT 10 19 12 21 4 23 21 25 18 27
REMARK Flexibility Score: inf
ROOT
ATOM      1  C   UNL     1     -31.062  13.320   0.634  1.00  0.00     0.180 A 
ATOM      2  C   UNL     1     -31.114  12.214  -0.234  1.00  0.00     0.208 A 
ATOM      3  C   UNL     1     -32.255  11.395  -0.226  1.00  0.00     0.238 A 
ATOM      4  O   UNL     1     -32.325  10.453  -1.056  1.00  0.00    -0.285 OA
ATOM      5  C   UNL     1     -33.304  11.657   0.688  1.00  0.00     0.111 A 
ATOM      6  C   UNL     1     -34.487  10.866   0.815  1.00  0.00     0.134 A 
ATOM      7  C   UNL     1     -35.506  11.282   1.680  1.00  0.00     0.093 A 
ATOM      8  C   UNL     1     -35.362  12.422   2.468  1.00  0.00     0.123 A 
ATOM      9  C   UNL     1     -34.187  13.173   2.393  1.00  0.00     0.094 A 
ATOM     10  C   UNL     1     -33.168  12.804   1.512  1.00  0.00     0.146 A 
ATOM     11  O   UNL     1     -32.077  13.558   1.456  1.00  0.00    -0.452 OA
ENDROOT
BRANCH   1  12
ATOM     12  C   UNL     1     -29.902  14.237   0.673  1.00  0.00     0.025 A 
ATOM     13  C   UNL     1     -29.650  15.145  -0.371  1.00  0.00     0.016 A 
ATOM     14  C   UNL     1     -28.561  16.019  -0.300  1.00  0.00     0.051 A 
ATOM     15  C   UNL     1     -27.718  16.007   0.819  1.00  0.00     0.157 A 
ATOM     16  C   UNL     1     -29.065  14.244   1.801  1.00  0.00     0.062 A 
ATOM     17  C   UNL     1     -27.972  15.121   1.872  1.00  0.00     0.158 A 
BRANCH  15  18
ATOM     18  O   UNL     1     -26.630  16.876   0.892  1.00  0.00    -0.504 OA
ATOM     19  H   UNL     1     -26.382  17.342   1.757  1.00  0.00     0.293 HD
ENDBRANCH  15  18
BRANCH  17  20
ATOM     20  O   UNL     1     -27.136  15.117   2.987  1.00  0.00    -0.504 OA
ATOM     21  H   UNL     1     -27.128  14.343   3.642  1.00  0.00     0.293 HD
ENDBRANCH  17  20
ENDBRANCH   1  12
BRANCH   2  22
ATOM     22  O   UNL     1     -30.034  11.928  -1.074  1.00  0.00    -0.502 OA
ATOM     23  H   UNL     1     -30.157  11.575  -2.015  1.00  0.00     0.293 HD
ENDBRANCH   2  22
BRANCH   6  24
ATOM     24  O   UNL     1     -34.698   9.660   0.140  1.00  0.00    -0.507 OA
ATOM     25  H   UNL     1     -34.125   9.310  -0.613  1.00  0.00     0.293 HD
ENDBRANCH   6  24
BRANCH   8  26
ATOM     26  O   UNL     1     -36.390  12.797   3.331  1.00  0.00    -0.508 OA
ATOM     27  H   UNL     1     -36.520  13.761   3.612  1.00  0.00     0.293 HD
ENDBRANCH   8  26
TORSDOF 6
ENDMDL
MODEL 8
REMARK VINA RESULT:    -6.635      2.022      6.833
REMARK INTER + INTRA:          -8.301
REMARK INTER:                  -8.002
REMARK INTRA:                  -0.299
REMARK UNBOUND:                -0.309
REMARK SMILES O=c1c(O)c(-c2ccc(O)c(O)c2)oc2cc(O)cc(O)c12
REMARK SMILES IDX 5 1 3 2 2 3 1 4 22 5 20 6 19 7 17 8 16 9 15 10 14 11 6 12
REMARK SMILES IDX 7 13 8 14 9 15 13 16 11 17 10 18 12 20 4 22 21 24 18 26
REMARK H PARENT 10 19 12 21 4 23 21 25 18 27
REMARK Flexibility Score: inf
ROOT
ATOM      1  C   UNL     1     -32.640  13.369   1.192  1.00  0.00     0.180 A 
ATOM      2  C   UNL     1     -33.452  14.423   1.647  1.00  0.00     0.208 A 
ATOM      3  C   UNL     1     -34.730  14.129   2.150  1.00  0.00     0.238 A 
ATOM      4  O   UNL     1     -35.420  15.068   2.623  1.00  0.00    -0.285 OA
ATOM      5  C   UNL     1     -35.202  12.795   2.141  1.00  0.00     0.111 A 
ATOM      6  C   UNL     1     -36.497  12.388   2.584  1.00  0.00     0.134 A 
ATOM      7  C   UNL     1     -36.816  11.025   2.628  1.00  0.00     0.093 A 
ATOM      8  C   UNL     1     -35.914  10.060   2.186  1.00  0.00     0.123 A 
ATOM      9  C   UNL     1     -34.665  10.449   1.698  1.00  0.00     0.094 A 
ATOM     10  C   UNL     1     -34.304  11.798   1.678  1.00  0.00     0.146 A 
ATOM     11  O   UNL     1     -33.098  12.123   1.226  1.00  0.00    -0.452 OA
ENDROOT
BRANCH   1  12
ATOM     12  C   UNL     1     -31.277  13.596   0.662  1.00  0.00     0.025 A 
ATOM     13  C   UNL     1     -31.068  14.045  -0.654  1.00  0.00     0.016 A 
ATOM     14  C   UNL     1     -29.772  14.275  -1.125  1.00  0.00     0.051 A 
ATOM     15  C   UNL     1     -28.670  14.074  -0.284  1.00  0.00     0.157 A 
ATOM     16  C   UNL     1     -30.168  13.416   1.506  1.00  0.00     0.062 A 
ATOM     17  C   UNL     1     -28.868  13.647   1.034  1.00  0.00     0.158 A 
BRANCH  15  18
ATOM     18  O   UNL     1     -27.375  14.301  -0.751  1.00  0.00    -0.504 OA
ATOM     19  H   UNL     1     -27.205  14.779  -1.628  1.00  0.00     0.293 HD
ENDBRANCH  15  18
BRANCH  17  20
ATOM     20  O   UNL     1     -27.770  13.455   1.870  1.00  0.00    -0.504 OA
ATOM     21  H   UNL     1     -27.658  12.606   2.412  1.00  0.00     0.293 HD
ENDBRANCH  17  20
ENDBRANCH   1  12
BRANCH   2  22
ATOM     22  O   UNL     1     -32.996  15.742   1.577  1.00  0.00    -0.502 OA
ATOM     23  H   UNL     1     -32.258  16.094   2.173  1.00  0.00     0.293 HD
ENDBRANCH   2  22
BRANCH   6  24
ATOM     24  O   UNL     1     -37.509  13.275   2.966  1.00  0.00    -0.507 OA
ATOM     25  H   UNL     1     -38.118  13.764   2.329  1.00  0.00     0.293 HD
ENDBRANCH   6  24
BRANCH   8  26
ATOM     26  O   UNL     1     -36.271   8.714   2.227  1.00  0.00    -0.508 OA
ATOM     27  H   UNL     1     -35.615   8.000   2.518  1.00  0.00     0.293 HD
ENDBRANCH   8  26
TORSDOF 6
ENDMDL
MODEL 9
REMARK VINA RESULT:    -6.430      1.646      3.426
REMARK INTER + INTRA:          -8.054
REMARK INTER:                  -7.985
REMARK INTRA:                  -0.069
REMARK UNBOUND:                -0.309
REMARK SMILES O=c1c(O)c(-c2ccc(O)c(O)c2)oc2cc(O)cc(O)c12
REMARK SMILES IDX 5 1 3 2 2 3 1 4 22 5 20 6 19 7 17 8 16 9 15 10 14 11 6 12
REMARK SMILES IDX 7 13 8 14 9 15 13 16 11 17 10 18 12 20 4 22 21 24 18 26
REMARK H PARENT 10 19 12 21 4 23 21 25 18 27
REMARK Flexibility Score: inf
ROOT
ATOM      1  C   UNL     1     -32.590  12.425   1.098  1.00  0.00     0.180 A 
ATOM      2  C   UNL     1     -32.167  11.347   0.301  1.00  0.00     0.208 A 
ATOM      3  C   UNL     1     -30.831  11.301  -0.131  1.00  0.00     0.238 A 
ATOM      4  O   UNL     1     -30.443  10.297  -0.781  1.00  0.00    -0.285 OA
ATOM      5  C   UNL     1     -29.950  12.361   0.191  1.00  0.00     0.111 A 
ATOM      6  C   UNL     1     -28.588  12.442  -0.232  1.00  0.00     0.134 A 
ATOM      7  C   UNL     1     -27.780  13.486   0.237  1.00  0.00     0.093 A 
ATOM      8  C   UNL     1     -28.298  14.485   1.059  1.00  0.00     0.123 A 
ATOM      9  C   UNL     1     -29.642  14.447   1.434  1.00  0.00     0.094 A 
ATOM     10  C   UNL     1     -30.463  13.398   1.014  1.00  0.00     0.146 A 
ATOM     11  O   UNL     1     -31.731  13.388   1.411  1.00  0.00    -0.452 OA
ENDROOT
BRANCH   1  12
ATOM     12  C   UNL     1     -33.976  12.536   1.604  1.00  0.00     0.025 A 
ATOM     13  C   UNL     1     -34.789  13.636   1.279  1.00  0.00     0.016 A 
ATOM     14  C   UNL     1     -36.103  13.707   1.749  1.00  0.00     0.051 A 
ATOM     15  C   UNL     1     -36.627  12.675   2.538  1.00  0.00     0.157 A 
ATOM     16  C   UNL     1     -34.514  11.495   2.378  1.00  0.00     0.062 A 
ATOM     17  C   UNL     1     -35.833  11.565   2.850  1.00  0.00     0.158 A 
BRANCH  15  18
ATOM     18  O   UNL     1     -37.937  12.743   3.010  1.00  0.00    -0.504 OA
ATOM     19  H   UNL     1     -38.730  12.712   2.379  1.00  0.00     0.293 HD
ENDBRANCH  15  18
BRANCH  17  20
ATOM     20  O   UNL     1     -36.360  10.537   3.629  1.00  0.00    -0.504 OA
ATOM     21  H   UNL     1     -36.845  10.725   4.498  1.00  0.00     0.293 HD
ENDBRANCH  17  20
ENDBRANCH   1  12
BRANCH   2  22
ATOM     22  O   UNL     1     -33.073  10.349  -0.070  1.00  0.00    -0.502 OA
ATOM     23  H   UNL     1     -32.783   9.400  -0.273  1.00  0.00     0.293 HD
ENDBRANCH   2  22
BRANCH   6  24
ATOM     24  O   UNL     1     -27.990  11.546  -1.123  1.00  0.00    -0.507 OA
ATOM     25  H   UNL     1     -28.167  11.514  -2.116  1.00  0.00     0.293 HD
ENDBRANCH   6  24
BRANCH   8  26
ATOM     26  O   UNL     1     -27.470  15.518   1.492  1.00  0.00    -0.508 OA
ATOM     27  H   UNL     1     -26.837  15.397   2.273  1.00  0.00     0.293 HD
ENDBRANCH   8  26
TORSDOF 6
ENDMDL
