MODEL 1
REMARK VINA RESULT:    -3.410      0.000      0.000
REMARK INTER + INTRA:          -3.850
REMARK INTER:                  -3.809
REMARK INTRA:                  -0.041
REMARK UNBOUND:                -0.041
REMARK SMILES CCCC(=O)[O-]
REMARK SMILES IDX 3 1 4 2 5 3 6 4 2 5 1 6
REMARK H PARENT
REMARK Flexibility Score: inf
ROOT
ATOM      1  C   UNL     1       7.035  49.156   9.621  1.00  0.00     0.052 C 
ENDROOT
BRANCH   1   2
ATOM      2  C   UNL     1       7.370  47.749  10.011  1.00  0.00     0.041 C 
ATOM      3  O   UNL     1       7.762  47.491  11.180  1.00  0.00    -0.550 OA
ATOM      4  O   UNL     1       7.282  46.727   9.074  1.00  0.00    -0.550 OA
ENDBRANCH   1   2
BRANCH   1   5
ATOM      5  C   UNL     1       5.559  49.300   9.231  1.00  0.00     0.003 C 
ATOM      6  C   UNL     1       4.623  48.638  10.243  1.00  0.00     0.004 C 
ENDBRANCH   1   5
TORSDOF 2
ENDMDL
MODEL 2
REMARK VINA RESULT:    -3.069      2.323      3.134
REMARK INTER + INTRA:          -3.468
REMARK INTER:                  -3.439
REMARK INTRA:                  -0.029
REMARK UNBOUND:                -0.041
REMARK SMILES CCCC(=O)[O-]
REMARK SMILES IDX 3 1 4 2 5 3 6 4 2 5 1 6
REMARK H PARENT
REMARK Flexibility Score: inf
ROOT
ATOM      1  C   UNL     1       6.894  48.968   9.174  1.00  0.00     0.052 C 
ENDROOT
BRANCH   1   2
ATOM      2  C   UNL     1       5.475  49.372   9.430  1.00  0.00     0.041 C 
ATOM      3  O   UNL     1       4.997  50.397   8.875  1.00  0.00    -0.550 OA
ATOM      4  O   UNL     1       4.689  48.636  10.307  1.00  0.00    -0.550 OA
ENDBRANCH   1   2
BRANCH   1   5
ATOM      5  C   UNL     1       7.245  47.651   9.877  1.00  0.00     0.003 C 
ATOM      6  C   UNL     1       7.993  47.874  11.191  1.00  0.00     0.004 C 
ENDBRANCH   1   5
TORSDOF 2
ENDMDL
MODEL 3
REMARK VINA RESULT:    -2.818      8.098      8.629
REMARK INTER + INTRA:          -3.188
REMARK INTER:                  -3.164
REMARK INTRA:                  -0.023
REMARK UNBOUND:                -0.041
REMARK SMILES CCCC(=O)[O-]
REMARK SMILES IDX 3 1 4 2 5 3 6 4 2 5 1 6
REMARK H PARENT
REMARK Flexibility Score: inf
ROOT
ATOM      1  C   UNL     1      15.166  45.955   9.199  1.00  0.00     0.052 C 
ENDROOT
BRANCH   1   2
ATOM      2  C   UNL     1      14.546  47.112   9.921  1.00  0.00     0.041 C 
ATOM      3  O   UNL     1      14.173  48.132   9.283  1.00  0.00    -0.550 OA
ATOM      4  O   UNL     1      14.412  47.078  11.303  1.00  0.00    -0.550 OA
ENDBRANCH   1   2
BRANCH   1   5
ATOM      5  C   UNL     1      14.133  44.869   8.875  1.00  0.00     0.003 C 
ATOM      6  C   UNL     1      14.488  43.523   9.508  1.00  0.00     0.004 C 
ENDBRANCH   1   5
TORSDOF 2
ENDMDL
MODEL 4
REMARK VINA RESULT:    -2.353      7.804      8.637
REMARK INTER + INTRA:          -2.668
REMARK INTER:                  -2.659
REMARK INTRA:                  -0.009
REMARK UNBOUND:                -0.041
REMARK SMILES CCCC(=O)[O-]
REMARK SMILES IDX 3 1 4 2 5 3 6 4 2 5 1 6
REMARK H PARENT
REMARK Flexibility Score: inf
ROOT
ATOM      1  C   UNL     1      15.115  45.560   9.017  1.00  0.00     0.052 C 
ENDROOT
BRANCH   1   2
ATOM      2  C   UNL     1      14.664  44.133   9.084  1.00  0.00     0.041 C 
ATOM      3  O   UNL     1      15.498  43.213   9.288  1.00  0.00    -0.550 OA
ATOM      4  O   UNL     1      13.326  43.817   8.885  1.00  0.00    -0.550 OA
ENDBRANCH   1   2
BRANCH   1   5
ATOM      5  C   UNL     1      13.929  46.531   9.007  1.00  0.00     0.003 C 
ATOM      6  C   UNL     1      14.372  47.988   8.875  1.00  0.00     0.004 C 
ENDBRANCH   1   5
TORSDOF 2
ENDMDL
MODEL 5
REMARK VINA RESULT:    -1.262      1.742      2.396
REMARK INTER + INTRA:          -1.451
REMARK INTER:                  -1.680
REMARK INTRA:                   0.229
REMARK UNBOUND:                -0.041
REMARK SMILES CCCC(=O)[O-]
REMARK SMILES IDX 3 1 4 2 5 3 6 4 2 5 1 6
REMARK H PARENT
REMARK Flexibility Score: inf
ROOT
ATOM      1  C   UNL     1       7.488  48.965   9.177  1.00  0.00     0.052 C 
ENDROOT
BRANCH   1   2
ATOM      2  C   UNL     1       6.640  47.735   9.077  1.00  0.00     0.041 C 
ATOM      3  O   UNL     1       7.173  46.611   8.880  1.00  0.00    -0.550 OA
ATOM      4  O   UNL     1       5.257  47.834   9.167  1.00  0.00    -0.550 OA
ENDBRANCH   1   2
BRANCH   1   5
ATOM      5  C   UNL     1       7.921  49.241  10.622  1.00  0.00     0.003 C 
ATOM      6  C   UNL     1       8.000  47.964  11.458  1.00  0.00     0.004 C 
ENDBRANCH   1   5
TORSDOF 2
ENDMDL
MODEL 6
REMARK VINA RESULT:    -1.073      8.031      8.714
REMARK INTER + INTRA:          -1.240
REMARK INTER:                  -1.201
REMARK INTRA:                  -0.038
REMARK UNBOUND:                -0.041
REMARK SMILES CCCC(=O)[O-]
REMARK SMILES IDX 3 1 4 2 5 3 6 4 2 5 1 6
REMARK H PARENT
REMARK Flexibility Score: inf
ROOT
ATOM      1  C   UNL     1      14.578  43.907   9.312  1.00  0.00     0.052 C 
ENDROOT
BRANCH   1   2
ATOM      2  C   UNL     1      14.857  45.362   9.094  1.00  0.00     0.041 C 
ATOM      3  O   UNL     1      13.911  46.164   8.875  1.00  0.00    -0.550 OA
ATOM      4  O   UNL     1      16.166  45.827   9.099  1.00  0.00    -0.550 OA
ENDBRANCH   1   2
BRANCH   1   5
ATOM      5  C   UNL     1      13.160  43.675   9.848  1.00  0.00     0.003 C 
ATOM      6  C   UNL     1      12.295  42.872   8.876  1.00  0.00     0.004 C 
ENDBRANCH   1   5
TORSDOF 2
ENDMDL
