MODEL 1
REMARK VINA RESULT:    -3.136      0.000      0.000
REMARK INTER + INTRA:          -4.665
REMARK INTER:                  -4.236
REMARK INTRA:                  -0.429
REMARK UNBOUND:                -0.429
REMARK SMILES CCCCCCCC(=O)[O-]
REMARK SMILES IDX 5 1 6 2 7 3 8 4 9 5 10 6 4 7 3 8 2 9 1 10
REMARK H PARENT
REMARK Flexibility Score: inf
ROOT
ATOM      1  C   UNL     1      35.077   6.490 -30.824  1.00  0.00     0.000 C 
ENDROOT
BRANCH   1   2
ATOM      2  C   UNL     1      34.207   7.637 -31.358  1.00  0.00     0.006 C 
BRANCH   2   3
ATOM      3  C   UNL     1      32.956   7.823 -30.494  1.00  0.00     0.053 C 
BRANCH   3   4
ATOM      4  C   UNL     1      32.685   9.276 -30.269  1.00  0.00     0.041 C 
ATOM      5  O   UNL     1      33.076  10.131 -31.107  1.00  0.00    -0.550 OA
ATOM      6  O   UNL     1      32.046   9.693 -29.107  1.00  0.00    -0.550 OA
ENDBRANCH   3   4
ENDBRANCH   2   3
ENDBRANCH   1   2
BRANCH   1   7
ATOM      7  C   UNL     1      35.663   5.617 -31.946  1.00  0.00     0.000 C 
BRANCH   7   8
ATOM      8  C   UNL     1      34.693   5.437 -33.123  1.00  0.00    -0.000 C 
BRANCH   8   9
ATOM      9  C   UNL     1      33.862   4.161 -32.958  1.00  0.00    -0.003 C 
ATOM     10  C   UNL     1      32.370   4.477 -32.887  1.00  0.00     0.004 C 
ENDBRANCH   8   9
ENDBRANCH   7   8
ENDBRANCH   1   7
TORSDOF 6
ENDMDL
MODEL 2
REMARK VINA RESULT:    -2.947     15.399     16.589
REMARK INTER + INTRA:          -4.410
REMARK INTER:                  -4.178
REMARK INTRA:                  -0.232
REMARK UNBOUND:                -0.429
REMARK SMILES CCCCCCCC(=O)[O-]
REMARK SMILES IDX 5 1 6 2 7 3 8 4 9 5 10 6 4 7 3 8 2 9 1 10
REMARK H PARENT
REMARK Flexibility Score: inf
ROOT
ATOM      1  C   UNL     1      25.351  -6.013 -29.404  1.00  0.00     0.000 C 
ENDROOT
BRANCH   1   2
ATOM      2  C   UNL     1      24.201  -5.981 -30.422  1.00  0.00     0.006 C 
BRANCH   2   3
ATOM      3  C   UNL     1      24.120  -4.616 -31.113  1.00  0.00     0.053 C 
BRANCH   3   4
ATOM      4  C   UNL     1      24.185  -4.776 -32.598  1.00  0.00     0.041 C 
ATOM      5  O   UNL     1      25.175  -5.344 -33.132  1.00  0.00    -0.550 OA
ATOM      6  O   UNL     1      23.178  -4.252 -33.399  1.00  0.00    -0.550 OA
ENDBRANCH   3   4
ENDBRANCH   2   3
ENDBRANCH   1   2
BRANCH   1   7
ATOM      7  C   UNL     1      25.617  -7.424 -28.854  1.00  0.00     0.000 C 
BRANCH   7   8
ATOM      8  C   UNL     1      24.461  -7.950 -27.990  1.00  0.00    -0.000 C 
BRANCH   8   9
ATOM      9  C   UNL     1      24.556  -7.410 -26.560  1.00  0.00    -0.003 C 
ATOM     10  C   UNL     1      25.650  -8.124 -25.771  1.00  0.00     0.004 C 
ENDBRANCH   8   9
ENDBRANCH   7   8
ENDBRANCH   1   7
TORSDOF 6
ENDMDL
MODEL 3
REMARK VINA RESULT:    -2.933      3.079      5.260
REMARK INTER + INTRA:          -4.392
REMARK INTER:                  -4.162
REMARK INTRA:                  -0.230
REMARK UNBOUND:                -0.429
REMARK SMILES CCCCCCCC(=O)[O-]
REMARK SMILES IDX 5 1 6 2 7 3 8 4 9 5 10 6 4 7 3 8 2 9 1 10
REMARK H PARENT
REMARK Flexibility Score: inf
ROOT
ATOM      1  C   UNL     1      33.535   7.376 -30.826  1.00  0.00     0.000 C 
ENDROOT
BRANCH   1   2
ATOM      2  C   UNL     1      34.965   6.901 -31.121  1.00  0.00     0.006 C 
BRANCH   2   3
ATOM      3  C   UNL     1      34.997   5.392 -31.387  1.00  0.00     0.053 C 
BRANCH   3   4
ATOM      4  C   UNL     1      34.867   5.115 -32.851  1.00  0.00     0.041 C 
ATOM      5  O   UNL     1      35.699   5.597 -33.664  1.00  0.00    -0.550 OA
ATOM      6  O   UNL     1      33.797   4.365 -33.324  1.00  0.00    -0.550 OA
ENDBRANCH   3   4
ENDBRANCH   2   3
ENDBRANCH   1   2
BRANCH   1   7
ATOM      7  C   UNL     1      33.388   8.904 -30.912  1.00  0.00     0.000 C 
BRANCH   7   8
ATOM      8  C   UNL     1      32.235   9.436 -30.047  1.00  0.00    -0.000 C 
BRANCH   8   9
ATOM      9  C   UNL     1      32.295   8.849 -28.633  1.00  0.00    -0.003 C 
ATOM     10  C   UNL     1      32.585   9.931 -27.597  1.00  0.00     0.004 C 
ENDBRANCH   8   9
ENDBRANCH   7   8
ENDBRANCH   1   7
TORSDOF 6
ENDMDL
MODEL 4
REMARK VINA RESULT:    -2.901      2.309      2.811
REMARK INTER + INTRA:          -4.348
REMARK INTER:                  -3.688
REMARK INTRA:                  -0.660
REMARK UNBOUND:                -0.429
REMARK SMILES CCCCCCCC(=O)[O-]
REMARK SMILES IDX 5 1 6 2 7 3 8 4 9 5 10 6 4 7 3 8 2 9 1 10
REMARK H PARENT
REMARK Flexibility Score: inf
ROOT
ATOM      1  C   UNL     1      34.253   7.629 -31.241  1.00  0.00     0.000 C 
ENDROOT
BRANCH   1   2
ATOM      2  C   UNL     1      33.212   7.754 -30.119  1.00  0.00     0.006 C 
BRANCH   2   3
ATOM      3  C   UNL     1      31.792   7.593 -30.669  1.00  0.00     0.053 C 
BRANCH   3   4
ATOM      4  C   UNL     1      31.496   6.153 -30.944  1.00  0.00     0.041 C 
ATOM      5  O   UNL     1      31.922   5.258 -30.166  1.00  0.00    -0.550 OA
ATOM      6  O   UNL     1      30.793   5.793 -32.087  1.00  0.00    -0.550 OA
ENDBRANCH   3   4
ENDBRANCH   2   3
ENDBRANCH   1   2
BRANCH   1   7
ATOM      7  C   UNL     1      35.414   6.690 -30.872  1.00  0.00     0.000 C 
BRANCH   7   8
ATOM      8  C   UNL     1      35.260   5.290 -31.486  1.00  0.00    -0.000 C 
BRANCH   8   9
ATOM      9  C   UNL     1      34.644   5.371 -32.886  1.00  0.00    -0.003 C 
ATOM     10  C   UNL     1      33.774   4.152 -33.178  1.00  0.00     0.004 C 
ENDBRANCH   8   9
ENDBRANCH   7   8
ENDBRANCH   1   7
TORSDOF 6
ENDMDL
MODEL 5
REMARK VINA RESULT:    -2.898      1.278      1.823
REMARK INTER + INTRA:          -4.344
REMARK INTER:                  -4.137
REMARK INTRA:                  -0.208
REMARK UNBOUND:                -0.429
REMARK SMILES CCCCCCCC(=O)[O-]
REMARK SMILES IDX 5 1 6 2 7 3 8 4 9 5 10 6 4 7 3 8 2 9 1 10
REMARK H PARENT
REMARK Flexibility Score: inf
ROOT
ATOM      1  C   UNL     1      34.202   7.643 -31.196  1.00  0.00     0.000 C 
ENDROOT
BRANCH   1   2
ATOM      2  C   UNL     1      33.187   7.866 -30.065  1.00  0.00     0.006 C 
BRANCH   2   3
ATOM      3  C   UNL     1      32.690   9.314 -30.054  1.00  0.00     0.053 C 
BRANCH   3   4
ATOM      4  C   UNL     1      31.947   9.604 -28.788  1.00  0.00     0.041 C 
ATOM      5  O   UNL     1      30.783  10.084 -28.832  1.00  0.00    -0.550 OA
ATOM      6  O   UNL     1      32.558   9.392 -27.558  1.00  0.00    -0.550 OA
ENDBRANCH   3   4
ENDBRANCH   2   3
ENDBRANCH   1   2
BRANCH   1   7
ATOM      7  C   UNL     1      35.276   6.604 -30.834  1.00  0.00     0.000 C 
BRANCH   7   8
ATOM      8  C   UNL     1      34.888   5.179 -31.259  1.00  0.00    -0.000 C 
BRANCH   8   9
ATOM      9  C   UNL     1      34.756   5.079 -32.782  1.00  0.00    -0.003 C 
ATOM     10  C   UNL     1      33.718   4.033 -33.179  1.00  0.00     0.004 C 
ENDBRANCH   8   9
ENDBRANCH   7   8
ENDBRANCH   1   7
TORSDOF 6
ENDMDL
MODEL 6
REMARK VINA RESULT:    -2.894      3.421      4.886
REMARK INTER + INTRA:          -4.339
REMARK INTER:                  -3.910
REMARK INTRA:                  -0.429
REMARK UNBOUND:                -0.429
REMARK SMILES CCCCCCCC(=O)[O-]
REMARK SMILES IDX 5 1 6 2 7 3 8 4 9 5 10 6 4 7 3 8 2 9 1 10
REMARK H PARENT
REMARK Flexibility Score: inf
ROOT
ATOM      1  C   UNL     1      34.801   5.236 -32.950  1.00  0.00     0.000 C 
ENDROOT
BRANCH   1   2
ATOM      2  C   UNL     1      33.797   4.081 -33.078  1.00  0.00     0.006 C 
BRANCH   2   3
ATOM      3  C   UNL     1      32.389   4.534 -32.683  1.00  0.00     0.053 C 
BRANCH   3   4
ATOM      4  C   UNL     1      31.368   3.930 -33.594  1.00  0.00     0.041 C 
ATOM      5  O   UNL     1      30.321   4.567 -33.885  1.00  0.00    -0.550 OA
ATOM      6  O   UNL     1      31.548   2.642 -34.083  1.00  0.00    -0.550 OA
ENDBRANCH   3   4
ENDBRANCH   2   3
ENDBRANCH   1   2
BRANCH   1   7
ATOM      7  C   UNL     1      35.314   5.420 -31.512  1.00  0.00     0.000 C 
BRANCH   7   8
ATOM      8  C   UNL     1      35.542   6.895 -31.149  1.00  0.00    -0.000 C 
BRANCH   8   9
ATOM      9  C   UNL     1      34.222   7.674 -31.169  1.00  0.00    -0.003 C 
ATOM     10  C   UNL     1      33.262   7.159 -30.100  1.00  0.00     0.004 C 
ENDBRANCH   8   9
ENDBRANCH   7   8
ENDBRANCH   1   7
TORSDOF 6
ENDMDL
MODEL 7
REMARK VINA RESULT:    -2.871      3.248      4.656
REMARK INTER + INTRA:          -4.307
REMARK INTER:                  -4.074
REMARK INTRA:                  -0.233
REMARK UNBOUND:                -0.429
REMARK SMILES CCCCCCCC(=O)[O-]
REMARK SMILES IDX 5 1 6 2 7 3 8 4 9 5 10 6 4 7 3 8 2 9 1 10
REMARK H PARENT
REMARK Flexibility Score: inf
ROOT
ATOM      1  C   UNL     1      33.574   3.329 -33.345  1.00  0.00     0.000 C 
ENDROOT
BRANCH   1   2
ATOM      2  C   UNL     1      33.591   4.804 -32.918  1.00  0.00     0.006 C 
BRANCH   2   3
ATOM      3  C   UNL     1      35.022   5.351 -32.898  1.00  0.00     0.053 C 
BRANCH   3   4
ATOM      4  C   UNL     1      35.431   5.701 -31.503  1.00  0.00     0.041 C 
ATOM      5  O   UNL     1      35.108   4.954 -30.541  1.00  0.00    -0.550 OA
ATOM      6  O   UNL     1      36.125   6.879 -31.256  1.00  0.00    -0.550 OA
ENDBRANCH   3   4
ENDBRANCH   2   3
ENDBRANCH   1   2
BRANCH   1   7
ATOM      7  C   UNL     1      32.164   2.718 -33.311  1.00  0.00     0.000 C 
BRANCH   7   8
ATOM      8  C   UNL     1      32.103   1.332 -33.971  1.00  0.00    -0.000 C 
BRANCH   8   9
ATOM      9  C   UNL     1      33.501   0.864 -34.391  1.00  0.00    -0.003 C 
ATOM     10  C   UNL     1      33.433  -0.060 -35.603  1.00  0.00     0.004 C 
ENDBRANCH   8   9
ENDBRANCH   7   8
ENDBRANCH   1   7
TORSDOF 6
ENDMDL
MODEL 8
REMARK VINA RESULT:    -2.869      1.882      2.941
REMARK INTER + INTRA:          -4.305
REMARK INTER:                  -3.922
REMARK INTRA:                  -0.383
REMARK UNBOUND:                -0.429
REMARK SMILES CCCCCCCC(=O)[O-]
REMARK SMILES IDX 5 1 6 2 7 3 8 4 9 5 10 6 4 7 3 8 2 9 1 10
REMARK H PARENT
REMARK Flexibility Score: inf
ROOT
ATOM      1  C   UNL     1      34.307   5.092 -33.012  1.00  0.00     0.000 C 
ENDROOT
BRANCH   1   2
ATOM      2  C   UNL     1      35.046   5.126 -31.666  1.00  0.00     0.006 C 
BRANCH   2   3
ATOM      3  C   UNL     1      35.391   6.565 -31.269  1.00  0.00     0.053 C 
BRANCH   3   4
ATOM      4  C   UNL     1      34.174   7.278 -30.771  1.00  0.00     0.041 C 
ATOM      5  O   UNL     1      33.426   6.734 -29.916  1.00  0.00    -0.550 OA
ATOM      6  O   UNL     1      33.837   8.522 -31.290  1.00  0.00    -0.550 OA
ENDBRANCH   3   4
ENDBRANCH   2   3
ENDBRANCH   1   2
BRANCH   1   7
ATOM      7  C   UNL     1      33.089   4.153 -32.996  1.00  0.00     0.000 C 
BRANCH   7   8
ATOM      8  C   UNL     1      33.457   2.699 -33.326  1.00  0.00    -0.000 C 
BRANCH   8   9
ATOM      9  C   UNL     1      32.757   1.726 -32.372  1.00  0.00    -0.003 C 
ATOM     10  C   UNL     1      32.692   2.292 -30.956  1.00  0.00     0.004 C 
ENDBRANCH   8   9
ENDBRANCH   7   8
ENDBRANCH   1   7
TORSDOF 6
ENDMDL
MODEL 9
REMARK VINA RESULT:    -2.839      2.904      4.519
REMARK INTER + INTRA:          -4.264
REMARK INTER:                  -3.765
REMARK INTRA:                  -0.499
REMARK UNBOUND:                -0.429
REMARK SMILES CCCCCCCC(=O)[O-]
REMARK SMILES IDX 5 1 6 2 7 3 8 4 9 5 10 6 4 7 3 8 2 9 1 10
REMARK H PARENT
REMARK Flexibility Score: inf
ROOT
ATOM      1  C   UNL     1      35.250   5.290 -31.337  1.00  0.00     0.000 C 
ENDROOT
BRANCH   1   2
ATOM      2  C   UNL     1      34.594   5.346 -32.724  1.00  0.00     0.006 C 
BRANCH   2   3
ATOM      3  C   UNL     1      33.911   4.017 -33.061  1.00  0.00     0.053 C 
BRANCH   3   4
ATOM      4  C   UNL     1      32.424   4.178 -33.063  1.00  0.00     0.041 C 
ATOM      5  O   UNL     1      31.706   3.422 -33.770  1.00  0.00    -0.550 OA
ATOM      6  O   UNL     1      31.833   5.196 -32.325  1.00  0.00    -0.550 OA
ENDBRANCH   3   4
ENDBRANCH   2   3
ENDBRANCH   1   2
BRANCH   1   7
ATOM      7  C   UNL     1      34.941   6.531 -30.484  1.00  0.00     0.000 C 
BRANCH   7   8
ATOM      8  C   UNL     1      34.231   7.636 -31.281  1.00  0.00    -0.000 C 
BRANCH   8   9
ATOM      9  C   UNL     1      32.987   8.133 -30.538  1.00  0.00    -0.003 C 
ATOM     10  C   UNL     1      32.672   7.250 -29.334  1.00  0.00     0.004 C 
ENDBRANCH   8   9
ENDBRANCH   7   8
ENDBRANCH   1   7
TORSDOF 6
ENDMDL
