MODEL 1
REMARK VINA RESULT:    -2.524      0.000      0.000
REMARK INTER + INTRA:          -3.015
REMARK INTER:                  -2.966
REMARK INTRA:                  -0.048
REMARK UNBOUND:                -0.048
REMARK SMILES CCCCC(=O)[O-]
REMARK SMILES IDX 4 1 5 2 6 3 7 4 3 5 2 6 1 7
REMARK H PARENT
REMARK Flexibility Score: inf
ROOT
ATOM      1  C   UNL     1      51.176  48.836  61.097  1.00  0.00     0.053 C 
ENDROOT
BRANCH   1   2
ATOM      2  C   UNL     1      50.943  47.503  61.736  1.00  0.00     0.041 C 
ATOM      3  O   UNL     1      50.719  46.489  61.025  1.00  0.00    -0.550 OA
ATOM      4  O   UNL     1      50.924  47.391  63.121  1.00  0.00    -0.550 OA
ENDBRANCH   1   2
BRANCH   1   5
ATOM      5  C   UNL     1      50.026  49.796  61.427  1.00  0.00     0.006 C 
BRANCH   5   6
ATOM      6  C   UNL     1      50.453  50.917  62.387  1.00  0.00    -0.003 C 
ATOM      7  C   UNL     1      50.508  52.286  61.709  1.00  0.00     0.004 C 
ENDBRANCH   5   6
ENDBRANCH   1   5
TORSDOF 3
ENDMDL
MODEL 2
REMARK VINA RESULT:    -2.515     16.990     17.742
REMARK INTER + INTRA:          -3.004
REMARK INTER:                  -2.986
REMARK INTRA:                  -0.018
REMARK UNBOUND:                -0.048
REMARK SMILES CCCCC(=O)[O-]
REMARK SMILES IDX 4 1 5 2 6 3 7 4 3 5 2 6 1 7
REMARK H PARENT
REMARK Flexibility Score: inf
ROOT
ATOM      1  C   UNL     1      52.183  56.009  46.073  1.00  0.00     0.053 C 
ENDROOT
BRANCH   1   2
ATOM      2  C   UNL     1      52.150  56.337  44.614  1.00  0.00     0.041 C 
ATOM      3  O   UNL     1      53.220  56.397  43.953  1.00  0.00    -0.550 OA
ATOM      4  O   UNL     1      50.941  56.626  43.994  1.00  0.00    -0.550 OA
ENDBRANCH   1   2
BRANCH   1   5
ATOM      5  C   UNL     1      53.278  54.974  46.363  1.00  0.00     0.006 C 
BRANCH   5   6
ATOM      6  C   UNL     1      53.058  54.241  47.695  1.00  0.00    -0.003 C 
ATOM      7  C   UNL     1      53.091  52.720  47.546  1.00  0.00     0.004 C 
ENDBRANCH   5   6
ENDBRANCH   1   5
TORSDOF 3
ENDMDL
MODEL 3
REMARK VINA RESULT:    -2.502     12.910     13.471
REMARK INTER + INTRA:          -2.989
REMARK INTER:                  -2.956
REMARK INTRA:                  -0.033
REMARK UNBOUND:                -0.048
REMARK SMILES CCCCC(=O)[O-]
REMARK SMILES IDX 4 1 5 2 6 3 7 4 3 5 2 6 1 7
REMARK H PARENT
REMARK Flexibility Score: inf
ROOT
ATOM      1  C   UNL     1      52.390  53.206  49.377  1.00  0.00     0.053 C 
ENDROOT
BRANCH   1   2
ATOM      2  C   UNL     1      52.090  52.450  50.632  1.00  0.00     0.041 C 
ATOM      3  O   UNL     1      51.588  53.041  51.624  1.00  0.00    -0.550 OA
ATOM      4  O   UNL     1      52.412  51.102  50.725  1.00  0.00    -0.550 OA
ENDBRANCH   1   2
BRANCH   1   5
ATOM      5  C   UNL     1      52.820  52.243  48.263  1.00  0.00     0.006 C 
BRANCH   5   6
ATOM      6  C   UNL     1      53.639  52.940  47.165  1.00  0.00    -0.003 C 
ATOM      7  C   UNL     1      53.273  54.416  47.002  1.00  0.00     0.004 C 
ENDBRANCH   5   6
ENDBRANCH   1   5
TORSDOF 3
ENDMDL
MODEL 4
REMARK VINA RESULT:    -2.472      6.923      8.215
REMARK INTER + INTRA:          -2.954
REMARK INTER:                  -2.929
REMARK INTRA:                  -0.026
REMARK UNBOUND:                -0.048
REMARK SMILES CCCCC(=O)[O-]
REMARK SMILES IDX 4 1 5 2 6 3 7 4 3 5 2 6 1 7
REMARK H PARENT
REMARK Flexibility Score: inf
ROOT
ATOM      1  C   UNL     1      49.046  56.959  60.654  1.00  0.00     0.053 C 
ENDROOT
BRANCH   1   2
ATOM      2  C   UNL     1      49.677  55.962  61.574  1.00  0.00     0.041 C 
ATOM      3  O   UNL     1      50.007  54.825  61.146  1.00  0.00    -0.550 OA
ATOM      4  O   UNL     1      49.855  56.271  62.916  1.00  0.00    -0.550 OA
ENDBRANCH   1   2
BRANCH   1   5
ATOM      5  C   UNL     1      49.579  56.781  59.226  1.00  0.00     0.006 C 
BRANCH   5   6
ATOM      6  C   UNL     1      50.100  58.096  58.624  1.00  0.00    -0.003 C 
ATOM      7  C   UNL     1      49.365  58.490  57.342  1.00  0.00     0.004 C 
ENDBRANCH   5   6
ENDBRANCH   1   5
TORSDOF 3
ENDMDL
MODEL 5
REMARK VINA RESULT:    -2.463     16.119     16.841
REMARK INTER + INTRA:          -2.943
REMARK INTER:                  -2.928
REMARK INTRA:                  -0.016
REMARK UNBOUND:                -0.048
REMARK SMILES CCCCC(=O)[O-]
REMARK SMILES IDX 4 1 5 2 6 3 7 4 3 5 2 6 1 7
REMARK H PARENT
REMARK Flexibility Score: inf
ROOT
ATOM      1  C   UNL     1      53.163  55.486  46.107  1.00  0.00     0.053 C 
ENDROOT
BRANCH   1   2
ATOM      2  C   UNL     1      52.040  56.471  46.023  1.00  0.00     0.041 C 
ATOM      3  O   UNL     1      51.171  56.366  45.119  1.00  0.00    -0.550 OA
ATOM      4  O   UNL     1      51.982  57.535  46.914  1.00  0.00    -0.550 OA
ENDBRANCH   1   2
BRANCH   1   5
ATOM      5  C   UNL     1      53.051  54.656  47.392  1.00  0.00     0.006 C 
BRANCH   5   6
ATOM      6  C   UNL     1      53.522  53.206  47.200  1.00  0.00    -0.003 C 
ATOM      7  C   UNL     1      52.732  52.211  48.051  1.00  0.00     0.004 C 
ENDBRANCH   5   6
ENDBRANCH   1   5
TORSDOF 3
ENDMDL
MODEL 6
REMARK VINA RESULT:    -2.454      1.357      1.973
REMARK INTER + INTRA:          -2.933
REMARK INTER:                  -2.916
REMARK INTRA:                  -0.017
REMARK UNBOUND:                -0.048
REMARK SMILES CCCCC(=O)[O-]
REMARK SMILES IDX 4 1 5 2 6 3 7 4 3 5 2 6 1 7
REMARK H PARENT
REMARK Flexibility Score: inf
ROOT
ATOM      1  C   UNL     1      50.141  50.229  61.494  1.00  0.00     0.053 C 
ENDROOT
BRANCH   1   2
ATOM      2  C   UNL     1      50.118  49.086  62.458  1.00  0.00     0.041 C 
ATOM      3  O   UNL     1      50.585  47.966  62.125  1.00  0.00    -0.550 OA
ATOM      4  O   UNL     1      49.535  49.244  63.709  1.00  0.00    -0.550 OA
ENDBRANCH   1   2
BRANCH   1   5
ATOM      5  C   UNL     1      50.516  51.530  62.215  1.00  0.00     0.006 C 
BRANCH   5   6
ATOM      6  C   UNL     1      51.101  52.584  61.263  1.00  0.00    -0.003 C 
ATOM      7  C   UNL     1      50.527  53.981  61.503  1.00  0.00     0.004 C 
ENDBRANCH   5   6
ENDBRANCH   1   5
TORSDOF 3
ENDMDL
MODEL 7
REMARK VINA RESULT:    -2.432     11.714     12.351
REMARK INTER + INTRA:          -2.907
REMARK INTER:                  -2.795
REMARK INTRA:                  -0.113
REMARK UNBOUND:                -0.048
REMARK SMILES CCCCC(=O)[O-]
REMARK SMILES IDX 4 1 5 2 6 3 7 4 3 5 2 6 1 7
REMARK H PARENT
REMARK Flexibility Score: inf
ROOT
ATOM      1  C   UNL     1      51.822  52.291  51.008  1.00  0.00     0.053 C 
ENDROOT
BRANCH   1   2
ATOM      2  C   UNL     1      52.416  53.466  51.718  1.00  0.00     0.041 C 
ATOM      3  O   UNL     1      53.042  53.304  52.798  1.00  0.00    -0.550 OA
ATOM      4  O   UNL     1      52.235  54.748  51.213  1.00  0.00    -0.550 OA
ENDBRANCH   1   2
BRANCH   1   5
ATOM      5  C   UNL     1      52.927  51.329  50.552  1.00  0.00     0.006 C 
BRANCH   5   6
ATOM      6  C   UNL     1      53.640  51.811  49.279  1.00  0.00    -0.003 C 
ATOM      7  C   UNL     1      52.669  52.329  48.218  1.00  0.00     0.004 C 
ENDBRANCH   5   6
ENDBRANCH   1   5
TORSDOF 3
ENDMDL
MODEL 8
REMARK VINA RESULT:    -2.428     13.144     13.668
REMARK INTER + INTRA:          -2.903
REMARK INTER:                  -2.858
REMARK INTRA:                  -0.045
REMARK UNBOUND:                -0.048
REMARK SMILES CCCCC(=O)[O-]
REMARK SMILES IDX 4 1 5 2 6 3 7 4 3 5 2 6 1 7
REMARK H PARENT
REMARK Flexibility Score: inf
ROOT
ATOM      1  C   UNL     1      52.390  53.198  49.112  1.00  0.00     0.053 C 
ENDROOT
BRANCH   1   2
ATOM      2  C   UNL     1      52.219  52.395  50.363  1.00  0.00     0.041 C 
ATOM      3  O   UNL     1      52.583  51.191  50.397  1.00  0.00    -0.550 OA
ATOM      4  O   UNL     1      51.614  52.963  51.476  1.00  0.00    -0.550 OA
ENDBRANCH   1   2
BRANCH   1   5
ATOM      5  C   UNL     1      52.779  52.288  47.941  1.00  0.00     0.006 C 
BRANCH   5   6
ATOM      6  C   UNL     1      53.996  52.814  47.165  1.00  0.00    -0.003 C 
ATOM      7  C   UNL     1      53.833  54.270  46.726  1.00  0.00     0.004 C 
ENDBRANCH   5   6
ENDBRANCH   1   5
TORSDOF 3
ENDMDL
MODEL 9
REMARK VINA RESULT:    -2.420      2.040      3.550
REMARK INTER + INTRA:          -2.893
REMARK INTER:                  -2.773
REMARK INTRA:                  -0.120
REMARK UNBOUND:                -0.048
REMARK SMILES CCCCC(=O)[O-]
REMARK SMILES IDX 4 1 5 2 6 3 7 4 3 5 2 6 1 7
REMARK H PARENT
REMARK Flexibility Score: inf
ROOT
ATOM      1  C   UNL     1      50.135  49.229  61.166  1.00  0.00     0.053 C 
ENDROOT
BRANCH   1   2
ATOM      2  C   UNL     1      50.077  49.767  62.561  1.00  0.00     0.041 C 
ATOM      3  O   UNL     1      50.479  50.934  62.808  1.00  0.00    -0.550 OA
ATOM      4  O   UNL     1      49.624  48.961  63.598  1.00  0.00    -0.550 OA
ENDBRANCH   1   2
BRANCH   1   5
ATOM      5  C   UNL     1      51.583  48.901  60.780  1.00  0.00     0.006 C 
BRANCH   5   6
ATOM      6  C   UNL     1      52.066  47.572  61.379  1.00  0.00    -0.003 C 
ATOM      7  C   UNL     1      51.041  46.447  61.227  1.00  0.00     0.004 C 
ENDBRANCH   5   6
ENDBRANCH   1   5
TORSDOF 3
ENDMDL
