MODEL 1
REMARK VINA RESULT:    -3.370      0.000      0.000
REMARK INTER + INTRA:         -10.646
REMARK INTER:                  -7.311
REMARK INTRA:                  -3.335
REMARK UNBOUND:                -3.335
REMARK SMILES CCCCCCCCCCCCCCCCCCCCCC(=O)[O-]
REMARK SMILES IDX 12 1 11 2 10 3 9 4 8 5 7 6 6 7 5 8 4 9 3 10 2 11 1 12 13 13
REMARK SMILES IDX 14 14 15 15 16 16 17 17 18 18 19 19 20 20 21 21 22 22 23 23
REMARK SMILES IDX 24 24
REMARK H PARENT
REMARK Flexibility Score: inf
ROOT
ATOM      1  C   UNL     1    -100.642  70.177  25.235  1.00  0.00     0.000 C 
ENDROOT
BRANCH   1   2
ATOM      2  C   UNL     1    -100.082  71.421  25.947  1.00  0.00     0.000 C 
BRANCH   2   3
ATOM      3  C   UNL     1     -98.687  71.192  26.550  1.00  0.00     0.000 C 
BRANCH   3   4
ATOM      4  C   UNL     1     -98.560  71.880  27.915  1.00  0.00    -0.000 C 
BRANCH   4   5
ATOM      5  C   UNL     1     -98.237  70.860  29.017  1.00  0.00    -0.000 C 
BRANCH   5   6
ATOM      6  C   UNL     1     -98.379  69.406  28.539  1.00  0.00    -0.000 C 
BRANCH   6   7
ATOM      7  C   UNL     1     -99.542  68.668  29.220  1.00  0.00    -0.000 C 
BRANCH   7   8
ATOM      8  C   UNL     1    -100.081  69.475  30.409  1.00  0.00    -0.000 C 
BRANCH   8   9
ATOM      9  C   UNL     1    -101.586  69.767  30.298  1.00  0.00    -0.000 C 
BRANCH   9  10
ATOM     10  C   UNL     1    -102.018  70.110  28.862  1.00  0.00    -0.000 C 
BRANCH  10  11
ATOM     11  C   UNL     1    -102.424  71.585  28.706  1.00  0.00    -0.003 C 
ATOM     12  C   UNL     1    -102.826  72.233  30.030  1.00  0.00     0.004 C 
ENDBRANCH  10  11
ENDBRANCH   9  10
ENDBRANCH   8   9
ENDBRANCH   7   8
ENDBRANCH   6   7
ENDBRANCH   5   6
ENDBRANCH   4   5
ENDBRANCH   3   4
ENDBRANCH   2   3
ENDBRANCH   1   2
BRANCH   1  13
ATOM     13  C   UNL     1     -99.687  68.971  25.170  1.00  0.00     0.000 C 
BRANCH  13  14
ATOM     14  C   UNL     1     -99.150  68.707  23.753  1.00  0.00     0.000 C 
BRANCH  14  15
ATOM     15  C   UNL     1     -99.467  69.845  22.765  1.00  0.00     0.000 C 
BRANCH  15  16
ATOM     16  C   UNL     1     -98.260  70.688  22.313  1.00  0.00     0.000 C 
BRANCH  16  17
ATOM     17  C   UNL     1     -98.347  72.154  22.770  1.00  0.00     0.000 C 
BRANCH  17  18
ATOM     18  C   UNL     1     -97.048  72.655  23.431  1.00  0.00     0.000 C 
BRANCH  18  19
ATOM     19  C   UNL     1     -95.752  72.364  22.649  1.00  0.00     0.000 C 
BRANCH  19  20
ATOM     20  C   UNL     1     -95.129  73.574  21.924  1.00  0.00     0.006 C 
BRANCH  20  21
ATOM     21  C   UNL     1     -95.955  74.080  20.727  1.00  0.00     0.053 C 
BRANCH  21  22
ATOM     22  C   UNL     1     -96.058  73.068  19.627  1.00  0.00     0.041 C 
ATOM     23  O   UNL     1     -95.058  72.807  18.908  1.00  0.00    -0.550 OA
ATOM     24  O   UNL     1     -97.269  72.436  19.370  1.00  0.00    -0.550 OA
ENDBRANCH  21  22
ENDBRANCH  20  21
ENDBRANCH  19  20
ENDBRANCH  18  19
ENDBRANCH  17  18
ENDBRANCH  16  17
ENDBRANCH  15  16
ENDBRANCH  14  15
ENDBRANCH  13  14
ENDBRANCH   1  13
TORSDOF 20
ENDMDL
MODEL 2
REMARK VINA RESULT:    -3.360      3.925      8.092
REMARK INTER + INTRA:         -10.622
REMARK INTER:                  -7.369
REMARK INTRA:                  -3.254
REMARK UNBOUND:                -3.335
REMARK SMILES CCCCCCCCCCCCCCCCCCCCCC(=O)[O-]
REMARK SMILES IDX 12 1 11 2 10 3 9 4 8 5 7 6 6 7 5 8 4 9 3 10 2 11 1 12 13 13
REMARK SMILES IDX 14 14 15 15 16 16 17 17 18 18 19 19 20 20 21 21 22 22 23 23
REMARK SMILES IDX 24 24
REMARK H PARENT
REMARK Flexibility Score: inf
ROOT
ATOM      1  C   UNL     1    -100.702  68.802  26.337  1.00  0.00     0.000 C 
ENDROOT
BRANCH   1   2
ATOM      2  C   UNL     1     -99.317  69.066  25.718  1.00  0.00     0.000 C 
BRANCH   2   3
ATOM      3  C   UNL     1     -99.160  68.462  24.314  1.00  0.00     0.000 C 
BRANCH   3   4
ATOM      4  C   UNL     1     -99.833  69.347  23.258  1.00  0.00    -0.000 C 
BRANCH   4   5
ATOM      5  C   UNL     1     -98.796  70.205  22.517  1.00  0.00    -0.000 C 
BRANCH   5   6
ATOM      6  C   UNL     1     -98.746  71.652  23.033  1.00  0.00    -0.000 C 
BRANCH   6   7
ATOM      7  C   UNL     1     -97.569  71.902  23.989  1.00  0.00    -0.000 C 
BRANCH   7   8
ATOM      8  C   UNL     1     -97.278  73.403  24.120  1.00  0.00    -0.000 C 
BRANCH   8   9
ATOM      9  C   UNL     1     -95.832  73.765  23.748  1.00  0.00    -0.000 C 
BRANCH   9  10
ATOM     10  C   UNL     1     -95.239  72.820  22.689  1.00  0.00    -0.000 C 
BRANCH  10  11
ATOM     11  C   UNL     1     -95.385  73.371  21.260  1.00  0.00    -0.003 C 
ATOM     12  C   UNL     1     -96.200  72.453  20.350  1.00  0.00     0.004 C 
ENDBRANCH  10  11
ENDBRANCH   9  10
ENDBRANCH   8   9
ENDBRANCH   7   8
ENDBRANCH   6   7
ENDBRANCH   5   6
ENDBRANCH   4   5
ENDBRANCH   3   4
ENDBRANCH   2   3
ENDBRANCH   1   2
BRANCH   1  13
ATOM     13  C   UNL     1    -101.383  70.028  26.971  1.00  0.00     0.000 C 
BRANCH  13  14
ATOM     14  C   UNL     1    -101.717  71.126  25.948  1.00  0.00     0.000 C 
BRANCH  14  15
ATOM     15  C   UNL     1    -100.733  72.311  25.992  1.00  0.00     0.000 C 
BRANCH  15  16
ATOM     16  C   UNL     1    -100.090  72.591  27.362  1.00  0.00     0.000 C 
BRANCH  16  17
ATOM     17  C   UNL     1     -98.575  72.328  27.380  1.00  0.00     0.000 C 
BRANCH  17  18
ATOM     18  C   UNL     1     -97.973  72.378  28.797  1.00  0.00     0.000 C 
BRANCH  18  19
ATOM     19  C   UNL     1     -98.425  71.254  29.750  1.00  0.00     0.000 C 
BRANCH  19  20
ATOM     20  C   UNL     1     -98.470  69.842  29.135  1.00  0.00     0.006 C 
BRANCH  20  21
ATOM     21  C   UNL     1     -99.121  68.783  30.044  1.00  0.00     0.053 C 
BRANCH  21  22
ATOM     22  C   UNL     1    -100.216  69.348  30.896  1.00  0.00     0.041 C 
ATOM     23  O   UNL     1    -101.329  69.646  30.387  1.00  0.00    -0.550 OA
ATOM     24  O   UNL     1     -99.998  69.581  32.249  1.00  0.00    -0.550 OA
ENDBRANCH  21  22
ENDBRANCH  20  21
ENDBRANCH  19  20
ENDBRANCH  18  19
ENDBRANCH  17  18
ENDBRANCH  16  17
ENDBRANCH  15  16
ENDBRANCH  14  15
ENDBRANCH  13  14
ENDBRANCH   1  13
TORSDOF 20
ENDMDL
MODEL 3
REMARK VINA RESULT:    -3.355      3.485      7.870
REMARK INTER + INTRA:         -10.612
REMARK INTER:                  -7.034
REMARK INTRA:                  -3.578
REMARK UNBOUND:                -3.335
REMARK SMILES CCCCCCCCCCCCCCCCCCCCCC(=O)[O-]
REMARK SMILES IDX 12 1 11 2 10 3 9 4 8 5 7 6 6 7 5 8 4 9 3 10 2 11 1 12 13 13
REMARK SMILES IDX 14 14 15 15 16 16 17 17 18 18 19 19 20 20 21 21 22 22 23 23
REMARK SMILES IDX 24 24
REMARK H PARENT
REMARK Flexibility Score: inf
ROOT
ATOM      1  C   UNL     1     -98.909  71.700  21.524  1.00  0.00     0.000 C 
ENDROOT
BRANCH   1   2
ATOM      2  C   UNL     1     -99.101  73.098  22.139  1.00  0.00     0.000 C 
BRANCH   2   3
ATOM      3  C   UNL     1    -100.071  73.103  23.330  1.00  0.00     0.000 C 
BRANCH   3   4
ATOM      4  C   UNL     1     -99.488  73.894  24.508  1.00  0.00    -0.000 C 
BRANCH   4   5
ATOM      5  C   UNL     1     -98.050  73.447  24.812  1.00  0.00    -0.000 C 
BRANCH   5   6
ATOM      6  C   UNL     1     -97.089  74.633  24.998  1.00  0.00    -0.000 C 
BRANCH   6   7
ATOM      7  C   UNL     1     -95.727  74.404  24.324  1.00  0.00    -0.000 C 
BRANCH   7   8
ATOM      8  C   UNL     1     -95.705  73.064  23.575  1.00  0.00    -0.000 C 
BRANCH   8   9
ATOM      9  C   UNL     1     -95.231  73.202  22.119  1.00  0.00    -0.000 C 
BRANCH   9  10
ATOM     10  C   UNL     1     -95.655  74.537  21.484  1.00  0.00    -0.000 C 
BRANCH  10  11
ATOM     11  C   UNL     1     -96.217  74.360  20.063  1.00  0.00    -0.003 C 
ATOM     12  C   UNL     1     -95.571  73.199  19.310  1.00  0.00     0.004 C 
ENDBRANCH  10  11
ENDBRANCH   9  10
ENDBRANCH   8   9
ENDBRANCH   7   8
ENDBRANCH   6   7
ENDBRANCH   5   6
ENDBRANCH   4   5
ENDBRANCH   3   4
ENDBRANCH   2   3
ENDBRANCH   1   2
BRANCH   1  13
ATOM     13  C   UNL     1     -98.335  70.636  22.478  1.00  0.00     0.000 C 
BRANCH  13  14
ATOM     14  C   UNL     1     -99.377  69.589  22.906  1.00  0.00     0.000 C 
BRANCH  14  15
ATOM     15  C   UNL     1     -99.042  68.922  24.253  1.00  0.00     0.000 C 
BRANCH  15  16
ATOM     16  C   UNL     1     -99.276  69.791  25.502  1.00  0.00     0.000 C 
BRANCH  16  17
ATOM     17  C   UNL     1    -100.765  70.054  25.782  1.00  0.00     0.000 C 
BRANCH  17  18
ATOM     18  C   UNL     1    -101.013  71.383  26.520  1.00  0.00     0.000 C 
BRANCH  18  19
ATOM     19  C   UNL     1    -100.060  71.676  27.695  1.00  0.00     0.000 C 
BRANCH  19  20
ATOM     20  C   UNL     1    -100.388  70.947  29.013  1.00  0.00     0.006 C 
BRANCH  20  21
ATOM     21  C   UNL     1     -99.222  70.111  29.573  1.00  0.00     0.053 C 
BRANCH  21  22
ATOM     22  C   UNL     1     -99.243  68.693  29.088  1.00  0.00     0.041 C 
ATOM     23  O   UNL     1     -98.194  67.997  29.114  1.00  0.00    -0.550 OA
ATOM     24  O   UNL     1    -100.414  68.148  28.574  1.00  0.00    -0.550 OA
ENDBRANCH  21  22
ENDBRANCH  20  21
ENDBRANCH  19  20
ENDBRANCH  18  19
ENDBRANCH  17  18
ENDBRANCH  16  17
ENDBRANCH  15  16
ENDBRANCH  14  15
ENDBRANCH  13  14
ENDBRANCH   1  13
TORSDOF 20
ENDMDL
MODEL 4
REMARK VINA RESULT:    -3.349      1.539      2.743
REMARK INTER + INTRA:         -10.599
REMARK INTER:                  -6.886
REMARK INTRA:                  -3.713
REMARK UNBOUND:                -3.335
REMARK SMILES CCCCCCCCCCCCCCCCCCCCCC(=O)[O-]
REMARK SMILES IDX 12 1 11 2 10 3 9 4 8 5 7 6 6 7 5 8 4 9 3 10 2 11 1 12 13 13
REMARK SMILES IDX 14 14 15 15 16 16 17 17 18 18 19 19 20 20 21 21 22 22 23 23
REMARK SMILES IDX 24 24
REMARK H PARENT
REMARK Flexibility Score: inf
ROOT
ATOM      1  C   UNL     1     -99.512  70.679  22.187  1.00  0.00     0.000 C 
ENDROOT
BRANCH   1   2
ATOM      2  C   UNL     1     -98.694  70.043  23.325  1.00  0.00     0.000 C 
BRANCH   2   3
ATOM      3  C   UNL     1     -99.391  68.830  23.962  1.00  0.00     0.000 C 
BRANCH   3   4
ATOM      4  C   UNL     1     -99.362  68.922  25.492  1.00  0.00    -0.000 C 
BRANCH   4   5
ATOM      5  C   UNL     1     -98.740  70.250  25.952  1.00  0.00    -0.000 C 
BRANCH   5   6
ATOM      6  C   UNL     1     -98.487  70.293  27.468  1.00  0.00    -0.000 C 
BRANCH   6   7
ATOM      7  C   UNL     1     -98.446  68.894  28.102  1.00  0.00    -0.000 C 
BRANCH   7   8
ATOM      8  C   UNL     1     -99.553  68.738  29.155  1.00  0.00    -0.000 C 
BRANCH   8   9
ATOM      9  C   UNL     1    -100.357  70.030  29.371  1.00  0.00    -0.000 C 
BRANCH   9  10
ATOM     10  C   UNL     1    -101.848  69.862  29.031  1.00  0.00    -0.000 C 
BRANCH  10  11
ATOM     11  C   UNL     1    -102.290  70.761  27.864  1.00  0.00    -0.003 C 
ATOM     12  C   UNL     1    -103.698  71.324  28.050  1.00  0.00     0.004 C 
ENDBRANCH  10  11
ENDBRANCH   9  10
ENDBRANCH   8   9
ENDBRANCH   7   8
ENDBRANCH   6   7
ENDBRANCH   5   6
ENDBRANCH   4   5
ENDBRANCH   3   4
ENDBRANCH   2   3
ENDBRANCH   1   2
BRANCH   1  13
ATOM     13  C   UNL     1    -101.040  70.636  22.372  1.00  0.00     0.000 C 
BRANCH  13  14
ATOM     14  C   UNL     1    -101.615  71.950  22.924  1.00  0.00     0.000 C 
BRANCH  14  15
ATOM     15  C   UNL     1    -101.758  71.949  24.458  1.00  0.00     0.000 C 
BRANCH  15  16
ATOM     16  C   UNL     1    -100.970  73.044  25.201  1.00  0.00     0.000 C 
BRANCH  16  17
ATOM     17  C   UNL     1    -100.011  73.820  24.283  1.00  0.00     0.000 C 
BRANCH  17  18
ATOM     18  C   UNL     1     -98.529  73.602  24.642  1.00  0.00     0.000 C 
BRANCH  18  19
ATOM     19  C   UNL     1     -97.549  73.623  23.453  1.00  0.00     0.000 C 
BRANCH  19  20
ATOM     20  C   UNL     1     -96.246  72.823  23.652  1.00  0.00     0.006 C 
BRANCH  20  21
ATOM     21  C   UNL     1     -95.296  72.860  22.441  1.00  0.00     0.053 C 
BRANCH  21  22
ATOM     22  C   UNL     1     -95.966  72.438  21.168  1.00  0.00     0.041 C 
ATOM     23  O   UNL     1     -96.278  71.232  20.985  1.00  0.00    -0.550 OA
ATOM     24  O   UNL     1     -96.214  73.370  20.167  1.00  0.00    -0.550 OA
ENDBRANCH  21  22
ENDBRANCH  20  21
ENDBRANCH  19  20
ENDBRANCH  18  19
ENDBRANCH  17  18
ENDBRANCH  16  17
ENDBRANCH  15  16
ENDBRANCH  14  15
ENDBRANCH  13  14
ENDBRANCH   1  13
TORSDOF 20
ENDMDL
MODEL 5
REMARK VINA RESULT:    -3.313      2.663      4.679
REMARK INTER + INTRA:         -10.521
REMARK INTER:                  -6.284
REMARK INTRA:                  -4.237
REMARK UNBOUND:                -3.335
REMARK SMILES CCCCCCCCCCCCCCCCCCCCCC(=O)[O-]
REMARK SMILES IDX 12 1 11 2 10 3 9 4 8 5 7 6 6 7 5 8 4 9 3 10 2 11 1 12 13 13
REMARK SMILES IDX 14 14 15 15 16 16 17 17 18 18 19 19 20 20 21 21 22 22 23 23
REMARK SMILES IDX 24 24
REMARK H PARENT
REMARK Flexibility Score: inf
ROOT
ATOM      1  C   UNL     1     -97.269  72.116  23.783  1.00  0.00     0.000 C 
ENDROOT
BRANCH   1   2
ATOM      2  C   UNL     1     -98.637  71.734  23.188  1.00  0.00     0.000 C 
BRANCH   2   3
ATOM      3  C   UNL     1     -98.660  70.316  22.595  1.00  0.00     0.000 C 
BRANCH   3   4
ATOM      4  C   UNL     1     -99.801  69.488  23.198  1.00  0.00    -0.000 C 
BRANCH   4   5
ATOM      5  C   UNL     1     -99.261  68.456  24.200  1.00  0.00    -0.000 C 
BRANCH   5   6
ATOM      6  C   UNL     1     -99.651  68.779  25.652  1.00  0.00    -0.000 C 
BRANCH   6   7
ATOM      7  C   UNL     1     -98.651  69.719  26.340  1.00  0.00    -0.000 C 
BRANCH   7   8
ATOM      8  C   UNL     1     -99.363  70.637  27.344  1.00  0.00    -0.000 C 
BRANCH   8   9
ATOM      9  C   UNL     1     -99.386  72.107  26.895  1.00  0.00    -0.000 C 
BRANCH   9  10
ATOM     10  C   UNL     1    -100.815  72.650  26.721  1.00  0.00    -0.000 C 
BRANCH  10  11
ATOM     11  C   UNL     1    -101.411  72.305  25.346  1.00  0.00    -0.003 C 
ATOM     12  C   UNL     1    -102.439  71.176  25.411  1.00  0.00     0.004 C 
ENDBRANCH  10  11
ENDBRANCH   9  10
ENDBRANCH   8   9
ENDBRANCH   7   8
ENDBRANCH   6   7
ENDBRANCH   5   6
ENDBRANCH   4   5
ENDBRANCH   3   4
ENDBRANCH   2   3
ENDBRANCH   1   2
BRANCH   1  13
ATOM     13  C   UNL     1     -97.090  73.608  24.115  1.00  0.00     0.000 C 
BRANCH  13  14
ATOM     14  C   UNL     1     -95.981  74.278  23.287  1.00  0.00     0.000 C 
BRANCH  14  15
ATOM     15  C   UNL     1     -95.231  73.291  22.373  1.00  0.00     0.000 C 
BRANCH  15  16
ATOM     16  C   UNL     1     -95.480  73.463  20.863  1.00  0.00     0.000 C 
BRANCH  16  17
ATOM     17  C   UNL     1     -96.173  72.247  20.226  1.00  0.00     0.000 C 
BRANCH  17  18
ATOM     18  C   UNL     1     -97.564  72.579  19.653  1.00  0.00     0.000 C 
BRANCH  18  19
ATOM     19  C   UNL     1     -98.207  73.875  20.186  1.00  0.00     0.000 C 
BRANCH  19  20
ATOM     20  C   UNL     1     -99.731  73.814  20.411  1.00  0.00     0.006 C 
BRANCH  20  21
ATOM     21  C   UNL     1    -100.379  72.492  19.960  1.00  0.00     0.053 C 
BRANCH  21  22
ATOM     22  C   UNL     1    -101.502  72.064  20.856  1.00  0.00     0.041 C 
ATOM     23  O   UNL     1    -102.110  70.983  20.640  1.00  0.00    -0.550 OA
ATOM     24  O   UNL     1    -101.902  72.876  21.910  1.00  0.00    -0.550 OA
ENDBRANCH  21  22
ENDBRANCH  20  21
ENDBRANCH  19  20
ENDBRANCH  18  19
ENDBRANCH  17  18
ENDBRANCH  16  17
ENDBRANCH  15  16
ENDBRANCH  14  15
ENDBRANCH  13  14
ENDBRANCH   1  13
TORSDOF 20
ENDMDL
MODEL 6
REMARK VINA RESULT:    -3.300      1.200      2.243
REMARK INTER + INTRA:         -10.492
REMARK INTER:                  -6.661
REMARK INTRA:                  -3.831
REMARK UNBOUND:                -3.335
REMARK SMILES CCCCCCCCCCCCCCCCCCCCCC(=O)[O-]
REMARK SMILES IDX 12 1 11 2 10 3 9 4 8 5 7 6 6 7 5 8 4 9 3 10 2 11 1 12 13 13
REMARK SMILES IDX 14 14 15 15 16 16 17 17 18 18 19 19 20 20 21 21 22 22 23 23
REMARK SMILES IDX 24 24
REMARK H PARENT
REMARK Flexibility Score: inf
ROOT
ATOM      1  C   UNL     1     -99.726  69.082  25.579  1.00  0.00     0.000 C 
ENDROOT
BRANCH   1   2
ATOM      2  C   UNL     1     -98.968  68.775  26.883  1.00  0.00     0.000 C 
BRANCH   2   3
ATOM      3  C   UNL     1     -98.521  70.040  27.632  1.00  0.00     0.000 C 
BRANCH   3   4
ATOM      4  C   UNL     1     -98.569  71.266  26.712  1.00  0.00    -0.000 C 
BRANCH   4   5
ATOM      5  C   UNL     1     -98.873  72.543  27.511  1.00  0.00    -0.000 C 
BRANCH   5   6
ATOM      6  C   UNL     1    -100.052  73.340  26.929  1.00  0.00    -0.000 C 
BRANCH   6   7
ATOM      7  C   UNL     1    -101.111  72.440  26.274  1.00  0.00    -0.000 C 
BRANCH   7   8
ATOM      8  C   UNL     1    -102.218  72.079  27.276  1.00  0.00    -0.000 C 
BRANCH   8   9
ATOM      9  C   UNL     1    -102.270  70.575  27.590  1.00  0.00    -0.000 C 
BRANCH   9  10
ATOM     10  C   UNL     1    -102.289  70.287  29.101  1.00  0.00    -0.000 C 
BRANCH  10  11
ATOM     11  C   UNL     1    -101.721  71.451  29.929  1.00  0.00    -0.003 C 
ATOM     12  C   UNL     1    -100.387  71.112  30.593  1.00  0.00     0.004 C 
ENDBRANCH  10  11
ENDBRANCH   9  10
ENDBRANCH   8   9
ENDBRANCH   7   8
ENDBRANCH   6   7
ENDBRANCH   5   6
ENDBRANCH   4   5
ENDBRANCH   3   4
ENDBRANCH   2   3
ENDBRANCH   1   2
BRANCH   1  13
ATOM     13  C   UNL     1     -99.178  68.386  24.320  1.00  0.00     0.000 C 
BRANCH  13  14
ATOM     14  C   UNL     1     -99.059  69.332  23.114  1.00  0.00     0.000 C 
BRANCH  14  15
ATOM     15  C   UNL     1     -99.880  70.625  23.279  1.00  0.00     0.000 C 
BRANCH  15  16
ATOM     16  C   UNL     1     -99.083  71.938  23.160  1.00  0.00     0.000 C 
BRANCH  16  17
ATOM     17  C   UNL     1     -97.563  71.727  23.245  1.00  0.00     0.000 C 
BRANCH  17  18
ATOM     18  C   UNL     1     -96.824  72.922  23.877  1.00  0.00     0.000 C 
BRANCH  18  19
ATOM     19  C   UNL     1     -95.592  73.426  23.100  1.00  0.00     0.000 C 
BRANCH  19  20
ATOM     20  C   UNL     1     -95.872  74.523  22.053  1.00  0.00     0.006 C 
BRANCH  20  21
ATOM     21  C   UNL     1     -95.512  74.118  20.611  1.00  0.00     0.053 C 
BRANCH  21  22
ATOM     22  C   UNL     1     -96.382  73.017  20.086  1.00  0.00     0.041 C 
ATOM     23  O   UNL     1     -95.869  71.940  19.683  1.00  0.00    -0.550 OA
ATOM     24  O   UNL     1     -97.759  73.192  20.007  1.00  0.00    -0.550 OA
ENDBRANCH  21  22
ENDBRANCH  20  21
ENDBRANCH  19  20
ENDBRANCH  18  19
ENDBRANCH  17  18
ENDBRANCH  16  17
ENDBRANCH  15  16
ENDBRANCH  14  15
ENDBRANCH  13  14
ENDBRANCH   1  13
TORSDOF 20
ENDMDL
MODEL 7
REMARK VINA RESULT:    -3.294      3.682      7.663
REMARK INTER + INTRA:         -10.480
REMARK INTER:                  -6.888
REMARK INTRA:                  -3.592
REMARK UNBOUND:                -3.335
REMARK SMILES CCCCCCCCCCCCCCCCCCCCCC(=O)[O-]
REMARK SMILES IDX 12 1 11 2 10 3 9 4 8 5 7 6 6 7 5 8 4 9 3 10 2 11 1 12 13 13
REMARK SMILES IDX 14 14 15 15 16 16 17 17 18 18 19 19 20 20 21 21 22 22 23 23
REMARK SMILES IDX 24 24
REMARK H PARENT
REMARK Flexibility Score: inf
ROOT
ATOM      1  C   UNL     1     -98.405  73.559  23.775  1.00  0.00     0.000 C 
ENDROOT
BRANCH   1   2
ATOM      2  C   UNL     1     -97.040  73.608  24.484  1.00  0.00     0.000 C 
BRANCH   2   3
ATOM      3  C   UNL     1     -95.903  74.086  23.567  1.00  0.00     0.000 C 
BRANCH   3   4
ATOM      4  C   UNL     1     -95.339  72.923  22.742  1.00  0.00    -0.000 C 
BRANCH   4   5
ATOM      5  C   UNL     1     -95.485  73.195  21.237  1.00  0.00    -0.000 C 
BRANCH   5   6
ATOM      6  C   UNL     1     -96.644  72.408  20.603  1.00  0.00    -0.000 C 
BRANCH   6   7
ATOM      7  C   UNL     1     -97.812  73.311  20.177  1.00  0.00    -0.000 C 
BRANCH   7   8
ATOM      8  C   UNL     1     -99.145  72.554  20.251  1.00  0.00    -0.000 C 
BRANCH   8   9
ATOM      9  C   UNL     1    -100.342  73.479  20.528  1.00  0.00    -0.000 C 
BRANCH   9  10
ATOM     10  C   UNL     1    -101.685  72.731  20.506  1.00  0.00    -0.000 C 
BRANCH  10  11
ATOM     11  C   UNL     1    -101.567  71.294  21.043  1.00  0.00    -0.003 C 
ATOM     12  C   UNL     1    -102.384  71.066  22.314  1.00  0.00     0.004 C 
ENDBRANCH  10  11
ENDBRANCH   9  10
ENDBRANCH   8   9
ENDBRANCH   7   8
ENDBRANCH   6   7
ENDBRANCH   5   6
ENDBRANCH   4   5
ENDBRANCH   3   4
ENDBRANCH   2   3
ENDBRANCH   1   2
BRANCH   1  13
ATOM     13  C   UNL     1     -99.161  72.223  23.895  1.00  0.00     0.000 C 
BRANCH  13  14
ATOM     14  C   UNL     1     -98.249  70.999  23.711  1.00  0.00     0.000 C 
BRANCH  14  15
ATOM     15  C   UNL     1     -98.916  69.865  22.909  1.00  0.00     0.000 C 
BRANCH  15  16
ATOM     16  C   UNL     1     -99.327  68.626  23.726  1.00  0.00     0.000 C 
BRANCH  16  17
ATOM     17  C   UNL     1     -99.094  68.798  25.236  1.00  0.00     0.000 C 
BRANCH  17  18
ATOM     18  C   UNL     1    -100.373  69.187  26.001  1.00  0.00     0.000 C 
BRANCH  18  19
ATOM     19  C   UNL     1    -100.196  70.274  27.079  1.00  0.00     0.000 C 
BRANCH  19  20
ATOM     20  C   UNL     1     -98.745  70.730  27.328  1.00  0.00     0.006 C 
BRANCH  20  21
ATOM     21  C   UNL     1     -98.242  70.468  28.760  1.00  0.00     0.053 C 
BRANCH  21  22
ATOM     22  C   UNL     1     -98.725  69.161  29.311  1.00  0.00     0.041 C 
ATOM     23  O   UNL     1     -98.211  68.079  28.923  1.00  0.00    -0.550 OA
ATOM     24  O   UNL     1     -99.769  69.132  30.229  1.00  0.00    -0.550 OA
ENDBRANCH  21  22
ENDBRANCH  20  21
ENDBRANCH  19  20
ENDBRANCH  18  19
ENDBRANCH  17  18
ENDBRANCH  16  17
ENDBRANCH  15  16
ENDBRANCH  14  15
ENDBRANCH  13  14
ENDBRANCH   1  13
TORSDOF 20
ENDMDL
MODEL 8
REMARK VINA RESULT:    -3.255      2.768      4.775
REMARK INTER + INTRA:         -10.395
REMARK INTER:                  -6.600
REMARK INTRA:                  -3.796
REMARK UNBOUND:                -3.335
REMARK SMILES CCCCCCCCCCCCCCCCCCCCCC(=O)[O-]
REMARK SMILES IDX 12 1 11 2 10 3 9 4 8 5 7 6 6 7 5 8 4 9 3 10 2 11 1 12 13 13
REMARK SMILES IDX 14 14 15 15 16 16 17 17 18 18 19 19 20 20 21 21 22 22 23 23
REMARK SMILES IDX 24 24
REMARK H PARENT
REMARK Flexibility Score: inf
ROOT
ATOM      1  C   UNL     1     -97.657  73.795  24.578  1.00  0.00     0.000 C 
ENDROOT
BRANCH   1   2
ATOM      2  C   UNL     1     -98.701  72.830  25.168  1.00  0.00     0.000 C 
BRANCH   2   3
ATOM      3  C   UNL     1     -98.237  71.365  25.163  1.00  0.00     0.000 C 
BRANCH   3   4
ATOM      4  C   UNL     1     -99.437  70.410  25.155  1.00  0.00    -0.000 C 
BRANCH   4   5
ATOM      5  C   UNL     1    -100.661  71.059  25.819  1.00  0.00    -0.000 C 
BRANCH   5   6
ATOM      6  C   UNL     1    -101.553  70.038  26.543  1.00  0.00    -0.000 C 
BRANCH   6   7
ATOM      7  C   UNL     1    -100.806  68.744  26.898  1.00  0.00    -0.000 C 
BRANCH   7   8
ATOM      8  C   UNL     1    -100.335  68.767  28.359  1.00  0.00    -0.000 C 
BRANCH   8   9
ATOM      9  C   UNL     1     -98.803  68.774  28.492  1.00  0.00    -0.000 C 
BRANCH   9  10
ATOM     10  C   UNL     1     -98.236  70.186  28.721  1.00  0.00    -0.000 C 
BRANCH  10  11
ATOM     11  C   UNL     1     -99.225  71.105  29.457  1.00  0.00    -0.003 C 
ATOM     12  C   UNL     1     -99.319  72.496  28.832  1.00  0.00     0.004 C 
ENDBRANCH  10  11
ENDBRANCH   9  10
ENDBRANCH   8   9
ENDBRANCH   7   8
ENDBRANCH   6   7
ENDBRANCH   5   6
ENDBRANCH   4   5
ENDBRANCH   3   4
ENDBRANCH   2   3
ENDBRANCH   1   2
BRANCH   1  13
ATOM     13  C   UNL     1     -96.415  73.125  23.965  1.00  0.00     0.000 C 
BRANCH  13  14
ATOM     14  C   UNL     1     -95.692  74.019  22.944  1.00  0.00     0.000 C 
BRANCH  14  15
ATOM     15  C   UNL     1     -95.680  73.425  21.523  1.00  0.00     0.000 C 
BRANCH  15  16
ATOM     16  C   UNL     1     -96.311  72.028  21.381  1.00  0.00     0.000 C 
BRANCH  16  17
ATOM     17  C   UNL     1     -97.687  72.057  20.697  1.00  0.00     0.000 C 
BRANCH  17  18
ATOM     18  C   UNL     1     -98.812  71.490  21.584  1.00  0.00     0.000 C 
BRANCH  18  19
ATOM     19  C   UNL     1    -100.033  72.411  21.775  1.00  0.00     0.000 C 
BRANCH  19  20
ATOM     20  C   UNL     1    -101.349  71.699  22.147  1.00  0.00     0.006 C 
BRANCH  20  21
ATOM     21  C   UNL     1    -101.318  70.174  21.934  1.00  0.00     0.053 C 
BRANCH  21  22
ATOM     22  C   UNL     1    -102.621  69.636  21.425  1.00  0.00     0.041 C 
ATOM     23  O   UNL     1    -102.675  69.051  20.311  1.00  0.00    -0.550 OA
ATOM     24  O   UNL     1    -103.785  69.812  22.164  1.00  0.00    -0.550 OA
ENDBRANCH  21  22
ENDBRANCH  20  21
ENDBRANCH  19  20
ENDBRANCH  18  19
ENDBRANCH  17  18
ENDBRANCH  16  17
ENDBRANCH  15  16
ENDBRANCH  14  15
ENDBRANCH  13  14
ENDBRANCH   1  13
TORSDOF 20
ENDMDL
MODEL 9
REMARK VINA RESULT:    -3.249      4.128      7.288
REMARK INTER + INTRA:         -10.383
REMARK INTER:                  -6.694
REMARK INTRA:                  -3.689
REMARK UNBOUND:                -3.335
REMARK SMILES CCCCCCCCCCCCCCCCCCCCCC(=O)[O-]
REMARK SMILES IDX 12 1 11 2 10 3 9 4 8 5 7 6 6 7 5 8 4 9 3 10 2 11 1 12 13 13
REMARK SMILES IDX 14 14 15 15 16 16 17 17 18 18 19 19 20 20 21 21 22 22 23 23
REMARK SMILES IDX 24 24
REMARK H PARENT
REMARK Flexibility Score: inf
ROOT
ATOM      1  C   UNL     1     -98.140  72.120  20.695  1.00  0.00     0.000 C 
ENDROOT
BRANCH   1   2
ATOM      2  C   UNL     1     -96.679  71.764  21.026  1.00  0.00     0.000 C 
BRANCH   2   3
ATOM      3  C   UNL     1     -95.694  72.894  20.687  1.00  0.00     0.000 C 
BRANCH   3   4
ATOM      4  C   UNL     1     -95.278  73.656  21.951  1.00  0.00    -0.000 C 
BRANCH   4   5
ATOM      5  C   UNL     1     -95.643  72.864  23.216  1.00  0.00    -0.000 C 
BRANCH   5   6
ATOM      6  C   UNL     1     -96.294  73.741  24.297  1.00  0.00    -0.000 C 
BRANCH   6   7
ATOM      7  C   UNL     1     -97.816  73.550  24.380  1.00  0.00    -0.000 C 
BRANCH   7   8
ATOM      8  C   UNL     1     -98.257  73.287  25.827  1.00  0.00    -0.000 C 
BRANCH   8   9
ATOM      9  C   UNL     1     -99.785  73.290  25.995  1.00  0.00    -0.000 C 
BRANCH   9  10
ATOM     10  C   UNL     1    -100.505  72.532  24.866  1.00  0.00    -0.000 C 
BRANCH  10  11
ATOM     11  C   UNL     1    -102.016  72.399  25.118  1.00  0.00    -0.003 C 
ATOM     12  C   UNL     1    -102.658  71.280  24.299  1.00  0.00     0.004 C 
ENDBRANCH  10  11
ENDBRANCH   9  10
ENDBRANCH   8   9
ENDBRANCH   7   8
ENDBRANCH   6   7
ENDBRANCH   5   6
ENDBRANCH   4   5
ENDBRANCH   3   4
ENDBRANCH   2   3
ENDBRANCH   1   2
BRANCH   1  13
ATOM     13  C   UNL     1     -99.194  71.520  21.644  1.00  0.00     0.000 C 
BRANCH  13  14
ATOM     14  C   UNL     1     -98.622  70.430  22.564  1.00  0.00     0.000 C 
BRANCH  14  15
ATOM     15  C   UNL     1     -99.679  69.404  23.015  1.00  0.00     0.000 C 
BRANCH  15  16
ATOM     16  C   UNL     1     -99.400  68.708  24.360  1.00  0.00     0.000 C 
BRANCH  16  17
ATOM     17  C   UNL     1     -98.648  69.606  25.356  1.00  0.00     0.000 C 
BRANCH  17  18
ATOM     18  C   UNL     1     -99.265  69.588  26.767  1.00  0.00     0.000 C 
BRANCH  18  19
ATOM     19  C   UNL     1    -100.687  69.000  26.860  1.00  0.00     0.000 C 
BRANCH  19  20
ATOM     20  C   UNL     1    -101.702  69.842  27.659  1.00  0.00     0.006 C 
BRANCH  20  21
ATOM     21  C   UNL     1    -101.090  70.587  28.861  1.00  0.00     0.053 C 
BRANCH  21  22
ATOM     22  C   UNL     1    -101.762  70.244  30.155  1.00  0.00     0.041 C 
ATOM     23  O   UNL     1    -102.964  69.868  30.167  1.00  0.00    -0.550 OA
ATOM     24  O   UNL     1    -101.073  70.374  31.356  1.00  0.00    -0.550 OA
ENDBRANCH  21  22
ENDBRANCH  20  21
ENDBRANCH  19  20
ENDBRANCH  18  19
ENDBRANCH  17  18
ENDBRANCH  16  17
ENDBRANCH  15  16
ENDBRANCH  14  15
ENDBRANCH  13  14
ENDBRANCH   1  13
TORSDOF 20
ENDMDL
