MODEL 1
REMARK VINA RESULT:    -3.396      0.000      0.000
REMARK INTER + INTRA:          -5.591
REMARK INTER:                  -4.984
REMARK INTRA:                  -0.607
REMARK UNBOUND:                -0.607
REMARK SMILES O=C([O-])CCCCCCCC(=O)[O-]
REMARK SMILES IDX 7 1 6 2 5 3 4 4 2 5 1 6 3 7 8 8 9 9 10 10 11 11 12 12 13 13
REMARK H PARENT
REMARK Flexibility Score: inf
ROOT
ATOM      1  C   UNL     1     -99.745  69.656  23.127  1.00  0.00     0.000 C 
ENDROOT
BRANCH   1   2
ATOM      2  C   UNL     1     -99.334  68.425  23.942  1.00  0.00     0.000 C 
BRANCH   2   3
ATOM      3  C   UNL     1     -99.080  68.795  25.409  1.00  0.00     0.006 C 
BRANCH   3   4
ATOM      4  C   UNL     1    -100.018  69.916  25.863  1.00  0.00     0.053 C 
BRANCH   4   5
ATOM      5  C   UNL     1    -101.080  69.377  26.769  1.00  0.00     0.041 C 
ATOM      6  O   UNL     1    -100.814  68.447  27.573  1.00  0.00    -0.550 OA
ATOM      7  O   UNL     1    -102.353  69.937  26.758  1.00  0.00    -0.550 OA
ENDBRANCH   4   5
ENDBRANCH   3   4
ENDBRANCH   2   3
ENDBRANCH   1   2
BRANCH   1   8
ATOM      8  C   UNL     1     -98.524  70.300  22.452  1.00  0.00     0.000 C 
BRANCH   8   9
ATOM      9  C   UNL     1     -98.388  71.801  22.770  1.00  0.00     0.006 C 
BRANCH   9  10
ATOM     10  C   UNL     1     -97.435  72.116  23.935  1.00  0.00     0.053 C 
BRANCH  10  11
ATOM     11  C   UNL     1     -96.199  72.825  23.474  1.00  0.00     0.041 C 
ATOM     12  O   UNL     1     -95.690  73.735  24.179  1.00  0.00    -0.550 OA
ATOM     13  O   UNL     1     -95.590  72.456  22.281  1.00  0.00    -0.550 OA
ENDBRANCH  10  11
ENDBRANCH   9  10
ENDBRANCH   8   9
ENDBRANCH   1   8
TORSDOF 8
ENDMDL
MODEL 2
REMARK VINA RESULT:    -3.383      2.188      3.273
REMARK INTER + INTRA:          -5.572
REMARK INTER:                  -5.035
REMARK INTRA:                  -0.537
REMARK UNBOUND:                -0.607
REMARK SMILES O=C([O-])CCCCCCCC(=O)[O-]
REMARK SMILES IDX 7 1 6 2 5 3 4 4 2 5 1 6 3 7 8 8 9 9 10 10 11 11 12 12 13 13
REMARK H PARENT
REMARK Flexibility Score: inf
ROOT
ATOM      1  C   UNL     1    -100.503  70.012  25.691  1.00  0.00     0.000 C 
ENDROOT
BRANCH   1   2
ATOM      2  C   UNL     1    -101.513  69.576  26.759  1.00  0.00     0.000 C 
BRANCH   2   3
ATOM      3  C   UNL     1    -100.909  68.514  27.687  1.00  0.00     0.006 C 
BRANCH   3   4
ATOM      4  C   UNL     1    -100.413  69.143  28.992  1.00  0.00     0.053 C 
BRANCH   4   5
ATOM      5  C   UNL     1     -98.927  69.012  29.105  1.00  0.00     0.041 C 
ATOM      6  O   UNL     1     -98.416  67.946  29.535  1.00  0.00    -0.550 OA
ATOM      7  O   UNL     1     -98.104  70.052  28.688  1.00  0.00    -0.550 OA
ENDBRANCH   4   5
ENDBRANCH   3   4
ENDBRANCH   2   3
ENDBRANCH   1   2
BRANCH   1   8
ATOM      8  C   UNL     1     -99.513  68.880  25.375  1.00  0.00     0.000 C 
BRANCH   8   9
ATOM      9  C   UNL     1     -99.232  68.736  23.868  1.00  0.00     0.006 C 
BRANCH   9  10
ATOM     10  C   UNL     1     -99.481  70.016  23.054  1.00  0.00     0.053 C 
BRANCH  10  11
ATOM     11  C   UNL     1     -98.237  70.838  22.905  1.00  0.00     0.041 C 
ATOM     12  O   UNL     1     -97.799  71.505  23.879  1.00  0.00    -0.550 OA
ATOM     13  O   UNL     1     -97.545  70.840  21.701  1.00  0.00    -0.550 OA
ENDBRANCH  10  11
ENDBRANCH   9  10
ENDBRANCH   8   9
ENDBRANCH   1   8
TORSDOF 8
ENDMDL
MODEL 3
REMARK VINA RESULT:    -3.328      2.079      5.687
REMARK INTER + INTRA:          -5.491
REMARK INTER:                  -4.929
REMARK INTRA:                  -0.562
REMARK UNBOUND:                -0.607
REMARK SMILES O=C([O-])CCCCCCCC(=O)[O-]
REMARK SMILES IDX 7 1 6 2 5 3 4 4 2 5 1 6 3 7 8 8 9 9 10 10 11 11 12 12 13 13
REMARK H PARENT
REMARK Flexibility Score: inf
ROOT
ATOM      1  C   UNL     1    -100.333  69.946  25.543  1.00  0.00     0.000 C 
ENDROOT
BRANCH   1   2
ATOM      2  C   UNL     1     -99.425  68.798  25.089  1.00  0.00     0.000 C 
BRANCH   2   3
ATOM      3  C   UNL     1     -99.221  68.825  23.569  1.00  0.00     0.006 C 
BRANCH   3   4
ATOM      4  C   UNL     1     -99.485  70.223  23.004  1.00  0.00     0.053 C 
BRANCH   4   5
ATOM      5  C   UNL     1     -98.201  70.973  22.841  1.00  0.00     0.041 C 
ATOM      6  O   UNL     1     -97.698  71.590  23.815  1.00  0.00    -0.550 OA
ATOM      7  O   UNL     1     -97.532  70.948  21.622  1.00  0.00    -0.550 OA
ENDBRANCH   4   5
ENDBRANCH   3   4
ENDBRANCH   2   3
ENDBRANCH   1   2
BRANCH   1   8
ATOM      8  C   UNL     1     -99.682  70.743  26.685  1.00  0.00     0.000 C 
BRANCH   8   9
ATOM      9  C   UNL     1     -98.438  70.046  27.267  1.00  0.00     0.006 C 
BRANCH   9  10
ATOM     10  C   UNL     1     -98.483  69.842  28.790  1.00  0.00     0.053 C 
BRANCH  10  11
ATOM     11  C   UNL     1     -99.091  68.525  29.163  1.00  0.00     0.041 C 
ATOM     12  O   UNL     1     -98.518  67.776  29.996  1.00  0.00    -0.550 OA
ATOM     13  O   UNL     1    -100.308  68.141  28.614  1.00  0.00    -0.550 OA
ENDBRANCH  10  11
ENDBRANCH   9  10
ENDBRANCH   8   9
ENDBRANCH   1   8
TORSDOF 8
ENDMDL
MODEL 4
REMARK VINA RESULT:    -3.309      0.325      5.839
REMARK INTER + INTRA:          -5.464
REMARK INTER:                  -4.868
REMARK INTRA:                  -0.596
REMARK UNBOUND:                -0.607
REMARK SMILES O=C([O-])CCCCCCCC(=O)[O-]
REMARK SMILES IDX 7 1 6 2 5 3 4 4 2 5 1 6 3 7 8 8 9 9 10 10 11 11 12 12 13 13
REMARK H PARENT
REMARK Flexibility Score: inf
ROOT
ATOM      1  C   UNL     1     -99.735  69.773  23.369  1.00  0.00     0.000 C 
ENDROOT
BRANCH   1   2
ATOM      2  C   UNL     1     -98.674  70.232  22.363  1.00  0.00     0.000 C 
BRANCH   2   3
ATOM      3  C   UNL     1     -98.386  71.731  22.512  1.00  0.00     0.006 C 
BRANCH   3   4
ATOM      4  C   UNL     1     -97.574  72.011  23.780  1.00  0.00     0.053 C 
BRANCH   4   5
ATOM      5  C   UNL     1     -96.319  72.753  23.445  1.00  0.00     0.041 C 
ATOM      6  O   UNL     1     -95.676  72.471  22.401  1.00  0.00    -0.550 OA
ATOM      7  O   UNL     1     -95.885  73.790  24.262  1.00  0.00    -0.550 OA
ENDBRANCH   4   5
ENDBRANCH   3   4
ENDBRANCH   2   3
ENDBRANCH   1   2
BRANCH   1   8
ATOM      8  C   UNL     1     -99.292  68.488  24.087  1.00  0.00     0.000 C 
BRANCH   8   9
ATOM      9  C   UNL     1     -98.878  68.734  25.550  1.00  0.00     0.006 C 
BRANCH   9  10
ATOM     10  C   UNL     1     -99.705  69.812  26.268  1.00  0.00     0.053 C 
BRANCH  10  11
ATOM     11  C   UNL     1    -100.865  69.227  27.014  1.00  0.00     0.041 C 
ATOM     12  O   UNL     1    -102.044  69.512  26.676  1.00  0.00    -0.550 OA
ATOM     13  O   UNL     1    -100.643  68.341  28.060  1.00  0.00    -0.550 OA
ENDBRANCH  10  11
ENDBRANCH   9  10
ENDBRANCH   8   9
ENDBRANCH   1   8
TORSDOF 8
ENDMDL
MODEL 5
REMARK VINA RESULT:    -3.265      1.419      6.022
REMARK INTER + INTRA:          -5.399
REMARK INTER:                  -4.841
REMARK INTRA:                  -0.558
REMARK UNBOUND:                -0.607
REMARK SMILES O=C([O-])CCCCCCCC(=O)[O-]
REMARK SMILES IDX 7 1 6 2 5 3 4 4 2 5 1 6 3 7 8 8 9 9 10 10 11 11 12 12 13 13
REMARK H PARENT
REMARK Flexibility Score: inf
ROOT
ATOM      1  C   UNL     1     -98.783  71.688  23.168  1.00  0.00     0.000 C 
ENDROOT
BRANCH   1   2
ATOM      2  C   UNL     1     -97.679  71.943  24.200  1.00  0.00     0.000 C 
BRANCH   2   3
ATOM      3  C   UNL     1     -96.885  73.209  23.855  1.00  0.00     0.006 C 
BRANCH   3   4
ATOM      4  C   UNL     1     -95.546  72.857  23.200  1.00  0.00     0.053 C 
BRANCH   4   5
ATOM      5  C   UNL     1     -95.629  73.026  21.716  1.00  0.00     0.041 C 
ATOM      6  O   UNL     1     -96.008  72.070  20.990  1.00  0.00    -0.550 OA
ATOM      7  O   UNL     1     -95.335  74.256  21.139  1.00  0.00    -0.550 OA
ENDBRANCH   4   5
ENDBRANCH   3   4
ENDBRANCH   2   3
ENDBRANCH   1   2
BRANCH   1   8
ATOM      8  C   UNL     1     -98.678  70.268  22.589  1.00  0.00     0.000 C 
BRANCH   8   9
ATOM      9  C   UNL     1     -99.703  69.296  23.204  1.00  0.00     0.006 C 
BRANCH   9  10
ATOM     10  C   UNL     1     -99.162  68.468  24.381  1.00  0.00     0.053 C 
BRANCH  10  11
ATOM     11  C   UNL     1     -99.533  69.064  25.704  1.00  0.00     0.041 C 
ATOM     12  O   UNL     1    -100.651  69.622  25.856  1.00  0.00    -0.550 OA
ATOM     13  O   UNL     1     -98.657  68.971  26.778  1.00  0.00    -0.550 OA
ENDBRANCH  10  11
ENDBRANCH   9  10
ENDBRANCH   8   9
ENDBRANCH   1   8
TORSDOF 8
ENDMDL
MODEL 6
REMARK VINA RESULT:    -3.253      1.800      2.134
REMARK INTER + INTRA:          -5.382
REMARK INTER:                  -5.028
REMARK INTRA:                  -0.354
REMARK UNBOUND:                -0.607
REMARK SMILES O=C([O-])CCCCCCCC(=O)[O-]
REMARK SMILES IDX 7 1 6 2 5 3 4 4 2 5 1 6 3 7 8 8 9 9 10 10 11 11 12 12 13 13
REMARK H PARENT
REMARK Flexibility Score: inf
ROOT
ATOM      1  C   UNL     1     -99.671  70.019  23.646  1.00  0.00     0.000 C 
ENDROOT
BRANCH   1   2
ATOM      2  C   UNL     1     -99.328  68.771  24.468  1.00  0.00     0.000 C 
BRANCH   2   3
ATOM      3  C   UNL     1     -99.552  69.019  25.965  1.00  0.00     0.006 C 
BRANCH   3   4
ATOM      4  C   UNL     1     -98.695  70.186  26.463  1.00  0.00     0.053 C 
BRANCH   4   5
ATOM      5  C   UNL     1     -98.343  69.999  27.905  1.00  0.00     0.041 C 
ATOM      6  O   UNL     1     -98.048  70.992  28.619  1.00  0.00    -0.550 OA
ATOM      7  O   UNL     1     -98.389  68.731  28.473  1.00  0.00    -0.550 OA
ENDBRANCH   4   5
ENDBRANCH   3   4
ENDBRANCH   2   3
ENDBRANCH   1   2
BRANCH   1   8
ATOM      8  C   UNL     1     -98.609  70.273  22.564  1.00  0.00     0.000 C 
BRANCH   8   9
ATOM      9  C   UNL     1     -97.888  71.622  22.740  1.00  0.00     0.006 C 
BRANCH   9  10
ATOM     10  C   UNL     1     -96.746  71.863  21.740  1.00  0.00     0.053 C 
BRANCH  10  11
ATOM     11  C   UNL     1     -95.708  72.795  22.286  1.00  0.00     0.041 C 
ATOM     12  O   UNL     1     -95.442  72.797  23.516  1.00  0.00    -0.550 OA
ATOM     13  O   UNL     1     -95.011  73.637  21.429  1.00  0.00    -0.550 OA
ENDBRANCH  10  11
ENDBRANCH   9  10
ENDBRANCH   8   9
ENDBRANCH   1   8
TORSDOF 8
ENDMDL
MODEL 7
REMARK VINA RESULT:    -3.252      2.931      5.643
REMARK INTER + INTRA:          -5.380
REMARK INTER:                  -4.844
REMARK INTRA:                  -0.536
REMARK UNBOUND:                -0.607
REMARK SMILES O=C([O-])CCCCCCCC(=O)[O-]
REMARK SMILES IDX 7 1 6 2 5 3 4 4 2 5 1 6 3 7 8 8 9 9 10 10 11 11 12 12 13 13
REMARK H PARENT
REMARK Flexibility Score: inf
ROOT
ATOM      1  C   UNL     1     -99.746  70.086  25.772  1.00  0.00     0.000 C 
ENDROOT
BRANCH   1   2
ATOM      2  C   UNL     1     -99.141  68.769  25.274  1.00  0.00     0.000 C 
BRANCH   2   3
ATOM      3  C   UNL     1     -99.287  68.635  23.753  1.00  0.00     0.006 C 
BRANCH   3   4
ATOM      4  C   UNL     1     -98.941  69.951  23.050  1.00  0.00     0.053 C 
BRANCH   4   5
ATOM      5  C   UNL     1    -100.092  70.419  22.217  1.00  0.00     0.041 C 
ATOM      6  O   UNL     1    -101.203  69.833  22.286  1.00  0.00    -0.550 OA
ATOM      7  O   UNL     1     -99.950  71.535  21.400  1.00  0.00    -0.550 OA
ENDBRANCH   4   5
ENDBRANCH   3   4
ENDBRANCH   2   3
ENDBRANCH   1   2
BRANCH   1   8
ATOM      8  C   UNL     1    -101.081  69.839  26.493  1.00  0.00     0.000 C 
BRANCH   8   9
ATOM      9  C   UNL     1    -101.012  68.669  27.493  1.00  0.00     0.006 C 
BRANCH   9  10
ATOM     10  C   UNL     1    -100.545  69.069  28.902  1.00  0.00     0.053 C 
BRANCH  10  11
ATOM     11  C   UNL     1     -99.132  68.649  29.166  1.00  0.00     0.041 C 
ATOM     12  O   UNL     1     -98.178  69.421  28.885  1.00  0.00    -0.550 OA
ATOM     13  O   UNL     1     -98.871  67.419  29.755  1.00  0.00    -0.550 OA
ENDBRANCH  10  11
ENDBRANCH   9  10
ENDBRANCH   8   9
ENDBRANCH   1   8
TORSDOF 8
ENDMDL
MODEL 8
REMARK VINA RESULT:    -3.229      2.848      5.435
REMARK INTER + INTRA:          -5.347
REMARK INTER:                  -4.720
REMARK INTRA:                  -0.627
REMARK UNBOUND:                -0.607
REMARK SMILES O=C([O-])CCCCCCCC(=O)[O-]
REMARK SMILES IDX 7 1 6 2 5 3 4 4 2 5 1 6 3 7 8 8 9 9 10 10 11 11 12 12 13 13
REMARK H PARENT
REMARK Flexibility Score: inf
ROOT
ATOM      1  C   UNL     1    -101.243  68.834  26.908  1.00  0.00     0.000 C 
ENDROOT
BRANCH   1   2
ATOM      2  C   UNL     1    -100.429  69.600  25.860  1.00  0.00     0.000 C 
BRANCH   2   3
ATOM      3  C   UNL     1     -99.212  68.784  25.404  1.00  0.00     0.006 C 
BRANCH   3   4
ATOM      4  C   UNL     1     -99.261  68.520  23.897  1.00  0.00     0.053 C 
BRANCH   4   5
ATOM      5  C   UNL     1     -99.193  69.807  23.137  1.00  0.00     0.041 C 
ATOM      6  O   UNL     1    -100.069  70.083  22.276  1.00  0.00    -0.550 OA
ATOM      7  O   UNL     1     -98.187  70.726  23.416  1.00  0.00    -0.550 OA
ENDBRANCH   4   5
ENDBRANCH   3   4
ENDBRANCH   2   3
ENDBRANCH   1   2
BRANCH   1   8
ATOM      8  C   UNL     1    -101.050  69.442  28.307  1.00  0.00     0.000 C 
BRANCH   8   9
ATOM      9  C   UNL     1    -100.126  68.596  29.202  1.00  0.00     0.006 C 
BRANCH   9  10
ATOM     10  C   UNL     1     -98.629  68.904  29.035  1.00  0.00     0.053 C 
BRANCH  10  11
ATOM     11  C   UNL     1     -98.352  70.376  29.055  1.00  0.00     0.041 C 
ATOM     12  O   UNL     1     -97.930  70.955  28.021  1.00  0.00    -0.550 OA
ATOM     13  O   UNL     1     -98.594  71.113  30.208  1.00  0.00    -0.550 OA
ENDBRANCH  10  11
ENDBRANCH   9  10
ENDBRANCH   8   9
ENDBRANCH   1   8
TORSDOF 8
ENDMDL
MODEL 9
REMARK VINA RESULT:    -3.185      2.528      3.845
REMARK INTER + INTRA:          -5.281
REMARK INTER:                  -4.574
REMARK INTRA:                  -0.707
REMARK UNBOUND:                -0.607
REMARK SMILES O=C([O-])CCCCCCCC(=O)[O-]
REMARK SMILES IDX 7 1 6 2 5 3 4 4 2 5 1 6 3 7 8 8 9 9 10 10 11 11 12 12 13 13
REMARK H PARENT
REMARK Flexibility Score: inf
ROOT
ATOM      1  C   UNL     1     -99.536  71.094  26.498  1.00  0.00     0.000 C 
ENDROOT
BRANCH   1   2
ATOM      2  C   UNL     1     -98.285  70.475  27.133  1.00  0.00     0.000 C 
BRANCH   2   3
ATOM      3  C   UNL     1     -98.273  70.692  28.651  1.00  0.00     0.006 C 
BRANCH   3   4
ATOM      4  C   UNL     1     -99.519  70.084  29.303  1.00  0.00     0.053 C 
BRANCH   4   5
ATOM      5  C   UNL     1     -99.495  68.593  29.189  1.00  0.00     0.041 C 
ATOM      6  O   UNL     1     -98.654  67.921  29.841  1.00  0.00    -0.550 OA
ATOM      7  O   UNL     1    -100.435  67.941  28.399  1.00  0.00    -0.550 OA
ENDBRANCH   4   5
ENDBRANCH   3   4
ENDBRANCH   2   3
ENDBRANCH   1   2
BRANCH   1   8
ATOM      8  C   UNL     1    -100.276  70.066  25.629  1.00  0.00     0.000 C 
BRANCH   8   9
ATOM      9  C   UNL     1     -99.378  68.892  25.196  1.00  0.00     0.006 C 
BRANCH   9  10
ATOM     10  C   UNL     1     -99.342  68.651  23.678  1.00  0.00     0.053 C 
BRANCH  10  11
ATOM     11  C   UNL     1     -99.165  69.925  22.910  1.00  0.00     0.041 C 
ATOM     12  O   UNL     1    -100.022  70.274  22.057  1.00  0.00    -0.550 OA
ATOM     13  O   UNL     1     -98.071  70.742  23.163  1.00  0.00    -0.550 OA
ENDBRANCH  10  11
ENDBRANCH   9  10
ENDBRANCH   8   9
ENDBRANCH   1   8
TORSDOF 8
ENDMDL
