MODEL 1
REMARK VINA RESULT:    -3.956      0.000      0.000
REMARK INTER + INTRA:          -5.717
REMARK INTER:                  -5.344
REMARK INTRA:                  -0.373
REMARK UNBOUND:                -0.373
REMARK SMILES CCCCCCCC(=O)[O-]
REMARK SMILES IDX 5 1 6 2 7 3 8 4 9 5 10 6 4 7 3 8 2 9 1 10
REMARK H PARENT
REMARK Flexibility Score: inf
ROOT
ATOM      1  C   UNL     1      49.065  59.884  19.568  1.00  0.00     0.000 C 
ENDROOT
BRANCH   1   2
ATOM      2  C   UNL     1      50.449  60.334  20.060  1.00  0.00     0.006 C 
BRANCH   2   3
ATOM      3  C   UNL     1      51.017  59.340  21.079  1.00  0.00     0.053 C 
BRANCH   3   4
ATOM      4  C   UNL     1      51.386  60.042  22.346  1.00  0.00     0.041 C 
ATOM      5  O   UNL     1      52.558  59.958  22.799  1.00  0.00    -0.550 OA
ATOM      6  O   UNL     1      50.423  60.750  23.055  1.00  0.00    -0.550 OA
ENDBRANCH   3   4
ENDBRANCH   2   3
ENDBRANCH   1   2
BRANCH   1   7
ATOM      7  C   UNL     1      48.242  59.190  20.665  1.00  0.00     0.000 C 
BRANCH   7   8
ATOM      8  C   UNL     1      46.732  59.226  20.385  1.00  0.00    -0.000 C 
BRANCH   8   9
ATOM      9  C   UNL     1      46.036  60.264  21.273  1.00  0.00    -0.003 C 
ATOM     10  C   UNL     1      46.777  60.444  22.596  1.00  0.00     0.004 C 
ENDBRANCH   8   9
ENDBRANCH   7   8
ENDBRANCH   1   7
TORSDOF 6
ENDMDL
MODEL 2
REMARK VINA RESULT:    -3.797     10.476     11.927
REMARK INTER + INTRA:          -5.502
REMARK INTER:                  -4.973
REMARK INTRA:                  -0.529
REMARK UNBOUND:                -0.373
REMARK SMILES CCCCCCCC(=O)[O-]
REMARK SMILES IDX 5 1 6 2 7 3 8 4 9 5 10 6 4 7 3 8 2 9 1 10
REMARK H PARENT
REMARK Flexibility Score: inf
ROOT
ATOM      1  C   UNL     1      42.325  61.443  13.432  1.00  0.00     0.000 C 
ENDROOT
BRANCH   1   2
ATOM      2  C   UNL     1      41.911  62.891  13.133  1.00  0.00     0.006 C 
BRANCH   2   3
ATOM      3  C   UNL     1      41.948  63.172  11.627  1.00  0.00     0.053 C 
BRANCH   3   4
ATOM      4  C   UNL     1      43.036  64.144  11.302  1.00  0.00     0.041 C 
ATOM      5  O   UNL     1      42.899  64.953  10.346  1.00  0.00    -0.550 OA
ATOM      6  O   UNL     1      44.224  64.126  12.023  1.00  0.00    -0.550 OA
ENDBRANCH   3   4
ENDBRANCH   2   3
ENDBRANCH   1   2
BRANCH   1   7
ATOM      7  C   UNL     1      43.790  61.326  13.883  1.00  0.00     0.000 C 
BRANCH   7   8
ATOM      8  C   UNL     1      44.577  60.283  13.076  1.00  0.00    -0.000 C 
BRANCH   8   9
ATOM      9  C   UNL     1      44.166  60.309  11.599  1.00  0.00    -0.003 C 
ATOM     10  C   UNL     1      45.314  60.794  10.717  1.00  0.00     0.004 C 
ENDBRANCH   8   9
ENDBRANCH   7   8
ENDBRANCH   1   7
TORSDOF 6
ENDMDL
MODEL 3
REMARK VINA RESULT:    -3.782      2.125      4.423
REMARK INTER + INTRA:          -5.481
REMARK INTER:                  -5.120
REMARK INTRA:                  -0.362
REMARK UNBOUND:                -0.373
REMARK SMILES CCCCCCCC(=O)[O-]
REMARK SMILES IDX 5 1 6 2 7 3 8 4 9 5 10 6 4 7 3 8 2 9 1 10
REMARK H PARENT
REMARK Flexibility Score: inf
ROOT
ATOM      1  C   UNL     1      49.154  59.907  19.589  1.00  0.00     0.000 C 
ENDROOT
BRANCH   1   2
ATOM      2  C   UNL     1      48.291  59.201  20.646  1.00  0.00     0.006 C 
BRANCH   2   3
ATOM      3  C   UNL     1      46.821  59.616  20.518  1.00  0.00     0.053 C 
BRANCH   3   4
ATOM      4  C   UNL     1      46.254  59.954  21.859  1.00  0.00     0.041 C 
ATOM      5  O   UNL     1      45.078  59.612  22.155  1.00  0.00    -0.550 OA
ATOM      6  O   UNL     1      47.005  60.689  22.767  1.00  0.00    -0.550 OA
ENDBRANCH   3   4
ENDBRANCH   2   3
ENDBRANCH   1   2
BRANCH   1   7
ATOM      7  C   UNL     1      50.527  60.332  20.133  1.00  0.00     0.000 C 
BRANCH   7   8
ATOM      8  C   UNL     1      51.211  59.223  20.947  1.00  0.00    -0.000 C 
BRANCH   8   9
ATOM      9  C   UNL     1      51.734  59.767  22.282  1.00  0.00    -0.003 C 
ATOM     10  C   UNL     1      50.707  60.681  22.945  1.00  0.00     0.004 C 
ENDBRANCH   8   9
ENDBRANCH   7   8
ENDBRANCH   1   7
TORSDOF 6
ENDMDL
MODEL 4
REMARK VINA RESULT:    -3.778     11.115     12.324
REMARK INTER + INTRA:          -5.476
REMARK INTER:                  -5.002
REMARK INTRA:                  -0.474
REMARK UNBOUND:                -0.373
REMARK SMILES CCCCCCCC(=O)[O-]
REMARK SMILES IDX 5 1 6 2 7 3 8 4 9 5 10 6 4 7 3 8 2 9 1 10
REMARK H PARENT
REMARK Flexibility Score: inf
ROOT
ATOM      1  C   UNL     1      44.282  60.780  11.901  1.00  0.00     0.000 C 
ENDROOT
BRANCH   1   2
ATOM      2  C   UNL     1      44.519  61.725  13.089  1.00  0.00     0.006 C 
BRANCH   2   3
ATOM      3  C   UNL     1      44.607  63.181  12.621  1.00  0.00     0.053 C 
BRANCH   3   4
ATOM      4  C   UNL     1      43.271  63.662  12.151  1.00  0.00     0.041 C 
ATOM      5  O   UNL     1      43.177  64.338  11.093  1.00  0.00    -0.550 OA
ATOM      6  O   UNL     1      42.134  63.406  12.907  1.00  0.00    -0.550 OA
ENDBRANCH   3   4
ENDBRANCH   2   3
ENDBRANCH   1   2
BRANCH   1   7
ATOM      7  C   UNL     1      45.388  60.877  10.838  1.00  0.00     0.000 C 
BRANCH   7   8
ATOM      8  C   UNL     1      44.870  60.603   9.418  1.00  0.00    -0.000 C 
BRANCH   8   9
ATOM      9  C   UNL     1      43.496  61.248   9.203  1.00  0.00    -0.003 C 
ATOM     10  C   UNL     1      43.416  61.935   7.842  1.00  0.00     0.004 C 
ENDBRANCH   8   9
ENDBRANCH   7   8
ENDBRANCH   1   7
TORSDOF 6
ENDMDL
MODEL 5
REMARK VINA RESULT:    -3.777     10.838     12.246
REMARK INTER + INTRA:          -5.475
REMARK INTER:                  -4.961
REMARK INTRA:                  -0.514
REMARK UNBOUND:                -0.373
REMARK SMILES CCCCCCCC(=O)[O-]
REMARK SMILES IDX 5 1 6 2 7 3 8 4 9 5 10 6 4 7 3 8 2 9 1 10
REMARK H PARENT
REMARK Flexibility Score: inf
ROOT
ATOM      1  C   UNL     1      43.944  63.780  12.239  1.00  0.00     0.000 C 
ENDROOT
BRANCH   1   2
ATOM      2  C   UNL     1      42.484  63.770  11.764  1.00  0.00     0.006 C 
BRANCH   2   3
ATOM      3  C   UNL     1      41.537  63.395  12.909  1.00  0.00     0.053 C 
BRANCH   3   4
ATOM      4  C   UNL     1      40.334  62.680  12.382  1.00  0.00     0.041 C 
ATOM      5  O   UNL     1      40.415  61.997  11.328  1.00  0.00    -0.550 OA
ATOM      6  O   UNL     1      39.112  62.806  13.029  1.00  0.00    -0.550 OA
ENDBRANCH   3   4
ENDBRANCH   2   3
ENDBRANCH   1   2
BRANCH   1   7
ATOM      7  C   UNL     1      44.649  62.433  12.016  1.00  0.00     0.000 C 
BRANCH   7   8
ATOM      8  C   UNL     1      44.968  61.706  13.331  1.00  0.00    -0.000 C 
BRANCH   8   9
ATOM      9  C   UNL     1      44.350  60.303  13.345  1.00  0.00    -0.003 C 
ATOM     10  C   UNL     1      43.401  60.107  12.166  1.00  0.00     0.004 C 
ENDBRANCH   8   9
ENDBRANCH   7   8
ENDBRANCH   1   7
TORSDOF 6
ENDMDL
MODEL 6
REMARK VINA RESULT:    -3.777     10.495     11.779
REMARK INTER + INTRA:          -5.475
REMARK INTER:                  -4.943
REMARK INTRA:                  -0.532
REMARK UNBOUND:                -0.373
REMARK SMILES CCCCCCCC(=O)[O-]
REMARK SMILES IDX 5 1 6 2 7 3 8 4 9 5 10 6 4 7 3 8 2 9 1 10
REMARK H PARENT
REMARK Flexibility Score: inf
ROOT
ATOM      1  C   UNL     1      44.556  60.431  12.856  1.00  0.00     0.000 C 
ENDROOT
BRANCH   1   2
ATOM      2  C   UNL     1      44.416  61.774  13.586  1.00  0.00     0.006 C 
BRANCH   2   3
ATOM      3  C   UNL     1      44.704  62.945  12.640  1.00  0.00     0.053 C 
BRANCH   3   4
ATOM      4  C   UNL     1      43.431  63.622  12.243  1.00  0.00     0.041 C 
ATOM      5  O   UNL     1      42.363  63.379  12.864  1.00  0.00    -0.550 OA
ATOM      6  O   UNL     1      43.413  64.484  11.154  1.00  0.00    -0.550 OA
ENDBRANCH   3   4
ENDBRANCH   2   3
ENDBRANCH   1   2
BRANCH   1   7
ATOM      7  C   UNL     1      43.222  59.928  12.280  1.00  0.00     0.000 C 
BRANCH   7   8
ATOM      8  C   UNL     1      43.194  59.949  10.744  1.00  0.00    -0.000 C 
BRANCH   8   9
ATOM      9  C   UNL     1      44.614  60.032  10.172  1.00  0.00    -0.003 C 
ATOM     10  C   UNL     1      44.643  60.852   8.885  1.00  0.00     0.004 C 
ENDBRANCH   8   9
ENDBRANCH   7   8
ENDBRANCH   1   7
TORSDOF 6
ENDMDL
MODEL 7
REMARK VINA RESULT:    -3.776     10.475     11.656
REMARK INTER + INTRA:          -5.473
REMARK INTER:                  -4.890
REMARK INTRA:                  -0.584
REMARK UNBOUND:                -0.373
REMARK SMILES CCCCCCCC(=O)[O-]
REMARK SMILES IDX 5 1 6 2 7 3 8 4 9 5 10 6 4 7 3 8 2 9 1 10
REMARK H PARENT
REMARK Flexibility Score: inf
ROOT
ATOM      1  C   UNL     1      44.728  61.702  13.402  1.00  0.00     0.000 C 
ENDROOT
BRANCH   1   2
ATOM      2  C   UNL     1      44.476  60.232  13.038  1.00  0.00     0.006 C 
BRANCH   2   3
ATOM      3  C   UNL     1      42.974  59.933  12.975  1.00  0.00     0.053 C 
BRANCH   3   4
ATOM      4  C   UNL     1      42.553  59.658  11.567  1.00  0.00     0.041 C 
ATOM      5  O   UNL     1      43.390  59.729  10.629  1.00  0.00    -0.550 OA
ATOM      6  O   UNL     1      41.224  59.368  11.282  1.00  0.00    -0.550 OA
ENDBRANCH   3   4
ENDBRANCH   2   3
ENDBRANCH   1   2
BRANCH   1   7
ATOM      7  C   UNL     1      44.730  62.626  12.173  1.00  0.00     0.000 C 
BRANCH   7   8
ATOM      8  C   UNL     1      43.748  63.799  12.312  1.00  0.00    -0.000 C 
BRANCH   8   9
ATOM      9  C   UNL     1      42.336  63.385  11.879  1.00  0.00    -0.003 C 
ATOM     10  C   UNL     1      41.385  63.338  13.073  1.00  0.00     0.004 C 
ENDBRANCH   8   9
ENDBRANCH   7   8
ENDBRANCH   1   7
TORSDOF 6
ENDMDL
MODEL 8
REMARK VINA RESULT:    -3.727     11.271     12.570
REMARK INTER + INTRA:          -5.407
REMARK INTER:                  -4.804
REMARK INTRA:                  -0.603
REMARK UNBOUND:                -0.373
REMARK SMILES CCCCCCCC(=O)[O-]
REMARK SMILES IDX 5 1 6 2 7 3 8 4 9 5 10 6 4 7 3 8 2 9 1 10
REMARK H PARENT
REMARK Flexibility Score: inf
ROOT
ATOM      1  C   UNL     1      44.579  61.852  13.074  1.00  0.00     0.000 C 
ENDROOT
BRANCH   1   2
ATOM      2  C   UNL     1      44.528  63.151  12.257  1.00  0.00     0.006 C 
BRANCH   2   3
ATOM      3  C   UNL     1      43.115  63.744  12.261  1.00  0.00     0.053 C 
BRANCH   3   4
ATOM      4  C   UNL     1      42.390  63.378  11.005  1.00  0.00     0.041 C 
ATOM      5  O   UNL     1      42.408  64.154  10.014  1.00  0.00    -0.550 OA
ATOM      6  O   UNL     1      41.654  62.201  10.944  1.00  0.00    -0.550 OA
ENDBRANCH   3   4
ENDBRANCH   2   3
ENDBRANCH   1   2
BRANCH   1   7
ATOM      7  C   UNL     1      44.614  60.596  12.188  1.00  0.00     0.000 C 
BRANCH   7   8
ATOM      8  C   UNL     1      45.353  60.826  10.862  1.00  0.00    -0.000 C 
BRANCH   8   9
ATOM      9  C   UNL     1      44.645  60.107   9.708  1.00  0.00    -0.003 C 
ATOM     10  C   UNL     1      44.205  61.094   8.630  1.00  0.00     0.004 C 
ENDBRANCH   8   9
ENDBRANCH   7   8
ENDBRANCH   1   7
TORSDOF 6
ENDMDL
