MODEL 1
REMARK VINA RESULT:    -5.345      0.000      0.000
REMARK INTER + INTRA:          -9.780
REMARK INTER:                  -9.251
REMARK INTRA:                  -0.529
REMARK UNBOUND:                -0.529
REMARK SMILES CCCCCCCCCCCCCCO
REMARK SMILES IDX 8 1 7 2 6 3 5 4 4 5 3 6 2 7 1 8 9 9 10 10 11 11 12 12 13 13
REMARK SMILES IDX 14 14 15 15
REMARK H PARENT 15 16
REMARK Flexibility Score: inf
ROOT
ATOM      1  C   UNL     1      -0.617   1.509  11.505  1.00  0.00     0.000 C 
ENDROOT
BRANCH   1   2
ATOM      2  C   UNL     1      -0.280   1.528  13.002  1.00  0.00    -0.000 C 
BRANCH   2   3
ATOM      3  C   UNL     1      -0.629   0.185  13.661  1.00  0.00    -0.000 C 
BRANCH   3   4
ATOM      4  C   UNL     1       0.589  -0.744  13.796  1.00  0.00    -0.000 C 
BRANCH   4   5
ATOM      5  C   UNL     1       1.558  -0.292  14.902  1.00  0.00    -0.000 C 
BRANCH   5   6
ATOM      6  C   UNL     1       2.878  -1.081  14.889  1.00  0.00    -0.000 C 
BRANCH   6   7
ATOM      7  C   UNL     1       2.770  -2.405  14.118  1.00  0.00    -0.003 C 
ATOM      8  C   UNL     1       2.542  -3.576  15.069  1.00  0.00     0.004 C 
ENDBRANCH   6   7
ENDBRANCH   5   6
ENDBRANCH   4   5
ENDBRANCH   3   4
ENDBRANCH   2   3
ENDBRANCH   1   2
BRANCH   1   9
ATOM      9  C   UNL     1      -0.305   2.864  10.853  1.00  0.00     0.000 C 
BRANCH   9  10
ATOM     10  C   UNL     1       0.850   3.605  11.545  1.00  0.00     0.000 C 
BRANCH  10  11
ATOM     11  C   UNL     1       1.762   4.339  10.547  1.00  0.00     0.000 C 
BRANCH  11  12
ATOM     12  C   UNL     1       2.751   5.299  11.234  1.00  0.00     0.002 C 
BRANCH  12  13
ATOM     13  C   UNL     1       3.100   6.568  10.433  1.00  0.00     0.028 C 
BRANCH  13  14
ATOM     14  C   UNL     1       2.016   7.651  10.489  1.00  0.00     0.156 C 
BRANCH  14  15
ATOM     15  O   UNL     1       1.845   8.101  11.804  1.00  0.00    -0.396 OA
ATOM     16  H   UNL     1       0.993   8.609  11.813  1.00  0.00     0.210 HD
ENDBRANCH  14  15
ENDBRANCH  13  14
ENDBRANCH  12  13
ENDBRANCH  11  12
ENDBRANCH  10  11
ENDBRANCH   9  10
ENDBRANCH   1   9
TORSDOF 13
ENDMDL
MODEL 2
REMARK VINA RESULT:    -5.287      3.498      7.566
REMARK INTER + INTRA:          -9.679
REMARK INTER:                  -9.029
REMARK INTRA:                  -0.650
REMARK UNBOUND:                -0.529
REMARK SMILES CCCCCCCCCCCCCCO
REMARK SMILES IDX 8 1 7 2 6 3 5 4 4 5 3 6 2 7 1 8 9 9 10 10 11 11 12 12 13 13
REMARK SMILES IDX 14 14 15 15
REMARK H PARENT 15 16
REMARK Flexibility Score: inf
ROOT
ATOM      1  C   UNL     1      -0.675   0.229  12.962  1.00  0.00     0.000 C 
ENDROOT
BRANCH   1   2
ATOM      2  C   UNL     1      -0.866   1.327  11.908  1.00  0.00    -0.000 C 
BRANCH   2   3
ATOM      3  C   UNL     1      -1.455   2.598  12.538  1.00  0.00    -0.000 C 
BRANCH   3   4
ATOM      4  C   UNL     1      -0.528   3.817  12.393  1.00  0.00    -0.000 C 
BRANCH   4   5
ATOM      5  C   UNL     1       0.486   3.655  11.247  1.00  0.00    -0.000 C 
BRANCH   5   6
ATOM      6  C   UNL     1       1.214   4.968  10.914  1.00  0.00    -0.000 C 
BRANCH   6   7
ATOM      7  C   UNL     1       2.718   4.767  10.672  1.00  0.00    -0.003 C 
ATOM      8  C   UNL     1       3.543   5.714  11.540  1.00  0.00     0.004 C 
ENDBRANCH   6   7
ENDBRANCH   5   6
ENDBRANCH   4   5
ENDBRANCH   3   4
ENDBRANCH   2   3
ENDBRANCH   1   2
BRANCH   1   9
ATOM      9  C   UNL     1      -0.134   0.815  14.275  1.00  0.00     0.000 C 
BRANCH   9  10
ATOM     10  C   UNL     1       0.974  -0.048  14.899  1.00  0.00     0.000 C 
BRANCH  10  11
ATOM     11  C   UNL     1       1.287  -1.301  14.063  1.00  0.00     0.000 C 
BRANCH  11  12
ATOM     12  C   UNL     1       2.769  -1.715  14.137  1.00  0.00     0.002 C 
BRANCH  12  13
ATOM     13  C   UNL     1       3.171  -2.499  15.400  1.00  0.00     0.028 C 
BRANCH  13  14
ATOM     14  C   UNL     1       2.466  -3.854  15.535  1.00  0.00     0.156 C 
BRANCH  14  15
ATOM     15  O   UNL     1       2.447  -4.517  14.300  1.00  0.00    -0.396 OA
ATOM     16  H   UNL     1       1.741  -4.075  13.761  1.00  0.00     0.210 HD
ENDBRANCH  14  15
ENDBRANCH  13  14
ENDBRANCH  12  13
ENDBRANCH  11  12
ENDBRANCH  10  11
ENDBRANCH   9  10
ENDBRANCH   1   9
TORSDOF 13
ENDMDL
MODEL 3
REMARK VINA RESULT:    -5.187      3.242      7.267
REMARK INTER + INTRA:          -9.507
REMARK INTER:                  -8.370
REMARK INTRA:                  -1.138
REMARK UNBOUND:                -0.529
REMARK SMILES CCCCCCCCCCCCCCO
REMARK SMILES IDX 8 1 7 2 6 3 5 4 4 5 3 6 2 7 1 8 9 9 10 10 11 11 12 12 13 13
REMARK SMILES IDX 14 14 15 15
REMARK H PARENT 15 16
REMARK Flexibility Score: inf
ROOT
ATOM      1  C   UNL     1      -0.258   3.713  11.797  1.00  0.00     0.000 C 
ENDROOT
BRANCH   1   2
ATOM      2  C   UNL     1      -1.017   4.577  10.781  1.00  0.00    -0.000 C 
BRANCH   2   3
ATOM      3  C   UNL     1      -0.064   5.139   9.716  1.00  0.00    -0.000 C 
BRANCH   3   4
ATOM      4  C   UNL     1       1.204   4.286   9.544  1.00  0.00    -0.000 C 
BRANCH   4   5
ATOM      5  C   UNL     1       2.494   5.118   9.642  1.00  0.00    -0.000 C 
BRANCH   5   6
ATOM      6  C   UNL     1       3.074   5.143  11.066  1.00  0.00    -0.000 C 
BRANCH   6   7
ATOM      7  C   UNL     1       2.570   6.337  11.891  1.00  0.00    -0.003 C 
ATOM      8  C   UNL     1       2.313   7.549  11.000  1.00  0.00     0.004 C 
ENDBRANCH   6   7
ENDBRANCH   5   6
ENDBRANCH   4   5
ENDBRANCH   3   4
ENDBRANCH   2   3
ENDBRANCH   1   2
BRANCH   1   9
ATOM      9  C   UNL     1      -0.948   3.741  13.168  1.00  0.00     0.000 C 
BRANCH   9  10
ATOM     10  C   UNL     1      -1.338   2.340  13.667  1.00  0.00     0.000 C 
BRANCH  10  11
ATOM     11  C   UNL     1      -1.372   1.300  12.534  1.00  0.00     0.000 C 
BRANCH  11  12
ATOM     12  C   UNL     1      -0.353   0.163  12.735  1.00  0.00     0.002 C 
BRANCH  12  13
ATOM     13  C   UNL     1       0.270   0.078  14.141  1.00  0.00     0.028 C 
BRANCH  13  14
ATOM     14  C   UNL     1      -0.199  -1.136  14.952  1.00  0.00     0.156 C 
BRANCH  14  15
ATOM     15  O   UNL     1      -1.538  -1.428  14.659  1.00  0.00    -0.396 OA
ATOM     16  H   UNL     1      -2.057  -1.181  15.469  1.00  0.00     0.210 HD
ENDBRANCH  14  15
ENDBRANCH  13  14
ENDBRANCH  12  13
ENDBRANCH  11  12
ENDBRANCH  10  11
ENDBRANCH   9  10
ENDBRANCH   1   9
TORSDOF 13
ENDMDL
MODEL 4
REMARK VINA RESULT:    -5.171      3.494      7.642
REMARK INTER + INTRA:          -9.478
REMARK INTER:                  -8.755
REMARK INTRA:                  -0.723
REMARK UNBOUND:                -0.529
REMARK SMILES CCCCCCCCCCCCCCO
REMARK SMILES IDX 8 1 7 2 6 3 5 4 4 5 3 6 2 7 1 8 9 9 10 10 11 11 12 12 13 13
REMARK SMILES IDX 14 14 15 15
REMARK H PARENT 15 16
REMARK Flexibility Score: inf
ROOT
ATOM      1  C   UNL     1      -1.219   2.023  13.743  1.00  0.00     0.000 C 
ENDROOT
BRANCH   1   2
ATOM      2  C   UNL     1      -0.251   2.391  12.611  1.00  0.00    -0.000 C 
BRANCH   2   3
ATOM      3  C   UNL     1      -0.394   3.870  12.223  1.00  0.00    -0.000 C 
BRANCH   3   4
ATOM      4  C   UNL     1      -0.304   4.098  10.705  1.00  0.00    -0.000 C 
BRANCH   4   5
ATOM      5  C   UNL     1       0.791   5.110  10.323  1.00  0.00    -0.000 C 
BRANCH   5   6
ATOM      6  C   UNL     1       2.197   4.487  10.326  1.00  0.00    -0.000 C 
BRANCH   6   7
ATOM      7  C   UNL     1       3.133   5.142  11.353  1.00  0.00    -0.003 C 
ATOM      8  C   UNL     1       2.499   6.393  11.954  1.00  0.00     0.004 C 
ENDBRANCH   6   7
ENDBRANCH   5   6
ENDBRANCH   4   5
ENDBRANCH   3   4
ENDBRANCH   2   3
ENDBRANCH   1   2
BRANCH   1   9
ATOM      9  C   UNL     1      -0.982   0.584  14.224  1.00  0.00     0.000 C 
BRANCH   9  10
ATOM     10  C   UNL     1       0.231  -0.077  13.549  1.00  0.00     0.000 C 
BRANCH  10  11
ATOM     11  C   UNL     1       0.882  -1.155  14.433  1.00  0.00     0.000 C 
BRANCH  11  12
ATOM     12  C   UNL     1       2.415  -1.032  14.495  1.00  0.00     0.002 C 
BRANCH  12  13
ATOM     13  C   UNL     1       3.158  -2.293  14.977  1.00  0.00     0.028 C 
BRANCH  13  14
ATOM     14  C   UNL     1       2.232  -3.476  15.279  1.00  0.00     0.156 C 
BRANCH  14  15
ATOM     15  O   UNL     1       2.416  -4.491  14.331  1.00  0.00    -0.396 OA
ATOM     16  H   UNL     1       3.389  -4.514  14.137  1.00  0.00     0.210 HD
ENDBRANCH  14  15
ENDBRANCH  13  14
ENDBRANCH  12  13
ENDBRANCH  11  12
ENDBRANCH  10  11
ENDBRANCH   9  10
ENDBRANCH   1   9
TORSDOF 13
ENDMDL
MODEL 5
REMARK VINA RESULT:    -4.934      1.669      2.015
REMARK INTER + INTRA:          -9.068
REMARK INTER:                  -8.324
REMARK INTRA:                  -0.744
REMARK UNBOUND:                -0.529
REMARK SMILES CCCCCCCCCCCCCCO
REMARK SMILES IDX 8 1 7 2 6 3 5 4 4 5 3 6 2 7 1 8 9 9 10 10 11 11 12 12 13 13
REMARK SMILES IDX 14 14 15 15
REMARK H PARENT 15 16
REMARK Flexibility Score: inf
ROOT
ATOM      1  C   UNL     1      -0.407   0.781  12.647  1.00  0.00     0.000 C 
ENDROOT
BRANCH   1   2
ATOM      2  C   UNL     1      -0.571   1.208  14.111  1.00  0.00    -0.000 C 
BRANCH   2   3
ATOM      3  C   UNL     1      -0.046   0.122  15.062  1.00  0.00    -0.000 C 
BRANCH   3   4
ATOM      4  C   UNL     1       0.947  -0.835  14.380  1.00  0.00    -0.000 C 
BRANCH   4   5
ATOM      5  C   UNL     1       2.395  -0.618  14.851  1.00  0.00    -0.000 C 
BRANCH   5   6
ATOM      6  C   UNL     1       3.322  -1.782  14.464  1.00  0.00    -0.000 C 
BRANCH   6   7
ATOM      7  C   UNL     1       2.627  -3.149  14.552  1.00  0.00    -0.003 C 
ATOM      8  C   UNL     1       2.825  -3.778  15.929  1.00  0.00     0.004 C 
ENDBRANCH   6   7
ENDBRANCH   5   6
ENDBRANCH   4   5
ENDBRANCH   3   4
ENDBRANCH   2   3
ENDBRANCH   1   2
BRANCH   1   9
ATOM      9  C   UNL     1      -0.768   1.932  11.695  1.00  0.00     0.000 C 
BRANCH   9  10
ATOM     10  C   UNL     1      -0.980   3.266  12.428  1.00  0.00     0.000 C 
BRANCH  10  11
ATOM     11  C   UNL     1       0.134   4.285  12.130  1.00  0.00     0.000 C 
BRANCH  11  12
ATOM     12  C   UNL     1       0.729   4.126  10.718  1.00  0.00     0.002 C 
BRANCH  12  13
ATOM     13  C   UNL     1       2.195   4.575  10.568  1.00  0.00     0.028 C 
BRANCH  13  14
ATOM     14  C   UNL     1       2.427   5.543   9.402  1.00  0.00     0.156 C 
BRANCH  14  15
ATOM     15  O   UNL     1       2.403   4.852   8.184  1.00  0.00    -0.396 OA
ATOM     16  H   UNL     1       1.889   4.019   8.349  1.00  0.00     0.210 HD
ENDBRANCH  14  15
ENDBRANCH  13  14
ENDBRANCH  12  13
ENDBRANCH  11  12
ENDBRANCH  10  11
ENDBRANCH   9  10
ENDBRANCH   1   9
TORSDOF 13
ENDMDL
MODEL 6
REMARK VINA RESULT:    -4.905      4.027      7.428
REMARK INTER + INTRA:          -9.018
REMARK INTER:                  -7.821
REMARK INTRA:                  -1.197
REMARK UNBOUND:                -0.529
REMARK SMILES CCCCCCCCCCCCCCO
REMARK SMILES IDX 8 1 7 2 6 3 5 4 4 5 3 6 2 7 1 8 9 9 10 10 11 11 12 12 13 13
REMARK SMILES IDX 14 14 15 15
REMARK H PARENT 15 16
REMARK Flexibility Score: inf
ROOT
ATOM      1  C   UNL     1      -0.138  -0.650  16.240  1.00  0.00     0.000 C 
ENDROOT
BRANCH   1   2
ATOM      2  C   UNL     1      -1.545  -0.151  16.593  1.00  0.00    -0.000 C 
BRANCH   2   3
ATOM      3  C   UNL     1      -1.676   1.357  16.331  1.00  0.00    -0.000 C 
BRANCH   3   4
ATOM      4  C   UNL     1      -1.163   1.765  14.940  1.00  0.00    -0.000 C 
BRANCH   4   5
ATOM      5  C   UNL     1      -2.107   1.321  13.809  1.00  0.00    -0.000 C 
BRANCH   5   6
ATOM      6  C   UNL     1      -1.494   1.526  12.414  1.00  0.00    -0.000 C 
BRANCH   6   7
ATOM      7  C   UNL     1      -0.418   2.623  12.394  1.00  0.00    -0.003 C 
ATOM      8  C   UNL     1       0.165   2.794  10.994  1.00  0.00     0.004 C 
ENDBRANCH   6   7
ENDBRANCH   5   6
ENDBRANCH   4   5
ENDBRANCH   3   4
ENDBRANCH   2   3
ENDBRANCH   1   2
BRANCH   1   9
ATOM      9  C   UNL     1      -0.149  -1.446  14.927  1.00  0.00     0.000 C 
BRANCH   9  10
ATOM     10  C   UNL     1       0.944  -0.991  13.947  1.00  0.00     0.000 C 
BRANCH  10  11
ATOM     11  C   UNL     1       2.279  -0.690  14.651  1.00  0.00     0.000 C 
BRANCH  11  12
ATOM     12  C   UNL     1       3.257  -1.878  14.614  1.00  0.00     0.002 C 
BRANCH  12  13
ATOM     13  C   UNL     1       3.156  -2.852  15.803  1.00  0.00     0.028 C 
BRANCH  13  14
ATOM     14  C   UNL     1       2.337  -4.112  15.501  1.00  0.00     0.156 C 
BRANCH  14  15
ATOM     15  O   UNL     1       2.450  -4.452  14.147  1.00  0.00    -0.396 OA
ATOM     16  H   UNL     1       1.635  -4.098  13.705  1.00  0.00     0.210 HD
ENDBRANCH  14  15
ENDBRANCH  13  14
ENDBRANCH  12  13
ENDBRANCH  11  12
ENDBRANCH  10  11
ENDBRANCH   9  10
ENDBRANCH   1   9
TORSDOF 13
ENDMDL
MODEL 7
REMARK VINA RESULT:    -4.843      3.083      3.717
REMARK INTER + INTRA:          -8.912
REMARK INTER:                  -8.255
REMARK INTRA:                  -0.657
REMARK UNBOUND:                -0.529
REMARK SMILES CCCCCCCCCCCCCCO
REMARK SMILES IDX 8 1 7 2 6 3 5 4 4 5 3 6 2 7 1 8 9 9 10 10 11 11 12 12 13 13
REMARK SMILES IDX 14 14 15 15
REMARK H PARENT 15 16
REMARK Flexibility Score: inf
ROOT
ATOM      1  C   UNL     1      -0.454   1.068  12.958  1.00  0.00     0.000 C 
ENDROOT
BRANCH   1   2
ATOM      2  C   UNL     1      -0.710   1.103  14.470  1.00  0.00    -0.000 C 
BRANCH   2   3
ATOM      3  C   UNL     1      -0.134  -0.146  15.155  1.00  0.00    -0.000 C 
BRANCH   3   4
ATOM      4  C   UNL     1       0.948  -0.839  14.310  1.00  0.00    -0.000 C 
BRANCH   4   5
ATOM      5  C   UNL     1       2.365  -0.623  14.871  1.00  0.00    -0.000 C 
BRANCH   5   6
ATOM      6  C   UNL     1       3.334  -1.749  14.475  1.00  0.00    -0.000 C 
BRANCH   6   7
ATOM      7  C   UNL     1       2.672  -3.135  14.491  1.00  0.00    -0.003 C 
ATOM      8  C   UNL     1       2.780  -3.779  15.871  1.00  0.00     0.004 C 
ENDBRANCH   6   7
ENDBRANCH   5   6
ENDBRANCH   4   5
ENDBRANCH   3   4
ENDBRANCH   2   3
ENDBRANCH   1   2
BRANCH   1   9
ATOM      9  C   UNL     1      -0.994   2.335  12.279  1.00  0.00     0.000 C 
BRANCH   9  10
ATOM     10  C   UNL     1       0.121   3.311  11.869  1.00  0.00     0.000 C 
BRANCH  10  11
ATOM     11  C   UNL     1       0.501   3.182  10.383  1.00  0.00     0.000 C 
BRANCH  11  12
ATOM     12  C   UNL     1      -0.666   2.688   9.508  1.00  0.00     0.002 C 
BRANCH  12  13
ATOM     13  C   UNL     1      -0.255   1.995   8.195  1.00  0.00     0.028 C 
BRANCH  13  14
ATOM     14  C   UNL     1      -1.132   2.375   6.996  1.00  0.00     0.156 C 
BRANCH  14  15
ATOM     15  O   UNL     1      -2.352   1.688   7.050  1.00  0.00    -0.396 OA
ATOM     16  H   UNL     1      -2.485   1.435   8.000  1.00  0.00     0.210 HD
ENDBRANCH  14  15
ENDBRANCH  13  14
ENDBRANCH  12  13
ENDBRANCH  11  12
ENDBRANCH  10  11
ENDBRANCH   9  10
ENDBRANCH   1   9
TORSDOF 13
ENDMDL
MODEL 8
REMARK VINA RESULT:    -4.785      2.225      2.628
REMARK INTER + INTRA:          -8.811
REMARK INTER:                  -8.226
REMARK INTRA:                  -0.586
REMARK UNBOUND:                -0.529
REMARK SMILES CCCCCCCCCCCCCCO
REMARK SMILES IDX 8 1 7 2 6 3 5 4 4 5 3 6 2 7 1 8 9 9 10 10 11 11 12 12 13 13
REMARK SMILES IDX 14 14 15 15
REMARK H PARENT 15 16
REMARK Flexibility Score: inf
ROOT
ATOM      1  C   UNL     1      -0.902   2.459  12.981  1.00  0.00     0.000 C 
ENDROOT
BRANCH   1   2
ATOM      2  C   UNL     1      -1.308   0.987  13.120  1.00  0.00    -0.000 C 
BRANCH   2   3
ATOM      3  C   UNL     1      -0.082   0.102  13.396  1.00  0.00    -0.000 C 
BRANCH   3   4
ATOM      4  C   UNL     1       0.562   0.389  14.763  1.00  0.00    -0.000 C 
BRANCH   4   5
ATOM      5  C   UNL     1       1.299  -0.833  15.337  1.00  0.00    -0.000 C 
BRANCH   5   6
ATOM      6  C   UNL     1       2.694  -1.024  14.719  1.00  0.00    -0.000 C 
BRANCH   6   7
ATOM      7  C   UNL     1       2.902  -2.436  14.150  1.00  0.00    -0.003 C 
ATOM      8  C   UNL     1       2.623  -3.500  15.208  1.00  0.00     0.004 C 
ENDBRANCH   6   7
ENDBRANCH   5   6
ENDBRANCH   4   5
ENDBRANCH   3   4
ENDBRANCH   2   3
ENDBRANCH   1   2
BRANCH   1   9
ATOM      9  C   UNL     1      -0.151   2.701  11.663  1.00  0.00     0.000 C 
BRANCH   9  10
ATOM     10  C   UNL     1       0.422   4.123  11.558  1.00  0.00     0.000 C 
BRANCH  10  11
ATOM     11  C   UNL     1      -0.378   5.011  10.589  1.00  0.00     0.000 C 
BRANCH  11  12
ATOM     12  C   UNL     1       0.479   5.563   9.435  1.00  0.00     0.002 C 
BRANCH  12  13
ATOM     13  C   UNL     1       0.524   4.684   8.171  1.00  0.00     0.028 C 
BRANCH  13  14
ATOM     14  C   UNL     1      -0.858   4.394   7.573  1.00  0.00     0.156 C 
BRANCH  14  15
ATOM     15  O   UNL     1      -1.496   5.590   7.219  1.00  0.00    -0.396 OA
ATOM     16  H   UNL     1      -1.129   5.847   6.334  1.00  0.00     0.210 HD
ENDBRANCH  14  15
ENDBRANCH  13  14
ENDBRANCH  12  13
ENDBRANCH  11  12
ENDBRANCH  10  11
ENDBRANCH   9  10
ENDBRANCH   1   9
TORSDOF 13
ENDMDL
MODEL 9
REMARK VINA RESULT:    -4.676      3.664      7.152
REMARK INTER + INTRA:          -8.622
REMARK INTER:                  -7.695
REMARK INTRA:                  -0.926
REMARK UNBOUND:                -0.529
REMARK SMILES CCCCCCCCCCCCCCO
REMARK SMILES IDX 8 1 7 2 6 3 5 4 4 5 3 6 2 7 1 8 9 9 10 10 11 11 12 12 13 13
REMARK SMILES IDX 14 14 15 15
REMARK H PARENT 15 16
REMARK Flexibility Score: inf
ROOT
ATOM      1  C   UNL     1      -1.636   0.937  12.738  1.00  0.00     0.000 C 
ENDROOT
BRANCH   1   2
ATOM      2  C   UNL     1      -1.479   2.389  13.208  1.00  0.00    -0.000 C 
BRANCH   2   3
ATOM      3  C   UNL     1      -1.343   3.343  12.011  1.00  0.00    -0.000 C 
BRANCH   3   4
ATOM      4  C   UNL     1       0.047   3.996  11.927  1.00  0.00    -0.000 C 
BRANCH   4   5
ATOM      5  C   UNL     1       0.878   3.466  10.745  1.00  0.00    -0.000 C 
BRANCH   5   6
ATOM      6  C   UNL     1       0.106   3.507   9.416  1.00  0.00    -0.000 C 
BRANCH   6   7
ATOM      7  C   UNL     1      -0.379   2.120   8.968  1.00  0.00    -0.003 C 
ATOM      8  C   UNL     1      -0.851   2.146   7.517  1.00  0.00     0.004 C 
ENDBRANCH   6   7
ENDBRANCH   5   6
ENDBRANCH   4   5
ENDBRANCH   3   4
ENDBRANCH   2   3
ENDBRANCH   1   2
BRANCH   1   9
ATOM      9  C   UNL     1      -0.287   0.202  12.763  1.00  0.00     0.000 C 
BRANCH   9  10
ATOM     10  C   UNL     1       0.505   0.457  14.056  1.00  0.00     0.000 C 
BRANCH  10  11
ATOM     11  C   UNL     1       0.571  -0.786  14.960  1.00  0.00     0.000 C 
BRANCH  11  12
ATOM     12  C   UNL     1       1.930  -0.937  15.670  1.00  0.00     0.002 C 
BRANCH  12  13
ATOM     13  C   UNL     1       3.106  -1.338  14.760  1.00  0.00     0.028 C 
BRANCH  13  14
ATOM     14  C   UNL     1       2.772  -2.471  13.782  1.00  0.00     0.156 C 
BRANCH  14  15
ATOM     15  O   UNL     1       2.455  -3.641  14.484  1.00  0.00    -0.396 OA
ATOM     16  H   UNL     1       1.465  -3.667  14.542  1.00  0.00     0.210 HD
ENDBRANCH  14  15
ENDBRANCH  13  14
ENDBRANCH  12  13
ENDBRANCH  11  12
ENDBRANCH  10  11
ENDBRANCH   9  10
ENDBRANCH   1   9
TORSDOF 13
ENDMDL
