MODEL 1
REMARK VINA RESULT:    -4.823      0.000      0.000
REMARK INTER + INTRA:          -5.466
REMARK INTER:                  -5.246
REMARK INTRA:                  -0.220
REMARK UNBOUND:                -0.220
REMARK SMILES O=C([O-])c1ccccc1O
REMARK SMILES IDX 4 1 9 2 5 3 8 4 6 5 7 6 2 7 1 8 3 9 10 10
REMARK H PARENT 10 11
REMARK Flexibility Score: inf
ROOT
ATOM      1  C   UNL     1      13.205  -9.991  31.191  1.00  0.00     0.039 A 
ATOM      2  C   UNL     1      11.968 -10.108  30.505  1.00  0.00     0.124 A 
ATOM      3  C   UNL     1      14.381 -10.428  30.551  1.00  0.00     0.014 A 
ATOM      4  C   UNL     1      11.932 -10.708  29.239  1.00  0.00     0.047 A 
ATOM      5  C   UNL     1      14.329 -11.005  29.281  1.00  0.00     0.001 A 
ATOM      6  C   UNL     1      13.105 -11.155  28.631  1.00  0.00     0.004 A 
ENDROOT
BRANCH   1   7
ATOM      7  C   UNL     1      13.312  -9.458  32.567  1.00  0.00     0.075 C 
ATOM      8  O   UNL     1      14.042  -8.466  32.822  1.00  0.00    -0.545 OA
ATOM      9  O   UNL     1      12.545 -10.012  33.587  1.00  0.00    -0.545 OA
ENDBRANCH   1   7
BRANCH   2  10
ATOM     10  O   UNL     1      10.768  -9.613  31.022  1.00  0.00    -0.507 OA
ATOM     11  H   UNL     1      10.388  -8.708  30.784  1.00  0.00     0.293 HD
ENDBRANCH   2  10
TORSDOF 2
ENDMDL
MODEL 2
REMARK VINA RESULT:    -4.676      1.241      2.080
REMARK INTER + INTRA:          -5.307
REMARK INTER:                  -5.062
REMARK INTRA:                  -0.244
REMARK UNBOUND:                -0.220
REMARK SMILES O=C([O-])c1ccccc1O
REMARK SMILES IDX 4 1 9 2 5 3 8 4 6 5 7 6 2 7 1 8 3 9 10 10
REMARK H PARENT 10 11
REMARK Flexibility Score: inf
ROOT
ATOM      1  C   UNL     1      12.828 -10.254  30.691  1.00  0.00     0.039 A 
ATOM      2  C   UNL     1      12.681 -10.873  29.422  1.00  0.00     0.124 A 
ATOM      3  C   UNL     1      14.116  -9.882  31.120  1.00  0.00     0.014 A 
ATOM      4  C   UNL     1      13.817 -11.158  28.654  1.00  0.00     0.047 A 
ATOM      5  C   UNL     1      15.236 -10.155  30.333  1.00  0.00     0.001 A 
ATOM      6  C   UNL     1      15.088 -10.801  29.107  1.00  0.00     0.004 A 
ENDROOT
BRANCH   1   7
ATOM      7  C   UNL     1      11.687 -10.010  31.601  1.00  0.00     0.075 C 
ATOM      8  O   UNL     1      10.552  -9.709  31.149  1.00  0.00    -0.545 OA
ATOM      9  O   UNL     1      11.844 -10.179  32.973  1.00  0.00    -0.545 OA
ENDBRANCH   1   7
BRANCH   2  10
ATOM     10  O   UNL     1      11.434 -11.188  28.876  1.00  0.00    -0.507 OA
ATOM     11  H   UNL     1      10.751 -10.494  28.607  1.00  0.00     0.293 HD
ENDBRANCH   2  10
TORSDOF 2
ENDMDL
MODEL 3
REMARK VINA RESULT:    -4.647     12.185     13.124
REMARK INTER + INTRA:          -5.275
REMARK INTER:                  -5.026
REMARK INTRA:                  -0.249
REMARK UNBOUND:                -0.220
REMARK SMILES O=C([O-])c1ccccc1O
REMARK SMILES IDX 4 1 9 2 5 3 8 4 6 5 7 6 2 7 1 8 3 9 10 10
REMARK H PARENT 10 11
REMARK Flexibility Score: inf
ROOT
ATOM      1  C   UNL     1       1.638 -16.558  31.188  1.00  0.00     0.039 A 
ATOM      2  C   UNL     1       0.976 -15.621  30.352  1.00  0.00     0.124 A 
ATOM      3  C   UNL     1       3.027 -16.734  31.045  1.00  0.00     0.014 A 
ATOM      4  C   UNL     1       1.701 -14.940  29.365  1.00  0.00     0.047 A 
ATOM      5  C   UNL     1       3.738 -16.031  30.071  1.00  0.00     0.001 A 
ATOM      6  C   UNL     1       3.075 -15.144  29.225  1.00  0.00     0.004 A 
ENDROOT
BRANCH   1   7
ATOM      7  C   UNL     1       0.924 -17.386  32.185  1.00  0.00     0.075 C 
ATOM      8  O   UNL     1       0.066 -16.878  32.952  1.00  0.00    -0.545 OA
ATOM      9  O   UNL     1       1.150 -18.758  32.238  1.00  0.00    -0.545 OA
ENDBRANCH   1   7
BRANCH   2  10
ATOM     10  O   UNL     1      -0.380 -15.313  30.488  1.00  0.00    -0.507 OA
ATOM     11  H   UNL     1      -0.825 -14.536  30.021  1.00  0.00     0.293 HD
ENDBRANCH   2  10
TORSDOF 2
ENDMDL
MODEL 4
REMARK VINA RESULT:    -4.612     17.406     18.540
REMARK INTER + INTRA:          -5.237
REMARK INTER:                  -5.010
REMARK INTRA:                  -0.227
REMARK UNBOUND:                -0.220
REMARK SMILES O=C([O-])c1ccccc1O
REMARK SMILES IDX 4 1 9 2 5 3 8 4 6 5 7 6 2 7 1 8 3 9 10 10
REMARK H PARENT 10 11
REMARK Flexibility Score: inf
ROOT
ATOM      1  C   UNL     1       0.973 -16.842  18.920  1.00  0.00     0.039 A 
ATOM      2  C   UNL     1       0.994 -17.525  20.164  1.00  0.00     0.124 A 
ATOM      3  C   UNL     1      -0.238 -16.770  18.205  1.00  0.00     0.014 A 
ATOM      4  C   UNL     1      -0.165 -18.164  20.624  1.00  0.00     0.047 A 
ATOM      5  C   UNL     1      -1.389 -17.396  18.688  1.00  0.00     0.001 A 
ATOM      6  C   UNL     1      -1.350 -18.100  19.891  1.00  0.00     0.004 A 
ENDROOT
BRANCH   1   7
ATOM      7  C   UNL     1       2.178 -16.227  18.322  1.00  0.00     0.075 C 
ATOM      8  O   UNL     1       2.822 -15.337  18.936  1.00  0.00    -0.545 OA
ATOM      9  O   UNL     1       2.653 -16.680  17.096  1.00  0.00    -0.545 OA
ENDBRANCH   1   7
BRANCH   2  10
ATOM     10  O   UNL     1       2.124 -17.563  20.985  1.00  0.00    -0.507 OA
ATOM     11  H   UNL     1       2.192 -18.135  21.816  1.00  0.00     0.293 HD
ENDBRANCH   2  10
TORSDOF 2
ENDMDL
MODEL 5
REMARK VINA RESULT:    -4.519      1.647      2.429
REMARK INTER + INTRA:          -5.136
REMARK INTER:                  -4.961
REMARK INTRA:                  -0.175
REMARK UNBOUND:                -0.220
REMARK SMILES O=C([O-])c1ccccc1O
REMARK SMILES IDX 4 1 9 2 5 3 8 4 6 5 7 6 2 7 1 8 3 9 10 10
REMARK H PARENT 10 11
REMARK Flexibility Score: inf
ROOT
ATOM      1  C   UNL     1      13.841 -10.023  31.084  1.00  0.00     0.039 A 
ATOM      2  C   UNL     1      14.575 -10.602  30.016  1.00  0.00     0.124 A 
ATOM      3  C   UNL     1      12.436 -10.000  31.007  1.00  0.00     0.014 A 
ATOM      4  C   UNL     1      13.897 -11.078  28.886  1.00  0.00     0.047 A 
ATOM      5  C   UNL     1      11.774 -10.497  29.883  1.00  0.00     0.001 A 
ATOM      6  C   UNL     1      12.504 -11.027  28.820  1.00  0.00     0.004 A 
ENDROOT
BRANCH   1   7
ATOM      7  C   UNL     1      14.490  -9.412  32.264  1.00  0.00     0.075 C 
ATOM      8  O   UNL     1      15.228  -8.399  32.145  1.00  0.00    -0.545 OA
ATOM      9  O   UNL     1      14.234  -9.913  33.536  1.00  0.00    -0.545 OA
ENDBRANCH   1   7
BRANCH   2  10
ATOM     10  O   UNL     1      15.964 -10.755  30.049  1.00  0.00    -0.507 OA
ATOM     11  H   UNL     1      16.534 -10.867  29.223  1.00  0.00     0.293 HD
ENDBRANCH   2  10
TORSDOF 2
ENDMDL
MODEL 6
REMARK VINA RESULT:    -4.479     11.068     12.370
REMARK INTER + INTRA:          -5.092
REMARK INTER:                  -4.846
REMARK INTRA:                  -0.246
REMARK UNBOUND:                -0.220
REMARK SMILES O=C([O-])c1ccccc1O
REMARK SMILES IDX 4 1 9 2 5 3 8 4 6 5 7 6 2 7 1 8 3 9 10 10
REMARK H PARENT 10 11
REMARK Flexibility Score: inf
ROOT
ATOM      1  C   UNL     1       2.077 -15.977  31.415  1.00  0.00     0.039 A 
ATOM      2  C   UNL     1       3.402 -16.064  30.915  1.00  0.00     0.124 A 
ATOM      3  C   UNL     1       1.052 -15.543  30.554  1.00  0.00     0.014 A 
ATOM      4  C   UNL     1       3.674 -15.658  29.601  1.00  0.00     0.047 A 
ATOM      5  C   UNL     1       1.337 -15.162  29.242  1.00  0.00     0.001 A 
ATOM      6  C   UNL     1       2.648 -15.210  28.769  1.00  0.00     0.004 A 
ENDROOT
BRANCH   1   7
ATOM      7  C   UNL     1       1.727 -16.294  32.818  1.00  0.00     0.075 C 
ATOM      8  O   UNL     1       2.439 -15.882  33.771  1.00  0.00    -0.545 OA
ATOM      9  O   UNL     1       0.562 -16.998  33.101  1.00  0.00    -0.545 OA
ENDBRANCH   1   7
BRANCH   2  10
ATOM     10  O   UNL     1       4.462 -16.575  31.668  1.00  0.00    -0.507 OA
ATOM     11  H   UNL     1       4.515 -17.534  31.979  1.00  0.00     0.293 HD
ENDBRANCH   2  10
TORSDOF 2
ENDMDL
MODEL 7
REMARK VINA RESULT:    -4.445     17.055     18.781
REMARK INTER + INTRA:          -5.055
REMARK INTER:                  -4.834
REMARK INTRA:                  -0.221
REMARK UNBOUND:                -0.220
REMARK SMILES O=C([O-])c1ccccc1O
REMARK SMILES IDX 4 1 9 2 5 3 8 4 6 5 7 6 2 7 1 8 3 9 10 10
REMARK H PARENT 10 11
REMARK Flexibility Score: inf
ROOT
ATOM      1  C   UNL     1       0.201 -17.314  19.106  1.00  0.00     0.039 A 
ATOM      2  C   UNL     1       1.466 -17.096  19.714  1.00  0.00     0.124 A 
ATOM      3  C   UNL     1      -0.038 -16.779  17.827  1.00  0.00     0.014 A 
ATOM      4  C   UNL     1       2.421 -16.306  19.062  1.00  0.00     0.047 A 
ATOM      5  C   UNL     1       0.932 -16.011  17.181  1.00  0.00     0.001 A 
ATOM      6  C   UNL     1       2.156 -15.766  17.802  1.00  0.00     0.004 A 
ENDROOT
BRANCH   1   7
ATOM      7  C   UNL     1      -0.892 -18.054  19.774  1.00  0.00     0.075 C 
ATOM      8  O   UNL     1      -0.831 -18.333  21.000  1.00  0.00    -0.545 OA
ATOM      9  O   UNL     1      -2.038 -18.391  19.062  1.00  0.00    -0.545 OA
ENDBRANCH   1   7
BRANCH   2  10
ATOM     10  O   UNL     1       1.824 -17.669  20.937  1.00  0.00    -0.507 OA
ATOM     11  H   UNL     1       1.448 -17.370  21.826  1.00  0.00     0.293 HD
ENDBRANCH   2  10
TORSDOF 2
ENDMDL
MODEL 8
REMARK VINA RESULT:    -4.417      3.745      4.953
REMARK INTER + INTRA:          -5.025
REMARK INTER:                  -4.776
REMARK INTRA:                  -0.248
REMARK UNBOUND:                -0.220
REMARK SMILES O=C([O-])c1ccccc1O
REMARK SMILES IDX 4 1 9 2 5 3 8 4 6 5 7 6 2 7 1 8 3 9 10 10
REMARK H PARENT 10 11
REMARK Flexibility Score: inf
ROOT
ATOM      1  C   UNL     1      14.097  -6.450  32.312  1.00  0.00     0.039 A 
ATOM      2  C   UNL     1      12.902  -6.430  31.546  1.00  0.00     0.124 A 
ATOM      3  C   UNL     1      14.561  -5.248  32.879  1.00  0.00     0.014 A 
ATOM      4  C   UNL     1      12.247  -5.214  31.316  1.00  0.00     0.047 A 
ATOM      5  C   UNL     1      13.884  -4.047  32.657  1.00  0.00     0.001 A 
ATOM      6  C   UNL     1      12.734  -4.029  31.868  1.00  0.00     0.004 A 
ENDROOT
BRANCH   1   7
ATOM      7  C   UNL     1      14.898  -7.677  32.517  1.00  0.00     0.075 C 
ATOM      8  O   UNL     1      15.517  -7.873  33.595  1.00  0.00    -0.545 OA
ATOM      9  O   UNL     1      14.919  -8.665  31.538  1.00  0.00    -0.545 OA
ENDBRANCH   1   7
BRANCH   2  10
ATOM     10  O   UNL     1      12.318  -7.589  31.029  1.00  0.00    -0.507 OA
ATOM     11  H   UNL     1      12.796  -8.477  30.969  1.00  0.00     0.293 HD
ENDBRANCH   2  10
TORSDOF 2
ENDMDL
MODEL 9
REMARK VINA RESULT:    -4.393     13.695     14.848
REMARK INTER + INTRA:          -4.999
REMARK INTER:                  -4.772
REMARK INTRA:                  -0.227
REMARK UNBOUND:                -0.220
REMARK SMILES O=C([O-])c1ccccc1O
REMARK SMILES IDX 4 1 9 2 5 3 8 4 6 5 7 6 2 7 1 8 3 9 10 10
REMARK H PARENT 10 11
REMARK Flexibility Score: inf
ROOT
ATOM      1  C   UNL     1       1.982 -19.435  31.404  1.00  0.00     0.039 A 
ATOM      2  C   UNL     1       1.346 -20.319  32.314  1.00  0.00     0.124 A 
ATOM      3  C   UNL     1       2.919 -19.957  30.492  1.00  0.00     0.014 A 
ATOM      4  C   UNL     1       1.705 -21.673  32.330  1.00  0.00     0.047 A 
ATOM      5  C   UNL     1       3.251 -21.313  30.509  1.00  0.00     0.001 A 
ATOM      6  C   UNL     1       2.653 -22.168  31.433  1.00  0.00     0.004 A 
ENDROOT
BRANCH   1   7
ATOM      7  C   UNL     1       1.728 -17.977  31.391  1.00  0.00     0.075 C 
ATOM      8  O   UNL     1       0.668 -17.502  31.875  1.00  0.00    -0.545 OA
ATOM      9  O   UNL     1       2.696 -17.107  30.903  1.00  0.00    -0.545 OA
ENDBRANCH   1   7
BRANCH   2  10
ATOM     10  O   UNL     1       0.335 -19.907  33.186  1.00  0.00    -0.507 OA
ATOM     11  H   UNL     1      -0.417 -19.288  32.917  1.00  0.00     0.293 HD
ENDBRANCH   2  10
TORSDOF 2
ENDMDL
