MODEL 1
REMARK VINA RESULT:    -3.592      0.000      0.000
REMARK INTER + INTRA:          -3.981
REMARK INTER:                  -3.907
REMARK INTRA:                  -0.074
REMARK UNBOUND:                -0.074
REMARK SMILES CCc1cccc(O)c1
REMARK SMILES IDX 3 1 9 2 7 3 6 4 5 5 4 6 2 7 1 8 8 9
REMARK H PARENT 8 10
REMARK Flexibility Score: inf
ROOT
ATOM      1  C   UNL     1      -6.187   7.163  -3.645  1.00  0.00    -0.045 A 
ATOM      2  C   UNL     1      -6.226   5.844  -4.126  1.00  0.00     0.049 A 
ATOM      3  C   UNL     1      -5.088   5.032  -4.057  1.00  0.00     0.115 A 
ATOM      4  C   UNL     1      -3.905   5.535  -3.497  1.00  0.00     0.046 A 
ATOM      5  C   UNL     1      -3.865   6.843  -3.004  1.00  0.00     0.004 A 
ATOM      6  C   UNL     1      -5.002   7.654  -3.073  1.00  0.00     0.004 A 
ENDROOT
BRANCH   1   7
ATOM      7  C   UNL     1      -7.421   8.025  -3.690  1.00  0.00     0.032 C 
ATOM      8  C   UNL     1      -7.355   9.117  -2.627  1.00  0.00     0.009 C 
ENDBRANCH   1   7
BRANCH   3   9
ATOM      9  O   UNL     1      -5.143   3.729  -4.545  1.00  0.00    -0.508 OA
ATOM     10  H   UNL     1      -5.928   3.401  -5.095  1.00  0.00     0.293 HD
ENDBRANCH   3   9
TORSDOF 2
ENDMDL
MODEL 2
REMARK VINA RESULT:    -3.532      1.423      2.150
REMARK INTER + INTRA:          -3.917
REMARK INTER:                  -3.868
REMARK INTRA:                  -0.048
REMARK UNBOUND:                -0.074
REMARK SMILES CCc1cccc(O)c1
REMARK SMILES IDX 3 1 9 2 7 3 6 4 5 5 4 6 2 7 1 8 8 9
REMARK H PARENT 8 10
REMARK Flexibility Score: inf
ROOT
ATOM      1  C   UNL     1      -6.517   7.089  -3.791  1.00  0.00    -0.045 A 
ATOM      2  C   UNL     1      -5.204   7.358  -3.373  1.00  0.00     0.049 A 
ATOM      3  C   UNL     1      -4.239   6.344  -3.373  1.00  0.00     0.115 A 
ATOM      4  C   UNL     1      -4.584   5.054  -3.799  1.00  0.00     0.046 A 
ATOM      5  C   UNL     1      -5.886   4.784  -4.230  1.00  0.00     0.004 A 
ATOM      6  C   UNL     1      -6.850   5.797  -4.230  1.00  0.00     0.004 A 
ENDROOT
BRANCH   1   7
ATOM      7  C   UNL     1      -7.545   8.189  -3.822  1.00  0.00     0.032 C 
ATOM      8  C   UNL     1      -7.378   9.117  -2.624  1.00  0.00     0.009 C 
ENDBRANCH   1   7
BRANCH   3   9
ATOM      9  O   UNL     1      -2.943   6.627  -2.948  1.00  0.00    -0.508 OA
ATOM     10  H   UNL     1      -2.386   7.349  -3.391  1.00  0.00     0.293 HD
ENDBRANCH   3   9
TORSDOF 2
ENDMDL
MODEL 3
REMARK VINA RESULT:    -3.522      1.899      3.711
REMARK INTER + INTRA:          -3.905
REMARK INTER:                  -3.831
REMARK INTRA:                  -0.074
REMARK UNBOUND:                -0.074
REMARK SMILES CCc1cccc(O)c1
REMARK SMILES IDX 3 1 9 2 7 3 6 4 5 5 4 6 2 7 1 8 8 9
REMARK H PARENT 8 10
REMARK Flexibility Score: inf
ROOT
ATOM      1  C   UNL     1      -5.326   5.115  -4.085  1.00  0.00    -0.045 A 
ATOM      2  C   UNL     1      -6.665   5.524  -4.191  1.00  0.00     0.049 A 
ATOM      3  C   UNL     1      -7.062   6.780  -3.716  1.00  0.00     0.115 A 
ATOM      4  C   UNL     1      -6.114   7.637  -3.139  1.00  0.00     0.046 A 
ATOM      5  C   UNL     1      -4.777   7.241  -3.044  1.00  0.00     0.004 A 
ATOM      6  C   UNL     1      -4.382   5.987  -3.518  1.00  0.00     0.004 A 
ENDROOT
BRANCH   1   7
ATOM      7  C   UNL     1      -4.895   3.777  -4.625  1.00  0.00     0.032 C 
ATOM      8  C   UNL     1      -3.409   3.788  -4.968  1.00  0.00     0.009 C 
ENDBRANCH   1   7
BRANCH   3   9
ATOM      9  O   UNL     1      -8.395   7.166  -3.823  1.00  0.00    -0.508 OA
ATOM     10  H   UNL     1      -8.695   8.106  -3.591  1.00  0.00     0.293 HD
ENDBRANCH   3   9
TORSDOF 2
ENDMDL
MODEL 4
REMARK VINA RESULT:    -3.486      2.287      3.976
REMARK INTER + INTRA:          -3.866
REMARK INTER:                  -3.790
REMARK INTRA:                  -0.076
REMARK UNBOUND:                -0.074
REMARK SMILES CCc1cccc(O)c1
REMARK SMILES IDX 3 1 9 2 7 3 6 4 5 5 4 6 2 7 1 8 8 9
REMARK H PARENT 8 10
REMARK Flexibility Score: inf
ROOT
ATOM      1  C   UNL     1      -6.653   7.305  -3.517  1.00  0.00    -0.045 A 
ATOM      2  C   UNL     1      -7.834   6.761  -4.046  1.00  0.00     0.049 A 
ATOM      3  C   UNL     1      -9.066   7.386  -3.818  1.00  0.00     0.115 A 
ATOM      4  C   UNL     1      -9.118   8.567  -3.065  1.00  0.00     0.046 A 
ATOM      5  C   UNL     1      -7.944   9.121  -2.547  1.00  0.00     0.004 A 
ATOM      6  C   UNL     1      -6.714   8.496  -2.775  1.00  0.00     0.004 A 
ENDROOT
BRANCH   1   7
ATOM      7  C   UNL     1      -5.325   6.649  -3.790  1.00  0.00     0.032 C 
ATOM      8  C   UNL     1      -4.185   7.473  -3.199  1.00  0.00     0.009 C 
ENDBRANCH   1   7
BRANCH   3   9
ATOM      9  O   UNL     1     -10.228   6.829  -4.344  1.00  0.00    -0.508 OA
ATOM     10  H   UNL     1     -11.042   6.657  -3.767  1.00  0.00     0.293 HD
ENDBRANCH   3   9
TORSDOF 2
ENDMDL
MODEL 5
REMARK VINA RESULT:    -3.450      1.628      3.501
REMARK INTER + INTRA:          -3.827
REMARK INTER:                  -3.778
REMARK INTRA:                  -0.049
REMARK UNBOUND:                -0.074
REMARK SMILES CCc1cccc(O)c1
REMARK SMILES IDX 3 1 9 2 7 3 6 4 5 5 4 6 2 7 1 8 8 9
REMARK H PARENT 8 10
REMARK Flexibility Score: inf
ROOT
ATOM      1  C   UNL     1      -5.932   7.424  -3.342  1.00  0.00    -0.045 A 
ATOM      2  C   UNL     1      -6.528   6.526  -4.243  1.00  0.00     0.049 A 
ATOM      3  C   UNL     1      -7.901   6.597  -4.508  1.00  0.00     0.115 A 
ATOM      4  C   UNL     1      -8.683   7.574  -3.876  1.00  0.00     0.046 A 
ATOM      5  C   UNL     1      -8.092   8.478  -2.989  1.00  0.00     0.004 A 
ATOM      6  C   UNL     1      -6.721   8.408  -2.725  1.00  0.00     0.004 A 
ENDROOT
BRANCH   1   7
ATOM      7  C   UNL     1      -4.449   7.368  -3.084  1.00  0.00     0.032 C 
ATOM      8  C   UNL     1      -3.913   5.961  -3.325  1.00  0.00     0.009 C 
ENDBRANCH   1   7
BRANCH   3   9
ATOM      9  O   UNL     1      -8.477   5.695  -5.399  1.00  0.00    -0.508 OA
ATOM     10  H   UNL     1      -8.475   4.697  -5.219  1.00  0.00     0.293 HD
ENDBRANCH   3   9
TORSDOF 2
ENDMDL
MODEL 6
REMARK VINA RESULT:    -3.387      2.454      4.155
REMARK INTER + INTRA:          -3.758
REMARK INTER:                  -3.683
REMARK INTRA:                  -0.076
REMARK UNBOUND:                -0.074
REMARK SMILES CCc1cccc(O)c1
REMARK SMILES IDX 3 1 9 2 7 3 6 4 5 5 4 6 2 7 1 8 8 9
REMARK H PARENT 8 10
REMARK Flexibility Score: inf
ROOT
ATOM      1  C   UNL     1      -6.039   7.100  -3.691  1.00  0.00    -0.045 A 
ATOM      2  C   UNL     1      -6.917   8.182  -3.519  1.00  0.00     0.049 A 
ATOM      3  C   UNL     1      -8.281   8.039  -3.802  1.00  0.00     0.115 A 
ATOM      4  C   UNL     1      -8.773   6.806  -4.254  1.00  0.00     0.046 A 
ATOM      5  C   UNL     1      -7.905   5.722  -4.414  1.00  0.00     0.004 A 
ATOM      6  C   UNL     1      -6.544   5.865  -4.130  1.00  0.00     0.004 A 
ENDROOT
BRANCH   1   7
ATOM      7  C   UNL     1      -4.579   7.246  -3.354  1.00  0.00     0.032 C 
ATOM      8  C   UNL     1      -3.892   5.884  -3.330  1.00  0.00     0.009 C 
ENDBRANCH   1   7
BRANCH   3   9
ATOM      9  O   UNL     1      -9.136   9.125  -3.632  1.00  0.00    -0.508 OA
ATOM     10  H   UNL     1     -10.110   9.081  -3.909  1.00  0.00     0.293 HD
ENDBRANCH   3   9
TORSDOF 2
ENDMDL
MODEL 7
REMARK VINA RESULT:    -3.363      2.533      4.263
REMARK INTER + INTRA:          -3.732
REMARK INTER:                  -3.685
REMARK INTRA:                  -0.046
REMARK UNBOUND:                -0.074
REMARK SMILES CCc1cccc(O)c1
REMARK SMILES IDX 3 1 9 2 7 3 6 4 5 5 4 6 2 7 1 8 8 9
REMARK H PARENT 8 10
REMARK Flexibility Score: inf
ROOT
ATOM      1  C   UNL     1      -6.200   7.198  -3.443  1.00  0.00    -0.045 A 
ATOM      2  C   UNL     1      -6.529   7.505  -2.112  1.00  0.00     0.049 A 
ATOM      3  C   UNL     1      -7.671   8.260  -1.822  1.00  0.00     0.115 A 
ATOM      4  C   UNL     1      -8.496   8.705  -2.864  1.00  0.00     0.046 A 
ATOM      5  C   UNL     1      -8.181   8.391  -4.189  1.00  0.00     0.004 A 
ATOM      6  C   UNL     1      -7.040   7.637  -4.479  1.00  0.00     0.004 A 
ENDROOT
BRANCH   1   7
ATOM      7  C   UNL     1      -4.989   6.358  -3.752  1.00  0.00     0.032 C 
ATOM      8  C   UNL     1      -3.737   6.968  -3.131  1.00  0.00     0.009 C 
ENDBRANCH   1   7
BRANCH   3   9
ATOM      9  O   UNL     1      -7.978   8.560  -0.497  1.00  0.00    -0.508 OA
ATOM     10  H   UNL     1      -7.518   9.317  -0.004  1.00  0.00     0.293 HD
ENDBRANCH   3   9
TORSDOF 2
ENDMDL
MODEL 8
REMARK VINA RESULT:    -3.341      1.765      2.416
REMARK INTER + INTRA:          -3.709
REMARK INTER:                  -3.658
REMARK INTRA:                  -0.051
REMARK UNBOUND:                -0.074
REMARK SMILES CCc1cccc(O)c1
REMARK SMILES IDX 3 1 9 2 7 3 6 4 5 5 4 6 2 7 1 8 8 9
REMARK H PARENT 8 10
REMARK Flexibility Score: inf
ROOT
ATOM      1  C   UNL     1      -6.214   6.315  -4.089  1.00  0.00    -0.045 A 
ATOM      2  C   UNL     1      -5.205   7.200  -3.674  1.00  0.00     0.049 A 
ATOM      3  C   UNL     1      -3.933   6.717  -3.342  1.00  0.00     0.115 A 
ATOM      4  C   UNL     1      -3.663   5.344  -3.433  1.00  0.00     0.046 A 
ATOM      5  C   UNL     1      -4.660   4.461  -3.859  1.00  0.00     0.004 A 
ATOM      6  C   UNL     1      -5.929   4.944  -4.190  1.00  0.00     0.004 A 
ENDROOT
BRANCH   1   7
ATOM      7  C   UNL     1      -7.571   6.840  -4.477  1.00  0.00     0.032 C 
ATOM      8  C   UNL     1      -7.751   8.276  -3.997  1.00  0.00     0.009 C 
ENDBRANCH   1   7
BRANCH   3   9
ATOM      9  O   UNL     1      -2.947   7.608  -2.926  1.00  0.00    -0.508 OA
ATOM     10  H   UNL     1      -3.115   8.277  -2.184  1.00  0.00     0.293 HD
ENDBRANCH   3   9
TORSDOF 2
ENDMDL
MODEL 9
REMARK VINA RESULT:    -3.314      1.792      2.740
REMARK INTER + INTRA:          -3.679
REMARK INTER:                  -3.604
REMARK INTRA:                  -0.075
REMARK UNBOUND:                -0.074
REMARK SMILES CCc1cccc(O)c1
REMARK SMILES IDX 3 1 9 2 7 3 6 4 5 5 4 6 2 7 1 8 8 9
REMARK H PARENT 8 10
REMARK Flexibility Score: inf
ROOT
ATOM      1  C   UNL     1      -7.592   7.946  -3.550  1.00  0.00    -0.045 A 
ATOM      2  C   UNL     1      -6.290   7.987  -3.026  1.00  0.00     0.049 A 
ATOM      3  C   UNL     1      -5.415   6.911  -3.219  1.00  0.00     0.115 A 
ATOM      4  C   UNL     1      -5.839   5.791  -3.947  1.00  0.00     0.046 A 
ATOM      5  C   UNL     1      -7.130   5.751  -4.482  1.00  0.00     0.004 A 
ATOM      6  C   UNL     1      -8.003   6.825  -4.289  1.00  0.00     0.004 A 
ENDROOT
BRANCH   1   7
ATOM      7  C   UNL     1      -8.520   9.118  -3.370  1.00  0.00     0.032 C 
ATOM      8  C   UNL     1      -9.942   8.748  -3.781  1.00  0.00     0.009 C 
ENDBRANCH   1   7
BRANCH   3   9
ATOM      9  O   UNL     1      -4.130   6.966  -2.686  1.00  0.00    -0.508 OA
ATOM     10  H   UNL     1      -3.764   7.814  -2.269  1.00  0.00     0.293 HD
ENDBRANCH   3   9
TORSDOF 2
ENDMDL
