MODEL 1
REMARK VINA RESULT:    -4.003      0.000      0.000
REMARK INTER + INTRA:          -5.114
REMARK INTER:                  -4.939
REMARK INTRA:                  -0.175
REMARK UNBOUND:                -0.175
REMARK SMILES CCCCC=CC(C)=O
REMARK SMILES IDX 4 1 3 2 2 3 1 4 5 5 6 6 7 7 9 8 8 9
REMARK H PARENT
REMARK Flexibility Score: inf
ROOT
ATOM      1  C   UNL     1      19.536 -23.131 -25.088  1.00  0.00     0.027 C 
ENDROOT
BRANCH   1   2
ATOM      2  C   UNL     1      18.742 -24.418 -24.817  1.00  0.00     0.004 C 
BRANCH   2   3
ATOM      3  C   UNL     1      19.487 -25.383 -23.882  1.00  0.00    -0.003 C 
ATOM      4  C   UNL     1      20.504 -24.673 -22.987  1.00  0.00     0.004 C 
ENDBRANCH   2   3
ENDBRANCH   1   2
BRANCH   1   5
ATOM      5  C   UNL     1      18.628 -22.016 -25.524  1.00  0.00    -0.023 C 
ATOM      6  C   UNL     1      17.565 -22.247 -26.304  1.00  0.00     0.042 C 
BRANCH   6   7
ATOM      7  C   UNL     1      16.652 -21.182 -26.769  1.00  0.00     0.152 C 
ATOM      8  O   UNL     1      16.673 -20.069 -26.179  1.00  0.00    -0.295 OA
ATOM      9  C   UNL     1      15.707 -21.379 -27.915  1.00  0.00     0.093 C 
ENDBRANCH   6   7
ENDBRANCH   1   5
TORSDOF 4
ENDMDL
MODEL 2
REMARK VINA RESULT:    -3.964      3.293      5.390
REMARK INTER + INTRA:          -5.066
REMARK INTER:                  -4.774
REMARK INTRA:                  -0.293
REMARK UNBOUND:                -0.175
REMARK SMILES CCCCC=CC(C)=O
REMARK SMILES IDX 4 1 3 2 2 3 1 4 5 5 6 6 7 7 9 8 8 9
REMARK H PARENT
REMARK Flexibility Score: inf
ROOT
ATOM      1  C   UNL     1      18.649 -23.539 -25.531  1.00  0.00     0.027 C 
ENDROOT
BRANCH   1   2
ATOM      2  C   UNL     1      19.606 -22.338 -25.565  1.00  0.00     0.004 C 
BRANCH   2   3
ATOM      3  C   UNL     1      18.902 -21.015 -25.228  1.00  0.00    -0.003 C 
ATOM      4  C   UNL     1      18.713 -20.811 -23.724  1.00  0.00     0.004 C 
ENDBRANCH   2   3
ENDBRANCH   1   2
BRANCH   1   5
ATOM      5  C   UNL     1      19.097 -24.560 -24.525  1.00  0.00    -0.023 C 
ATOM      6  C   UNL     1      20.092 -24.304 -23.666  1.00  0.00     0.042 C 
BRANCH   6   7
ATOM      7  C   UNL     1      20.576 -25.280 -22.669  1.00  0.00     0.152 C 
ATOM      8  O   UNL     1      21.477 -24.924 -21.864  1.00  0.00    -0.295 OA
ATOM      9  C   UNL     1      20.032 -26.674 -22.580  1.00  0.00     0.093 C 
ENDBRANCH   6   7
ENDBRANCH   1   5
TORSDOF 4
ENDMDL
MODEL 3
REMARK VINA RESULT:    -3.939      2.260      5.179
REMARK INTER + INTRA:          -5.036
REMARK INTER:                  -4.828
REMARK INTRA:                  -0.208
REMARK UNBOUND:                -0.175
REMARK SMILES CCCCC=CC(C)=O
REMARK SMILES IDX 4 1 3 2 2 3 1 4 5 5 6 6 7 7 9 8 8 9
REMARK H PARENT
REMARK Flexibility Score: inf
ROOT
ATOM      1  C   UNL     1      18.947 -21.183 -25.650  1.00  0.00     0.027 C 
ENDROOT
BRANCH   1   2
ATOM      2  C   UNL     1      17.518 -20.929 -25.145  1.00  0.00     0.004 C 
BRANCH   2   3
ATOM      3  C   UNL     1      16.585 -20.419 -26.254  1.00  0.00    -0.003 C 
ATOM      4  C   UNL     1      16.212 -21.509 -27.261  1.00  0.00     0.004 C 
ENDBRANCH   2   3
ENDBRANCH   1   2
BRANCH   1   5
ATOM      5  C   UNL     1      19.364 -22.604 -25.402  1.00  0.00    -0.023 C 
ATOM      6  C   UNL     1      19.217 -23.176 -24.200  1.00  0.00     0.042 C 
BRANCH   6   7
ATOM      7  C   UNL     1      19.625 -24.564 -23.905  1.00  0.00     0.152 C 
ATOM      8  O   UNL     1      19.127 -25.498 -24.588  1.00  0.00    -0.295 OA
ATOM      9  C   UNL     1      20.609 -24.900 -22.825  1.00  0.00     0.093 C 
ENDBRANCH   6   7
ENDBRANCH   1   5
TORSDOF 4
ENDMDL
MODEL 4
REMARK VINA RESULT:    -3.913     12.369     14.659
REMARK INTER + INTRA:          -5.003
REMARK INTER:                  -4.853
REMARK INTRA:                  -0.150
REMARK UNBOUND:                -0.175
REMARK SMILES CCCCC=CC(C)=O
REMARK SMILES IDX 4 1 3 2 2 3 1 4 5 5 6 6 7 7 9 8 8 9
REMARK H PARENT
REMARK Flexibility Score: inf
ROOT
ATOM      1  C   UNL     1      21.805 -26.587 -11.703  1.00  0.00     0.027 C 
ENDROOT
BRANCH   1   2
ATOM      2  C   UNL     1      21.953 -26.132 -10.243  1.00  0.00     0.004 C 
BRANCH   2   3
ATOM      3  C   UNL     1      22.627 -27.194  -9.361  1.00  0.00    -0.003 C 
ATOM      4  C   UNL     1      23.525 -26.585  -8.284  1.00  0.00     0.004 C 
ENDBRANCH   2   3
ENDBRANCH   1   2
BRANCH   1   5
ATOM      5  C   UNL     1      20.864 -25.692 -12.457  1.00  0.00    -0.023 C 
ATOM      6  C   UNL     1      19.874 -25.038 -11.836  1.00  0.00     0.042 C 
BRANCH   6   7
ATOM      7  C   UNL     1      18.917 -24.158 -12.537  1.00  0.00     0.152 C 
ATOM      8  O   UNL     1      17.868 -23.806 -11.934  1.00  0.00    -0.295 OA
ATOM      9  C   UNL     1      19.151 -23.667 -13.934  1.00  0.00     0.093 C 
ENDBRANCH   6   7
ENDBRANCH   1   5
TORSDOF 4
ENDMDL
MODEL 5
REMARK VINA RESULT:    -3.910      2.418      4.977
REMARK INTER + INTRA:          -5.000
REMARK INTER:                  -4.789
REMARK INTRA:                  -0.211
REMARK UNBOUND:                -0.175
REMARK SMILES CCCCC=CC(C)=O
REMARK SMILES IDX 4 1 3 2 2 3 1 4 5 5 6 6 7 7 9 8 8 9
REMARK H PARENT
REMARK Flexibility Score: inf
ROOT
ATOM      1  C   UNL     1      18.752 -20.806 -25.266  1.00  0.00     0.027 C 
ENDROOT
BRANCH   1   2
ATOM      2  C   UNL     1      17.327 -20.648 -25.818  1.00  0.00     0.004 C 
BRANCH   2   3
ATOM      3  C   UNL     1      16.891 -21.849 -26.671  1.00  0.00    -0.003 C 
ATOM      4  C   UNL     1      15.883 -21.468 -27.756  1.00  0.00     0.004 C 
ENDBRANCH   2   3
ENDBRANCH   1   2
BRANCH   1   5
ATOM      5  C   UNL     1      19.156 -22.251 -25.212  1.00  0.00    -0.023 C 
ATOM      6  C   UNL     1      19.254 -22.906 -24.048  1.00  0.00     0.042 C 
BRANCH   6   7
ATOM      7  C   UNL     1      19.660 -24.322 -23.944  1.00  0.00     0.152 C 
ATOM      8  O   UNL     1      20.678 -24.610 -23.261  1.00  0.00    -0.295 OA
ATOM      9  C   UNL     1      18.903 -25.426 -24.619  1.00  0.00     0.093 C 
ENDBRANCH   6   7
ENDBRANCH   1   5
TORSDOF 4
ENDMDL
MODEL 6
REMARK VINA RESULT:    -3.905      1.363      1.854
REMARK INTER + INTRA:          -4.993
REMARK INTER:                  -4.717
REMARK INTRA:                  -0.276
REMARK UNBOUND:                -0.175
REMARK SMILES CCCCC=CC(C)=O
REMARK SMILES IDX 4 1 3 2 2 3 1 4 5 5 6 6 7 7 9 8 8 9
REMARK H PARENT
REMARK Flexibility Score: inf
ROOT
ATOM      1  C   UNL     1      19.095 -21.347 -25.176  1.00  0.00     0.027 C 
ENDROOT
BRANCH   1   2
ATOM      2  C   UNL     1      19.626 -22.740 -25.547  1.00  0.00     0.004 C 
BRANCH   2   3
ATOM      3  C   UNL     1      19.628 -23.706 -24.352  1.00  0.00    -0.003 C 
ATOM      4  C   UNL     1      18.777 -24.953 -24.598  1.00  0.00     0.004 C 
ENDBRANCH   2   3
ENDBRANCH   1   2
BRANCH   1   5
ATOM      5  C   UNL     1      17.672 -21.172 -25.624  1.00  0.00    -0.023 C 
ATOM      6  C   UNL     1      17.128 -21.973 -26.548  1.00  0.00     0.042 C 
BRANCH   6   7
ATOM      7  C   UNL     1      15.739 -21.832 -27.030  1.00  0.00     0.152 C 
ATOM      8  O   UNL     1      15.535 -21.233 -28.119  1.00  0.00    -0.295 OA
ATOM      9  C   UNL     1      14.566 -22.378 -26.272  1.00  0.00     0.093 C 
ENDBRANCH   6   7
ENDBRANCH   1   5
TORSDOF 4
ENDMDL
MODEL 7
REMARK VINA RESULT:    -3.812      2.847      4.293
REMARK INTER + INTRA:          -4.879
REMARK INTER:                  -4.632
REMARK INTRA:                  -0.247
REMARK UNBOUND:                -0.175
REMARK SMILES CCCCC=CC(C)=O
REMARK SMILES IDX 4 1 3 2 2 3 1 4 5 5 6 6 7 7 9 8 8 9
REMARK H PARENT
REMARK Flexibility Score: inf
ROOT
ATOM      1  C   UNL     1      19.211 -21.616 -25.524  1.00  0.00     0.027 C 
ENDROOT
BRANCH   1   2
ATOM      2  C   UNL     1      19.279 -23.129 -25.264  1.00  0.00     0.004 C 
BRANCH   2   3
ATOM      3  C   UNL     1      18.219 -23.910 -26.055  1.00  0.00    -0.003 C 
ATOM      4  C   UNL     1      17.386 -23.015 -26.973  1.00  0.00     0.004 C 
ENDBRANCH   2   3
ENDBRANCH   1   2
BRANCH   1   5
ATOM      5  C   UNL     1      18.754 -20.876 -24.299  1.00  0.00    -0.023 C 
ATOM      6  C   UNL     1      18.638 -21.489 -23.115  1.00  0.00     0.042 C 
BRANCH   6   7
ATOM      7  C   UNL     1      18.181 -20.807 -21.888  1.00  0.00     0.152 C 
ATOM      8  O   UNL     1      16.944 -20.649 -21.710  1.00  0.00    -0.295 OA
ATOM      9  C   UNL     1      19.135 -20.299 -20.848  1.00  0.00     0.093 C 
ENDBRANCH   6   7
ENDBRANCH   1   5
TORSDOF 4
ENDMDL
MODEL 8
REMARK VINA RESULT:    -3.789      3.117      4.173
REMARK INTER + INTRA:          -4.851
REMARK INTER:                  -4.589
REMARK INTRA:                  -0.262
REMARK UNBOUND:                -0.175
REMARK SMILES CCCCC=CC(C)=O
REMARK SMILES IDX 4 1 3 2 2 3 1 4 5 5 6 6 7 7 9 8 8 9
REMARK H PARENT
REMARK Flexibility Score: inf
ROOT
ATOM      1  C   UNL     1      19.027 -21.106 -25.177  1.00  0.00     0.027 C 
ENDROOT
BRANCH   1   2
ATOM      2  C   UNL     1      19.637 -22.474 -25.519  1.00  0.00     0.004 C 
BRANCH   2   3
ATOM      3  C   UNL     1      18.991 -23.621 -24.728  1.00  0.00    -0.003 C 
ATOM      4  C   UNL     1      19.974 -24.318 -23.787  1.00  0.00     0.004 C 
ENDBRANCH   2   3
ENDBRANCH   1   2
BRANCH   1   5
ATOM      5  C   UNL     1      18.414 -21.114 -23.806  1.00  0.00    -0.023 C 
ATOM      6  C   UNL     1      18.919 -20.373 -22.811  1.00  0.00     0.042 C 
BRANCH   6   7
ATOM      7  C   UNL     1      18.359 -20.358 -21.444  1.00  0.00     0.152 C 
ATOM      8  O   UNL     1      18.059 -19.249 -20.927  1.00  0.00    -0.295 OA
ATOM      9  C   UNL     1      18.135 -21.612 -20.655  1.00  0.00     0.093 C 
ENDBRANCH   6   7
ENDBRANCH   1   5
TORSDOF 4
ENDMDL
MODEL 9
REMARK VINA RESULT:    -3.787     10.609     12.740
REMARK INTER + INTRA:          -4.848
REMARK INTER:                  -4.680
REMARK INTRA:                  -0.169
REMARK UNBOUND:                -0.175
REMARK SMILES CCCCC=CC(C)=O
REMARK SMILES IDX 4 1 3 2 2 3 1 4 5 5 6 6 7 7 9 8 8 9
REMARK H PARENT
REMARK Flexibility Score: inf
ROOT
ATOM      1  C   UNL     1      19.349 -24.311 -11.706  1.00  0.00     0.027 C 
ENDROOT
BRANCH   1   2
ATOM      2  C   UNL     1      19.999 -25.345 -10.775  1.00  0.00     0.004 C 
BRANCH   2   3
ATOM      3  C   UNL     1      21.399 -25.765 -11.249  1.00  0.00    -0.003 C 
ATOM      4  C   UNL     1      22.258 -26.339 -10.121  1.00  0.00     0.004 C 
ENDBRANCH   2   3
ENDBRANCH   1   2
BRANCH   1   5
ATOM      5  C   UNL     1      19.926 -24.389 -13.090  1.00  0.00    -0.023 C 
ATOM      6  C   UNL     1      19.235 -23.974 -14.159  1.00  0.00     0.042 C 
BRANCH   6   7
ATOM      7  C   UNL     1      19.754 -24.043 -15.540  1.00  0.00     0.152 C 
ATOM      8  O   UNL     1      20.975 -24.301 -15.713  1.00  0.00    -0.295 OA
ATOM      9  C   UNL     1      18.882 -23.820 -16.739  1.00  0.00     0.093 C 
ENDBRANCH   6   7
ENDBRANCH   1   5
TORSDOF 4
ENDMDL
