MODEL 1
REMARK VINA RESULT:    -3.252      0.000      0.000
REMARK INTER + INTRA:          -5.111
REMARK INTER:                  -4.583
REMARK INTRA:                  -0.528
REMARK UNBOUND:                -0.528
REMARK SMILES C=CCCCCCCC(=O)[O-]
REMARK SMILES IDX 6 1 7 2 8 3 9 4 10 5 11 6 5 7 4 8 3 9 2 10 1 11
REMARK H PARENT
REMARK Flexibility Score: inf
ROOT
ATOM      1  C   UNL     1     -17.220 -22.127   6.703  1.00  0.00     0.000 C 
ENDROOT
BRANCH   1   2
ATOM      2  C   UNL     1     -15.947 -21.366   7.104  1.00  0.00     0.006 C 
BRANCH   2   3
ATOM      3  C   UNL     1     -16.245 -20.093   7.907  1.00  0.00     0.053 C 
BRANCH   3   4
ATOM      4  C   UNL     1     -15.647 -18.899   7.233  1.00  0.00     0.041 C 
ATOM      5  O   UNL     1     -14.616 -18.354   7.707  1.00  0.00    -0.550 OA
ATOM      6  O   UNL     1     -16.255 -18.358   6.108  1.00  0.00    -0.550 OA
ENDBRANCH   3   4
ENDBRANCH   2   3
ENDBRANCH   1   2
BRANCH   1   7
ATOM      7  C   UNL     1     -16.917 -23.523   6.132  1.00  0.00     0.000 C 
BRANCH   7   8
ATOM      8  C   UNL     1     -17.267 -23.638   4.639  1.00  0.00     0.004 C 
BRANCH   8   9
ATOM      9  C   UNL     1     -17.874 -22.346   4.072  1.00  0.00     0.027 C 
BRANCH   9  10
ATOM     10  C   UNL     1     -16.905 -21.648   3.157  1.00  0.00    -0.035 C 
ATOM     11  C   UNL     1     -16.576 -20.364   3.328  1.00  0.00     0.004 C 
ENDBRANCH   9  10
ENDBRANCH   8   9
ENDBRANCH   7   8
ENDBRANCH   1   7
TORSDOF 7
ENDMDL
MODEL 2
REMARK VINA RESULT:    -3.213      2.737      4.696
REMARK INTER + INTRA:          -5.056
REMARK INTER:                  -4.589
REMARK INTRA:                  -0.467
REMARK UNBOUND:                -0.528
REMARK SMILES C=CCCCCCCC(=O)[O-]
REMARK SMILES IDX 6 1 7 2 8 3 9 4 10 5 11 6 5 7 4 8 3 9 2 10 1 11
REMARK H PARENT
REMARK Flexibility Score: inf
ROOT
ATOM      1  C   UNL     1     -18.001 -22.488   3.916  1.00  0.00     0.000 C 
ENDROOT
BRANCH   1   2
ATOM      2  C   UNL     1     -16.875 -21.659   3.277  1.00  0.00     0.006 C 
BRANCH   2   3
ATOM      3  C   UNL     1     -16.154 -22.410   2.149  1.00  0.00     0.053 C 
BRANCH   3   4
ATOM      4  C   UNL     1     -15.298 -21.470   1.361  1.00  0.00     0.041 C 
ATOM      5  O   UNL     1     -14.666 -21.881   0.353  1.00  0.00    -0.550 OA
ATOM      6  O   UNL     1     -15.158 -20.150   1.769  1.00  0.00    -0.550 OA
ENDBRANCH   3   4
ENDBRANCH   2   3
ENDBRANCH   1   2
BRANCH   1   7
ATOM      7  C   UNL     1     -17.483 -23.451   4.998  1.00  0.00     0.000 C 
BRANCH   7   8
ATOM      8  C   UNL     1     -16.542 -22.762   6.000  1.00  0.00     0.004 C 
BRANCH   8   9
ATOM      9  C   UNL     1     -17.297 -22.104   7.166  1.00  0.00     0.027 C 
BRANCH   9  10
ATOM     10  C   UNL     1     -16.549 -20.910   7.692  1.00  0.00    -0.035 C 
ATOM     11  C   UNL     1     -16.146 -19.922   6.887  1.00  0.00     0.004 C 
ENDBRANCH   9  10
ENDBRANCH   8   9
ENDBRANCH   7   8
ENDBRANCH   1   7
TORSDOF 7
ENDMDL
MODEL 3
REMARK VINA RESULT:    -3.149      3.023      5.013
REMARK INTER + INTRA:          -4.965
REMARK INTER:                  -4.592
REMARK INTRA:                  -0.373
REMARK UNBOUND:                -0.528
REMARK SMILES C=CCCCCCCC(=O)[O-]
REMARK SMILES IDX 6 1 7 2 8 3 9 4 10 5 11 6 5 7 4 8 3 9 2 10 1 11
REMARK H PARENT
REMARK Flexibility Score: inf
ROOT
ATOM      1  C   UNL     1     -16.638 -22.237   6.035  1.00  0.00     0.000 C 
ENDROOT
BRANCH   1   2
ATOM      2  C   UNL     1     -17.681 -22.412   4.920  1.00  0.00     0.006 C 
BRANCH   2   3
ATOM      3  C   UNL     1     -17.261 -21.742   3.605  1.00  0.00     0.053 C 
BRANCH   3   4
ATOM      4  C   UNL     1     -16.753 -22.764   2.638  1.00  0.00     0.041 C 
ATOM      5  O   UNL     1     -17.230 -23.929   2.638  1.00  0.00    -0.550 OA
ATOM      6  O   UNL     1     -15.717 -22.445   1.770  1.00  0.00    -0.550 OA
ENDBRANCH   3   4
ENDBRANCH   2   3
ENDBRANCH   1   2
BRANCH   1   7
ATOM      7  C   UNL     1     -17.279 -22.119   7.429  1.00  0.00     0.000 C 
BRANCH   7   8
ATOM      8  C   UNL     1     -17.075 -20.730   8.055  1.00  0.00     0.004 C 
BRANCH   8   9
ATOM      9  C   UNL     1     -16.085 -19.862   7.263  1.00  0.00     0.027 C 
BRANCH   9  10
ATOM     10  C   UNL     1     -14.841 -19.590   8.065  1.00  0.00    -0.035 C 
ATOM     11  C   UNL     1     -14.248 -18.393   8.057  1.00  0.00     0.004 C 
ENDBRANCH   9  10
ENDBRANCH   8   9
ENDBRANCH   7   8
ENDBRANCH   1   7
TORSDOF 7
ENDMDL
MODEL 4
REMARK VINA RESULT:    -3.143      3.011      5.010
REMARK INTER + INTRA:          -4.957
REMARK INTER:                  -4.556
REMARK INTRA:                  -0.400
REMARK UNBOUND:                -0.528
REMARK SMILES C=CCCCCCCC(=O)[O-]
REMARK SMILES IDX 6 1 7 2 8 3 9 4 10 5 11 6 5 7 4 8 3 9 2 10 1 11
REMARK H PARENT
REMARK Flexibility Score: inf
ROOT
ATOM      1  C   UNL     1     -17.316 -22.116   4.899  1.00  0.00     0.000 C 
ENDROOT
BRANCH   1   2
ATOM      2  C   UNL     1     -17.712 -22.789   3.575  1.00  0.00     0.006 C 
BRANCH   2   3
ATOM      3  C   UNL     1     -16.565 -23.598   2.956  1.00  0.00     0.053 C 
BRANCH   3   4
ATOM      4  C   UNL     1     -16.065 -22.929   1.714  1.00  0.00     0.041 C 
ATOM      5  O   UNL     1     -15.992 -23.572   0.634  1.00  0.00    -0.550 OA
ATOM      6  O   UNL     1     -15.635 -21.610   1.761  1.00  0.00    -0.550 OA
ENDBRANCH   3   4
ENDBRANCH   2   3
ENDBRANCH   1   2
BRANCH   1   7
ATOM      7  C   UNL     1     -16.887 -23.131   5.972  1.00  0.00     0.000 C 
BRANCH   7   8
ATOM      8  C   UNL     1     -16.154 -22.471   7.150  1.00  0.00     0.004 C 
BRANCH   8   9
ATOM      9  C   UNL     1     -16.933 -21.287   7.744  1.00  0.00     0.027 C 
BRANCH   9  10
ATOM     10  C   UNL     1     -16.094 -20.038   7.758  1.00  0.00    -0.035 C 
ATOM     11  C   UNL     1     -16.143 -19.146   6.765  1.00  0.00     0.004 C 
ENDBRANCH   9  10
ENDBRANCH   8   9
ENDBRANCH   7   8
ENDBRANCH   1   7
TORSDOF 7
ENDMDL
MODEL 5
REMARK VINA RESULT:    -3.139      1.360      2.110
REMARK INTER + INTRA:          -4.952
REMARK INTER:                  -4.640
REMARK INTRA:                  -0.311
REMARK UNBOUND:                -0.528
REMARK SMILES C=CCCCCCCC(=O)[O-]
REMARK SMILES IDX 6 1 7 2 8 3 9 4 10 5 11 6 5 7 4 8 3 9 2 10 1 11
REMARK H PARENT
REMARK Flexibility Score: inf
ROOT
ATOM      1  C   UNL     1     -16.880 -22.716   5.622  1.00  0.00     0.000 C 
ENDROOT
BRANCH   1   2
ATOM      2  C   UNL     1     -17.132 -21.905   6.902  1.00  0.00     0.006 C 
BRANCH   2   3
ATOM      3  C   UNL     1     -15.834 -21.455   7.586  1.00  0.00     0.053 C 
BRANCH   3   4
ATOM      4  C   UNL     1     -15.691 -19.968   7.507  1.00  0.00     0.041 C 
ATOM      5  O   UNL     1     -16.265 -19.324   6.590  1.00  0.00    -0.550 OA
ATOM      6  O   UNL     1     -14.885 -19.299   8.418  1.00  0.00    -0.550 OA
ENDBRANCH   3   4
ENDBRANCH   2   3
ENDBRANCH   1   2
BRANCH   1   7
ATOM      7  C   UNL     1     -17.771 -22.264   4.452  1.00  0.00     0.000 C 
BRANCH   7   8
ATOM      8  C   UNL     1     -16.956 -21.792   3.237  1.00  0.00     0.004 C 
BRANCH   8   9
ATOM      9  C   UNL     1     -16.458 -22.958   2.369  1.00  0.00     0.027 C 
BRANCH   9  10
ATOM     10  C   UNL     1     -15.520 -22.474   1.296  1.00  0.00    -0.035 C 
ATOM     11  C   UNL     1     -15.004 -21.242   1.318  1.00  0.00     0.004 C 
ENDBRANCH   9  10
ENDBRANCH   8   9
ENDBRANCH   7   8
ENDBRANCH   1   7
TORSDOF 7
ENDMDL
MODEL 6
REMARK VINA RESULT:    -3.026      1.289      1.632
REMARK INTER + INTRA:          -4.792
REMARK INTER:                  -4.432
REMARK INTRA:                  -0.360
REMARK UNBOUND:                -0.528
REMARK SMILES C=CCCCCCCC(=O)[O-]
REMARK SMILES IDX 6 1 7 2 8 3 9 4 10 5 11 6 5 7 4 8 3 9 2 10 1 11
REMARK H PARENT
REMARK Flexibility Score: inf
ROOT
ATOM      1  C   UNL     1     -16.849 -22.904   6.166  1.00  0.00     0.000 C 
ENDROOT
BRANCH   1   2
ATOM      2  C   UNL     1     -16.080 -22.173   7.278  1.00  0.00     0.006 C 
BRANCH   2   3
ATOM      3  C   UNL     1     -16.778 -20.884   7.732  1.00  0.00     0.053 C 
BRANCH   3   4
ATOM      4  C   UNL     1     -15.882 -19.705   7.524  1.00  0.00     0.041 C 
ATOM      5  O   UNL     1     -14.906 -19.507   8.294  1.00  0.00    -0.550 OA
ATOM      6  O   UNL     1     -16.153 -18.797   6.509  1.00  0.00    -0.550 OA
ENDBRANCH   3   4
ENDBRANCH   2   3
ENDBRANCH   1   2
BRANCH   1   7
ATOM      7  C   UNL     1     -17.243 -21.970   5.009  1.00  0.00     0.000 C 
BRANCH   7   8
ATOM      8  C   UNL     1     -17.928 -22.718   3.854  1.00  0.00     0.004 C 
BRANCH   8   9
ATOM      9  C   UNL     1     -17.093 -23.899   3.335  1.00  0.00     0.027 C 
BRANCH   9  10
ATOM     10  C   UNL     1     -16.615 -23.648   1.931  1.00  0.00    -0.035 C 
ATOM     11  C   UNL     1     -15.738 -22.681   1.648  1.00  0.00     0.004 C 
ENDBRANCH   9  10
ENDBRANCH   8   9
ENDBRANCH   7   8
ENDBRANCH   1   7
TORSDOF 7
ENDMDL
MODEL 7
REMARK VINA RESULT:    -2.997      3.453      5.423
REMARK INTER + INTRA:          -4.751
REMARK INTER:                  -4.327
REMARK INTRA:                  -0.424
REMARK UNBOUND:                -0.528
REMARK SMILES C=CCCCCCCC(=O)[O-]
REMARK SMILES IDX 6 1 7 2 8 3 9 4 10 5 11 6 5 7 4 8 3 9 2 10 1 11
REMARK H PARENT
REMARK Flexibility Score: inf
ROOT
ATOM      1  C   UNL     1     -17.242 -22.122   4.906  1.00  0.00     0.000 C 
ENDROOT
BRANCH   1   2
ATOM      2  C   UNL     1     -18.238 -22.679   3.876  1.00  0.00     0.006 C 
BRANCH   2   3
ATOM      3  C   UNL     1     -17.994 -24.160   3.557  1.00  0.00     0.053 C 
BRANCH   3   4
ATOM      4  C   UNL     1     -17.472 -24.314   2.164  1.00  0.00     0.041 C 
ATOM      5  O   UNL     1     -18.015 -25.125   1.369  1.00  0.00    -0.550 OA
ATOM      6  O   UNL     1     -16.354 -23.598   1.758  1.00  0.00    -0.550 OA
ENDBRANCH   3   4
ENDBRANCH   2   3
ENDBRANCH   1   2
BRANCH   1   7
ATOM      7  C   UNL     1     -16.908 -23.137   6.012  1.00  0.00     0.000 C 
BRANCH   7   8
ATOM      8  C   UNL     1     -16.229 -22.485   7.227  1.00  0.00     0.004 C 
BRANCH   8   9
ATOM      9  C   UNL     1     -16.922 -21.185   7.665  1.00  0.00     0.027 C 
BRANCH   9  10
ATOM     10  C   UNL     1     -15.964 -20.025   7.640  1.00  0.00    -0.035 C 
ATOM     11  C   UNL     1     -16.108 -19.012   6.780  1.00  0.00     0.004 C 
ENDBRANCH   9  10
ENDBRANCH   8   9
ENDBRANCH   7   8
ENDBRANCH   1   7
TORSDOF 7
ENDMDL
MODEL 8
REMARK VINA RESULT:    -2.922      3.849      5.833
REMARK INTER + INTRA:          -4.646
REMARK INTER:                  -4.274
REMARK INTRA:                  -0.372
REMARK UNBOUND:                -0.528
REMARK SMILES C=CCCCCCCC(=O)[O-]
REMARK SMILES IDX 6 1 7 2 8 3 9 4 10 5 11 6 5 7 4 8 3 9 2 10 1 11
REMARK H PARENT
REMARK Flexibility Score: inf
ROOT
ATOM      1  C   UNL     1     -17.243 -21.721   3.544  1.00  0.00     0.000 C 
ENDROOT
BRANCH   1   2
ATOM      2  C   UNL     1     -16.232 -22.088   2.447  1.00  0.00     0.006 C 
BRANCH   2   3
ATOM      3  C   UNL     1     -16.392 -23.532   1.952  1.00  0.00     0.053 C 
BRANCH   3   4
ATOM      4  C   UNL     1     -16.141 -23.608   0.479  1.00  0.00     0.041 C 
ATOM      5  O   UNL     1     -15.326 -22.819  -0.067  1.00  0.00    -0.550 OA
ATOM      6  O   UNL     1     -16.842 -24.520  -0.299  1.00  0.00    -0.550 OA
ENDBRANCH   3   4
ENDBRANCH   2   3
ENDBRANCH   1   2
BRANCH   1   7
ATOM      7  C   UNL     1     -17.667 -22.937   4.387  1.00  0.00     0.000 C 
BRANCH   7   8
ATOM      8  C   UNL     1     -16.962 -22.982   5.752  1.00  0.00     0.004 C 
BRANCH   8   9
ATOM      9  C   UNL     1     -16.734 -21.584   6.348  1.00  0.00     0.027 C 
BRANCH   9  10
ATOM     10  C   UNL     1     -17.131 -21.542   7.799  1.00  0.00    -0.035 C 
ATOM     11  C   UNL     1     -17.757 -22.566   8.387  1.00  0.00     0.004 C 
ENDBRANCH   9  10
ENDBRANCH   8   9
ENDBRANCH   7   8
ENDBRANCH   1   7
TORSDOF 7
ENDMDL
MODEL 9
REMARK VINA RESULT:    -2.891      3.246      5.263
REMARK INTER + INTRA:          -4.602
REMARK INTER:                  -4.209
REMARK INTRA:                  -0.394
REMARK UNBOUND:                -0.528
REMARK SMILES C=CCCCCCCC(=O)[O-]
REMARK SMILES IDX 6 1 7 2 8 3 9 4 10 5 11 6 5 7 4 8 3 9 2 10 1 11
REMARK H PARENT
REMARK Flexibility Score: inf
ROOT
ATOM      1  C   UNL     1     -16.532 -21.279   6.199  1.00  0.00     0.000 C 
ENDROOT
BRANCH   1   2
ATOM      2  C   UNL     1     -17.252 -22.450   5.512  1.00  0.00     0.006 C 
BRANCH   2   3
ATOM      3  C   UNL     1     -17.668 -22.127   4.071  1.00  0.00     0.053 C 
BRANCH   3   4
ATOM      4  C   UNL     1     -16.884 -22.956   3.103  1.00  0.00     0.041 C 
ATOM      5  O   UNL     1     -16.210 -22.402   2.196  1.00  0.00    -0.550 OA
ATOM      6  O   UNL     1     -16.937 -24.342   3.173  1.00  0.00    -0.550 OA
ENDBRANCH   3   4
ENDBRANCH   2   3
ENDBRANCH   1   2
BRANCH   1   7
ATOM      7  C   UNL     1     -16.855 -21.186   7.700  1.00  0.00     0.000 C 
BRANCH   7   8
ATOM      8  C   UNL     1     -17.983 -22.141   8.120  1.00  0.00     0.004 C 
BRANCH   8   9
ATOM      9  C   UNL     1     -17.515 -23.206   9.125  1.00  0.00     0.027 C 
BRANCH   9  10
ATOM     10  C   UNL     1     -18.049 -24.565   8.763  1.00  0.00    -0.035 C 
ATOM     11  C   UNL     1     -19.358 -24.831   8.770  1.00  0.00     0.004 C 
ENDBRANCH   9  10
ENDBRANCH   8   9
ENDBRANCH   7   8
ENDBRANCH   1   7
TORSDOF 7
ENDMDL
