MODEL 1
REMARK VINA RESULT:    -3.156      0.000      0.000
REMARK INTER + INTRA:          -3.841
REMARK INTER:                  -3.709
REMARK INTRA:                  -0.131
REMARK UNBOUND:                -0.131
REMARK SMILES CCCCC(=O)[O-]
REMARK SMILES IDX 4 1 5 2 6 3 7 4 3 5 2 6 1 7
REMARK H PARENT
REMARK Flexibility Score: inf
ROOT
ATOM      1  C   UNL     1     -31.116 -20.439 -32.774  1.00  0.00     0.053 C 
ENDROOT
BRANCH   1   2
ATOM      2  C   UNL     1     -31.358 -20.000 -31.362  1.00  0.00     0.041 C 
ATOM      3  O   UNL     1     -32.245 -19.142 -31.109  1.00  0.00    -0.550 OA
ATOM      4  O   UNL     1     -30.627 -20.562 -30.323  1.00  0.00    -0.550 OA
ENDBRANCH   1   2
BRANCH   1   5
ATOM      5  C   UNL     1     -29.618 -20.477 -33.116  1.00  0.00     0.006 C 
BRANCH   5   6
ATOM      6  C   UNL     1     -28.956 -19.090 -33.202  1.00  0.00    -0.003 C 
ATOM      7  C   UNL     1     -27.884 -18.875 -32.135  1.00  0.00     0.004 C 
ENDBRANCH   5   6
ENDBRANCH   1   5
TORSDOF 3
ENDMDL
MODEL 2
REMARK VINA RESULT:    -3.032      1.217      1.775
REMARK INTER + INTRA:          -3.695
REMARK INTER:                  -3.593
REMARK INTRA:                  -0.102
REMARK UNBOUND:                -0.131
REMARK SMILES CCCCC(=O)[O-]
REMARK SMILES IDX 4 1 5 2 6 3 7 4 3 5 2 6 1 7
REMARK H PARENT
REMARK Flexibility Score: inf
ROOT
ATOM      1  C   UNL     1     -30.775 -20.884 -31.220  1.00  0.00     0.053 C 
ENDROOT
BRANCH   1   2
ATOM      2  C   UNL     1     -30.799 -19.746 -30.248  1.00  0.00     0.041 C 
ATOM      3  O   UNL     1     -29.791 -19.003 -30.116  1.00  0.00    -0.550 OA
ATOM      4  O   UNL     1     -31.948 -19.486 -29.510  1.00  0.00    -0.550 OA
ENDBRANCH   1   2
BRANCH   1   5
ATOM      5  C   UNL     1     -30.922 -20.404 -32.673  1.00  0.00     0.006 C 
BRANCH   5   6
ATOM      6  C   UNL     1     -29.605 -20.397 -33.471  1.00  0.00    -0.003 C 
ATOM      7  C   UNL     1     -28.939 -19.022 -33.506  1.00  0.00     0.004 C 
ENDBRANCH   5   6
ENDBRANCH   1   5
TORSDOF 3
ENDMDL
MODEL 3
REMARK VINA RESULT:    -3.026      1.684      2.209
REMARK INTER + INTRA:          -3.688
REMARK INTER:                  -3.584
REMARK INTRA:                  -0.104
REMARK UNBOUND:                -0.131
REMARK SMILES CCCCC(=O)[O-]
REMARK SMILES IDX 4 1 5 2 6 3 7 4 3 5 2 6 1 7
REMARK H PARENT
REMARK Flexibility Score: inf
ROOT
ATOM      1  C   UNL     1     -29.620 -20.723 -32.750  1.00  0.00     0.053 C 
ENDROOT
BRANCH   1   2
ATOM      2  C   UNL     1     -31.085 -20.627 -33.048  1.00  0.00     0.041 C 
ATOM      3  O   UNL     1     -31.634 -21.470 -33.804  1.00  0.00    -0.550 OA
ATOM      4  O   UNL     1     -31.849 -19.625 -32.462  1.00  0.00    -0.550 OA
ENDBRANCH   1   2
BRANCH   1   5
ATOM      5  C   UNL     1     -28.898 -19.384 -32.972  1.00  0.00     0.006 C 
BRANCH   5   6
ATOM      6  C   UNL     1     -28.113 -18.881 -31.748  1.00  0.00    -0.003 C 
ATOM      7  C   UNL     1     -28.949 -18.875 -30.468  1.00  0.00     0.004 C 
ENDBRANCH   5   6
ENDBRANCH   1   5
TORSDOF 3
ENDMDL
MODEL 4
REMARK VINA RESULT:    -2.916      2.263      3.537
REMARK INTER + INTRA:          -3.559
REMARK INTER:                  -3.511
REMARK INTRA:                  -0.048
REMARK UNBOUND:                -0.131
REMARK SMILES CCCCC(=O)[O-]
REMARK SMILES IDX 4 1 5 2 6 3 7 4 3 5 2 6 1 7
REMARK H PARENT
REMARK Flexibility Score: inf
ROOT
ATOM      1  C   UNL     1     -30.813 -21.004 -31.601  1.00  0.00     0.053 C 
ENDROOT
BRANCH   1   2
ATOM      2  C   UNL     1     -29.877 -20.576 -32.689  1.00  0.00     0.041 C 
ATOM      3  O   UNL     1     -30.078 -20.940 -33.877  1.00  0.00    -0.550 OA
ATOM      4  O   UNL     1     -28.801 -19.747 -32.395  1.00  0.00    -0.550 OA
ENDBRANCH   1   2
BRANCH   1   5
ATOM      5  C   UNL     1     -30.688 -20.116 -30.352  1.00  0.00     0.006 C 
BRANCH   5   6
ATOM      6  C   UNL     1     -31.740 -18.996 -30.269  1.00  0.00    -0.003 C 
ATOM      7  C   UNL     1     -32.654 -19.129 -29.051  1.00  0.00     0.004 C 
ENDBRANCH   5   6
ENDBRANCH   1   5
TORSDOF 3
ENDMDL
MODEL 5
REMARK VINA RESULT:    -2.892      2.253      3.637
REMARK INTER + INTRA:          -3.530
REMARK INTER:                  -3.485
REMARK INTRA:                  -0.046
REMARK UNBOUND:                -0.131
REMARK SMILES CCCCC(=O)[O-]
REMARK SMILES IDX 4 1 5 2 6 3 7 4 3 5 2 6 1 7
REMARK H PARENT
REMARK Flexibility Score: inf
ROOT
ATOM      1  C   UNL     1     -30.741 -20.972 -31.635  1.00  0.00     0.053 C 
ENDROOT
BRANCH   1   2
ATOM      2  C   UNL     1     -29.807 -20.484 -32.698  1.00  0.00     0.041 C 
ATOM      3  O   UNL     1     -28.844 -19.729 -32.399  1.00  0.00    -0.550 OA
ATOM      4  O   UNL     1     -29.979 -20.890 -34.016  1.00  0.00    -0.550 OA
ENDBRANCH   1   2
BRANCH   1   5
ATOM      5  C   UNL     1     -30.728 -20.062 -30.395  1.00  0.00     0.006 C 
BRANCH   5   6
ATOM      6  C   UNL     1     -31.911 -19.080 -30.323  1.00  0.00    -0.003 C 
ATOM      7  C   UNL     1     -32.677 -19.169 -29.004  1.00  0.00     0.004 C 
ENDBRANCH   5   6
ENDBRANCH   1   5
TORSDOF 3
ENDMDL
MODEL 6
REMARK VINA RESULT:    -2.814      2.653      3.820
REMARK INTER + INTRA:          -3.438
REMARK INTER:                  -3.422
REMARK INTRA:                  -0.016
REMARK UNBOUND:                -0.131
REMARK SMILES CCCCC(=O)[O-]
REMARK SMILES IDX 4 1 5 2 6 3 7 4 3 5 2 6 1 7
REMARK H PARENT
REMARK Flexibility Score: inf
ROOT
ATOM      1  C   UNL     1     -30.768 -21.135 -33.814  1.00  0.00     0.053 C 
ENDROOT
BRANCH   1   2
ATOM      2  C   UNL     1     -31.126 -20.672 -32.436  1.00  0.00     0.041 C 
ATOM      3  O   UNL     1     -31.726 -19.577 -32.270  1.00  0.00    -0.550 OA
ATOM      4  O   UNL     1     -30.825 -21.466 -31.335  1.00  0.00    -0.550 OA
ENDBRANCH   1   2
BRANCH   1   5
ATOM      5  C   UNL     1     -31.941 -21.849 -34.504  1.00  0.00     0.006 C 
BRANCH   5   6
ATOM      6  C   UNL     1     -31.658 -22.264 -35.959  1.00  0.00    -0.003 C 
ATOM      7  C   UNL     1     -32.567 -23.393 -36.442  1.00  0.00     0.004 C 
ENDBRANCH   5   6
ENDBRANCH   1   5
TORSDOF 3
ENDMDL
MODEL 7
REMARK VINA RESULT:    -2.677      2.330      2.777
REMARK INTER + INTRA:          -3.278
REMARK INTER:                  -3.186
REMARK INTRA:                  -0.092
REMARK UNBOUND:                -0.131
REMARK SMILES CCCCC(=O)[O-]
REMARK SMILES IDX 4 1 5 2 6 3 7 4 3 5 2 6 1 7
REMARK H PARENT
REMARK Flexibility Score: inf
ROOT
ATOM      1  C   UNL     1     -30.743 -21.059 -31.682  1.00  0.00     0.053 C 
ENDROOT
BRANCH   1   2
ATOM      2  C   UNL     1     -30.691 -21.053 -33.179  1.00  0.00     0.041 C 
ATOM      3  O   UNL     1     -31.623 -21.572 -33.848  1.00  0.00    -0.550 OA
ATOM      4  O   UNL     1     -29.629 -20.443 -33.836  1.00  0.00    -0.550 OA
ENDBRANCH   1   2
BRANCH   1   5
ATOM      5  C   UNL     1     -31.165 -19.694 -31.115  1.00  0.00     0.006 C 
BRANCH   5   6
ATOM      6  C   UNL     1     -30.138 -19.067 -30.155  1.00  0.00    -0.003 C 
ATOM      7  C   UNL     1     -28.764 -18.877 -30.796  1.00  0.00     0.004 C 
ENDBRANCH   5   6
ENDBRANCH   1   5
TORSDOF 3
ENDMDL
MODEL 8
REMARK VINA RESULT:    -2.675      2.178      3.320
REMARK INTER + INTRA:          -3.275
REMARK INTER:                  -3.254
REMARK INTRA:                  -0.021
REMARK UNBOUND:                -0.131
REMARK SMILES CCCCC(=O)[O-]
REMARK SMILES IDX 4 1 5 2 6 3 7 4 3 5 2 6 1 7
REMARK H PARENT
REMARK Flexibility Score: inf
ROOT
ATOM      1  C   UNL     1     -31.053 -20.809 -32.374  1.00  0.00     0.053 C 
ENDROOT
BRANCH   1   2
ATOM      2  C   UNL     1     -29.948 -20.016 -31.748  1.00  0.00     0.041 C 
ATOM      3  O   UNL     1     -28.935 -19.698 -32.424  1.00  0.00    -0.550 OA
ATOM      4  O   UNL     1     -30.053 -19.599 -30.426  1.00  0.00    -0.550 OA
ENDBRANCH   1   2
BRANCH   1   5
ATOM      5  C   UNL     1     -30.778 -21.111 -33.856  1.00  0.00     0.006 C 
BRANCH   5   6
ATOM      6  C   UNL     1     -31.928 -21.837 -34.575  1.00  0.00    -0.003 C 
ATOM      7  C   UNL     1     -31.586 -22.209 -36.017  1.00  0.00     0.004 C 
ENDBRANCH   5   6
ENDBRANCH   1   5
TORSDOF 3
ENDMDL
MODEL 9
REMARK VINA RESULT:    -2.649      4.271      4.759
REMARK INTER + INTRA:          -3.245
REMARK INTER:                  -3.227
REMARK INTRA:                  -0.018
REMARK UNBOUND:                -0.131
REMARK SMILES CCCCC(=O)[O-]
REMARK SMILES IDX 4 1 5 2 6 3 7 4 3 5 2 6 1 7
REMARK H PARENT
REMARK Flexibility Score: inf
ROOT
ATOM      1  C   UNL     1     -32.319 -22.191 -34.790  1.00  0.00     0.053 C 
ENDROOT
BRANCH   1   2
ATOM      2  C   UNL     1     -32.314 -22.713 -36.193  1.00  0.00     0.041 C 
ATOM      3  O   UNL     1     -32.984 -23.737 -36.491  1.00  0.00    -0.550 OA
ATOM      4  O   UNL     1     -31.595 -22.050 -37.180  1.00  0.00    -0.550 OA
ENDBRANCH   1   2
BRANCH   1   5
ATOM      5  C   UNL     1     -31.031 -21.420 -34.458  1.00  0.00     0.006 C 
BRANCH   5   6
ATOM      6  C   UNL     1     -30.923 -20.977 -32.988  1.00  0.00    -0.003 C 
ATOM      7  C   UNL     1     -29.555 -20.391 -32.643  1.00  0.00     0.004 C 
ENDBRANCH   5   6
ENDBRANCH   1   5
TORSDOF 3
ENDMDL
