MODEL 1
REMARK VINA RESULT:    -3.339      0.000      0.000
REMARK INTER + INTRA:          -4.329
REMARK INTER:                  -4.120
REMARK INTRA:                  -0.210
REMARK UNBOUND:                -0.210
REMARK SMILES CCCCCC(=O)[O-]
REMARK SMILES IDX 4 1 5 2 6 3 7 4 8 5 3 6 2 7 1 8
REMARK H PARENT
REMARK Flexibility Score: inf
ROOT
ATOM      1  C   UNL     1      56.768  -1.890  19.391  1.00  0.00     0.006 C 
ENDROOT
BRANCH   1   2
ATOM      2  C   UNL     1      57.799  -1.742  18.268  1.00  0.00     0.053 C 
BRANCH   2   3
ATOM      3  C   UNL     1      58.246  -3.086  17.788  1.00  0.00     0.041 C 
ATOM      4  O   UNL     1      57.926  -4.125  18.423  1.00  0.00    -0.550 OA
ATOM      5  O   UNL     1      58.978  -3.197  16.612  1.00  0.00    -0.550 OA
ENDBRANCH   2   3
ENDBRANCH   1   2
BRANCH   1   6
ATOM      6  C   UNL     1      55.386  -1.409  18.937  1.00  0.00     0.000 C 
BRANCH   6   7
ATOM      7  C   UNL     1      54.302  -2.433  19.294  1.00  0.00    -0.003 C 
ATOM      8  C   UNL     1      54.380  -3.658  18.387  1.00  0.00     0.004 C 
ENDBRANCH   6   7
ENDBRANCH   1   6
TORSDOF 4
ENDMDL
MODEL 2
REMARK VINA RESULT:    -3.252     17.528     18.477
REMARK INTER + INTRA:          -4.222
REMARK INTER:                  -4.090
REMARK INTRA:                  -0.131
REMARK UNBOUND:                -0.210
REMARK SMILES CCCCCC(=O)[O-]
REMARK SMILES IDX 4 1 5 2 6 3 7 4 8 5 3 6 2 7 1 8
REMARK H PARENT
REMARK Flexibility Score: inf
ROOT
ATOM      1  C   UNL     1      49.044  13.605  18.630  1.00  0.00     0.006 C 
ENDROOT
BRANCH   1   2
ATOM      2  C   UNL     1      49.960  12.859  17.656  1.00  0.00     0.053 C 
BRANCH   2   3
ATOM      3  C   UNL     1      49.749  13.349  16.259  1.00  0.00     0.041 C 
ATOM      4  O   UNL     1      50.709  13.381  15.446  1.00  0.00    -0.550 OA
ATOM      5  O   UNL     1      48.479  13.726  15.839  1.00  0.00    -0.550 OA
ENDBRANCH   2   3
ENDBRANCH   1   2
BRANCH   1   6
ATOM      6  C   UNL     1      49.623  14.978  18.989  1.00  0.00     0.000 C 
BRANCH   6   7
ATOM      7  C   UNL     1      48.811  15.643  20.106  1.00  0.00    -0.003 C 
ATOM      8  C   UNL     1      47.706  14.719  20.611  1.00  0.00     0.004 C 
ENDBRANCH   6   7
ENDBRANCH   1   6
TORSDOF 4
ENDMDL
MODEL 3
REMARK VINA RESULT:    -3.225     18.209     19.124
REMARK INTER + INTRA:          -4.188
REMARK INTER:                  -3.954
REMARK INTRA:                  -0.235
REMARK UNBOUND:                -0.210
REMARK SMILES CCCCCC(=O)[O-]
REMARK SMILES IDX 4 1 5 2 6 3 7 4 8 5 3 6 2 7 1 8
REMARK H PARENT
REMARK Flexibility Score: inf
ROOT
ATOM      1  C   UNL     1      49.997  13.481  17.290  1.00  0.00     0.006 C 
ENDROOT
BRANCH   1   2
ATOM      2  C   UNL     1      49.091  13.706  18.504  1.00  0.00     0.053 C 
BRANCH   2   3
ATOM      3  C   UNL     1      49.406  15.015  19.157  1.00  0.00     0.041 C 
ATOM      4  O   UNL     1      50.380  15.705  18.756  1.00  0.00    -0.550 OA
ATOM      5  O   UNL     1      48.597  15.495  20.179  1.00  0.00    -0.550 OA
ENDBRANCH   2   3
ENDBRANCH   1   2
BRANCH   1   6
ATOM      6  C   UNL     1      49.172  13.361  16.003  1.00  0.00     0.000 C 
BRANCH   6   7
ATOM      7  C   UNL     1      48.975  14.731  15.345  1.00  0.00    -0.003 C 
ATOM      8  C   UNL     1      50.299  15.479  15.220  1.00  0.00     0.004 C 
ENDBRANCH   6   7
ENDBRANCH   1   6
TORSDOF 4
ENDMDL
MODEL 4
REMARK VINA RESULT:    -3.222     17.733     18.587
REMARK INTER + INTRA:          -4.185
REMARK INTER:                  -3.925
REMARK INTRA:                  -0.260
REMARK UNBOUND:                -0.210
REMARK SMILES CCCCCC(=O)[O-]
REMARK SMILES IDX 4 1 5 2 6 3 7 4 8 5 3 6 2 7 1 8
REMARK H PARENT
REMARK Flexibility Score: inf
ROOT
ATOM      1  C   UNL     1      49.572  12.825  16.183  1.00  0.00     0.006 C 
ENDROOT
BRANCH   1   2
ATOM      2  C   UNL     1      50.614  13.504  15.289  1.00  0.00     0.053 C 
BRANCH   2   3
ATOM      3  C   UNL     1      50.218  14.918  15.005  1.00  0.00     0.041 C 
ATOM      4  O   UNL     1      51.039  15.712  14.475  1.00  0.00    -0.550 OA
ATOM      5  O   UNL     1      48.927  15.348  15.282  1.00  0.00    -0.550 OA
ENDBRANCH   2   3
ENDBRANCH   1   2
BRANCH   1   6
ATOM      6  C   UNL     1      50.027  12.811  17.647  1.00  0.00     0.000 C 
BRANCH   6   7
ATOM      7  C   UNL     1      49.187  13.774  18.493  1.00  0.00    -0.003 C 
ATOM      8  C   UNL     1      49.942  15.071  18.767  1.00  0.00     0.004 C 
ENDBRANCH   6   7
ENDBRANCH   1   6
TORSDOF 4
ENDMDL
MODEL 5
REMARK VINA RESULT:    -3.189      2.484      3.969
REMARK INTER + INTRA:          -4.145
REMARK INTER:                  -4.059
REMARK INTRA:                  -0.086
REMARK UNBOUND:                -0.210
REMARK SMILES CCCCCC(=O)[O-]
REMARK SMILES IDX 4 1 5 2 6 3 7 4 8 5 3 6 2 7 1 8
REMARK H PARENT
REMARK Flexibility Score: inf
ROOT
ATOM      1  C   UNL     1      57.261  -1.737  19.463  1.00  0.00     0.006 C 
ENDROOT
BRANCH   1   2
ATOM      2  C   UNL     1      56.536  -2.765  18.589  1.00  0.00     0.053 C 
BRANCH   2   3
ATOM      3  C   UNL     1      55.077  -2.795  18.917  1.00  0.00     0.041 C 
ATOM      4  O   UNL     1      54.602  -1.996  19.766  1.00  0.00    -0.550 OA
ATOM      5  O   UNL     1      54.232  -3.673  18.251  1.00  0.00    -0.550 OA
ENDBRANCH   2   3
ENDBRANCH   1   2
BRANCH   1   6
ATOM      6  C   UNL     1      57.442  -0.410  18.716  1.00  0.00     0.000 C 
BRANCH   6   7
ATOM      7  C   UNL     1      58.212  -0.616  17.406  1.00  0.00    -0.003 C 
ATOM      8  C   UNL     1      58.930   0.662  16.982  1.00  0.00     0.004 C 
ENDBRANCH   6   7
ENDBRANCH   1   6
TORSDOF 4
ENDMDL
MODEL 6
REMARK VINA RESULT:    -3.187     12.078     12.794
REMARK INTER + INTRA:          -4.142
REMARK INTER:                  -4.028
REMARK INTRA:                  -0.114
REMARK UNBOUND:                -0.210
REMARK SMILES CCCCCC(=O)[O-]
REMARK SMILES IDX 4 1 5 2 6 3 7 4 8 5 3 6 2 7 1 8
REMARK H PARENT
REMARK Flexibility Score: inf
ROOT
ATOM      1  C   UNL     1      50.903   8.092  18.689  1.00  0.00     0.006 C 
ENDROOT
BRANCH   1   2
ATOM      2  C   UNL     1      49.690   8.467  17.832  1.00  0.00     0.053 C 
BRANCH   2   3
ATOM      3  C   UNL     1      49.933   8.115  16.399  1.00  0.00     0.041 C 
ATOM      4  O   UNL     1      49.533   8.880  15.482  1.00  0.00    -0.550 OA
ATOM      5  O   UNL     1      50.643   6.966  16.075  1.00  0.00    -0.550 OA
ENDBRANCH   2   3
ENDBRANCH   1   2
BRANCH   1   6
ATOM      6  C   UNL     1      50.568   8.173  20.183  1.00  0.00     0.000 C 
BRANCH   6   7
ATOM      7  C   UNL     1      49.120   7.745  20.446  1.00  0.00    -0.003 C 
ATOM      8  C   UNL     1      49.066   6.451  21.254  1.00  0.00     0.004 C 
ENDBRANCH   6   7
ENDBRANCH   1   6
TORSDOF 4
ENDMDL
MODEL 7
REMARK VINA RESULT:    -3.184      2.314      3.883
REMARK INTER + INTRA:          -4.138
REMARK INTER:                  -4.009
REMARK INTRA:                  -0.129
REMARK UNBOUND:                -0.210
REMARK SMILES CCCCCC(=O)[O-]
REMARK SMILES IDX 4 1 5 2 6 3 7 4 8 5 3 6 2 7 1 8
REMARK H PARENT
REMARK Flexibility Score: inf
ROOT
ATOM      1  C   UNL     1      56.851  -0.723  18.721  1.00  0.00     0.006 C 
ENDROOT
BRANCH   1   2
ATOM      2  C   UNL     1      56.336  -1.981  19.426  1.00  0.00     0.053 C 
BRANCH   2   3
ATOM      3  C   UNL     1      54.880  -2.179  19.146  1.00  0.00     0.041 C 
ATOM      4  O   UNL     1      54.037  -1.334  19.547  1.00  0.00    -0.550 OA
ATOM      5  O   UNL     1      54.457  -3.273  18.401  1.00  0.00    -0.550 OA
ENDBRANCH   2   3
ENDBRANCH   1   2
BRANCH   1   6
ATOM      6  C   UNL     1      57.987  -1.062  17.750  1.00  0.00     0.000 C 
BRANCH   6   7
ATOM      7  C   UNL     1      58.219  -2.576  17.679  1.00  0.00    -0.003 C 
ATOM      8  C   UNL     1      59.215  -2.931  16.579  1.00  0.00     0.004 C 
ENDBRANCH   6   7
ENDBRANCH   1   6
TORSDOF 4
ENDMDL
MODEL 8
REMARK VINA RESULT:    -3.112     15.551     16.479
REMARK INTER + INTRA:          -4.050
REMARK INTER:                  -4.003
REMARK INTRA:                  -0.046
REMARK UNBOUND:                -0.210
REMARK SMILES CCCCCC(=O)[O-]
REMARK SMILES IDX 4 1 5 2 6 3 7 4 8 5 3 6 2 7 1 8
REMARK H PARENT
REMARK Flexibility Score: inf
ROOT
ATOM      1  C   UNL     1      49.925  11.556  18.231  1.00  0.00     0.006 C 
ENDROOT
BRANCH   1   2
ATOM      2  C   UNL     1      49.003  12.686  18.698  1.00  0.00     0.053 C 
BRANCH   2   3
ATOM      3  C   UNL     1      49.536  14.012  18.256  1.00  0.00     0.041 C 
ATOM      4  O   UNL     1      49.732  14.928  19.096  1.00  0.00    -0.550 OA
ATOM      5  O   UNL     1      49.860  14.222  16.921  1.00  0.00    -0.550 OA
ENDBRANCH   2   3
ENDBRANCH   1   2
BRANCH   1   6
ATOM      6  C   UNL     1      49.551  10.228  18.899  1.00  0.00     0.000 C 
BRANCH   6   7
ATOM      7  C   UNL     1      50.273   9.052  18.231  1.00  0.00    -0.003 C 
ATOM      8  C   UNL     1      51.083   8.252  19.248  1.00  0.00     0.004 C 
ENDBRANCH   6   7
ENDBRANCH   1   6
TORSDOF 4
ENDMDL
MODEL 9
REMARK VINA RESULT:    -3.078      6.425      7.430
REMARK INTER + INTRA:          -4.008
REMARK INTER:                  -3.792
REMARK INTRA:                  -0.216
REMARK UNBOUND:                -0.210
REMARK SMILES CCCCCC(=O)[O-]
REMARK SMILES IDX 4 1 5 2 6 3 7 4 8 5 3 6 2 7 1 8
REMARK H PARENT
REMARK Flexibility Score: inf
ROOT
ATOM      1  C   UNL     1      51.058   3.372  20.255  1.00  0.00     0.006 C 
ENDROOT
BRANCH   1   2
ATOM      2  C   UNL     1      51.925   3.004  19.047  1.00  0.00     0.053 C 
BRANCH   2   3
ATOM      3  C   UNL     1      53.183   2.328  19.493  1.00  0.00     0.041 C 
ATOM      4  O   UNL     1      53.325   1.087  19.339  1.00  0.00    -0.550 OA
ATOM      5  O   UNL     1      54.220   3.076  20.038  1.00  0.00    -0.550 OA
ENDBRANCH   2   3
ENDBRANCH   1   2
BRANCH   1   6
ATOM      6  C   UNL     1      50.048   2.262  20.566  1.00  0.00     0.000 C 
BRANCH   6   7
ATOM      7  C   UNL     1      50.514   1.409  21.751  1.00  0.00    -0.003 C 
ATOM      8  C   UNL     1      51.370   2.226  22.715  1.00  0.00     0.004 C 
ENDBRANCH   6   7
ENDBRANCH   1   6
TORSDOF 4
ENDMDL
