MODEL 1
REMARK VINA RESULT:    -3.769      0.000      0.000
REMARK INTER + INTRA:          -5.236
REMARK INTER:                  -4.871
REMARK INTRA:                  -0.364
REMARK UNBOUND:                -0.364
REMARK SMILES C=CC(=O)CCCCC
REMARK SMILES IDX 6 1 7 2 8 3 9 4 5 5 3 6 4 7 2 8 1 9
REMARK H PARENT
REMARK Flexibility Score: inf
ROOT
ATOM      1  C   UNL     1      23.650  -3.737   8.525  1.00  0.00     0.008 C 
ENDROOT
BRANCH   1   2
ATOM      2  C   UNL     1      24.491  -3.893   7.250  1.00  0.00     0.000 C 
BRANCH   2   3
ATOM      3  C   UNL     1      24.634  -2.575   6.472  1.00  0.00    -0.003 C 
ATOM      4  C   UNL     1      26.071  -2.058   6.444  1.00  0.00     0.004 C 
ENDBRANCH   2   3
ENDBRANCH   1   2
BRANCH   1   5
ATOM      5  C   UNL     1      22.962  -2.368   8.564  1.00  0.00     0.080 C 
BRANCH   5   6
ATOM      6  C   UNL     1      21.529  -2.486   8.137  1.00  0.00     0.155 C 
ATOM      7  O   UNL     1      20.815  -3.408   8.617  1.00  0.00    -0.295 OA
BRANCH   6   8
ATOM      8  C   UNL     1      20.954  -1.503   7.199  1.00  0.00     0.039 C 
ATOM      9  C   UNL     1      20.965  -1.682   5.879  1.00  0.00     0.012 C 
ENDBRANCH   6   8
ENDBRANCH   5   6
ENDBRANCH   1   5
TORSDOF 5
ENDMDL
MODEL 2
REMARK VINA RESULT:    -3.716      1.570      2.772
REMARK INTER + INTRA:          -5.167
REMARK INTER:                  -4.904
REMARK INTRA:                  -0.262
REMARK UNBOUND:                -0.364
REMARK SMILES C=CC(=O)CCCCC
REMARK SMILES IDX 6 1 7 2 8 3 9 4 5 5 3 6 4 7 2 8 1 9
REMARK H PARENT
REMARK Flexibility Score: inf
ROOT
ATOM      1  C   UNL     1      24.115  -3.870   7.924  1.00  0.00     0.008 C 
ENDROOT
BRANCH   1   2
ATOM      2  C   UNL     1      24.533  -5.104   8.737  1.00  0.00     0.000 C 
BRANCH   2   3
ATOM      3  C   UNL     1      23.468  -6.211   8.721  1.00  0.00    -0.003 C 
ATOM      4  C   UNL     1      22.823  -6.432  10.089  1.00  0.00     0.004 C 
ENDBRANCH   2   3
ENDBRANCH   1   2
BRANCH   1   5
ATOM      5  C   UNL     1      23.144  -2.991   8.721  1.00  0.00     0.080 C 
BRANCH   5   6
ATOM      6  C   UNL     1      21.875  -2.776   7.951  1.00  0.00     0.155 C 
ATOM      7  O   UNL     1      20.786  -3.202   8.424  1.00  0.00    -0.295 OA
BRANCH   6   8
ATOM      8  C   UNL     1      21.900  -2.033   6.677  1.00  0.00     0.039 C 
ATOM      9  C   UNL     1      20.836  -1.941   5.881  1.00  0.00     0.012 C 
ENDBRANCH   6   8
ENDBRANCH   5   6
ENDBRANCH   1   5
TORSDOF 5
ENDMDL
MODEL 3
REMARK VINA RESULT:    -3.663      1.311      2.716
REMARK INTER + INTRA:          -5.098
REMARK INTER:                  -4.599
REMARK INTRA:                  -0.499
REMARK UNBOUND:                -0.364
REMARK SMILES C=CC(=O)CCCCC
REMARK SMILES IDX 6 1 7 2 8 3 9 4 5 5 3 6 4 7 2 8 1 9
REMARK H PARENT
REMARK Flexibility Score: inf
ROOT
ATOM      1  C   UNL     1      22.625  -1.502   6.763  1.00  0.00     0.008 C 
ENDROOT
BRANCH   1   2
ATOM      2  C   UNL     1      24.058  -1.064   7.099  1.00  0.00     0.000 C 
BRANCH   2   3
ATOM      3  C   UNL     1      25.045  -1.345   5.955  1.00  0.00    -0.003 C 
ATOM      4  C   UNL     1      26.260  -2.153   6.408  1.00  0.00     0.004 C 
ENDBRANCH   2   3
ENDBRANCH   1   2
BRANCH   1   5
ATOM      5  C   UNL     1      22.511  -3.031   6.736  1.00  0.00     0.080 C 
BRANCH   5   6
ATOM      6  C   UNL     1      22.085  -3.550   8.077  1.00  0.00     0.155 C 
ATOM      7  O   UNL     1      20.914  -3.323   8.485  1.00  0.00    -0.295 OA
BRANCH   6   8
ATOM      8  C   UNL     1      23.018  -4.358   8.887  1.00  0.00     0.039 C 
ATOM      9  C   UNL     1      24.295  -4.529   8.549  1.00  0.00     0.012 C 
ENDBRANCH   6   8
ENDBRANCH   5   6
ENDBRANCH   1   5
TORSDOF 5
ENDMDL
MODEL 4
REMARK VINA RESULT:    -3.650      1.576      2.326
REMARK INTER + INTRA:          -5.081
REMARK INTER:                  -4.854
REMARK INTRA:                  -0.227
REMARK UNBOUND:                -0.364
REMARK SMILES C=CC(=O)CCCCC
REMARK SMILES IDX 6 1 7 2 8 3 9 4 5 5 3 6 4 7 2 8 1 9
REMARK H PARENT
REMARK Flexibility Score: inf
ROOT
ATOM      1  C   UNL     1      23.933  -3.990   8.399  1.00  0.00     0.008 C 
ENDROOT
BRANCH   1   2
ATOM      2  C   UNL     1      23.472  -5.301   9.052  1.00  0.00     0.000 C 
BRANCH   2   3
ATOM      3  C   UNL     1      24.169  -6.534   8.458  1.00  0.00    -0.003 C 
ATOM      4  C   UNL     1      25.516  -6.200   7.817  1.00  0.00     0.004 C 
ENDBRANCH   2   3
ENDBRANCH   1   2
BRANCH   1   5
ATOM      5  C   UNL     1      22.974  -2.843   8.736  1.00  0.00     0.080 C 
BRANCH   5   6
ATOM      6  C   UNL     1      21.710  -2.961   7.937  1.00  0.00     0.155 C 
ATOM      7  O   UNL     1      20.637  -3.276   8.521  1.00  0.00    -0.295 OA
BRANCH   6   8
ATOM      8  C   UNL     1      21.719  -2.668   6.491  1.00  0.00     0.039 C 
ATOM      9  C   UNL     1      20.973  -1.706   5.951  1.00  0.00     0.012 C 
ENDBRANCH   6   8
ENDBRANCH   5   6
ENDBRANCH   1   5
TORSDOF 5
ENDMDL
MODEL 5
REMARK VINA RESULT:    -3.628      2.145      3.259
REMARK INTER + INTRA:          -5.052
REMARK INTER:                  -4.834
REMARK INTRA:                  -0.218
REMARK UNBOUND:                -0.364
REMARK SMILES C=CC(=O)CCCCC
REMARK SMILES IDX 6 1 7 2 8 3 9 4 5 5 3 6 4 7 2 8 1 9
REMARK H PARENT
REMARK Flexibility Score: inf
ROOT
ATOM      1  C   UNL     1      22.759  -3.950   8.316  1.00  0.00     0.008 C 
ENDROOT
BRANCH   1   2
ATOM      2  C   UNL     1      23.936  -4.767   8.867  1.00  0.00     0.000 C 
BRANCH   2   3
ATOM      3  C   UNL     1      23.560  -6.230   9.150  1.00  0.00    -0.003 C 
ATOM      4  C   UNL     1      22.663  -6.382  10.378  1.00  0.00     0.004 C 
ENDBRANCH   2   3
ENDBRANCH   1   2
BRANCH   1   5
ATOM      5  C   UNL     1      22.881  -2.475   8.714  1.00  0.00     0.080 C 
BRANCH   5   6
ATOM      6  C   UNL     1      22.962  -1.605   7.495  1.00  0.00     0.155 C 
ATOM      7  O   UNL     1      23.708  -0.587   7.510  1.00  0.00    -0.295 OA
BRANCH   6   8
ATOM      8  C   UNL     1      22.210  -1.966   6.278  1.00  0.00     0.039 C 
ATOM      9  C   UNL     1      20.956  -1.570   6.068  1.00  0.00     0.012 C 
ENDBRANCH   6   8
ENDBRANCH   5   6
ENDBRANCH   1   5
TORSDOF 5
ENDMDL
MODEL 6
REMARK VINA RESULT:    -3.625      1.624      3.978
REMARK INTER + INTRA:          -5.049
REMARK INTER:                  -4.658
REMARK INTRA:                  -0.391
REMARK UNBOUND:                -0.364
REMARK SMILES C=CC(=O)CCCCC
REMARK SMILES IDX 6 1 7 2 8 3 9 4 5 5 3 6 4 7 2 8 1 9
REMARK H PARENT
REMARK Flexibility Score: inf
ROOT
ATOM      1  C   UNL     1      21.737  -2.846   6.306  1.00  0.00     0.008 C 
ENDROOT
BRANCH   1   2
ATOM      2  C   UNL     1      20.976  -1.515   6.393  1.00  0.00     0.000 C 
BRANCH   2   3
ATOM      3  C   UNL     1      21.274  -0.748   7.691  1.00  0.00    -0.003 C 
ATOM      4  C   UNL     1      20.186   0.265   8.042  1.00  0.00     0.004 C 
ENDBRANCH   2   3
ENDBRANCH   1   2
BRANCH   1   5
ATOM      5  C   UNL     1      22.280  -3.258   7.679  1.00  0.00     0.080 C 
BRANCH   5   6
ATOM      6  C   UNL     1      23.762  -3.480   7.614  1.00  0.00     0.155 C 
ATOM      7  O   UNL     1      24.326  -4.154   8.519  1.00  0.00    -0.295 OA
BRANCH   6   8
ATOM      8  C   UNL     1      24.539  -2.952   6.477  1.00  0.00     0.039 C 
ATOM      9  C   UNL     1      25.260  -1.835   6.559  1.00  0.00     0.012 C 
ENDBRANCH   6   8
ENDBRANCH   5   6
ENDBRANCH   1   5
TORSDOF 5
ENDMDL
MODEL 7
REMARK VINA RESULT:    -3.588      1.513      2.587
REMARK INTER + INTRA:          -5.002
REMARK INTER:                  -4.644
REMARK INTRA:                  -0.358
REMARK UNBOUND:                -0.364
REMARK SMILES C=CC(=O)CCCCC
REMARK SMILES IDX 6 1 7 2 8 3 9 4 5 5 3 6 4 7 2 8 1 9
REMARK H PARENT
REMARK Flexibility Score: inf
ROOT
ATOM      1  C   UNL     1      23.065  -2.614   6.526  1.00  0.00     0.008 C 
ENDROOT
BRANCH   1   2
ATOM      2  C   UNL     1      23.713  -3.911   7.034  1.00  0.00     0.000 C 
BRANCH   2   3
ATOM      3  C   UNL     1      23.743  -3.995   8.568  1.00  0.00    -0.003 C 
ATOM      4  C   UNL     1      22.780  -5.044   9.121  1.00  0.00     0.004 C 
ENDBRANCH   2   3
ENDBRANCH   1   2
BRANCH   1   5
ATOM      5  C   UNL     1      21.557  -2.798   6.322  1.00  0.00     0.080 C 
BRANCH   5   6
ATOM      6  C   UNL     1      20.790  -2.083   7.395  1.00  0.00     0.155 C 
ATOM      7  O   UNL     1      20.002  -2.737   8.132  1.00  0.00    -0.295 OA
BRANCH   6   8
ATOM      8  C   UNL     1      20.991  -0.638   7.609  1.00  0.00     0.039 C 
ATOM      9  C   UNL     1      20.036   0.155   8.092  1.00  0.00     0.012 C 
ENDBRANCH   6   8
ENDBRANCH   5   6
ENDBRANCH   1   5
TORSDOF 5
ENDMDL
MODEL 8
REMARK VINA RESULT:    -3.582      1.409      2.251
REMARK INTER + INTRA:          -4.993
REMARK INTER:                  -4.495
REMARK INTRA:                  -0.498
REMARK UNBOUND:                -0.364
REMARK SMILES C=CC(=O)CCCCC
REMARK SMILES IDX 6 1 7 2 8 3 9 4 5 5 3 6 4 7 2 8 1 9
REMARK H PARENT
REMARK Flexibility Score: inf
ROOT
ATOM      1  C   UNL     1      24.721  -2.947   6.861  1.00  0.00     0.008 C 
ENDROOT
BRANCH   1   2
ATOM      2  C   UNL     1      23.830  -4.084   6.341  1.00  0.00     0.000 C 
BRANCH   2   3
ATOM      3  C   UNL     1      23.745  -5.263   7.323  1.00  0.00    -0.003 C 
ATOM      4  C   UNL     1      24.490  -4.999   8.630  1.00  0.00     0.004 C 
ENDBRANCH   2   3
ENDBRANCH   1   2
BRANCH   1   5
ATOM      5  C   UNL     1      23.988  -1.602   6.793  1.00  0.00     0.080 C 
BRANCH   5   6
ATOM      6  C   UNL     1      22.815  -1.593   7.727  1.00  0.00     0.155 C 
ATOM      7  O   UNL     1      22.997  -1.846   8.950  1.00  0.00    -0.295 OA
BRANCH   6   8
ATOM      8  C   UNL     1      21.473  -1.246   7.224  1.00  0.00     0.039 C 
ATOM      9  C   UNL     1      21.024  -1.656   6.039  1.00  0.00     0.012 C 
ENDBRANCH   6   8
ENDBRANCH   5   6
ENDBRANCH   1   5
TORSDOF 5
ENDMDL
MODEL 9
REMARK VINA RESULT:    -3.539     11.422     12.545
REMARK INTER + INTRA:          -4.938
REMARK INTER:                  -4.598
REMARK INTRA:                  -0.339
REMARK UNBOUND:                -0.364
REMARK SMILES C=CC(=O)CCCCC
REMARK SMILES IDX 6 1 7 2 8 3 9 4 5 5 3 6 4 7 2 8 1 9
REMARK H PARENT
REMARK Flexibility Score: inf
ROOT
ATOM      1  C   UNL     1      21.466   9.789  10.627  1.00  0.00     0.008 C 
ENDROOT
BRANCH   1   2
ATOM      2  C   UNL     1      21.470   8.992   9.315  1.00  0.00     0.000 C 
BRANCH   2   3
ATOM      3  C   UNL     1      20.827   7.604   9.465  1.00  0.00    -0.003 C 
ATOM      4  C   UNL     1      21.476   6.552   8.567  1.00  0.00     0.004 C 
ENDBRANCH   2   3
ENDBRANCH   1   2
BRANCH   1   5
ATOM      5  C   UNL     1      20.278   9.388  11.509  1.00  0.00     0.080 C 
BRANCH   5   6
ATOM      6  C   UNL     1      20.689   9.325  12.950  1.00  0.00     0.155 C 
ATOM      7  O   UNL     1      19.817   9.478  13.849  1.00  0.00    -0.295 OA
BRANCH   6   8
ATOM      8  C   UNL     1      22.092   9.042  13.306  1.00  0.00     0.039 C 
ATOM      9  C   UNL     1      22.483   7.868  13.801  1.00  0.00     0.012 C 
ENDBRANCH   6   8
ENDBRANCH   5   6
ENDBRANCH   1   5
TORSDOF 5
ENDMDL
