MODEL 1
REMARK VINA RESULT:    -4.117      0.000      0.000
REMARK INTER + INTRA:          -9.490
REMARK INTER:                  -7.487
REMARK INTRA:                  -2.003
REMARK UNBOUND:                -2.003
REMARK SMILES CCCCCCCCCCCCCCCC(=O)[O-]
REMARK SMILES IDX 9 1 10 2 11 3 12 4 13 5 14 6 15 7 16 8 17 9 18 10 8 11 7 12
REMARK SMILES IDX 6 13 5 14 4 15 3 16 2 17 1 18
REMARK H PARENT
REMARK Flexibility Score: inf
ROOT
ATOM      1  C   UNL     1      26.861   3.754   1.313  1.00  0.00     0.000 C 
ENDROOT
BRANCH   1   2
ATOM      2  C   UNL     1      26.229   3.298   2.636  1.00  0.00     0.000 C 
BRANCH   2   3
ATOM      3  C   UNL     1      27.191   3.425   3.829  1.00  0.00     0.000 C 
BRANCH   3   4
ATOM      4  C   UNL     1      26.716   2.639   5.060  1.00  0.00     0.000 C 
BRANCH   4   5
ATOM      5  C   UNL     1      25.624   1.629   4.677  1.00  0.00     0.000 C 
BRANCH   5   6
ATOM      6  C   UNL     1      25.928   0.209   5.182  1.00  0.00     0.006 C 
BRANCH   6   7
ATOM      7  C   UNL     1      25.010  -0.850   4.557  1.00  0.00     0.053 C 
BRANCH   7   8
ATOM      8  C   UNL     1      25.472  -2.225   4.924  1.00  0.00     0.041 C 
ATOM      9  O   UNL     1      26.617  -2.621   4.581  1.00  0.00    -0.550 OA
ATOM     10  O   UNL     1      24.620  -3.087   5.602  1.00  0.00    -0.550 OA
ENDBRANCH   7   8
ENDBRANCH   6   7
ENDBRANCH   5   6
ENDBRANCH   4   5
ENDBRANCH   3   4
ENDBRANCH   2   3
ENDBRANCH   1   2
BRANCH   1  11
ATOM     11  C   UNL     1      25.801   3.847   0.204  1.00  0.00     0.000 C 
BRANCH  11  12
ATOM     12  C   UNL     1      26.056   2.856  -0.943  1.00  0.00    -0.000 C 
BRANCH  12  13
ATOM     13  C   UNL     1      25.392   1.488  -0.703  1.00  0.00    -0.000 C 
BRANCH  13  14
ATOM     14  C   UNL     1      24.016   1.605  -0.030  1.00  0.00    -0.000 C 
BRANCH  14  15
ATOM     15  C   UNL     1      23.840   0.609   1.129  1.00  0.00    -0.000 C 
BRANCH  15  16
ATOM     16  C   UNL     1      23.036   1.200   2.299  1.00  0.00    -0.000 C 
BRANCH  16  17
ATOM     17  C   UNL     1      22.554   2.632   2.022  1.00  0.00    -0.003 C 
ATOM     18  C   UNL     1      22.665   3.501   3.272  1.00  0.00     0.004 C 
ENDBRANCH  16  17
ENDBRANCH  15  16
ENDBRANCH  14  15
ENDBRANCH  13  14
ENDBRANCH  12  13
ENDBRANCH  11  12
ENDBRANCH   1  11
TORSDOF 14
ENDMDL
MODEL 2
REMARK VINA RESULT:    -3.980      1.587      3.818
REMARK INTER + INTRA:          -9.240
REMARK INTER:                  -7.565
REMARK INTRA:                  -1.675
REMARK UNBOUND:                -2.003
REMARK SMILES CCCCCCCCCCCCCCCC(=O)[O-]
REMARK SMILES IDX 9 1 10 2 11 3 12 4 13 5 14 6 15 7 16 8 17 9 18 10 8 11 7 12
REMARK SMILES IDX 6 13 5 14 4 15 3 16 2 17 1 18
REMARK H PARENT
REMARK Flexibility Score: inf
ROOT
ATOM      1  C   UNL     1      23.738   1.063   0.846  1.00  0.00     0.000 C 
ENDROOT
BRANCH   1   2
ATOM      2  C   UNL     1      23.689   0.144   2.076  1.00  0.00     0.000 C 
BRANCH   2   3
ATOM      3  C   UNL     1      22.713  -1.031   1.901  1.00  0.00     0.000 C 
BRANCH   3   4
ATOM      4  C   UNL     1      22.992  -2.183   2.879  1.00  0.00     0.000 C 
BRANCH   4   5
ATOM      5  C   UNL     1      24.461  -2.625   2.800  1.00  0.00     0.000 C 
BRANCH   5   6
ATOM      6  C   UNL     1      24.935  -3.334   4.079  1.00  0.00     0.006 C 
BRANCH   6   7
ATOM      7  C   UNL     1      25.039  -2.383   5.278  1.00  0.00     0.053 C 
BRANCH   7   8
ATOM      8  C   UNL     1      26.249  -1.511   5.151  1.00  0.00     0.041 C 
ATOM      9  O   UNL     1      27.390  -2.027   5.023  1.00  0.00    -0.550 OA
ATOM     10  O   UNL     1      26.122  -0.130   5.223  1.00  0.00    -0.550 OA
ENDBRANCH   7   8
ENDBRANCH   6   7
ENDBRANCH   5   6
ENDBRANCH   4   5
ENDBRANCH   3   4
ENDBRANCH   2   3
ENDBRANCH   1   2
BRANCH   1  11
ATOM     11  C   UNL     1      24.959   0.741  -0.030  1.00  0.00     0.000 C 
BRANCH  11  12
ATOM     12  C   UNL     1      25.172   1.773  -1.149  1.00  0.00    -0.000 C 
BRANCH  12  13
ATOM     13  C   UNL     1      26.302   2.768  -0.830  1.00  0.00    -0.000 C 
BRANCH  13  14
ATOM     14  C   UNL     1      25.785   4.193  -0.576  1.00  0.00    -0.000 C 
BRANCH  14  15
ATOM     15  C   UNL     1      26.192   4.730   0.807  1.00  0.00    -0.000 C 
BRANCH  15  16
ATOM     16  C   UNL     1      26.950   3.687   1.646  1.00  0.00    -0.000 C 
BRANCH  16  17
ATOM     17  C   UNL     1      26.111   3.140   2.810  1.00  0.00    -0.003 C 
ATOM     18  C   UNL     1      24.984   4.103   3.175  1.00  0.00     0.004 C 
ENDBRANCH  16  17
ENDBRANCH  15  16
ENDBRANCH  14  15
ENDBRANCH  13  14
ENDBRANCH  12  13
ENDBRANCH  11  12
ENDBRANCH   1  11
TORSDOF 14
ENDMDL
MODEL 3
REMARK VINA RESULT:    -3.952      5.604      7.618
REMARK INTER + INTRA:          -9.189
REMARK INTER:                  -6.896
REMARK INTRA:                  -2.293
REMARK UNBOUND:                -2.003
REMARK SMILES CCCCCCCCCCCCCCCC(=O)[O-]
REMARK SMILES IDX 9 1 10 2 11 3 12 4 13 5 14 6 15 7 16 8 17 9 18 10 8 11 7 12
REMARK SMILES IDX 6 13 5 14 4 15 3 16 2 17 1 18
REMARK H PARENT
REMARK Flexibility Score: inf
ROOT
ATOM      1  C   UNL     1      17.581   3.351   4.191  1.00  0.00     0.000 C 
ENDROOT
BRANCH   1   2
ATOM      2  C   UNL     1      18.631   2.261   4.453  1.00  0.00     0.000 C 
BRANCH   2   3
ATOM      3  C   UNL     1      20.010   2.613   3.873  1.00  0.00     0.000 C 
BRANCH   3   4
ATOM      4  C   UNL     1      20.311   1.867   2.564  1.00  0.00     0.000 C 
BRANCH   4   5
ATOM      5  C   UNL     1      19.367   0.667   2.389  1.00  0.00     0.000 C 
BRANCH   5   6
ATOM      6  C   UNL     1      19.841  -0.303   1.295  1.00  0.00     0.006 C 
BRANCH   6   7
ATOM      7  C   UNL     1      19.016  -0.189   0.006  1.00  0.00     0.053 C 
BRANCH   7   8
ATOM      8  C   UNL     1      18.524  -1.536  -0.421  1.00  0.00     0.041 C 
ATOM      9  O   UNL     1      19.336  -2.404  -0.838  1.00  0.00    -0.550 OA
ATOM     10  O   UNL     1      17.164  -1.817  -0.406  1.00  0.00    -0.550 OA
ENDBRANCH   7   8
ENDBRANCH   6   7
ENDBRANCH   5   6
ENDBRANCH   4   5
ENDBRANCH   3   4
ENDBRANCH   2   3
ENDBRANCH   1   2
BRANCH   1  11
ATOM     11  C   UNL     1      18.254   4.677   3.802  1.00  0.00     0.000 C 
BRANCH  11  12
ATOM     12  C   UNL     1      17.713   5.249   2.481  1.00  0.00    -0.000 C 
BRANCH  12  13
ATOM     13  C   UNL     1      17.178   4.157   1.537  1.00  0.00    -0.000 C 
BRANCH  13  14
ATOM     14  C   UNL     1      18.154   3.828   0.397  1.00  0.00    -0.000 C 
BRANCH  14  15
ATOM     15  C   UNL     1      19.088   5.004   0.063  1.00  0.00    -0.000 C 
BRANCH  15  16
ATOM     16  C   UNL     1      20.393   4.548  -0.611  1.00  0.00    -0.000 C 
BRANCH  16  17
ATOM     17  C   UNL     1      20.360   3.069  -1.025  1.00  0.00    -0.003 C 
ATOM     18  C   UNL     1      21.738   2.428  -0.885  1.00  0.00     0.004 C 
ENDBRANCH  16  17
ENDBRANCH  15  16
ENDBRANCH  14  15
ENDBRANCH  13  14
ENDBRANCH  12  13
ENDBRANCH  11  12
ENDBRANCH   1  11
TORSDOF 14
ENDMDL
MODEL 4
REMARK VINA RESULT:    -3.912      1.327      4.155
REMARK INTER + INTRA:          -9.117
REMARK INTER:                  -7.303
REMARK INTRA:                  -1.814
REMARK UNBOUND:                -2.003
REMARK SMILES CCCCCCCCCCCCCCCC(=O)[O-]
REMARK SMILES IDX 9 1 10 2 11 3 12 4 13 5 14 6 15 7 16 8 17 9 18 10 8 11 7 12
REMARK SMILES IDX 6 13 5 14 4 15 3 16 2 17 1 18
REMARK H PARENT
REMARK Flexibility Score: inf
ROOT
ATOM      1  C   UNL     1      25.262   1.685   4.229  1.00  0.00     0.000 C 
ENDROOT
BRANCH   1   2
ATOM      2  C   UNL     1      24.227   2.342   3.306  1.00  0.00     0.000 C 
BRANCH   2   3
ATOM      3  C   UNL     1      23.181   1.345   2.781  1.00  0.00     0.000 C 
BRANCH   3   4
ATOM      4  C   UNL     1      23.816   0.079   2.184  1.00  0.00     0.000 C 
BRANCH   4   5
ATOM      5  C   UNL     1      22.861  -1.119   2.295  1.00  0.00     0.000 C 
BRANCH   5   6
ATOM      6  C   UNL     1      23.475  -2.295   3.072  1.00  0.00     0.006 C 
BRANCH   6   7
ATOM      7  C   UNL     1      24.965  -2.089   3.375  1.00  0.00     0.053 C 
BRANCH   7   8
ATOM      8  C   UNL     1      25.191  -1.999   4.852  1.00  0.00     0.041 C 
ATOM      9  O   UNL     1      24.238  -2.197   5.651  1.00  0.00    -0.550 OA
ATOM     10  O   UNL     1      26.441  -1.649   5.344  1.00  0.00    -0.550 OA
ENDBRANCH   7   8
ENDBRANCH   6   7
ENDBRANCH   5   6
ENDBRANCH   4   5
ENDBRANCH   3   4
ENDBRANCH   2   3
ENDBRANCH   1   2
BRANCH   1  11
ATOM     11  C   UNL     1      26.415   2.654   4.536  1.00  0.00     0.000 C 
BRANCH  11  12
ATOM     12  C   UNL     1      26.052   4.118   4.239  1.00  0.00    -0.000 C 
BRANCH  12  13
ATOM     13  C   UNL     1      27.184   4.876   3.523  1.00  0.00    -0.000 C 
BRANCH  13  14
ATOM     14  C   UNL     1      27.675   4.154   2.258  1.00  0.00    -0.000 C 
BRANCH  14  15
ATOM     15  C   UNL     1      26.607   4.112   1.152  1.00  0.00    -0.000 C 
BRANCH  15  16
ATOM     16  C   UNL     1      26.649   2.807   0.339  1.00  0.00    -0.000 C 
BRANCH  16  17
ATOM     17  C   UNL     1      25.741   2.852  -0.899  1.00  0.00    -0.003 C 
ATOM     18  C   UNL     1      24.924   1.569  -1.028  1.00  0.00     0.004 C 
ENDBRANCH  16  17
ENDBRANCH  15  16
ENDBRANCH  14  15
ENDBRANCH  13  14
ENDBRANCH  12  13
ENDBRANCH  11  12
ENDBRANCH   1  11
TORSDOF 14
ENDMDL
MODEL 5
REMARK VINA RESULT:    -3.912      2.716      4.600
REMARK INTER + INTRA:          -9.116
REMARK INTER:                  -7.293
REMARK INTRA:                  -1.823
REMARK UNBOUND:                -2.003
REMARK SMILES CCCCCCCCCCCCCCCC(=O)[O-]
REMARK SMILES IDX 9 1 10 2 11 3 12 4 13 5 14 6 15 7 16 8 17 9 18 10 8 11 7 12
REMARK SMILES IDX 6 13 5 14 4 15 3 16 2 17 1 18
REMARK H PARENT
REMARK Flexibility Score: inf
ROOT
ATOM      1  C   UNL     1      22.891   2.026   1.844  1.00  0.00     0.000 C 
ENDROOT
BRANCH   1   2
ATOM      2  C   UNL     1      23.222   0.782   2.682  1.00  0.00     0.000 C 
BRANCH   2   3
ATOM      3  C   UNL     1      23.738  -0.389   1.830  1.00  0.00     0.000 C 
BRANCH   3   4
ATOM      4  C   UNL     1      23.387  -1.759   2.432  1.00  0.00     0.000 C 
BRANCH   4   5
ATOM      5  C   UNL     1      24.659  -2.540   2.795  1.00  0.00     0.000 C 
BRANCH   5   6
ATOM      6  C   UNL     1      24.647  -3.048   4.246  1.00  0.00     0.006 C 
BRANCH   6   7
ATOM      7  C   UNL     1      24.684  -1.907   5.271  1.00  0.00     0.053 C 
BRANCH   7   8
ATOM      8  C   UNL     1      25.967  -1.145   5.160  1.00  0.00     0.041 C 
ATOM      9  O   UNL     1      25.951   0.109   5.048  1.00  0.00    -0.550 OA
ATOM     10  O   UNL     1      27.179  -1.823   5.130  1.00  0.00    -0.550 OA
ENDBRANCH   7   8
ENDBRANCH   6   7
ENDBRANCH   5   6
ENDBRANCH   4   5
ENDBRANCH   3   4
ENDBRANCH   2   3
ENDBRANCH   1   2
BRANCH   1  11
ATOM     11  C   UNL     1      22.999   3.302   2.692  1.00  0.00     0.000 C 
BRANCH  11  12
ATOM     12  C   UNL     1      23.146   3.004   4.194  1.00  0.00    -0.000 C 
BRANCH  12  13
ATOM     13  C   UNL     1      21.876   3.348   4.993  1.00  0.00    -0.000 C 
BRANCH  13  14
ATOM     14  C   UNL     1      20.762   3.938   4.115  1.00  0.00    -0.000 C 
BRANCH  14  15
ATOM     15  C   UNL     1      19.357   3.540   4.599  1.00  0.00    -0.000 C 
BRANCH  15  16
ATOM     16  C   UNL     1      18.941   2.140   4.118  1.00  0.00    -0.000 C 
BRANCH  16  17
ATOM     17  C   UNL     1      19.247   1.911   2.630  1.00  0.00    -0.003 C 
ATOM     18  C   UNL     1      19.557   0.443   2.352  1.00  0.00     0.004 C 
ENDBRANCH  16  17
ENDBRANCH  15  16
ENDBRANCH  14  15
ENDBRANCH  13  14
ENDBRANCH  12  13
ENDBRANCH  11  12
ENDBRANCH   1  11
TORSDOF 14
ENDMDL
MODEL 6
REMARK VINA RESULT:    -3.864      3.475      6.041
REMARK INTER + INTRA:          -9.030
REMARK INTER:                  -7.143
REMARK INTRA:                  -1.887
REMARK UNBOUND:                -2.003
REMARK SMILES CCCCCCCCCCCCCCCC(=O)[O-]
REMARK SMILES IDX 9 1 10 2 11 3 12 4 13 5 14 6 15 7 16 8 17 9 18 10 8 11 7 12
REMARK SMILES IDX 6 13 5 14 4 15 3 16 2 17 1 18
REMARK H PARENT
REMARK Flexibility Score: inf
ROOT
ATOM      1  C   UNL     1      25.363   0.791   4.580  1.00  0.00     0.000 C 
ENDROOT
BRANCH   1   2
ATOM      2  C   UNL     1      24.111   0.580   3.716  1.00  0.00     0.000 C 
BRANCH   2   3
ATOM      3  C   UNL     1      24.175   1.339   2.381  1.00  0.00     0.000 C 
BRANCH   3   4
ATOM      4  C   UNL     1      22.965   1.053   1.478  1.00  0.00     0.000 C 
BRANCH   4   5
ATOM      5  C   UNL     1      21.748   0.623   2.312  1.00  0.00     0.000 C 
BRANCH   5   6
ATOM      6  C   UNL     1      20.888  -0.435   1.602  1.00  0.00     0.006 C 
BRANCH   6   7
ATOM      7  C   UNL     1      19.385  -0.225   1.831  1.00  0.00     0.053 C 
BRANCH   7   8
ATOM      8  C   UNL     1      18.768  -1.456   2.416  1.00  0.00     0.041 C 
ATOM      9  O   UNL     1      18.700  -2.514   1.736  1.00  0.00    -0.550 OA
ATOM     10  O   UNL     1      18.224  -1.422   3.693  1.00  0.00    -0.550 OA
ENDBRANCH   7   8
ENDBRANCH   6   7
ENDBRANCH   5   6
ENDBRANCH   4   5
ENDBRANCH   3   4
ENDBRANCH   2   3
ENDBRANCH   1   2
BRANCH   1  11
ATOM     11  C   UNL     1      25.877  -0.546   5.136  1.00  0.00     0.000 C 
BRANCH  11  12
ATOM     12  C   UNL     1      24.808  -1.651   5.101  1.00  0.00    -0.000 C 
BRANCH  12  13
ATOM     13  C   UNL     1      25.341  -2.972   4.518  1.00  0.00    -0.000 C 
BRANCH  13  14
ATOM     14  C   UNL     1      24.302  -3.701   3.652  1.00  0.00    -0.000 C 
BRANCH  14  15
ATOM     15  C   UNL     1      23.534  -2.744   2.723  1.00  0.00    -0.000 C 
BRANCH  15  16
ATOM     16  C   UNL     1      23.894  -2.943   1.241  1.00  0.00    -0.000 C 
BRANCH  16  17
ATOM     17  C   UNL     1      24.916  -1.914   0.737  1.00  0.00    -0.003 C 
ATOM     18  C   UNL     1      25.360  -2.232  -0.688  1.00  0.00     0.004 C 
ENDBRANCH  16  17
ENDBRANCH  15  16
ENDBRANCH  14  15
ENDBRANCH  13  14
ENDBRANCH  12  13
ENDBRANCH  11  12
ENDBRANCH   1  11
TORSDOF 14
ENDMDL
MODEL 7
REMARK VINA RESULT:    -3.832      4.251      6.766
REMARK INTER + INTRA:          -8.971
REMARK INTER:                  -7.269
REMARK INTRA:                  -1.702
REMARK UNBOUND:                -2.003
REMARK SMILES CCCCCCCCCCCCCCCC(=O)[O-]
REMARK SMILES IDX 9 1 10 2 11 3 12 4 13 5 14 6 15 7 16 8 17 9 18 10 8 11 7 12
REMARK SMILES IDX 6 13 5 14 4 15 3 16 2 17 1 18
REMARK H PARENT
REMARK Flexibility Score: inf
ROOT
ATOM      1  C   UNL     1      19.795   2.617   4.124  1.00  0.00     0.000 C 
ENDROOT
BRANCH   1   2
ATOM      2  C   UNL     1      19.278   1.575   3.122  1.00  0.00     0.000 C 
BRANCH   2   3
ATOM      3  C   UNL     1      19.603   1.940   1.664  1.00  0.00     0.000 C 
BRANCH   3   4
ATOM      4  C   UNL     1      20.112   0.739   0.852  1.00  0.00     0.000 C 
BRANCH   4   5
ATOM      5  C   UNL     1      20.580  -0.392   1.781  1.00  0.00     0.000 C 
BRANCH   5   6
ATOM      6  C   UNL     1      20.098  -1.776   1.316  1.00  0.00     0.006 C 
BRANCH   6   7
ATOM      7  C   UNL     1      18.570  -1.913   1.353  1.00  0.00     0.053 C 
BRANCH   7   8
ATOM      8  C   UNL     1      18.058  -2.421   0.042  1.00  0.00     0.041 C 
ATOM      9  O   UNL     1      16.820  -2.452  -0.185  1.00  0.00    -0.550 OA
ATOM     10  O   UNL     1      18.945  -2.905  -0.911  1.00  0.00    -0.550 OA
ENDBRANCH   7   8
ENDBRANCH   6   7
ENDBRANCH   5   6
ENDBRANCH   4   5
ENDBRANCH   3   4
ENDBRANCH   2   3
ENDBRANCH   1   2
BRANCH   1  11
ATOM     11  C   UNL     1      21.108   3.246   3.632  1.00  0.00     0.000 C 
BRANCH  11  12
ATOM     12  C   UNL     1      22.212   3.223   4.701  1.00  0.00    -0.000 C 
BRANCH  12  13
ATOM     13  C   UNL     1      23.561   2.728   4.150  1.00  0.00    -0.000 C 
BRANCH  13  14
ATOM     14  C   UNL     1      23.400   1.702   3.018  1.00  0.00    -0.000 C 
BRANCH  14  15
ATOM     15  C   UNL     1      24.154   2.110   1.740  1.00  0.00    -0.000 C 
BRANCH  15  16
ATOM     16  C   UNL     1      23.802   1.219   0.537  1.00  0.00    -0.000 C 
BRANCH  16  17
ATOM     17  C   UNL     1      25.014   0.935  -0.363  1.00  0.00    -0.003 C 
ATOM     18  C   UNL     1      25.570   2.226  -0.958  1.00  0.00     0.004 C 
ENDBRANCH  16  17
ENDBRANCH  15  16
ENDBRANCH  14  15
ENDBRANCH  13  14
ENDBRANCH  12  13
ENDBRANCH  11  12
ENDBRANCH   1  11
TORSDOF 14
ENDMDL
MODEL 8
REMARK VINA RESULT:    -3.802      3.354      4.847
REMARK INTER + INTRA:          -8.917
REMARK INTER:                  -6.666
REMARK INTRA:                  -2.251
REMARK UNBOUND:                -2.003
REMARK SMILES CCCCCCCCCCCCCCCC(=O)[O-]
REMARK SMILES IDX 9 1 10 2 11 3 12 4 13 5 14 6 15 7 16 8 17 9 18 10 8 11 7 12
REMARK SMILES IDX 6 13 5 14 4 15 3 16 2 17 1 18
REMARK H PARENT
REMARK Flexibility Score: inf
ROOT
ATOM      1  C   UNL     1      26.127   3.058   3.095  1.00  0.00     0.000 C 
ENDROOT
BRANCH   1   2
ATOM      2  C   UNL     1      25.021   2.701   4.099  1.00  0.00     0.000 C 
BRANCH   2   3
ATOM      3  C   UNL     1      23.761   3.565   3.926  1.00  0.00     0.000 C 
BRANCH   3   4
ATOM      4  C   UNL     1      22.501   2.897   4.497  1.00  0.00     0.000 C 
BRANCH   4   5
ATOM      5  C   UNL     1      21.357   3.913   4.638  1.00  0.00     0.000 C 
BRANCH   5   6
ATOM      6  C   UNL     1      20.291   3.759   3.541  1.00  0.00     0.006 C 
BRANCH   6   7
ATOM      7  C   UNL     1      19.875   2.298   3.322  1.00  0.00     0.053 C 
BRANCH   7   8
ATOM      8  C   UNL     1      18.644   1.980   4.111  1.00  0.00     0.041 C 
ATOM      9  O   UNL     1      18.269   0.786   4.245  1.00  0.00    -0.550 OA
ATOM     10  O   UNL     1      17.884   3.006   4.658  1.00  0.00    -0.550 OA
ENDBRANCH   7   8
ENDBRANCH   6   7
ENDBRANCH   5   6
ENDBRANCH   4   5
ENDBRANCH   3   4
ENDBRANCH   2   3
ENDBRANCH   1   2
BRANCH   1  11
ATOM     11  C   UNL     1      25.824   4.393   2.397  1.00  0.00     0.000 C 
BRANCH  11  12
ATOM     12  C   UNL     1      26.199   4.379   0.906  1.00  0.00    -0.000 C 
BRANCH  12  13
ATOM     13  C   UNL     1      26.624   2.984   0.415  1.00  0.00    -0.000 C 
BRANCH  13  14
ATOM     14  C   UNL     1      26.102   2.667  -0.995  1.00  0.00    -0.000 C 
BRANCH  14  15
ATOM     15  C   UNL     1      24.804   1.841  -0.971  1.00  0.00    -0.000 C 
BRANCH  15  16
ATOM     16  C   UNL     1      24.603   1.096   0.360  1.00  0.00    -0.000 C 
BRANCH  16  17
ATOM     17  C   UNL     1      23.217   1.345   0.972  1.00  0.00    -0.003 C 
ATOM     18  C   UNL     1      22.651   2.690   0.525  1.00  0.00     0.004 C 
ENDBRANCH  16  17
ENDBRANCH  15  16
ENDBRANCH  14  15
ENDBRANCH  13  14
ENDBRANCH  12  13
ENDBRANCH  11  12
ENDBRANCH   1  11
TORSDOF 14
ENDMDL
MODEL 9
REMARK VINA RESULT:    -3.789      3.807      5.434
REMARK INTER + INTRA:          -8.893
REMARK INTER:                  -7.210
REMARK INTRA:                  -1.684
REMARK UNBOUND:                -2.003
REMARK SMILES CCCCCCCCCCCCCCCC(=O)[O-]
REMARK SMILES IDX 9 1 10 2 11 3 12 4 13 5 14 6 15 7 16 8 17 9 18 10 8 11 7 12
REMARK SMILES IDX 6 13 5 14 4 15 3 16 2 17 1 18
REMARK H PARENT
REMARK Flexibility Score: inf
ROOT
ATOM      1  C   UNL     1      21.125   1.877  -0.182  1.00  0.00     0.000 C 
ENDROOT
BRANCH   1   2
ATOM      2  C   UNL     1      21.877   2.312   1.084  1.00  0.00     0.000 C 
BRANCH   2   3
ATOM      3  C   UNL     1      23.378   1.987   1.026  1.00  0.00     0.000 C 
BRANCH   3   4
ATOM      4  C   UNL     1      23.668   0.490   1.218  1.00  0.00     0.000 C 
BRANCH   4   5
ATOM      5  C   UNL     1      23.589   0.103   2.703  1.00  0.00     0.000 C 
BRANCH   5   6
ATOM      6  C   UNL     1      23.540  -1.419   2.916  1.00  0.00     0.006 C 
BRANCH   6   7
ATOM      7  C   UNL     1      24.861  -1.983   3.455  1.00  0.00     0.053 C 
BRANCH   7   8
ATOM      8  C   UNL     1      24.979  -1.726   4.925  1.00  0.00     0.041 C 
ATOM      9  O   UNL     1      24.249  -2.353   5.737  1.00  0.00    -0.550 OA
ATOM     10  O   UNL     1      25.858  -0.759   5.394  1.00  0.00    -0.550 OA
ENDBRANCH   7   8
ENDBRANCH   6   7
ENDBRANCH   5   6
ENDBRANCH   4   5
ENDBRANCH   3   4
ENDBRANCH   2   3
ENDBRANCH   1   2
BRANCH   1  11
ATOM     11  C   UNL     1      19.861   1.082   0.179  1.00  0.00     0.000 C 
BRANCH  11  12
ATOM     12  C   UNL     1      19.623   1.004   1.696  1.00  0.00    -0.000 C 
BRANCH  12  13
ATOM     13  C   UNL     1      19.329  -0.428   2.177  1.00  0.00    -0.000 C 
BRANCH  13  14
ATOM     14  C   UNL     1      20.382  -1.442   1.705  1.00  0.00    -0.000 C 
BRANCH  14  15
ATOM     15  C   UNL     1      19.762  -2.621   0.934  1.00  0.00    -0.000 C 
BRANCH  15  16
ATOM     16  C   UNL     1      18.228  -2.533   0.856  1.00  0.00    -0.000 C 
BRANCH  16  17
ATOM     17  C   UNL     1      17.710  -2.521  -0.590  1.00  0.00    -0.003 C 
ATOM     18  C   UNL     1      16.331  -1.873  -0.674  1.00  0.00     0.004 C 
ENDBRANCH  16  17
ENDBRANCH  15  16
ENDBRANCH  14  15
ENDBRANCH  13  14
ENDBRANCH  12  13
ENDBRANCH  11  12
ENDBRANCH   1  11
TORSDOF 14
ENDMDL
