MODEL 1
REMARK VINA RESULT:    -3.949      0.000      0.000
REMARK INTER + INTRA:          -7.135
REMARK INTER:                  -6.027
REMARK INTRA:                  -1.108
REMARK UNBOUND:                -1.108
REMARK SMILES CCCCCCCCCCC(=O)[O-]
REMARK SMILES IDX 7 1 8 2 9 3 10 4 11 5 12 6 13 7 6 8 5 9 4 10 3 11 2 12 1 13
REMARK H PARENT
REMARK Flexibility Score: inf
ROOT
ATOM      1  C   UNL     1     -14.728 -13.135  22.111  1.00  0.00     0.000 C 
ENDROOT
BRANCH   1   2
ATOM      2  C   UNL     1     -13.293 -13.432  22.575  1.00  0.00     0.000 C 
BRANCH   2   3
ATOM      3  C   UNL     1     -12.898 -14.903  22.376  1.00  0.00     0.006 C 
BRANCH   3   4
ATOM      4  C   UNL     1     -14.137 -15.804  22.355  1.00  0.00     0.053 C 
BRANCH   4   5
ATOM      5  C   UNL     1     -14.030 -16.818  21.260  1.00  0.00     0.041 C 
ATOM      6  O   UNL     1     -14.457 -17.990  21.436  1.00  0.00    -0.550 OA
ATOM      7  O   UNL     1     -13.415 -16.483  20.060  1.00  0.00    -0.550 OA
ENDBRANCH   4   5
ENDBRANCH   3   4
ENDBRANCH   2   3
ENDBRANCH   1   2
BRANCH   1   8
ATOM      8  C   UNL     1     -14.775 -12.172  20.912  1.00  0.00     0.000 C 
BRANCH   8   9
ATOM      9  C   UNL     1     -15.011 -12.900  19.579  1.00  0.00    -0.000 C 
BRANCH   9  10
ATOM     10  C   UNL     1     -13.702 -13.279  18.870  1.00  0.00    -0.000 C 
BRANCH  10  11
ATOM     11  C   UNL     1     -13.013 -12.036  18.292  1.00  0.00    -0.000 C 
BRANCH  11  12
ATOM     12  C   UNL     1     -11.491 -12.121  18.461  1.00  0.00    -0.003 C 
ATOM     13  C   UNL     1     -11.107 -13.228  19.438  1.00  0.00     0.004 C 
ENDBRANCH  11  12
ENDBRANCH  10  11
ENDBRANCH   9  10
ENDBRANCH   8   9
ENDBRANCH   1   8
TORSDOF 9
ENDMDL
MODEL 2
REMARK VINA RESULT:    -3.922      2.675      5.096
REMARK INTER + INTRA:          -7.094
REMARK INTER:                  -5.895
REMARK INTRA:                  -1.198
REMARK UNBOUND:                -1.108
REMARK SMILES CCCCCCCCCCC(=O)[O-]
REMARK SMILES IDX 7 1 8 2 9 3 10 4 11 5 12 6 13 7 6 8 5 9 4 10 3 11 2 12 1 13
REMARK H PARENT
REMARK Flexibility Score: inf
ROOT
ATOM      1  C   UNL     1     -14.724 -15.589  19.542  1.00  0.00     0.000 C 
ENDROOT
BRANCH   1   2
ATOM      2  C   UNL     1     -14.492 -14.196  18.936  1.00  0.00     0.000 C 
BRANCH   2   3
ATOM      3  C   UNL     1     -13.014 -13.776  18.961  1.00  0.00     0.006 C 
BRANCH   3   4
ATOM      4  C   UNL     1     -12.872 -12.261  18.785  1.00  0.00     0.053 C 
BRANCH   4   5
ATOM      5  C   UNL     1     -11.823 -11.947  17.766  1.00  0.00     0.041 C 
ATOM      6  O   UNL     1     -11.021 -12.841  17.386  1.00  0.00    -0.550 OA
ATOM      7  O   UNL     1     -11.698 -10.655  17.272  1.00  0.00    -0.550 OA
ENDBRANCH   4   5
ENDBRANCH   3   4
ENDBRANCH   2   3
ENDBRANCH   1   2
BRANCH   1   8
ATOM      8  C   UNL     1     -13.562 -16.045  20.441  1.00  0.00     0.000 C 
BRANCH   8   9
ATOM      9  C   UNL     1     -13.816 -15.753  21.929  1.00  0.00    -0.000 C 
BRANCH   9  10
ATOM     10  C   UNL     1     -12.826 -14.732  22.511  1.00  0.00    -0.000 C 
BRANCH  10  11
ATOM     11  C   UNL     1     -13.566 -13.621  23.267  1.00  0.00    -0.000 C 
BRANCH  11  12
ATOM     12  C   UNL     1     -14.954 -13.375  22.664  1.00  0.00    -0.003 C 
ATOM     13  C   UNL     1     -15.014 -12.029  21.950  1.00  0.00     0.004 C 
ENDBRANCH  11  12
ENDBRANCH  10  11
ENDBRANCH   9  10
ENDBRANCH   8   9
ENDBRANCH   1   8
TORSDOF 9
ENDMDL
MODEL 3
REMARK VINA RESULT:    -3.917      1.440      2.274
REMARK INTER + INTRA:          -7.086
REMARK INTER:                  -6.265
REMARK INTRA:                  -0.820
REMARK UNBOUND:                -1.108
REMARK SMILES CCCCCCCCCCC(=O)[O-]
REMARK SMILES IDX 7 1 8 2 9 3 10 4 11 5 12 6 13 7 6 8 5 9 4 10 3 11 2 12 1 13
REMARK H PARENT
REMARK Flexibility Score: inf
ROOT
ATOM      1  C   UNL     1     -14.105 -12.794  20.939  1.00  0.00     0.000 C 
ENDROOT
BRANCH   1   2
ATOM      2  C   UNL     1     -14.629 -13.332  22.280  1.00  0.00     0.000 C 
BRANCH   2   3
ATOM      3  C   UNL     1     -13.504 -13.824  23.202  1.00  0.00     0.006 C 
BRANCH   3   4
ATOM      4  C   UNL     1     -13.105 -15.263  22.859  1.00  0.00     0.053 C 
BRANCH   4   5
ATOM      5  C   UNL     1     -14.071 -16.232  23.463  1.00  0.00     0.041 C 
ATOM      6  O   UNL     1     -14.628 -15.972  24.562  1.00  0.00    -0.550 OA
ATOM      7  O   UNL     1     -14.320 -17.447  22.836  1.00  0.00    -0.550 OA
ENDBRANCH   4   5
ENDBRANCH   3   4
ENDBRANCH   2   3
ENDBRANCH   1   2
BRANCH   1   8
ATOM      8  C   UNL     1     -14.285 -13.799  19.787  1.00  0.00     0.000 C 
BRANCH   8   9
ATOM      9  C   UNL     1     -12.955 -14.159  19.105  1.00  0.00    -0.000 C 
BRANCH   9  10
ATOM     10  C   UNL     1     -11.731 -13.671  19.895  1.00  0.00    -0.000 C 
BRANCH  10  11
ATOM     11  C   UNL     1     -10.950 -12.617  19.099  1.00  0.00    -0.000 C 
BRANCH  11  12
ATOM     12  C   UNL     1     -11.532 -12.447  17.691  1.00  0.00    -0.003 C 
ATOM     13  C   UNL     1     -11.647 -10.973  17.315  1.00  0.00     0.004 C 
ENDBRANCH  11  12
ENDBRANCH  10  11
ENDBRANCH   9  10
ENDBRANCH   8   9
ENDBRANCH   1   8
TORSDOF 9
ENDMDL
MODEL 4
REMARK VINA RESULT:    -3.850      2.543      4.939
REMARK INTER + INTRA:          -6.984
REMARK INTER:                  -5.932
REMARK INTRA:                  -1.051
REMARK UNBOUND:                -1.108
REMARK SMILES CCCCCCCCCCC(=O)[O-]
REMARK SMILES IDX 7 1 8 2 9 3 10 4 11 5 12 6 13 7 6 8 5 9 4 10 3 11 2 12 1 13
REMARK H PARENT
REMARK Flexibility Score: inf
ROOT
ATOM      1  C   UNL     1     -14.401 -13.138  22.109  1.00  0.00     0.000 C 
ENDROOT
BRANCH   1   2
ATOM      2  C   UNL     1     -14.664 -12.758  20.643  1.00  0.00     0.000 C 
BRANCH   2   3
ATOM      3  C   UNL     1     -13.471 -13.067  19.727  1.00  0.00     0.006 C 
BRANCH   3   4
ATOM      4  C   UNL     1     -13.448 -12.121  18.521  1.00  0.00     0.053 C 
BRANCH   4   5
ATOM      5  C   UNL     1     -12.040 -11.768  18.158  1.00  0.00     0.041 C 
ATOM      6  O   UNL     1     -11.809 -10.996  17.191  1.00  0.00    -0.550 OA
ATOM      7  O   UNL     1     -10.980 -12.331  18.857  1.00  0.00    -0.550 OA
ENDBRANCH   4   5
ENDBRANCH   3   4
ENDBRANCH   2   3
ENDBRANCH   1   2
BRANCH   1   8
ATOM      8  C   UNL     1     -12.977 -13.673  22.335  1.00  0.00     0.000 C 
BRANCH   8   9
ATOM      9  C   UNL     1     -12.963 -15.127  22.833  1.00  0.00    -0.000 C 
BRANCH   9  10
ATOM     10  C   UNL     1     -14.284 -15.861  22.557  1.00  0.00    -0.000 C 
BRANCH  10  11
ATOM     11  C   UNL     1     -14.086 -16.975  21.521  1.00  0.00    -0.000 C 
BRANCH  11  12
ATOM     12  C   UNL     1     -14.600 -16.544  20.143  1.00  0.00    -0.003 C 
ATOM     13  C   UNL     1     -13.515 -16.688  19.080  1.00  0.00     0.004 C 
ENDBRANCH  11  12
ENDBRANCH  10  11
ENDBRANCH   9  10
ENDBRANCH   8   9
ENDBRANCH   1   8
TORSDOF 9
ENDMDL
MODEL 5
REMARK VINA RESULT:    -3.782      2.016      2.788
REMARK INTER + INTRA:          -6.880
REMARK INTER:                  -5.834
REMARK INTRA:                  -1.046
REMARK UNBOUND:                -1.108
REMARK SMILES CCCCCCCCCCC(=O)[O-]
REMARK SMILES IDX 7 1 8 2 9 3 10 4 11 5 12 6 13 7 6 8 5 9 4 10 3 11 2 12 1 13
REMARK H PARENT
REMARK Flexibility Score: inf
ROOT
ATOM      1  C   UNL     1     -13.703 -15.283  19.124  1.00  0.00     0.000 C 
ENDROOT
BRANCH   1   2
ATOM      2  C   UNL     1     -13.786 -16.398  20.179  1.00  0.00     0.000 C 
BRANCH   2   3
ATOM      3  C   UNL     1     -14.524 -15.958  21.452  1.00  0.00     0.006 C 
BRANCH   3   4
ATOM      4  C   UNL     1     -13.533 -15.532  22.539  1.00  0.00     0.053 C 
BRANCH   4   5
ATOM      5  C   UNL     1     -13.489 -14.041  22.653  1.00  0.00     0.041 C 
ATOM      6  O   UNL     1     -12.399 -13.456  22.892  1.00  0.00    -0.550 OA
ATOM      7  O   UNL     1     -14.659 -13.300  22.545  1.00  0.00    -0.550 OA
ENDBRANCH   4   5
ENDBRANCH   3   4
ENDBRANCH   2   3
ENDBRANCH   1   2
BRANCH   1   8
ATOM      8  C   UNL     1     -15.054 -14.582  18.897  1.00  0.00     0.000 C 
BRANCH   8   9
ATOM      9  C   UNL     1     -14.908 -13.062  18.715  1.00  0.00    -0.000 C 
BRANCH   9  10
ATOM     10  C   UNL     1     -13.564 -12.529  19.233  1.00  0.00    -0.000 C 
BRANCH  10  11
ATOM     11  C   UNL     1     -12.800 -11.796  18.122  1.00  0.00    -0.000 C 
BRANCH  11  12
ATOM     12  C   UNL     1     -11.338 -12.255  18.065  1.00  0.00    -0.003 C 
ATOM     13  C   UNL     1     -10.930 -12.957  19.356  1.00  0.00     0.004 C 
ENDBRANCH  11  12
ENDBRANCH  10  11
ENDBRANCH   9  10
ENDBRANCH   8   9
ENDBRANCH   1   8
TORSDOF 9
ENDMDL
MODEL 6
REMARK VINA RESULT:    -3.731      2.697      5.281
REMARK INTER + INTRA:          -6.803
REMARK INTER:                  -5.773
REMARK INTRA:                  -1.029
REMARK UNBOUND:                -1.108
REMARK SMILES CCCCCCCCCCC(=O)[O-]
REMARK SMILES IDX 7 1 8 2 9 3 10 4 11 5 12 6 13 7 6 8 5 9 4 10 3 11 2 12 1 13
REMARK H PARENT
REMARK Flexibility Score: inf
ROOT
ATOM      1  C   UNL     1     -13.037 -15.345  19.126  1.00  0.00     0.000 C 
ENDROOT
BRANCH   1   2
ATOM      2  C   UNL     1     -14.071 -14.251  19.438  1.00  0.00     0.000 C 
BRANCH   2   3
ATOM      3  C   UNL     1     -13.430 -12.871  19.648  1.00  0.00     0.006 C 
BRANCH   3   4
ATOM      4  C   UNL     1     -13.384 -12.083  18.335  1.00  0.00     0.053 C 
BRANCH   4   5
ATOM      5  C   UNL     1     -11.972 -11.755  17.969  1.00  0.00     0.041 C 
ATOM      6  O   UNL     1     -11.024 -12.465  18.400  1.00  0.00    -0.550 OA
ATOM      7  O   UNL     1     -11.695 -10.637  17.193  1.00  0.00    -0.550 OA
ENDBRANCH   4   5
ENDBRANCH   3   4
ENDBRANCH   2   3
ENDBRANCH   1   2
BRANCH   1   8
ATOM      8  C   UNL     1     -13.605 -16.763  19.305  1.00  0.00     0.000 C 
BRANCH   8   9
ATOM      9  C   UNL     1     -14.765 -16.814  20.312  1.00  0.00    -0.000 C 
BRANCH   9  10
ATOM     10  C   UNL     1     -14.312 -17.236  21.718  1.00  0.00    -0.000 C 
BRANCH  10  11
ATOM     11  C   UNL     1     -14.448 -16.073  22.710  1.00  0.00    -0.000 C 
BRANCH  11  12
ATOM     12  C   UNL     1     -13.129 -15.302  22.840  1.00  0.00    -0.003 C 
ATOM     13  C   UNL     1     -13.375 -13.847  23.224  1.00  0.00     0.004 C 
ENDBRANCH  11  12
ENDBRANCH  10  11
ENDBRANCH   9  10
ENDBRANCH   8   9
ENDBRANCH   1   8
TORSDOF 9
ENDMDL
MODEL 7
REMARK VINA RESULT:    -3.685      2.704      5.085
REMARK INTER + INTRA:          -6.731
REMARK INTER:                  -5.633
REMARK INTRA:                  -1.098
REMARK UNBOUND:                -1.108
REMARK SMILES CCCCCCCCCCC(=O)[O-]
REMARK SMILES IDX 7 1 8 2 9 3 10 4 11 5 12 6 13 7 6 8 5 9 4 10 3 11 2 12 1 13
REMARK H PARENT
REMARK Flexibility Score: inf
ROOT
ATOM      1  C   UNL     1     -14.037 -12.684  20.588  1.00  0.00     0.000 C 
ENDROOT
BRANCH   1   2
ATOM      2  C   UNL     1     -13.963 -13.829  19.566  1.00  0.00     0.000 C 
BRANCH   2   3
ATOM      3  C   UNL     1     -12.520 -14.189  19.182  1.00  0.00     0.006 C 
BRANCH   3   4
ATOM      4  C   UNL     1     -11.616 -12.954  19.232  1.00  0.00     0.053 C 
BRANCH   4   5
ATOM      5  C   UNL     1     -11.491 -12.339  17.874  1.00  0.00     0.041 C 
ATOM      6  O   UNL     1     -10.896 -12.956  16.952  1.00  0.00    -0.550 OA
ATOM      7  O   UNL     1     -11.989 -11.064  17.640  1.00  0.00    -0.550 OA
ENDBRANCH   4   5
ENDBRANCH   3   4
ENDBRANCH   2   3
ENDBRANCH   1   2
BRANCH   1   8
ATOM      8  C   UNL     1     -14.397 -13.175  22.001  1.00  0.00     0.000 C 
BRANCH   8   9
ATOM      9  C   UNL     1     -13.162 -13.609  22.808  1.00  0.00    -0.000 C 
BRANCH   9  10
ATOM     10  C   UNL     1     -12.993 -15.135  22.862  1.00  0.00    -0.000 C 
BRANCH  10  11
ATOM     11  C   UNL     1     -14.325 -15.822  23.191  1.00  0.00    -0.000 C 
BRANCH  11  12
ATOM     12  C   UNL     1     -14.393 -17.220  22.565  1.00  0.00    -0.003 C 
ATOM     13  C   UNL     1     -14.113 -17.166  21.066  1.00  0.00     0.004 C 
ENDBRANCH  11  12
ENDBRANCH  10  11
ENDBRANCH   9  10
ENDBRANCH   8   9
ENDBRANCH   1   8
TORSDOF 9
ENDMDL
MODEL 8
REMARK VINA RESULT:    -3.299      1.996      3.000
REMARK INTER + INTRA:          -6.143
REMARK INTER:                  -5.361
REMARK INTRA:                  -0.782
REMARK UNBOUND:                -1.108
REMARK SMILES CCCCCCCCCCC(=O)[O-]
REMARK SMILES IDX 7 1 8 2 9 3 10 4 11 5 12 6 13 7 6 8 5 9 4 10 3 11 2 12 1 13
REMARK H PARENT
REMARK Flexibility Score: inf
ROOT
ATOM      1  C   UNL     1     -14.354 -15.968  19.160  1.00  0.00     0.000 C 
ENDROOT
BRANCH   1   2
ATOM      2  C   UNL     1     -14.621 -17.328  19.824  1.00  0.00     0.000 C 
BRANCH   2   3
ATOM      3  C   UNL     1     -14.216 -17.355  21.306  1.00  0.00     0.006 C 
BRANCH   3   4
ATOM      4  C   UNL     1     -14.895 -16.221  22.080  1.00  0.00     0.053 C 
BRANCH   4   5
ATOM      5  C   UNL     1     -14.032 -15.770  23.215  1.00  0.00     0.041 C 
ATOM      6  O   UNL     1     -14.407 -15.943  24.405  1.00  0.00    -0.550 OA
ATOM      7  O   UNL     1     -12.834 -15.115  22.960  1.00  0.00    -0.550 OA
ENDBRANCH   4   5
ENDBRANCH   3   4
ENDBRANCH   2   3
ENDBRANCH   1   2
BRANCH   1   8
ATOM      8  C   UNL     1     -12.863 -15.591  19.162  1.00  0.00     0.000 C 
BRANCH   8   9
ATOM      9  C   UNL     1     -12.617 -14.155  19.650  1.00  0.00    -0.000 C 
BRANCH   9  10
ATOM     10  C   UNL     1     -13.834 -13.240  19.442  1.00  0.00    -0.000 C 
BRANCH  10  11
ATOM     11  C   UNL     1     -13.520 -12.132  18.429  1.00  0.00    -0.000 C 
BRANCH  11  12
ATOM     12  C   UNL     1     -12.034 -12.134  18.053  1.00  0.00    -0.003 C 
ATOM     13  C   UNL     1     -11.662 -10.882  17.265  1.00  0.00     0.004 C 
ENDBRANCH  11  12
ENDBRANCH  10  11
ENDBRANCH   9  10
ENDBRANCH   8   9
ENDBRANCH   1   8
TORSDOF 9
ENDMDL
