MODEL 1
REMARK VINA RESULT:    -5.034      0.000      0.000
REMARK INTER + INTRA:          -6.702
REMARK INTER:                  -6.064
REMARK INTRA:                  -0.638
REMARK UNBOUND:                -0.638
REMARK SMILES O=c1ccn([C@@H]2O[C@H](CO)[C@H](O)[C@H]2O)c(=O)[nH]1
REMARK SMILES IDX 6 1 13 2 11 3 8 4 7 5 5 6 3 7 4 8 2 9 17 10 1 11 15 12 16 14
REMARK SMILES IDX 14 15 12 17 9 19 10 20
REMARK H PARENT 17 13 14 16 12 18 10 21
REMARK Flexibility Score: inf
ROOT
ATOM      1  C   UNL     1       0.481  21.106 -35.900  1.00  0.00     0.255 C 
ATOM      2  C   UNL     1      -0.027  19.681 -35.725  1.00  0.00     0.196 C 
ATOM      3  C   UNL     1      -0.771  19.785 -34.416  1.00  0.00     0.179 C 
ATOM      4  C   UNL     1      -0.012  20.897 -33.671  1.00  0.00     0.178 C 
ATOM      5  O   UNL     1       0.689  21.676 -34.622  1.00  0.00    -0.347 OA
ENDROOT
BRANCH   1   6
ATOM      6  N   UNL     1       1.726  21.128 -36.695  1.00  0.00    -0.271 N 
ATOM      7  C   UNL     1       4.063  20.620 -36.899  1.00  0.00     0.090 A 
ATOM      8  C   UNL     1       2.885  20.637 -36.157  1.00  0.00     0.099 A 
ATOM      9  C   UNL     1       4.035  21.099 -38.204  1.00  0.00     0.253 A 
ATOM     10  N   UNL     1       2.871  21.563 -38.728  1.00  0.00    -0.274 N 
ATOM     11  O   UNL     1       5.086  21.098 -38.898  1.00  0.00    -0.269 OA
ATOM     12  C   UNL     1       1.723  21.574 -37.996  1.00  0.00     0.330 A 
ATOM     13  H   UNL     1       2.855  21.913 -39.714  1.00  0.00     0.175 HD
ATOM     14  O   UNL     1       0.659  21.995 -38.528  1.00  0.00    -0.248 OA
ENDBRANCH   1   6
BRANCH   2  15
ATOM     15  O   UNL     1      -0.882  19.322 -36.777  1.00  0.00    -0.386 OA
ATOM     16  H   UNL     1      -1.729  19.019 -36.357  1.00  0.00     0.211 HD
ENDBRANCH   2  15
BRANCH   3  17
ATOM     17  O   UNL     1      -0.854  18.565 -33.715  1.00  0.00    -0.387 OA
ATOM     18  H   UNL     1      -0.372  18.656 -32.853  1.00  0.00     0.211 HD
ENDBRANCH   3  17
BRANCH   4  19
ATOM     19  C   UNL     1       0.978  20.381 -32.614  1.00  0.00     0.191 C 
BRANCH  19  20
ATOM     20  O   UNL     1       0.288  19.925 -31.482  1.00  0.00    -0.394 OA
ATOM     21  H   UNL     1      -0.309  19.192 -31.785  1.00  0.00     0.210 HD
ENDBRANCH  19  20
ENDBRANCH   4  19
TORSDOF 5
ENDMDL
MODEL 2
REMARK VINA RESULT:    -4.955      1.932      3.002
REMARK INTER + INTRA:          -6.607
REMARK INTER:                  -5.909
REMARK INTRA:                  -0.698
REMARK UNBOUND:                -0.638
REMARK SMILES O=c1ccn([C@@H]2O[C@H](CO)[C@H](O)[C@H]2O)c(=O)[nH]1
REMARK SMILES IDX 6 1 13 2 11 3 8 4 7 5 5 6 3 7 4 8 2 9 17 10 1 11 15 12 16 14
REMARK SMILES IDX 14 15 12 17 9 19 10 20
REMARK H PARENT 17 13 14 16 12 18 10 21
REMARK Flexibility Score: inf
ROOT
ATOM      1  C   UNL     1       1.494  19.540 -34.865  1.00  0.00     0.255 C 
ATOM      2  C   UNL     1       1.347  20.541 -33.728  1.00  0.00     0.196 C 
ATOM      3  C   UNL     1      -0.029  20.206 -33.207  1.00  0.00     0.179 C 
ATOM      4  C   UNL     1      -0.757  19.682 -34.456  1.00  0.00     0.178 C 
ATOM      5  O   UNL     1       0.213  19.265 -35.399  1.00  0.00    -0.347 OA
ENDROOT
BRANCH   1   6
ATOM      6  N   UNL     1       2.399  20.058 -35.911  1.00  0.00    -0.271 N 
ATOM      7  C   UNL     1       2.720  21.269 -37.959  1.00  0.00     0.090 A 
ATOM      8  C   UNL     1       1.883  20.745 -36.977  1.00  0.00     0.099 A 
ATOM      9  C   UNL     1       4.092  21.093 -37.827  1.00  0.00     0.253 A 
ATOM     10  N   UNL     1       4.588  20.428 -36.752  1.00  0.00    -0.274 N 
ATOM     11  O   UNL     1       4.874  21.555 -38.701  1.00  0.00    -0.269 OA
ATOM     12  C   UNL     1       3.762  19.920 -35.795  1.00  0.00     0.330 A 
ATOM     13  H   UNL     1       5.623  20.308 -36.655  1.00  0.00     0.175 HD
ATOM     14  O   UNL     1       4.265  19.326 -34.802  1.00  0.00    -0.248 OA
ENDBRANCH   1   6
BRANCH   2  15
ATOM     15  O   UNL     1       2.333  20.337 -32.751  1.00  0.00    -0.386 OA
ATOM     16  H   UNL     1       3.197  20.274 -33.235  1.00  0.00     0.211 HD
ENDBRANCH   2  15
BRANCH   3  17
ATOM     17  O   UNL     1      -0.670  21.287 -32.568  1.00  0.00    -0.387 OA
ATOM     18  H   UNL     1      -1.534  20.973 -32.194  1.00  0.00     0.211 HD
ENDBRANCH   3  17
BRANCH   4  19
ATOM     19  C   UNL     1      -1.690  20.711 -35.117  1.00  0.00     0.191 C 
BRANCH  19  20
ATOM     20  O   UNL     1      -2.867  20.851 -34.369  1.00  0.00    -0.394 OA
ATOM     21  H   UNL     1      -3.500  21.377 -34.926  1.00  0.00     0.210 HD
ENDBRANCH  19  20
ENDBRANCH   4  19
TORSDOF 5
ENDMDL
MODEL 3
REMARK VINA RESULT:    -4.932      1.682      2.989
REMARK INTER + INTRA:          -6.579
REMARK INTER:                  -5.867
REMARK INTRA:                  -0.712
REMARK UNBOUND:                -0.638
REMARK SMILES O=c1ccn([C@@H]2O[C@H](CO)[C@H](O)[C@H]2O)c(=O)[nH]1
REMARK SMILES IDX 6 1 13 2 11 3 8 4 7 5 5 6 3 7 4 8 2 9 17 10 1 11 15 12 16 14
REMARK SMILES IDX 14 15 12 17 9 19 10 20
REMARK H PARENT 17 13 14 16 12 18 10 21
REMARK Flexibility Score: inf
ROOT
ATOM      1  C   UNL     1       1.977  20.055 -36.252  1.00  0.00     0.255 C 
ATOM      2  C   UNL     1       2.519  20.770 -35.022  1.00  0.00     0.196 C 
ATOM      3  C   UNL     1       1.913  19.953 -33.908  1.00  0.00     0.179 C 
ATOM      4  C   UNL     1       0.603  19.437 -34.526  1.00  0.00     0.178 C 
ATOM      5  O   UNL     1       0.720  19.490 -35.935  1.00  0.00    -0.347 OA
ENDROOT
BRANCH   1   6
ATOM      6  N   UNL     1       1.863  20.984 -37.396  1.00  0.00    -0.271 N 
ATOM      7  C   UNL     1       0.570  22.560 -38.663  1.00  0.00     0.090 A 
ATOM      8  C   UNL     1       0.690  21.657 -37.610  1.00  0.00     0.099 A 
ATOM      9  C   UNL     1       1.671  22.776 -39.483  1.00  0.00     0.253 A 
ATOM     10  N   UNL     1       2.833  22.115 -39.243  1.00  0.00    -0.274 N 
ATOM     11  O   UNL     1       1.591  23.586 -40.445  1.00  0.00    -0.269 OA
ATOM     12  C   UNL     1       2.943  21.235 -38.210  1.00  0.00     0.330 A 
ATOM     13  H   UNL     1       3.660  22.290 -39.859  1.00  0.00     0.175 HD
ATOM     14  O   UNL     1       4.046  20.657 -38.009  1.00  0.00    -0.248 OA
ENDBRANCH   1   6
BRANCH   2  15
ATOM     15  O   UNL     1       3.920  20.725 -34.993  1.00  0.00    -0.386 OA
ATOM     16  H   UNL     1       4.236  21.542 -35.459  1.00  0.00     0.211 HD
ENDBRANCH   2  15
BRANCH   3  17
ATOM     17  O   UNL     1       1.749  20.671 -32.705  1.00  0.00    -0.387 OA
ATOM     18  H   UNL     1       1.046  20.230 -32.162  1.00  0.00     0.211 HD
ENDBRANCH   3  17
BRANCH   4  19
ATOM     19  C   UNL     1      -0.647  20.223 -34.095  1.00  0.00     0.191 C 
BRANCH  19  20
ATOM     20  O   UNL     1      -1.042  19.840 -32.805  1.00  0.00    -0.394 OA
ATOM     21  H   UNL     1      -0.989  18.849 -32.771  1.00  0.00     0.210 HD
ENDBRANCH  19  20
ENDBRANCH   4  19
TORSDOF 5
ENDMDL
MODEL 4
REMARK VINA RESULT:    -4.923      2.308      5.590
REMARK INTER + INTRA:          -6.569
REMARK INTER:                  -5.874
REMARK INTRA:                  -0.694
REMARK UNBOUND:                -0.638
REMARK SMILES O=c1ccn([C@@H]2O[C@H](CO)[C@H](O)[C@H]2O)c(=O)[nH]1
REMARK SMILES IDX 6 1 13 2 11 3 8 4 7 5 5 6 3 7 4 8 2 9 17 10 1 11 15 12 16 14
REMARK SMILES IDX 14 15 12 17 9 19 10 20
REMARK H PARENT 17 13 14 16 12 18 10 21
REMARK Flexibility Score: inf
ROOT
ATOM      1  C   UNL     1      -0.009  19.874 -34.903  1.00  0.00     0.255 C 
ATOM      2  C   UNL     1      -0.457  21.191 -35.520  1.00  0.00     0.196 C 
ATOM      3  C   UNL     1       0.025  21.037 -36.942  1.00  0.00     0.179 C 
ATOM      4  C   UNL     1       1.257  20.129 -36.796  1.00  0.00     0.178 C 
ATOM      5  O   UNL     1       1.158  19.432 -35.568  1.00  0.00    -0.347 OA
ENDROOT
BRANCH   1   6
ATOM      6  N   UNL     1       0.237  20.027 -33.454  1.00  0.00    -0.271 N 
ATOM      7  C   UNL     1       1.652  20.763 -31.660  1.00  0.00     0.090 A 
ATOM      8  C   UNL     1       1.411  20.582 -33.019  1.00  0.00     0.099 A 
ATOM      9  C   UNL     1       0.669  20.384 -30.753  1.00  0.00     0.253 A 
ATOM     10  N   UNL     1      -0.498  19.855 -31.204  1.00  0.00    -0.274 N 
ATOM     11  O   UNL     1       0.860  20.535 -29.517  1.00  0.00    -0.269 OA
ATOM     12  C   UNL     1      -0.726  19.682 -32.535  1.00  0.00     0.330 A 
ATOM     13  H   UNL     1      -1.236  19.580 -30.516  1.00  0.00     0.175 HD
ATOM     14  O   UNL     1      -1.831  19.206 -32.912  1.00  0.00    -0.248 OA
ENDBRANCH   1   6
BRANCH   2  15
ATOM     15  O   UNL     1      -1.852  21.324 -35.460  1.00  0.00    -0.386 OA
ATOM     16  H   UNL     1      -2.042  21.935 -34.701  1.00  0.00     0.211 HD
ENDBRANCH   2  15
BRANCH   3  17
ATOM     17  O   UNL     1       0.276  22.263 -37.590  1.00  0.00    -0.387 OA
ATOM     18  H   UNL     1       0.860  22.819 -37.011  1.00  0.00     0.211 HD
ENDBRANCH   3  17
BRANCH   4  19
ATOM     19  C   UNL     1       2.599  20.880 -36.841  1.00  0.00     0.191 C 
BRANCH  19  20
ATOM     20  O   UNL     1       2.930  21.206 -38.164  1.00  0.00    -0.394 OA
ATOM     21  H   UNL     1       2.640  22.144 -38.309  1.00  0.00     0.210 HD
ENDBRANCH  19  20
ENDBRANCH   4  19
TORSDOF 5
ENDMDL
MODEL 5
REMARK VINA RESULT:    -4.857      4.591      6.895
REMARK INTER + INTRA:          -6.489
REMARK INTER:                  -5.857
REMARK INTRA:                  -0.632
REMARK UNBOUND:                -0.638
REMARK SMILES O=c1ccn([C@@H]2O[C@H](CO)[C@H](O)[C@H]2O)c(=O)[nH]1
REMARK SMILES IDX 6 1 13 2 11 3 8 4 7 5 5 6 3 7 4 8 2 9 17 10 1 11 15 12 16 14
REMARK SMILES IDX 14 15 12 17 9 19 10 20
REMARK H PARENT 17 13 14 16 12 18 10 21
REMARK Flexibility Score: inf
ROOT
ATOM      1  C   UNL     1      -0.896  20.561 -32.657  1.00  0.00     0.255 C 
ATOM      2  C   UNL     1      -0.968  19.326 -33.545  1.00  0.00     0.196 C 
ATOM      3  C   UNL     1      -1.711  19.862 -34.745  1.00  0.00     0.179 C 
ATOM      4  C   UNL     1      -2.591  20.970 -34.143  1.00  0.00     0.178 C 
ATOM      5  O   UNL     1      -2.027  21.371 -32.909  1.00  0.00    -0.347 OA
ENDROOT
BRANCH   1   6
ATOM      6  N   UNL     1      -0.828  20.181 -31.230  1.00  0.00    -0.271 N 
ATOM      7  C   UNL     1      -1.857  19.199 -29.297  1.00  0.00     0.090 A 
ATOM      8  C   UNL     1      -1.909  19.592 -30.631  1.00  0.00     0.099 A 
ATOM      9  C   UNL     1      -0.678  19.402 -28.589  1.00  0.00     0.253 A 
ATOM     10  N   UNL     1       0.391  19.968 -29.205  1.00  0.00    -0.274 N 
ATOM     11  O   UNL     1      -0.603  19.057 -27.379  1.00  0.00    -0.269 OA
ATOM     12  C   UNL     1       0.332  20.348 -30.511  1.00  0.00     0.330 A 
ATOM     13  H   UNL     1       1.278  20.109 -28.668  1.00  0.00     0.175 HD
ATOM     14  O   UNL     1       1.355  20.852 -31.051  1.00  0.00    -0.248 OA
ENDBRANCH   1   6
BRANCH   2  15
ATOM     15  O   UNL     1       0.317  18.882 -33.890  1.00  0.00    -0.386 OA
ATOM     16  H   UNL     1       0.911  19.675 -33.834  1.00  0.00     0.211 HD
ENDBRANCH   2  15
BRANCH   3  17
ATOM     17  O   UNL     1      -2.421  18.874 -35.457  1.00  0.00    -0.387 OA
ATOM     18  H   UNL     1      -2.542  19.178 -36.393  1.00  0.00     0.211 HD
ENDBRANCH   3  17
BRANCH   4  19
ATOM     19  C   UNL     1      -4.055  20.556 -33.918  1.00  0.00     0.191 C 
BRANCH  19  20
ATOM     20  O   UNL     1      -4.730  20.464 -35.143  1.00  0.00    -0.394 OA
ATOM     21  H   UNL     1      -4.090  20.753 -35.845  1.00  0.00     0.210 HD
ENDBRANCH  19  20
ENDBRANCH   4  19
TORSDOF 5
ENDMDL
MODEL 6
REMARK VINA RESULT:    -4.777      1.718      2.116
REMARK INTER + INTRA:          -6.392
REMARK INTER:                  -5.897
REMARK INTRA:                  -0.495
REMARK UNBOUND:                -0.638
REMARK SMILES O=c1ccn([C@@H]2O[C@H](CO)[C@H](O)[C@H]2O)c(=O)[nH]1
REMARK SMILES IDX 6 1 13 2 11 3 8 4 7 5 5 6 3 7 4 8 2 9 17 10 1 11 15 12 16 14
REMARK SMILES IDX 14 15 12 17 9 19 10 20
REMARK H PARENT 17 13 14 16 12 18 10 21
REMARK Flexibility Score: inf
ROOT
ATOM      1  C   UNL     1      -0.722  20.769 -34.354  1.00  0.00     0.255 C 
ATOM      2  C   UNL     1      -1.449  19.432 -34.379  1.00  0.00     0.196 C 
ATOM      3  C   UNL     1      -2.360  19.561 -33.184  1.00  0.00     0.179 C 
ATOM      4  C   UNL     1      -1.573  20.490 -32.244  1.00  0.00     0.178 C 
ATOM      5  O   UNL     1      -0.631  21.213 -33.014  1.00  0.00    -0.347 OA
ENDROOT
BRANCH   1   6
ATOM      6  N   UNL     1       0.619  20.652 -34.961  1.00  0.00    -0.271 N 
ATOM      7  C   UNL     1       2.815  19.681 -34.964  1.00  0.00     0.090 A 
ATOM      8  C   UNL     1       1.554  19.830 -34.392  1.00  0.00     0.099 A 
ATOM      9  C   UNL     1       3.100  20.373 -36.135  1.00  0.00     0.253 A 
ATOM     10  N   UNL     1       2.153  21.168 -36.698  1.00  0.00    -0.274 N 
ATOM     11  O   UNL     1       4.233  20.259 -36.675  1.00  0.00    -0.269 OA
ATOM     12  C   UNL     1       0.922  21.306 -36.133  1.00  0.00     0.330 A 
ATOM     13  H   UNL     1       2.372  21.678 -37.585  1.00  0.00     0.175 HD
ATOM     14  O   UNL     1       0.065  22.038 -36.698  1.00  0.00    -0.248 OA
ENDBRANCH   1   6
BRANCH   2  15
ATOM     15  O   UNL     1      -2.177  19.280 -35.569  1.00  0.00    -0.386 OA
ATOM     16  H   UNL     1      -1.657  18.653 -36.136  1.00  0.00     0.211 HD
ENDBRANCH   2  15
BRANCH   3  17
ATOM     17  O   UNL     1      -2.723  18.324 -32.612  1.00  0.00    -0.387 OA
ATOM     18  H   UNL     1      -2.331  18.263 -31.703  1.00  0.00     0.211 HD
ENDBRANCH   3  17
BRANCH   4  19
ATOM     19  C   UNL     1      -0.839  19.758 -31.108  1.00  0.00     0.191 C 
BRANCH  19  20
ATOM     20  O   UNL     1       0.529  20.063 -31.136  1.00  0.00    -0.394 OA
ATOM     21  H   UNL     1       1.017  19.199 -31.097  1.00  0.00     0.210 HD
ENDBRANCH  19  20
ENDBRANCH   4  19
TORSDOF 5
ENDMDL
MODEL 7
REMARK VINA RESULT:    -4.719      3.444      5.175
REMARK INTER + INTRA:          -6.322
REMARK INTER:                  -5.820
REMARK INTRA:                  -0.503
REMARK UNBOUND:                -0.638
REMARK SMILES O=c1ccn([C@@H]2O[C@H](CO)[C@H](O)[C@H]2O)c(=O)[nH]1
REMARK SMILES IDX 6 1 13 2 11 3 8 4 7 5 5 6 3 7 4 8 2 9 17 10 1 11 15 12 16 14
REMARK SMILES IDX 14 15 12 17 9 19 10 20
REMARK H PARENT 17 13 14 16 12 18 10 21
REMARK Flexibility Score: inf
ROOT
ATOM      1  C   UNL     1      -1.488  20.360 -31.442  1.00  0.00     0.255 C 
ATOM      2  C   UNL     1      -2.803  20.511 -32.193  1.00  0.00     0.196 C 
ATOM      3  C   UNL     1      -3.794  20.017 -31.168  1.00  0.00     0.179 C 
ATOM      4  C   UNL     1      -2.978  18.998 -30.356  1.00  0.00     0.178 C 
ATOM      5  O   UNL     1      -1.602  19.280 -30.535  1.00  0.00    -0.347 OA
ENDROOT
BRANCH   1   6
ATOM      6  N   UNL     1      -0.367  20.142 -32.380  1.00  0.00    -0.271 N 
ATOM      7  C   UNL     1       0.433  19.380 -34.511  1.00  0.00     0.090 A 
ATOM      8  C   UNL     1      -0.603  19.567 -33.600  1.00  0.00     0.099 A 
ATOM      9  C   UNL     1       1.710  19.804 -34.163  1.00  0.00     0.253 A 
ATOM     10  N   UNL     1       1.922  20.391 -32.957  1.00  0.00    -0.274 N 
ATOM     11  O   UNL     1       2.667  19.645 -34.967  1.00  0.00    -0.269 OA
ATOM     12  C   UNL     1       0.902  20.572 -32.072  1.00  0.00     0.330 A 
ATOM     13  H   UNL     1       2.884  20.716 -32.706  1.00  0.00     0.175 HD
ATOM     14  O   UNL     1       1.138  21.140 -30.971  1.00  0.00    -0.248 OA
ENDBRANCH   1   6
BRANCH   2  15
ATOM     15  O   UNL     1      -3.036  21.852 -32.531  1.00  0.00    -0.386 OA
ATOM     16  H   UNL     1      -2.267  22.368 -32.173  1.00  0.00     0.211 HD
ENDBRANCH   2  15
BRANCH   3  17
ATOM     17  O   UNL     1      -4.980  19.500 -31.730  1.00  0.00    -0.387 OA
ATOM     18  H   UNL     1      -5.484  19.015 -31.027  1.00  0.00     0.211 HD
ENDBRANCH   3  17
BRANCH   4  19
ATOM     19  C   UNL     1      -3.244  17.532 -30.740  1.00  0.00     0.191 C 
BRANCH  19  20
ATOM     20  O   UNL     1      -2.897  17.309 -32.080  1.00  0.00    -0.394 OA
ATOM     21  H   UNL     1      -3.653  17.642 -32.631  1.00  0.00     0.210 HD
ENDBRANCH  19  20
ENDBRANCH   4  19
TORSDOF 5
ENDMDL
MODEL 8
REMARK VINA RESULT:    -4.663      2.095      4.943
REMARK INTER + INTRA:          -6.255
REMARK INTER:                  -5.789
REMARK INTRA:                  -0.466
REMARK UNBOUND:                -0.638
REMARK SMILES O=c1ccn([C@@H]2O[C@H](CO)[C@H](O)[C@H]2O)c(=O)[nH]1
REMARK SMILES IDX 6 1 13 2 11 3 8 4 7 5 5 6 3 7 4 8 2 9 17 10 1 11 15 12 16 14
REMARK SMILES IDX 14 15 12 17 9 19 10 20
REMARK H PARENT 17 13 14 16 12 18 10 21
REMARK Flexibility Score: inf
ROOT
ATOM      1  C   UNL     1       1.431  20.440 -37.405  1.00  0.00     0.255 C 
ATOM      2  C   UNL     1      -0.004  20.365 -37.909  1.00  0.00     0.196 C 
ATOM      3  C   UNL     1       0.139  20.919 -39.306  1.00  0.00     0.179 C 
ATOM      4  C   UNL     1       1.325  21.889 -39.177  1.00  0.00     0.178 C 
ATOM      5  O   UNL     1       2.081  21.525 -38.037  1.00  0.00    -0.347 OA
ENDROOT
BRANCH   1   6
ATOM      6  N   UNL     1       1.466  20.589 -35.935  1.00  0.00    -0.271 N 
ATOM      7  C   UNL     1       0.372  21.199 -33.888  1.00  0.00     0.090 A 
ATOM      8  C   UNL     1       0.371  21.078 -35.275  1.00  0.00     0.099 A 
ATOM      9  C   UNL     1       1.502  20.798 -33.185  1.00  0.00     0.253 A 
ATOM     10  N   UNL     1       2.571  20.295 -33.855  1.00  0.00    -0.274 N 
ATOM     11  O   UNL     1       1.531  20.898 -31.930  1.00  0.00    -0.269 OA
ATOM     12  C   UNL     1       2.561  20.179 -35.212  1.00  0.00     0.330 A 
ATOM     13  H   UNL     1       3.414  19.987 -33.318  1.00  0.00     0.175 HD
ATOM     14  O   UNL     1       3.568  19.688 -35.793  1.00  0.00    -0.248 OA
ENDBRANCH   1   6
BRANCH   2  15
ATOM     15  O   UNL     1      -0.461  19.039 -37.924  1.00  0.00    -0.386 OA
ATOM     16  H   UNL     1      -0.455  18.753 -38.874  1.00  0.00     0.211 HD
ENDBRANCH   2  15
BRANCH   3  17
ATOM     17  O   UNL     1      -1.043  21.504 -39.805  1.00  0.00    -0.387 OA
ATOM     18  H   UNL     1      -1.568  21.866 -39.046  1.00  0.00     0.211 HD
ENDBRANCH   3  17
BRANCH   4  19
ATOM     19  C   UNL     1       0.916  23.367 -39.059  1.00  0.00     0.191 C 
BRANCH  19  20
ATOM     20  O   UNL     1       0.123  23.563 -37.920  1.00  0.00    -0.394 OA
ATOM     21  H   UNL     1       0.722  23.909 -37.207  1.00  0.00     0.210 HD
ENDBRANCH  19  20
ENDBRANCH   4  19
TORSDOF 5
ENDMDL
MODEL 9
REMARK VINA RESULT:    -4.654      2.735      4.566
REMARK INTER + INTRA:          -6.245
REMARK INTER:                  -5.551
REMARK INTRA:                  -0.693
REMARK UNBOUND:                -0.638
REMARK SMILES O=c1ccn([C@@H]2O[C@H](CO)[C@H](O)[C@H]2O)c(=O)[nH]1
REMARK SMILES IDX 6 1 13 2 11 3 8 4 7 5 5 6 3 7 4 8 2 9 17 10 1 11 15 12 16 14
REMARK SMILES IDX 14 15 12 17 9 19 10 20
REMARK H PARENT 17 13 14 16 12 18 10 21
REMARK Flexibility Score: inf
ROOT
ATOM      1  C   UNL     1      -0.988  19.107 -33.380  1.00  0.00     0.255 C 
ATOM      2  C   UNL     1      -1.207  19.818 -32.052  1.00  0.00     0.196 C 
ATOM      3  C   UNL     1      -2.152  18.870 -31.355  1.00  0.00     0.179 C 
ATOM      4  C   UNL     1      -2.921  18.225 -32.520  1.00  0.00     0.178 C 
ATOM      5  O   UNL     1      -2.152  18.370 -33.700  1.00  0.00    -0.347 OA
ENDROOT
BRANCH   1   6
ATOM      6  N   UNL     1      -0.668  20.075 -34.450  1.00  0.00    -0.271 N 
ATOM      7  C   UNL     1      -1.399  21.522 -36.220  1.00  0.00     0.090 A 
ATOM      8  C   UNL     1      -1.673  20.587 -35.226  1.00  0.00     0.099 A 
ATOM      9  C   UNL     1      -0.085  21.939 -36.397  1.00  0.00     0.253 A 
ATOM     10  N   UNL     1       0.897  21.437 -35.604  1.00  0.00    -0.274 N 
ATOM     11  O   UNL     1       0.194  22.784 -37.290  1.00  0.00    -0.269 OA
ATOM     12  C   UNL     1       0.619  20.523 -34.633  1.00  0.00     0.330 A 
ATOM     13  H   UNL     1       1.882  21.762 -35.737  1.00  0.00     0.175 HD
ATOM     14  O   UNL     1       1.556  20.097 -33.904  1.00  0.00    -0.248 OA
ENDBRANCH   1   6
BRANCH   2  15
ATOM     15  O   UNL     1       0.001  19.951 -31.350  1.00  0.00    -0.386 OA
ATOM     16  H   UNL     1      -0.105  20.742 -30.760  1.00  0.00     0.211 HD
ENDBRANCH   2  15
BRANCH   3  17
ATOM     17  O   UNL     1      -2.970  19.495 -30.391  1.00  0.00    -0.387 OA
ATOM     18  H   UNL     1      -3.355  18.799 -29.797  1.00  0.00     0.211 HD
ENDBRANCH   3  17
BRANCH   4  19
ATOM     19  C   UNL     1      -4.320  18.821 -32.756  1.00  0.00     0.191 C 
BRANCH  19  20
ATOM     20  O   UNL     1      -5.201  18.406 -31.747  1.00  0.00    -0.394 OA
ATOM     21  H   UNL     1      -5.081  17.425 -31.646  1.00  0.00     0.210 HD
ENDBRANCH  19  20
ENDBRANCH   4  19
TORSDOF 5
ENDMDL
