MODEL 1
REMARK VINA RESULT:     1.883      0.000      0.000
REMARK INTER + INTRA:           3.007
REMARK INTER:                   2.763
REMARK INTRA:                   0.244
REMARK UNBOUND:                 0.244
REMARK SMILES O=C([O-])CCCCCCCC(=O)[O-]
REMARK SMILES IDX 7 1 6 2 5 3 4 4 2 5 1 6 3 7 8 8 9 9 10 10 11 11 12 12 13 13
REMARK H PARENT
REMARK Flexibility Score: inf
ROOT
ATOM      1  C   UNL     1     -18.055  61.472  -3.020  1.00  0.00     0.000 C 
ENDROOT
BRANCH   1   2
ATOM      2  C   UNL     1     -16.984  61.529  -1.912  1.00  0.00     0.000 C 
BRANCH   2   3
ATOM      3  C   UNL     1     -15.525  61.520  -2.408  1.00  0.00     0.006 C 
BRANCH   3   4
ATOM      4  C   UNL     1     -14.654  60.411  -1.797  1.00  0.00     0.053 C 
BRANCH   4   5
ATOM      5  C   UNL     1     -13.272  60.893  -1.481  1.00  0.00     0.041 C 
ATOM      6  O   UNL     1     -12.692  61.700  -2.254  1.00  0.00    -0.550 OA
ATOM      7  O   UNL     1     -12.638  60.478  -0.316  1.00  0.00    -0.550 OA
ENDBRANCH   4   5
ENDBRANCH   3   4
ENDBRANCH   2   3
ENDBRANCH   1   2
BRANCH   1   8
ATOM      8  C   UNL     1     -19.400  62.129  -2.665  1.00  0.00     0.000 C 
BRANCH   8   9
ATOM      9  C   UNL     1     -20.156  61.378  -1.555  1.00  0.00     0.006 C 
BRANCH   9  10
ATOM     10  C   UNL     1     -20.512  62.294  -0.376  1.00  0.00     0.053 C 
BRANCH  10  11
ATOM     11  C   UNL     1     -19.628  63.503  -0.325  1.00  0.00     0.041 C 
ATOM     12  O   UNL     1     -20.109  64.650  -0.523  1.00  0.00    -0.550 OA
ATOM     13  O   UNL     1     -18.278  63.366  -0.030  1.00  0.00    -0.550 OA
ENDBRANCH  10  11
ENDBRANCH   9  10
ENDBRANCH   8   9
ENDBRANCH   1   8
TORSDOF 8
ENDMDL
MODEL 2
REMARK VINA RESULT:     1.911      0.077      5.856
REMARK INTER + INTRA:           3.049
REMARK INTER:                   2.931
REMARK INTRA:                   0.118
REMARK UNBOUND:                 0.244
REMARK SMILES O=C([O-])CCCCCCCC(=O)[O-]
REMARK SMILES IDX 7 1 6 2 5 3 4 4 2 5 1 6 3 7 8 8 9 9 10 10 11 11 12 12 13 13
REMARK H PARENT
REMARK Flexibility Score: inf
ROOT
ATOM      1  C   UNL     1     -18.016  61.503  -3.088  1.00  0.00     0.000 C 
ENDROOT
BRANCH   1   2
ATOM      2  C   UNL     1     -19.428  62.020  -2.749  1.00  0.00     0.000 C 
BRANCH   2   3
ATOM      3  C   UNL     1     -20.118  61.315  -1.564  1.00  0.00     0.006 C 
BRANCH   3   4
ATOM      4  C   UNL     1     -20.482  62.247  -0.397  1.00  0.00     0.053 C 
BRANCH   4   5
ATOM      5  C   UNL     1     -19.623  63.473  -0.369  1.00  0.00     0.041 C 
ATOM      6  O   UNL     1     -20.118  64.599  -0.635  1.00  0.00    -0.550 OA
ATOM      7  O   UNL     1     -18.283  63.376  -0.015  1.00  0.00    -0.550 OA
ENDBRANCH   4   5
ENDBRANCH   3   4
ENDBRANCH   2   3
ENDBRANCH   1   2
BRANCH   1   8
ATOM      8  C   UNL     1     -17.013  61.527  -1.920  1.00  0.00     0.000 C 
BRANCH   8   9
ATOM      9  C   UNL     1     -15.549  61.569  -2.392  1.00  0.00     0.006 C 
BRANCH   9  10
ATOM     10  C   UNL     1     -14.708  60.448  -1.766  1.00  0.00     0.053 C 
BRANCH  10  11
ATOM     11  C   UNL     1     -13.299  60.886  -1.509  1.00  0.00     0.041 C 
ATOM     12  O   UNL     1     -12.733  61.694  -2.292  1.00  0.00    -0.550 OA
ATOM     13  O   UNL     1     -12.620  60.424  -0.389  1.00  0.00    -0.550 OA
ENDBRANCH  10  11
ENDBRANCH   9  10
ENDBRANCH   8   9
ENDBRANCH   1   8
TORSDOF 8
ENDMDL
MODEL 3
REMARK VINA RESULT:     2.240      1.995      2.491
REMARK INTER + INTRA:           3.532
REMARK INTER:                   3.588
REMARK INTRA:                  -0.056
REMARK UNBOUND:                 0.244
REMARK SMILES O=C([O-])CCCCCCCC(=O)[O-]
REMARK SMILES IDX 7 1 6 2 5 3 4 4 2 5 1 6 3 7 8 8 9 9 10 10 11 11 12 12 13 13
REMARK H PARENT
REMARK Flexibility Score: inf
ROOT
ATOM      1  C   UNL     1     -17.226  63.150  -0.725  1.00  0.00     0.000 C 
ENDROOT
BRANCH   1   2
ATOM      2  C   UNL     1     -16.880  61.847  -1.474  1.00  0.00     0.000 C 
BRANCH   2   3
ATOM      3  C   UNL     1     -15.472  61.804  -2.101  1.00  0.00     0.006 C 
BRANCH   3   4
ATOM      4  C   UNL     1     -14.685  60.518  -1.805  1.00  0.00     0.053 C 
BRANCH   4   5
ATOM      5  C   UNL     1     -13.286  60.808  -1.357  1.00  0.00     0.041 C 
ATOM      6  O   UNL     1     -12.562  61.600  -2.016  1.00  0.00    -0.550 OA
ATOM      7  O   UNL     1     -12.793  60.230  -0.194  1.00  0.00    -0.550 OA
ENDBRANCH   4   5
ENDBRANCH   3   4
ENDBRANCH   2   3
ENDBRANCH   1   2
BRANCH   1   8
ATOM      8  C   UNL     1     -18.653  63.217  -0.154  1.00  0.00     0.000 C 
BRANCH   8   9
ATOM      9  C   UNL     1     -19.736  63.152  -1.245  1.00  0.00     0.006 C 
BRANCH   9  10
ATOM     10  C   UNL     1     -20.412  61.776  -1.306  1.00  0.00     0.053 C 
BRANCH  10  11
ATOM     11  C   UNL     1     -20.240  61.130  -2.647  1.00  0.00     0.041 C 
ATOM     12  O   UNL     1     -19.235  61.400  -3.357  1.00  0.00    -0.550 OA
ATOM     13  O   UNL     1     -21.175  60.208  -3.101  1.00  0.00    -0.550 OA
ENDBRANCH  10  11
ENDBRANCH   9  10
ENDBRANCH   8   9
ENDBRANCH   1   8
TORSDOF 8
ENDMDL
MODEL 4
REMARK VINA RESULT:     2.305      1.998      6.075
REMARK INTER + INTRA:           3.626
REMARK INTER:                   3.634
REMARK INTRA:                  -0.007
REMARK UNBOUND:                 0.244
REMARK SMILES O=C([O-])CCCCCCCC(=O)[O-]
REMARK SMILES IDX 7 1 6 2 5 3 4 4 2 5 1 6 3 7 8 8 9 9 10 10 11 11 12 12 13 13
REMARK H PARENT
REMARK Flexibility Score: inf
ROOT
ATOM      1  C   UNL     1     -17.246  63.144  -0.734  1.00  0.00     0.000 C 
ENDROOT
BRANCH   1   2
ATOM      2  C   UNL     1     -18.681  63.253  -0.179  1.00  0.00     0.000 C 
BRANCH   2   3
ATOM      3  C   UNL     1     -19.802  63.146  -1.233  1.00  0.00     0.006 C 
BRANCH   3   4
ATOM      4  C   UNL     1     -20.472  61.765  -1.308  1.00  0.00     0.053 C 
BRANCH   4   5
ATOM      5  C   UNL     1     -20.268  61.115  -2.642  1.00  0.00     0.041 C 
ATOM      6  O   UNL     1     -19.249  61.388  -3.329  1.00  0.00    -0.550 OA
ATOM      7  O   UNL     1     -21.186  60.184  -3.111  1.00  0.00    -0.550 OA
ENDBRANCH   4   5
ENDBRANCH   3   4
ENDBRANCH   2   3
ENDBRANCH   1   2
BRANCH   1   8
ATOM      8  C   UNL     1     -16.930  61.834  -1.477  1.00  0.00     0.000 C 
BRANCH   8   9
ATOM      9  C   UNL     1     -15.514  61.817  -2.078  1.00  0.00     0.006 C 
BRANCH   9  10
ATOM     10  C   UNL     1     -14.773  60.508  -1.772  1.00  0.00     0.053 C 
BRANCH  10  11
ATOM     11  C   UNL     1     -13.351  60.754  -1.369  1.00  0.00     0.041 C 
ATOM     12  O   UNL     1     -12.873  60.187  -0.351  1.00  0.00    -0.550 OA
ATOM     13  O   UNL     1     -12.545  61.588  -2.134  1.00  0.00    -0.550 OA
ENDBRANCH  10  11
ENDBRANCH   9  10
ENDBRANCH   8   9
ENDBRANCH   1   8
TORSDOF 8
ENDMDL
