MODEL 1
REMARK VINA RESULT:    -4.666      0.000      0.000
REMARK INTER + INTRA:          -5.075
REMARK INTER:                  -5.075
REMARK INTRA:                   0.000
REMARK UNBOUND:                 0.000
REMARK SMILES Cc1cc(O)c2c(c1)C(=O)c1cc(O)cc(O)c1C2=O
REMARK SMILES IDX 1 1 2 2 8 3 7 4 6 5 4 6 3 7 19 8 20 9 18 10 11 11 9 12 10 13
REMARK SMILES IDX 12 14 13 15 15 16 16 17 5 18 17 20 14 22
REMARK H PARENT 5 19 17 21 14 23
REMARK Flexibility Score: inf
ROOT
ATOM      1  C   UNL     1      25.986  48.896  85.231  1.00  0.00     0.044 C 
ATOM      2  C   UNL     1      24.581  48.812  85.755  1.00  0.00    -0.047 A 
ATOM      3  C   UNL     1      23.992  49.921  86.370  1.00  0.00     0.016 A 
ATOM      4  C   UNL     1      22.694  49.840  86.903  1.00  0.00     0.038 A 
ATOM      5  C   UNL     1      21.985  48.619  86.843  1.00  0.00     0.076 A 
ATOM      6  C   UNL     1      22.569  47.511  86.178  1.00  0.00     0.127 A 
ATOM      7  C   UNL     1      23.870  47.610  85.673  1.00  0.00     0.050 A 
ATOM      8  C   UNL     1      20.678  48.532  87.547  1.00  0.00     0.201 C 
ATOM      9  O   UNL     1      20.292  47.429  88.018  1.00  0.00    -0.288 OA
ATOM     10  C   UNL     1      19.923  49.772  87.857  1.00  0.00     0.076 A 
ATOM     11  C   UNL     1      20.636  50.991  87.916  1.00  0.00     0.041 A 
ATOM     12  C   UNL     1      22.066  51.029  87.524  1.00  0.00     0.194 C 
ATOM     13  O   UNL     1      22.739  52.082  87.697  1.00  0.00    -0.289 OA
ATOM     14  C   UNL     1      19.986  52.162  88.341  1.00  0.00     0.059 A 
ATOM     15  C   UNL     1      18.633  52.135  88.691  1.00  0.00     0.120 A 
ATOM     16  C   UNL     1      17.916  50.943  88.596  1.00  0.00     0.093 A 
ATOM     17  C   UNL     1      18.535  49.769  88.156  1.00  0.00     0.131 A 
ENDROOT
BRANCH   6  18
ATOM     18  O   UNL     1      21.888  46.310  85.968  1.00  0.00    -0.507 OA
ATOM     19  H   UNL     1      20.945  46.139  86.289  1.00  0.00     0.293 HD
ENDBRANCH   6  18
BRANCH  17  20
ATOM     20  O   UNL     1      17.732  48.636  88.000  1.00  0.00    -0.507 OA
ATOM     21  H   UNL     1      17.746  48.051  87.176  1.00  0.00     0.293 HD
ENDBRANCH  17  20
BRANCH  15  22
ATOM     22  O   UNL     1      17.989  53.291  89.125  1.00  0.00    -0.508 OA
ATOM     23  H   UNL     1      18.319  54.213  88.864  1.00  0.00     0.293 HD
ENDBRANCH  15  22
TORSDOF 3
ENDMDL
MODEL 2
REMARK VINA RESULT:    -4.286      2.721      6.138
REMARK INTER + INTRA:          -4.662
REMARK INTER:                  -4.662
REMARK INTRA:                   0.000
REMARK UNBOUND:                 0.000
REMARK SMILES Cc1cc(O)c2c(c1)C(=O)c1cc(O)cc(O)c1C2=O
REMARK SMILES IDX 1 1 2 2 8 3 7 4 6 5 4 6 3 7 19 8 20 9 18 10 11 11 9 12 10 13
REMARK SMILES IDX 12 14 13 15 15 16 16 17 5 18 17 20 14 22
REMARK H PARENT 5 19 17 21 14 23
REMARK Flexibility Score: inf
ROOT
ATOM      1  C   UNL     1      17.352  52.292  87.779  1.00  0.00     0.044 C 
ATOM      2  C   UNL     1      18.375  51.198  87.890  1.00  0.00    -0.047 A 
ATOM      3  C   UNL     1      17.988  49.911  88.277  1.00  0.00     0.016 A 
ATOM      4  C   UNL     1      18.944  48.890  88.426  1.00  0.00     0.038 A 
ATOM      5  C   UNL     1      20.312  49.171  88.209  1.00  0.00     0.076 A 
ATOM      6  C   UNL     1      20.692  50.467  87.773  1.00  0.00     0.127 A 
ATOM      7  C   UNL     1      19.726  51.470  87.651  1.00  0.00     0.050 A 
ATOM      8  C   UNL     1      21.303  48.109  88.520  1.00  0.00     0.201 C 
ATOM      9  O   UNL     1      22.463  48.424  88.900  1.00  0.00    -0.288 OA
ATOM     10  C   UNL     1      20.873  46.687  88.564  1.00  0.00     0.076 A 
ATOM     11  C   UNL     1      19.503  46.411  88.781  1.00  0.00     0.041 A 
ATOM     12  C   UNL     1      18.522  47.521  88.805  1.00  0.00     0.194 C 
ATOM     13  O   UNL     1      17.322  47.296  89.125  1.00  0.00    -0.289 OA
ATOM     14  C   UNL     1      19.079  45.085  88.966  1.00  0.00     0.059 A 
ATOM     15  C   UNL     1      19.998  44.033  88.923  1.00  0.00     0.120 A 
ATOM     16  C   UNL     1      21.344  44.298  88.669  1.00  0.00     0.093 A 
ATOM     17  C   UNL     1      21.788  45.607  88.461  1.00  0.00     0.131 A 
ENDROOT
BRANCH   6  18
ATOM     18  O   UNL     1      22.004  50.790  87.420  1.00  0.00    -0.507 OA
ATOM     19  H   UNL     1      22.285  51.704  87.090  1.00  0.00     0.293 HD
ENDBRANCH   6  18
BRANCH  17  20
ATOM     20  O   UNL     1      23.132  45.785  88.123  1.00  0.00    -0.507 OA
ATOM     21  H   UNL     1      23.532  45.485  87.244  1.00  0.00     0.293 HD
ENDBRANCH  17  20
BRANCH  15  22
ATOM     22  O   UNL     1      19.583  42.718  89.119  1.00  0.00    -0.508 OA
ATOM     23  H   UNL     1      19.137  42.425  89.981  1.00  0.00     0.293 HD
ENDBRANCH  15  22
TORSDOF 3
ENDMDL
MODEL 3
REMARK VINA RESULT:    -4.127      1.689      6.336
REMARK INTER + INTRA:          -4.489
REMARK INTER:                  -4.489
REMARK INTRA:                   0.000
REMARK UNBOUND:                 0.000
REMARK SMILES Cc1cc(O)c2c(c1)C(=O)c1cc(O)cc(O)c1C2=O
REMARK SMILES IDX 1 1 2 2 8 3 7 4 6 5 4 6 3 7 19 8 20 9 18 10 11 11 9 12 10 13
REMARK SMILES IDX 12 14 13 15 15 16 16 17 5 18 17 20 14 22
REMARK H PARENT 5 19 17 21 14 23
REMARK Flexibility Score: inf
ROOT
ATOM      1  C   UNL     1      15.875  52.018  89.124  1.00  0.00     0.044 C 
ATOM      2  C   UNL     1      17.299  51.604  88.895  1.00  0.00    -0.047 A 
ATOM      3  C   UNL     1      17.620  50.254  88.720  1.00  0.00     0.016 A 
ATOM      4  C   UNL     1      18.956  49.852  88.548  1.00  0.00     0.038 A 
ATOM      5  C   UNL     1      19.990  50.816  88.578  1.00  0.00     0.076 A 
ATOM      6  C   UNL     1      19.654  52.187  88.710  1.00  0.00     0.127 A 
ATOM      7  C   UNL     1      18.320  52.561  88.900  1.00  0.00     0.050 A 
ATOM      8  C   UNL     1      21.396  50.336  88.541  1.00  0.00     0.201 C 
ATOM      9  O   UNL     1      22.301  51.000  89.114  1.00  0.00    -0.288 OA
ATOM     10  C   UNL     1      21.703  48.988  87.996  1.00  0.00     0.076 A 
ATOM     11  C   UNL     1      20.666  48.028  87.968  1.00  0.00     0.041 A 
ATOM     12  C   UNL     1      19.284  48.423  88.332  1.00  0.00     0.194 C 
ATOM     13  O   UNL     1      18.383  47.546  88.433  1.00  0.00    -0.289 OA
ATOM     14  C   UNL     1      20.948  46.705  87.590  1.00  0.00     0.059 A 
ATOM     15  C   UNL     1      22.245  46.333  87.226  1.00  0.00     0.120 A 
ATOM     16  C   UNL     1      23.263  47.287  87.214  1.00  0.00     0.093 A 
ATOM     17  C   UNL     1      23.003  48.615  87.566  1.00  0.00     0.131 A 
ENDROOT
BRANCH   6  18
ATOM     18  O   UNL     1      20.603  53.209  88.626  1.00  0.00    -0.507 OA
ATOM     19  H   UNL     1      21.048  53.489  87.763  1.00  0.00     0.293 HD
ENDBRANCH   6  18
BRANCH  17  20
ATOM     20  O   UNL     1      24.050  49.531  87.443  1.00  0.00    -0.507 OA
ATOM     21  H   UNL     1      24.505  49.969  88.232  1.00  0.00     0.293 HD
ENDBRANCH  17  20
BRANCH  15  22
ATOM     22  O   UNL     1      22.532  45.019  86.863  1.00  0.00    -0.508 OA
ATOM     23  H   UNL     1      22.737  44.309  87.557  1.00  0.00     0.293 HD
ENDBRANCH  15  22
TORSDOF 3
ENDMDL
MODEL 4
REMARK VINA RESULT:    -4.038      2.105      6.100
REMARK INTER + INTRA:          -4.392
REMARK INTER:                  -4.392
REMARK INTRA:                   0.000
REMARK UNBOUND:                 0.000
REMARK SMILES Cc1cc(O)c2c(c1)C(=O)c1cc(O)cc(O)c1C2=O
REMARK SMILES IDX 1 1 2 2 8 3 7 4 6 5 4 6 3 7 19 8 20 9 18 10 11 11 9 12 10 13
REMARK SMILES IDX 12 14 13 15 15 16 16 17 5 18 17 20 14 22
REMARK H PARENT 5 19 17 21 14 23
REMARK Flexibility Score: inf
ROOT
ATOM      1  C   UNL     1      16.384  46.067  89.121  1.00  0.00     0.044 C 
ATOM      2  C   UNL     1      17.486  47.055  88.869  1.00  0.00    -0.047 A 
ATOM      3  C   UNL     1      18.775  46.607  88.559  1.00  0.00     0.016 A 
ATOM      4  C   UNL     1      19.823  47.523  88.364  1.00  0.00     0.038 A 
ATOM      5  C   UNL     1      19.584  48.908  88.509  1.00  0.00     0.076 A 
ATOM      6  C   UNL     1      18.265  49.358  88.778  1.00  0.00     0.127 A 
ATOM      7  C   UNL     1      17.243  48.427  88.988  1.00  0.00     0.050 A 
ATOM      8  C   UNL     1      20.746  49.831  88.441  1.00  0.00     0.201 C 
ATOM      9  O   UNL     1      20.729  50.910  89.092  1.00  0.00    -0.288 OA
ATOM     10  C   UNL     1      21.995  49.398  87.762  1.00  0.00     0.076 A 
ATOM     11  C   UNL     1      22.230  48.011  87.620  1.00  0.00     0.041 A 
ATOM     12  C   UNL     1      21.178  47.041  88.004  1.00  0.00     0.194 C 
ATOM     13  O   UNL     1      21.429  45.804  88.000  1.00  0.00    -0.289 OA
ATOM     14  C   UNL     1      23.459  47.560  87.109  1.00  0.00     0.059 A 
ATOM     15  C   UNL     1      24.446  48.472  86.726  1.00  0.00     0.120 A 
ATOM     16  C   UNL     1      24.202  49.842  86.827  1.00  0.00     0.093 A 
ATOM     17  C   UNL     1      22.980  50.317  87.313  1.00  0.00     0.131 A 
ENDROOT
BRANCH   6  18
ATOM     18  O   UNL     1      17.921  50.711  88.814  1.00  0.00    -0.507 OA
ATOM     19  H   UNL     1      17.962  51.276  89.651  1.00  0.00     0.293 HD
ENDBRANCH   6  18
BRANCH  17  20
ATOM     20  O   UNL     1      22.774  51.699  87.300  1.00  0.00    -0.507 OA
ATOM     21  H   UNL     1      21.870  52.130  87.441  1.00  0.00     0.293 HD
ENDBRANCH  17  20
BRANCH  15  22
ATOM     22  O   UNL     1      25.670  48.028  86.231  1.00  0.00    -0.508 OA
ATOM     23  H   UNL     1      26.033  48.354  85.343  1.00  0.00     0.293 HD
ENDBRANCH  15  22
TORSDOF 3
ENDMDL
MODEL 5
REMARK VINA RESULT:    -4.013      2.793      4.816
REMARK INTER + INTRA:          -4.364
REMARK INTER:                  -4.364
REMARK INTRA:                   0.000
REMARK UNBOUND:                 0.000
REMARK SMILES Cc1cc(O)c2c(c1)C(=O)c1cc(O)cc(O)c1C2=O
REMARK SMILES IDX 1 1 2 2 8 3 7 4 6 5 4 6 3 7 19 8 20 9 18 10 11 11 9 12 10 13
REMARK SMILES IDX 12 14 13 15 15 16 16 17 5 18 17 20 14 22
REMARK H PARENT 5 19 17 21 14 23
REMARK Flexibility Score: inf
ROOT
ATOM      1  C   UNL     1      28.007  54.002  86.520  1.00  0.00     0.044 C 
ATOM      2  C   UNL     1      27.237  52.749  86.219  1.00  0.00    -0.047 A 
ATOM      3  C   UNL     1      26.020  52.499  86.861  1.00  0.00     0.016 A 
ATOM      4  C   UNL     1      25.312  51.309  86.618  1.00  0.00     0.038 A 
ATOM      5  C   UNL     1      25.847  50.340  85.738  1.00  0.00     0.076 A 
ATOM      6  C   UNL     1      27.058  50.620  85.055  1.00  0.00     0.127 A 
ATOM      7  C   UNL     1      27.754  51.802  85.328  1.00  0.00     0.050 A 
ATOM      8  C   UNL     1      25.145  49.035  85.622  1.00  0.00     0.201 C 
ATOM      9  O   UNL     1      25.801  47.992  85.359  1.00  0.00    -0.288 OA
ATOM     10  C   UNL     1      23.712  48.931  86.000  1.00  0.00     0.076 A 
ATOM     11  C   UNL     1      23.182  49.902  86.881  1.00  0.00     0.041 A 
ATOM     12  C   UNL     1      24.008  51.067  87.279  1.00  0.00     0.194 C 
ATOM     13  O   UNL     1      23.589  51.865  88.162  1.00  0.00    -0.289 OA
ATOM     14  C   UNL     1      21.873  49.761  87.371  1.00  0.00     0.059 A 
ATOM     15  C   UNL     1      21.083  48.675  86.982  1.00  0.00     0.120 A 
ATOM     16  C   UNL     1      21.589  47.737  86.081  1.00  0.00     0.093 A 
ATOM     17  C   UNL     1      22.881  47.867  85.564  1.00  0.00     0.131 A 
ENDROOT
BRANCH   6  18
ATOM     18  O   UNL     1      27.589  49.772  84.080  1.00  0.00    -0.507 OA
ATOM     19  H   UNL     1      27.552  48.764  84.136  1.00  0.00     0.293 HD
ENDBRANCH   6  18
BRANCH  17  20
ATOM     20  O   UNL     1      23.285  46.940  84.599  1.00  0.00    -0.507 OA
ATOM     21  H   UNL     1      23.864  47.177  83.805  1.00  0.00     0.293 HD
ENDBRANCH  17  20
BRANCH  15  22
ATOM     22  O   UNL     1      19.789  48.525  87.475  1.00  0.00    -0.508 OA
ATOM     23  H   UNL     1      19.612  48.370  88.460  1.00  0.00     0.293 HD
ENDBRANCH  15  22
TORSDOF 3
ENDMDL
MODEL 6
REMARK VINA RESULT:    -3.885      1.489      5.443
REMARK INTER + INTRA:          -4.225
REMARK INTER:                  -4.225
REMARK INTRA:                   0.000
REMARK UNBOUND:                 0.000
REMARK SMILES Cc1cc(O)c2c(c1)C(=O)c1cc(O)cc(O)c1C2=O
REMARK SMILES IDX 1 1 2 2 8 3 7 4 6 5 4 6 3 7 19 8 20 9 18 10 11 11 9 12 10 13
REMARK SMILES IDX 12 14 13 15 15 16 16 17 5 18 17 20 14 22
REMARK H PARENT 5 19 17 21 14 23
REMARK Flexibility Score: inf
ROOT
ATOM      1  C   UNL     1      17.105  52.160  89.061  1.00  0.00     0.044 C 
ATOM      2  C   UNL     1      18.211  51.228  88.657  1.00  0.00    -0.047 A 
ATOM      3  C   UNL     1      19.481  51.731  88.358  1.00  0.00     0.016 A 
ATOM      4  C   UNL     1      20.511  50.873  87.937  1.00  0.00     0.038 A 
ATOM      5  C   UNL     1      20.257  49.491  87.786  1.00  0.00     0.076 A 
ATOM      6  C   UNL     1      18.980  48.980  88.135  1.00  0.00     0.127 A 
ATOM      7  C   UNL     1      17.966  49.856  88.532  1.00  0.00     0.050 A 
ATOM      8  C   UNL     1      21.326  48.641  87.199  1.00  0.00     0.201 C 
ATOM      9  O   UNL     1      21.017  47.619  86.530  1.00  0.00    -0.288 OA
ATOM     10  C   UNL     1      22.739  49.099  87.240  1.00  0.00     0.076 A 
ATOM     11  C   UNL     1      22.988  50.482  87.390  1.00  0.00     0.041 A 
ATOM     12  C   UNL     1      21.863  51.411  87.654  1.00  0.00     0.194 C 
ATOM     13  O   UNL     1      22.062  52.657  87.661  1.00  0.00    -0.289 OA
ATOM     14  C   UNL     1      24.302  50.970  87.295  1.00  0.00     0.059 A 
ATOM     15  C   UNL     1      25.369  50.095  87.068  1.00  0.00     0.120 A 
ATOM     16  C   UNL     1      25.131  48.725  86.959  1.00  0.00     0.093 A 
ATOM     17  C   UNL     1      23.835  48.213  87.070  1.00  0.00     0.131 A 
ENDROOT
BRANCH   6  18
ATOM     18  O   UNL     1      18.686  47.615  88.132  1.00  0.00    -0.507 OA
ATOM     19  H   UNL     1      17.876  47.218  87.675  1.00  0.00     0.293 HD
ENDBRANCH   6  18
BRANCH  17  20
ATOM     20  O   UNL     1      23.686  46.824  87.041  1.00  0.00    -0.507 OA
ATOM     21  H   UNL     1      23.645  46.249  87.872  1.00  0.00     0.293 HD
ENDBRANCH  17  20
BRANCH  15  22
ATOM     22  O   UNL     1      26.671  50.577  86.961  1.00  0.00    -0.508 OA
ATOM     23  H   UNL     1      27.231  50.781  87.781  1.00  0.00     0.293 HD
ENDBRANCH  15  22
TORSDOF 3
ENDMDL
MODEL 7
REMARK VINA RESULT:    -3.796      1.831      4.169
REMARK INTER + INTRA:          -4.129
REMARK INTER:                  -4.129
REMARK INTRA:                   0.000
REMARK UNBOUND:                 0.000
REMARK SMILES Cc1cc(O)c2c(c1)C(=O)c1cc(O)cc(O)c1C2=O
REMARK SMILES IDX 1 1 2 2 8 3 7 4 6 5 4 6 3 7 19 8 20 9 18 10 11 11 9 12 10 13
REMARK SMILES IDX 12 14 13 15 15 16 16 17 5 18 17 20 14 22
REMARK H PARENT 5 19 17 21 14 23
REMARK Flexibility Score: inf
ROOT
ATOM      1  C   UNL     1      27.999  47.550  84.885  1.00  0.00     0.044 C 
ATOM      2  C   UNL     1      27.050  48.496  85.563  1.00  0.00    -0.047 A 
ATOM      3  C   UNL     1      25.671  48.369  85.368  1.00  0.00     0.016 A 
ATOM      4  C   UNL     1      24.777  49.275  85.963  1.00  0.00     0.038 A 
ATOM      5  C   UNL     1      25.274  50.343  86.744  1.00  0.00     0.076 A 
ATOM      6  C   UNL     1      26.670  50.440  86.975  1.00  0.00     0.127 A 
ATOM      7  C   UNL     1      27.541  49.538  86.356  1.00  0.00     0.050 A 
ATOM      8  C   UNL     1      24.310  51.363  87.232  1.00  0.00     0.201 C 
ATOM      9  O   UNL     1      24.688  52.553  87.404  1.00  0.00    -0.288 OA
ATOM     10  C   UNL     1      22.867  51.025  87.336  1.00  0.00     0.076 A 
ATOM     11  C   UNL     1      22.373  49.957  86.553  1.00  0.00     0.041 A 
ATOM     12  C   UNL     1      23.315  49.114  85.777  1.00  0.00     0.194 C 
ATOM     13  O   UNL     1      22.872  48.244  84.979  1.00  0.00    -0.289 OA
ATOM     14  C   UNL     1      20.994  49.695  86.517  1.00  0.00     0.059 A 
ATOM     15  C   UNL     1      20.104  50.473  87.264  1.00  0.00     0.120 A 
ATOM     16  C   UNL     1      20.591  51.503  88.069  1.00  0.00     0.093 A 
ATOM     17  C   UNL     1      21.962  51.770  88.137  1.00  0.00     0.131 A 
ENDROOT
BRANCH   6  18
ATOM     18  O   UNL     1      27.230  51.390  87.833  1.00  0.00    -0.507 OA
ATOM     19  H   UNL     1      27.814  51.154  88.624  1.00  0.00     0.293 HD
ENDBRANCH   6  18
BRANCH  17  20
ATOM     20  O   UNL     1      22.382  52.756  89.034  1.00  0.00    -0.507 OA
ATOM     21  H   UNL     1      22.707  53.670  88.747  1.00  0.00     0.293 HD
ENDBRANCH  17  20
BRANCH  15  22
ATOM     22  O   UNL     1      18.735  50.224  87.221  1.00  0.00    -0.508 OA
ATOM     23  H   UNL     1      18.334  49.390  87.635  1.00  0.00     0.293 HD
ENDBRANCH  15  22
TORSDOF 3
ENDMDL
