MODEL 1
REMARK VINA RESULT:    -5.557      0.000      0.000
REMARK INTER + INTRA:          -6.769
REMARK INTER:                  -6.531
REMARK INTRA:                  -0.238
REMARK UNBOUND:                -0.238
REMARK SMILES O=c1c(O)c(-c2ccc(O)cc2)oc2cc(O)cc(O)c12
REMARK SMILES IDX 5 1 3 2 2 3 1 4 21 5 19 6 18 7 16 8 15 9 14 10 13 11 6 12
REMARK SMILES IDX 7 13 8 14 9 15 12 16 11 17 10 18 4 20 20 22 17 24
REMARK H PARENT 10 19 4 21 20 23 17 25
REMARK Flexibility Score: inf
ROOT
ATOM      1  C   UNL     1       3.339   7.076  -3.135  1.00  0.00     0.180 A 
ATOM      2  C   UNL     1       4.557   6.899  -2.457  1.00  0.00     0.208 A 
ATOM      3  C   UNL     1       4.678   7.373  -1.141  1.00  0.00     0.238 A 
ATOM      4  O   UNL     1       5.788   7.260  -0.558  1.00  0.00    -0.285 OA
ATOM      5  C   UNL     1       3.576   8.004  -0.515  1.00  0.00     0.111 A 
ATOM      6  C   UNL     1       3.575   8.487   0.828  1.00  0.00     0.134 A 
ATOM      7  C   UNL     1       2.473   9.211   1.301  1.00  0.00     0.093 A 
ATOM      8  C   UNL     1       1.348   9.413   0.502  1.00  0.00     0.123 A 
ATOM      9  C   UNL     1       1.315   8.894  -0.792  1.00  0.00     0.094 A 
ATOM     10  C   UNL     1       2.413   8.199  -1.305  1.00  0.00     0.146 A 
ATOM     11  O   UNL     1       2.346   7.730  -2.544  1.00  0.00    -0.452 OA
ENDROOT
BRANCH   1  12
ATOM     12  C   UNL     1       3.126   6.582  -4.516  1.00  0.00     0.021 A 
ATOM     13  C   UNL     1       2.417   5.386  -4.721  1.00  0.00     0.016 A 
ATOM     14  C   UNL     1       2.224   4.890  -6.013  1.00  0.00     0.047 A 
ATOM     15  C   UNL     1       2.749   5.572  -7.115  1.00  0.00     0.115 A 
ATOM     16  C   UNL     1       3.669   7.253  -5.627  1.00  0.00     0.016 A 
ATOM     17  C   UNL     1       3.476   6.753  -6.918  1.00  0.00     0.047 A 
BRANCH  15  18
ATOM     18  O   UNL     1       2.548   5.066  -8.397  1.00  0.00    -0.508 OA
ATOM     19  H   UNL     1       1.753   4.476  -8.615  1.00  0.00     0.293 HD
ENDBRANCH  15  18
ENDBRANCH   1  12
BRANCH   2  20
ATOM     20  O   UNL     1       5.638   6.293  -3.101  1.00  0.00    -0.502 OA
ATOM     21  H   UNL     1       6.264   6.804  -3.713  1.00  0.00     0.293 HD
ENDBRANCH   2  20
BRANCH   6  22
ATOM     22  O   UNL     1       4.609   8.260   1.741  1.00  0.00    -0.507 OA
ATOM     23  H   UNL     1       5.398   7.652   1.576  1.00  0.00     0.293 HD
ENDBRANCH   6  22
BRANCH   8  24
ATOM     24  O   UNL     1       0.264  10.125   1.010  1.00  0.00    -0.508 OA
ATOM     25  H   UNL     1       0.111  10.216   2.008  1.00  0.00     0.293 HD
ENDBRANCH   8  24
TORSDOF 5
ENDMDL
MODEL 2
REMARK VINA RESULT:    -5.485     18.116     19.395
REMARK INTER + INTRA:          -6.685
REMARK INTER:                  -6.457
REMARK INTRA:                  -0.228
REMARK UNBOUND:                -0.238
REMARK SMILES O=c1c(O)c(-c2ccc(O)cc2)oc2cc(O)cc(O)c12
REMARK SMILES IDX 5 1 3 2 2 3 1 4 21 5 19 6 18 7 16 8 15 9 14 10 13 11 6 12
REMARK SMILES IDX 7 13 8 14 9 15 12 16 11 17 10 18 4 20 20 22 17 24
REMARK H PARENT 10 19 4 21 20 23 17 25
REMARK Flexibility Score: inf
ROOT
ATOM      1  C   UNL     1      -2.242  -6.945   8.678  1.00  0.00     0.180 A 
ATOM      2  C   UNL     1      -1.830  -8.053   7.918  1.00  0.00     0.208 A 
ATOM      3  C   UNL     1      -0.472  -8.180   7.582  1.00  0.00     0.238 A 
ATOM      4  O   UNL     1      -0.118  -9.145   6.855  1.00  0.00    -0.285 OA
ATOM      5  C   UNL     1       0.457  -7.208   8.023  1.00  0.00     0.111 A 
ATOM      6  C   UNL     1       1.861  -7.258   7.775  1.00  0.00     0.134 A 
ATOM      7  C   UNL     1       2.668  -6.176   8.147  1.00  0.00     0.093 A 
ATOM      8  C   UNL     1       2.133  -5.075   8.815  1.00  0.00     0.123 A 
ATOM      9  C   UNL     1       0.770  -5.042   9.115  1.00  0.00     0.094 A 
ATOM     10  C   UNL     1      -0.066  -6.091   8.725  1.00  0.00     0.146 A 
ATOM     11  O   UNL     1      -1.358  -6.016   9.021  1.00  0.00    -0.452 OA
ENDROOT
BRANCH   1  12
ATOM     12  C   UNL     1      -3.652  -6.754   9.092  1.00  0.00     0.021 A 
ATOM     13  C   UNL     1      -4.592  -6.289   8.158  1.00  0.00     0.016 A 
ATOM     14  C   UNL     1      -5.922  -6.081   8.534  1.00  0.00     0.047 A 
ATOM     15  C   UNL     1      -6.326  -6.319   9.850  1.00  0.00     0.115 A 
ATOM     16  C   UNL     1      -4.060  -6.973  10.421  1.00  0.00     0.016 A 
ATOM     17  C   UNL     1      -5.391  -6.762  10.795  1.00  0.00     0.047 A 
BRANCH  15  18
ATOM     18  O   UNL     1      -7.655  -6.108  10.211  1.00  0.00    -0.508 OA
ATOM     19  H   UNL     1      -7.949  -5.256  10.675  1.00  0.00     0.293 HD
ENDBRANCH  15  18
ENDBRANCH   1  12
BRANCH   2  20
ATOM     20  O   UNL     1      -2.767  -8.989   7.474  1.00  0.00    -0.502 OA
ATOM     21  H   UNL     1      -2.853  -9.255   6.500  1.00  0.00     0.293 HD
ENDBRANCH   2  20
BRANCH   6  22
ATOM     22  O   UNL     1       2.514  -8.351   7.197  1.00  0.00    -0.507 OA
ATOM     23  H   UNL     1       3.497  -8.380   6.973  1.00  0.00     0.293 HD
ENDBRANCH   6  22
BRANCH   8  24
ATOM     24  O   UNL     1       2.967  -4.022   9.183  1.00  0.00    -0.508 OA
ATOM     25  H   UNL     1       3.926  -3.968   8.858  1.00  0.00     0.293 HD
ENDBRANCH   8  24
TORSDOF 5
ENDMDL
MODEL 3
REMARK VINA RESULT:    -5.470      1.787      7.118
REMARK INTER + INTRA:          -6.667
REMARK INTER:                  -6.778
REMARK INTRA:                   0.111
REMARK UNBOUND:                -0.238
REMARK SMILES O=c1c(O)c(-c2ccc(O)cc2)oc2cc(O)cc(O)c12
REMARK SMILES IDX 5 1 3 2 2 3 1 4 21 5 19 6 18 7 16 8 15 9 14 10 13 11 6 12
REMARK SMILES IDX 7 13 8 14 9 15 12 16 11 17 10 18 4 20 20 22 17 24
REMARK H PARENT 10 19 4 21 20 23 17 25
REMARK Flexibility Score: inf
ROOT
ATOM      1  C   UNL     1       2.383   8.003  -2.325  1.00  0.00     0.180 A 
ATOM      2  C   UNL     1       1.492   8.651  -3.197  1.00  0.00     0.208 A 
ATOM      3  C   UNL     1       1.417   8.226  -4.533  1.00  0.00     0.238 A 
ATOM      4  O   UNL     1       0.657   8.845  -5.322  1.00  0.00    -0.285 OA
ATOM      5  C   UNL     1       2.221   7.148  -4.975  1.00  0.00     0.111 A 
ATOM      6  C   UNL     1       2.198   6.609  -6.296  1.00  0.00     0.134 A 
ATOM      7  C   UNL     1       3.130   5.628  -6.659  1.00  0.00     0.093 A 
ATOM      8  C   UNL     1       4.040   5.123  -5.732  1.00  0.00     0.123 A 
ATOM      9  C   UNL     1       4.033   5.601  -4.421  1.00  0.00     0.094 A 
ATOM     10  C   UNL     1       3.139   6.605  -4.039  1.00  0.00     0.146 A 
ATOM     11  O   UNL     1       3.171   7.040  -2.786  1.00  0.00    -0.452 OA
ENDROOT
BRANCH   1  12
ATOM     12  C   UNL     1       2.501   8.378  -0.896  1.00  0.00     0.021 A 
ATOM     13  C   UNL     1       3.768   8.406  -0.290  1.00  0.00     0.016 A 
ATOM     14  C   UNL     1       3.899   8.736   1.062  1.00  0.00     0.047 A 
ATOM     15  C   UNL     1       2.768   9.026   1.829  1.00  0.00     0.115 A 
ATOM     16  C   UNL     1       1.363   8.652  -0.114  1.00  0.00     0.016 A 
ATOM     17  C   UNL     1       1.498   8.979   1.238  1.00  0.00     0.047 A 
BRANCH  15  18
ATOM     18  O   UNL     1       2.913   9.353   3.175  1.00  0.00    -0.508 OA
ATOM     19  H   UNL     1       3.821   9.563   3.574  1.00  0.00     0.293 HD
ENDBRANCH  15  18
ENDBRANCH   1  12
BRANCH   2  20
ATOM     20  O   UNL     1       0.723   9.727  -2.745  1.00  0.00    -0.502 OA
ATOM     21  H   UNL     1      -0.275   9.790  -2.909  1.00  0.00     0.293 HD
ENDBRANCH   2  20
BRANCH   6  22
ATOM     22  O   UNL     1       1.268   6.976  -7.274  1.00  0.00    -0.507 OA
ATOM     23  H   UNL     1       1.067   7.927  -7.546  1.00  0.00     0.293 HD
ENDBRANCH   6  22
BRANCH   8  24
ATOM     24  O   UNL     1       4.944   4.137  -6.124  1.00  0.00    -0.508 OA
ATOM     25  H   UNL     1       5.731   3.878  -5.540  1.00  0.00     0.293 HD
ENDBRANCH   8  24
TORSDOF 5
ENDMDL
MODEL 4
REMARK VINA RESULT:    -5.424      1.653      6.467
REMARK INTER + INTRA:          -6.613
REMARK INTER:                  -6.913
REMARK INTRA:                   0.300
REMARK UNBOUND:                -0.238
REMARK SMILES O=c1c(O)c(-c2ccc(O)cc2)oc2cc(O)cc(O)c12
REMARK SMILES IDX 5 1 3 2 2 3 1 4 21 5 19 6 18 7 16 8 15 9 14 10 13 11 6 12
REMARK SMILES IDX 7 13 8 14 9 15 12 16 11 17 10 18 4 20 20 22 17 24
REMARK H PARENT 10 19 4 21 20 23 17 25
REMARK Flexibility Score: inf
ROOT
ATOM      1  C   UNL     1       3.030   7.421  -2.245  1.00  0.00     0.180 A 
ATOM      2  C   UNL     1       4.091   6.623  -2.705  1.00  0.00     0.208 A 
ATOM      3  C   UNL     1       4.075   6.172  -4.035  1.00  0.00     0.238 A 
ATOM      4  O   UNL     1       5.000   5.412  -4.426  1.00  0.00    -0.285 OA
ATOM      5  C   UNL     1       3.009   6.538  -4.891  1.00  0.00     0.111 A 
ATOM      6  C   UNL     1       2.912   6.171  -6.266  1.00  0.00     0.134 A 
ATOM      7  C   UNL     1       1.749   6.479  -6.983  1.00  0.00     0.093 A 
ATOM      8  C   UNL     1       0.709   7.196  -6.394  1.00  0.00     0.123 A 
ATOM      9  C   UNL     1       0.819   7.612  -5.066  1.00  0.00     0.094 A 
ATOM     10  C   UNL     1       1.951   7.288  -4.315  1.00  0.00     0.146 A 
ATOM     11  O   UNL     1       2.012   7.694  -3.053  1.00  0.00    -0.452 OA
ENDROOT
BRANCH   1  12
ATOM     12  C   UNL     1       2.988   7.956  -0.863  1.00  0.00     0.021 A 
ATOM     13  C   UNL     1       1.750   8.277  -0.283  1.00  0.00     0.016 A 
ATOM     14  C   UNL     1       1.689   8.803   1.011  1.00  0.00     0.047 A 
ATOM     15  C   UNL     1       2.863   9.030   1.734  1.00  0.00     0.115 A 
ATOM     16  C   UNL     1       4.168   8.205  -0.138  1.00  0.00     0.016 A 
ATOM     17  C   UNL     1       4.104   8.733   1.155  1.00  0.00     0.047 A 
BRANCH  15  18
ATOM     18  O   UNL     1       2.787   9.555   3.022  1.00  0.00    -0.508 OA
ATOM     19  H   UNL     1       3.070  10.507   3.224  1.00  0.00     0.293 HD
ENDBRANCH  15  18
ENDBRANCH   1  12
BRANCH   2  20
ATOM     20  O   UNL     1       5.122   6.255  -1.837  1.00  0.00    -0.502 OA
ATOM     21  H   UNL     1       5.066   5.438  -1.240  1.00  0.00     0.293 HD
ENDBRANCH   2  20
BRANCH   6  22
ATOM     22  O   UNL     1       3.931   5.533  -6.979  1.00  0.00    -0.507 OA
ATOM     23  H   UNL     1       4.881   5.868  -7.047  1.00  0.00     0.293 HD
ENDBRANCH   6  22
BRANCH   8  24
ATOM     24  O   UNL     1      -0.428   7.498  -7.141  1.00  0.00    -0.508 OA
ATOM     25  H   UNL     1      -0.921   6.786  -7.666  1.00  0.00     0.293 HD
ENDBRANCH   8  24
TORSDOF 5
ENDMDL
MODEL 5
REMARK VINA RESULT:    -5.396     17.659     18.816
REMARK INTER + INTRA:          -6.580
REMARK INTER:                  -6.368
REMARK INTRA:                  -0.211
REMARK UNBOUND:                -0.238
REMARK SMILES O=c1c(O)c(-c2ccc(O)cc2)oc2cc(O)cc(O)c12
REMARK SMILES IDX 5 1 3 2 2 3 1 4 21 5 19 6 18 7 16 8 15 9 14 10 13 11 6 12
REMARK SMILES IDX 7 13 8 14 9 15 12 16 11 17 10 18 4 20 20 22 17 24
REMARK H PARENT 10 19 4 21 20 23 17 25
REMARK Flexibility Score: inf
ROOT
ATOM      1  C   UNL     1      -1.364  -6.848   8.211  1.00  0.00     0.180 A 
ATOM      2  C   UNL     1      -0.705  -6.296   9.323  1.00  0.00     0.208 A 
ATOM      3  C   UNL     1       0.678  -6.067   9.250  1.00  0.00     0.238 A 
ATOM      4  O   UNL     1       1.271  -5.623  10.268  1.00  0.00    -0.285 OA
ATOM      5  C   UNL     1       1.382  -6.377   8.062  1.00  0.00     0.111 A 
ATOM      6  C   UNL     1       2.777  -6.149   7.863  1.00  0.00     0.134 A 
ATOM      7  C   UNL     1       3.393  -6.614   6.695  1.00  0.00     0.093 A 
ATOM      8  C   UNL     1       2.655  -7.241   5.692  1.00  0.00     0.123 A 
ATOM      9  C   UNL     1       1.280  -7.416   5.850  1.00  0.00     0.094 A 
ATOM     10  C   UNL     1       0.643  -6.995   7.020  1.00  0.00     0.146 A 
ATOM     11  O   UNL     1      -0.665  -7.189   7.135  1.00  0.00    -0.452 OA
ENDROOT
BRANCH   1  12
ATOM     12  C   UNL     1      -2.824  -7.096   8.203  1.00  0.00     0.021 A 
ATOM     13  C   UNL     1      -3.302  -8.417   8.176  1.00  0.00     0.016 A 
ATOM     14  C   UNL     1      -4.676  -8.673   8.145  1.00  0.00     0.047 A 
ATOM     15  C   UNL     1      -5.589  -7.614   8.125  1.00  0.00     0.115 A 
ATOM     16  C   UNL     1      -3.747  -6.035   8.163  1.00  0.00     0.016 A 
ATOM     17  C   UNL     1      -5.121  -6.294   8.130  1.00  0.00     0.047 A 
BRANCH  15  18
ATOM     18  O   UNL     1      -6.955  -7.884   8.095  1.00  0.00    -0.508 OA
ATOM     19  H   UNL     1      -7.370  -8.435   7.352  1.00  0.00     0.293 HD
ENDBRANCH  15  18
ENDBRANCH   1  12
BRANCH   2  20
ATOM     20  O   UNL     1      -1.416  -6.018  10.494  1.00  0.00    -0.502 OA
ATOM     21  H   UNL     1      -1.695  -6.741  11.147  1.00  0.00     0.293 HD
ENDBRANCH   2  20
BRANCH   6  22
ATOM     22  O   UNL     1       3.590  -5.450   8.761  1.00  0.00    -0.507 OA
ATOM     23  H   UNL     1       3.946  -4.519   8.608  1.00  0.00     0.293 HD
ENDBRANCH   6  22
BRANCH   8  24
ATOM     24  O   UNL     1       3.299  -7.678   4.536  1.00  0.00    -0.508 OA
ATOM     25  H   UNL     1       2.813  -7.739   3.650  1.00  0.00     0.293 HD
ENDBRANCH   8  24
TORSDOF 5
ENDMDL
MODEL 6
REMARK VINA RESULT:    -5.379      1.858      6.824
REMARK INTER + INTRA:          -6.560
REMARK INTER:                  -6.268
REMARK INTRA:                  -0.292
REMARK UNBOUND:                -0.238
REMARK SMILES O=c1c(O)c(-c2ccc(O)cc2)oc2cc(O)cc(O)c12
REMARK SMILES IDX 5 1 3 2 2 3 1 4 21 5 19 6 18 7 16 8 15 9 14 10 13 11 6 12
REMARK SMILES IDX 7 13 8 14 9 15 12 16 11 17 10 18 4 20 20 22 17 24
REMARK H PARENT 10 19 4 21 20 23 17 25
REMARK Flexibility Score: inf
ROOT
ATOM      1  C   UNL     1       2.400   7.560  -2.648  1.00  0.00     0.180 A 
ATOM      2  C   UNL     1       1.930   6.282  -2.996  1.00  0.00     0.208 A 
ATOM      3  C   UNL     1       1.904   5.912  -4.351  1.00  0.00     0.238 A 
ATOM      4  O   UNL     1       1.432   4.787  -4.660  1.00  0.00    -0.285 OA
ATOM      5  C   UNL     1       2.364   6.817  -5.337  1.00  0.00     0.111 A 
ATOM      6  C   UNL     1       2.420   6.533  -6.734  1.00  0.00     0.134 A 
ATOM      7  C   UNL     1       2.769   7.549  -7.633  1.00  0.00     0.093 A 
ATOM      8  C   UNL     1       3.126   8.818  -7.181  1.00  0.00     0.123 A 
ATOM      9  C   UNL     1       3.133   9.090  -5.812  1.00  0.00     0.094 A 
ATOM     10  C   UNL     1       2.753   8.108  -4.894  1.00  0.00     0.146 A 
ATOM     11  O   UNL     1       2.763   8.410  -3.601  1.00  0.00    -0.452 OA
ENDROOT
BRANCH   1  12
ATOM     12  C   UNL     1       2.481   8.014  -1.240  1.00  0.00     0.021 A 
ATOM     13  C   UNL     1       1.380   8.663  -0.657  1.00  0.00     0.016 A 
ATOM     14  C   UNL     1       1.443   9.118   0.663  1.00  0.00     0.047 A 
ATOM     15  C   UNL     1       2.611   8.947   1.411  1.00  0.00     0.115 A 
ATOM     16  C   UNL     1       3.661   7.861  -0.488  1.00  0.00     0.016 A 
ATOM     17  C   UNL     1       3.722   8.320   0.831  1.00  0.00     0.047 A 
BRANCH  15  18
ATOM     18  O   UNL     1       2.659   9.405   2.726  1.00  0.00    -0.508 OA
ATOM     19  H   UNL     1       2.046   9.030   3.441  1.00  0.00     0.293 HD
ENDBRANCH  15  18
ENDBRANCH   1  12
BRANCH   2  20
ATOM     20  O   UNL     1       1.461   5.413  -2.008  1.00  0.00    -0.502 OA
ATOM     21  H   UNL     1       2.081   4.937  -1.362  1.00  0.00     0.293 HD
ENDBRANCH   2  20
BRANCH   6  22
ATOM     22  O   UNL     1       2.172   5.272  -7.285  1.00  0.00    -0.507 OA
ATOM     23  H   UNL     1       1.358   4.709  -7.088  1.00  0.00     0.293 HD
ENDBRANCH   6  22
BRANCH   8  24
ATOM     24  O   UNL     1       3.483   9.801  -8.102  1.00  0.00    -0.508 OA
ATOM     25  H   UNL     1       4.348   9.746  -8.626  1.00  0.00     0.293 HD
ENDBRANCH   8  24
TORSDOF 5
ENDMDL
MODEL 7
REMARK VINA RESULT:    -5.370      2.182      2.512
REMARK INTER + INTRA:          -6.550
REMARK INTER:                  -6.287
REMARK INTRA:                  -0.263
REMARK UNBOUND:                -0.238
REMARK SMILES O=c1c(O)c(-c2ccc(O)cc2)oc2cc(O)cc(O)c12
REMARK SMILES IDX 5 1 3 2 2 3 1 4 21 5 19 6 18 7 16 8 15 9 14 10 13 11 6 12
REMARK SMILES IDX 7 13 8 14 9 15 12 16 11 17 10 18 4 20 20 22 17 24
REMARK H PARENT 10 19 4 21 20 23 17 25
REMARK Flexibility Score: inf
ROOT
ATOM      1  C   UNL     1       2.525   7.924  -3.103  1.00  0.00     0.180 A 
ATOM      2  C   UNL     1       3.905   7.713  -3.261  1.00  0.00     0.208 A 
ATOM      3  C   UNL     1       4.742   7.813  -2.137  1.00  0.00     0.238 A 
ATOM      4  O   UNL     1       5.983   7.676  -2.295  1.00  0.00    -0.285 OA
ATOM      5  C   UNL     1       4.186   8.105  -0.869  1.00  0.00     0.111 A 
ATOM      6  C   UNL     1       4.934   8.190   0.343  1.00  0.00     0.134 A 
ATOM      7  C   UNL     1       4.300   8.614   1.518  1.00  0.00     0.093 A 
ATOM      8  C   UNL     1       2.935   8.893   1.538  1.00  0.00     0.123 A 
ATOM      9  C   UNL     1       2.181   8.756   0.372  1.00  0.00     0.094 A 
ATOM     10  C   UNL     1       2.793   8.370  -0.824  1.00  0.00     0.146 A 
ATOM     11  O   UNL     1       2.043   8.261  -1.913  1.00  0.00    -0.452 OA
ENDROOT
BRANCH   1  12
ATOM     12  C   UNL     1       1.576   7.812  -4.236  1.00  0.00     0.021 A 
ATOM     13  C   UNL     1       1.040   8.978  -4.807  1.00  0.00     0.016 A 
ATOM     14  C   UNL     1       0.126   8.894  -5.862  1.00  0.00     0.047 A 
ATOM     15  C   UNL     1      -0.276   7.646  -6.347  1.00  0.00     0.115 A 
ATOM     16  C   UNL     1       1.153   6.558  -4.715  1.00  0.00     0.016 A 
ATOM     17  C   UNL     1       0.237   6.478  -5.768  1.00  0.00     0.047 A 
BRANCH  15  18
ATOM     18  O   UNL     1      -1.187   7.578  -7.399  1.00  0.00    -0.508 OA
ATOM     19  H   UNL     1      -0.989   7.043  -8.237  1.00  0.00     0.293 HD
ENDBRANCH  15  18
ENDBRANCH   1  12
BRANCH   2  20
ATOM     20  O   UNL     1       4.436   7.447  -4.526  1.00  0.00    -0.502 OA
ATOM     21  H   UNL     1       4.380   8.110  -5.291  1.00  0.00     0.293 HD
ENDBRANCH   2  20
BRANCH   6  22
ATOM     22  O   UNL     1       6.284   7.845   0.454  1.00  0.00    -0.507 OA
ATOM     23  H   UNL     1       6.643   7.114   1.050  1.00  0.00     0.293 HD
ENDBRANCH   6  22
BRANCH   8  24
ATOM     24  O   UNL     1       2.334   9.298   2.729  1.00  0.00    -0.508 OA
ATOM     25  H   UNL     1       2.079  10.266   2.890  1.00  0.00     0.293 HD
ENDBRANCH   8  24
TORSDOF 5
ENDMDL
MODEL 8
REMARK VINA RESULT:    -5.353     16.952     18.080
REMARK INTER + INTRA:          -6.530
REMARK INTER:                  -6.492
REMARK INTRA:                  -0.037
REMARK UNBOUND:                -0.238
REMARK SMILES O=c1c(O)c(-c2ccc(O)cc2)oc2cc(O)cc(O)c12
REMARK SMILES IDX 5 1 3 2 2 3 1 4 21 5 19 6 18 7 16 8 15 9 14 10 13 11 6 12
REMARK SMILES IDX 7 13 8 14 9 15 12 16 11 17 10 18 4 20 20 22 17 24
REMARK H PARENT 10 19 4 21 20 23 17 25
REMARK Flexibility Score: inf
ROOT
ATOM      1  C   UNL     1       0.796  -6.740   7.861  1.00  0.00     0.180 A 
ATOM      2  C   UNL     1       1.604  -7.231   6.821  1.00  0.00     0.208 A 
ATOM      3  C   UNL     1       2.953  -6.845   6.767  1.00  0.00     0.238 A 
ATOM      4  O   UNL     1       3.657  -7.245   5.804  1.00  0.00    -0.285 OA
ATOM      5  C   UNL     1       3.480  -5.986   7.761  1.00  0.00     0.111 A 
ATOM      6  C   UNL     1       4.841  -5.562   7.826  1.00  0.00     0.134 A 
ATOM      7  C   UNL     1       5.223  -4.607   8.777  1.00  0.00     0.093 A 
ATOM      8  C   UNL     1       4.308  -4.111   9.705  1.00  0.00     0.123 A 
ATOM      9  C   UNL     1       2.988  -4.562   9.689  1.00  0.00     0.094 A 
ATOM     10  C   UNL     1       2.569  -5.487   8.728  1.00  0.00     0.146 A 
ATOM     11  O   UNL     1       1.303  -5.884   8.740  1.00  0.00    -0.452 OA
ENDROOT
BRANCH   1  12
ATOM     12  C   UNL     1      -0.629  -7.121   7.999  1.00  0.00     0.021 A 
ATOM     13  C   UNL     1      -1.602  -6.120   8.151  1.00  0.00     0.016 A 
ATOM     14  C   UNL     1      -2.950  -6.459   8.305  1.00  0.00     0.047 A 
ATOM     15  C   UNL     1      -3.340  -7.801   8.327  1.00  0.00     0.115 A 
ATOM     16  C   UNL     1      -1.025  -8.471   8.041  1.00  0.00     0.016 A 
ATOM     17  C   UNL     1      -2.373  -8.807   8.198  1.00  0.00     0.047 A 
BRANCH  15  18
ATOM     18  O   UNL     1      -4.686  -8.124   8.481  1.00  0.00    -0.508 OA
ATOM     19  H   UNL     1      -5.418  -7.454   8.275  1.00  0.00     0.293 HD
ENDBRANCH  15  18
ENDBRANCH   1  12
BRANCH   2  20
ATOM     20  O   UNL     1       1.058  -8.061   5.839  1.00  0.00    -0.502 OA
ATOM     21  H   UNL     1       0.914  -7.753   4.884  1.00  0.00     0.293 HD
ENDBRANCH   2  20
BRANCH   6  22
ATOM     22  O   UNL     1       5.856  -6.064   7.007  1.00  0.00    -0.507 OA
ATOM     23  H   UNL     1       6.119  -5.674   6.114  1.00  0.00     0.293 HD
ENDBRANCH   6  22
BRANCH   8  24
ATOM     24  O   UNL     1       4.726  -3.172  10.647  1.00  0.00    -0.508 OA
ATOM     25  H   UNL     1       4.636  -3.345  11.642  1.00  0.00     0.293 HD
ENDBRANCH   8  24
TORSDOF 5
ENDMDL
MODEL 9
REMARK VINA RESULT:    -5.331     15.578     17.066
REMARK INTER + INTRA:          -6.503
REMARK INTER:                  -6.212
REMARK INTRA:                  -0.292
REMARK UNBOUND:                -0.238
REMARK SMILES O=c1c(O)c(-c2ccc(O)cc2)oc2cc(O)cc(O)c12
REMARK SMILES IDX 5 1 3 2 2 3 1 4 21 5 19 6 18 7 16 8 15 9 14 10 13 11 6 12
REMARK SMILES IDX 7 13 8 14 9 15 12 16 11 17 10 18 4 20 20 22 17 24
REMARK H PARENT 10 19 4 21 20 23 17 25
REMARK Flexibility Score: inf
ROOT
ATOM      1  C   UNL     1       5.158  -4.996   7.516  1.00  0.00     0.180 A 
ATOM      2  C   UNL     1       4.553  -4.408   8.640  1.00  0.00     0.208 A 
ATOM      3  C   UNL     1       3.326  -4.916   9.096  1.00  0.00     0.238 A 
ATOM      4  O   UNL     1       2.763  -4.350  10.069  1.00  0.00    -0.285 OA
ATOM      5  C   UNL     1       2.728  -6.014   8.433  1.00  0.00     0.111 A 
ATOM      6  C   UNL     1       1.507  -6.634   8.833  1.00  0.00     0.134 A 
ATOM      7  C   UNL     1       0.941  -7.630   8.027  1.00  0.00     0.093 A 
ATOM      8  C   UNL     1       1.585  -8.073   6.872  1.00  0.00     0.123 A 
ATOM      9  C   UNL     1       2.809  -7.515   6.504  1.00  0.00     0.094 A 
ATOM     10  C   UNL     1       3.380  -6.494   7.268  1.00  0.00     0.146 A 
ATOM     11  O   UNL     1       4.541  -5.983   6.877  1.00  0.00    -0.452 OA
ENDROOT
BRANCH   1  12
ATOM     12  C   UNL     1       6.464  -4.533   6.991  1.00  0.00     0.021 A 
ATOM     13  C   UNL     1       6.499  -3.519   6.020  1.00  0.00     0.016 A 
ATOM     14  C   UNL     1       7.719  -3.083   5.495  1.00  0.00     0.047 A 
ATOM     15  C   UNL     1       8.917  -3.664   5.920  1.00  0.00     0.115 A 
ATOM     16  C   UNL     1       7.672  -5.129   7.401  1.00  0.00     0.016 A 
ATOM     17  C   UNL     1       8.890  -4.692   6.872  1.00  0.00     0.047 A 
BRANCH  15  18
ATOM     18  O   UNL     1      10.125  -3.219   5.389  1.00  0.00    -0.508 OA
ATOM     19  H   UNL     1      10.379  -2.238   5.401  1.00  0.00     0.293 HD
ENDBRANCH  15  18
ENDBRANCH   1  12
BRANCH   2  20
ATOM     20  O   UNL     1       5.150  -3.311   9.266  1.00  0.00    -0.502 OA
ATOM     21  H   UNL     1       4.999  -2.358   8.955  1.00  0.00     0.293 HD
ENDBRANCH   2  20
BRANCH   6  22
ATOM     22  O   UNL     1       0.828  -6.332  10.018  1.00  0.00    -0.507 OA
ATOM     23  H   UNL     1       0.979  -5.501  10.570  1.00  0.00     0.293 HD
ENDBRANCH   6  22
BRANCH   8  24
ATOM     24  O   UNL     1       1.000  -9.076   6.102  1.00  0.00    -0.508 OA
ATOM     25  H   UNL     1       0.151  -9.544   6.397  1.00  0.00     0.293 HD
ENDBRANCH   8  24
TORSDOF 5
ENDMDL
