MODEL 1
REMARK VINA RESULT:    -5.415      0.000      0.000
REMARK INTER + INTRA:         -11.425
REMARK INTER:                  -9.846
REMARK INTRA:                  -1.579
REMARK UNBOUND:                -1.579
REMARK SMILES CCCCCCCCCCCCCC[C@H](C)C(=O)[O-]
REMARK SMILES IDX 9 1 10 2 11 3 12 4 13 5 14 6 15 7 16 8 17 9 18 10 19 11 8 12
REMARK SMILES IDX 7 13 6 14 5 15 4 16 3 17 2 18 1 19
REMARK H PARENT
REMARK Flexibility Score: inf
ROOT
ATOM      1  C   UNL     1     122.965 177.902 126.770  1.00  0.00     0.000 C 
ENDROOT
BRANCH   1   2
ATOM      2  C   UNL     1     122.254 179.261 126.922  1.00  0.00     0.000 C 
BRANCH   2   3
ATOM      3  C   UNL     1     120.724 179.133 126.767  1.00  0.00     0.000 C 
BRANCH   3   4
ATOM      4  C   UNL     1     120.150 179.948 125.591  1.00  0.00     0.000 C 
BRANCH   4   5
ATOM      5  C   UNL     1     119.960 179.106 124.319  1.00  0.00     0.001 C 
BRANCH   5   6
ATOM      6  C   UNL     1     118.796 178.099 124.427  1.00  0.00     0.009 C 
BRANCH   6   7
ATOM      7  C   UNL     1     117.480 178.668 125.012  1.00  0.00     0.032 C 
ATOM      8  C   UNL     1     116.937 177.827 126.176  1.00  0.00     0.014 C 
BRANCH   7   9
ATOM      9  C   UNL     1     116.443 178.763 123.926  1.00  0.00     0.044 C 
ATOM     10  O   UNL     1     116.770 178.625 122.717  1.00  0.00    -0.550 OA
ATOM     11  O   UNL     1     115.116 179.009 124.253  1.00  0.00    -0.550 OA
ENDBRANCH   7   9
ENDBRANCH   6   7
ENDBRANCH   5   6
ENDBRANCH   4   5
ENDBRANCH   3   4
ENDBRANCH   2   3
ENDBRANCH   1   2
BRANCH   1  12
ATOM     12  C   UNL     1     122.035 176.798 126.240  1.00  0.00     0.000 C 
BRANCH  12  13
ATOM     13  C   UNL     1     122.417 176.333 124.821  1.00  0.00    -0.000 C 
BRANCH  13  14
ATOM     14  C   UNL     1     123.380 177.303 124.113  1.00  0.00    -0.000 C 
BRANCH  14  15
ATOM     15  C   UNL     1     124.660 176.657 123.552  1.00  0.00    -0.000 C 
BRANCH  15  16
ATOM     16  C   UNL     1     124.972 177.098 122.112  1.00  0.00    -0.000 C 
BRANCH  16  17
ATOM     17  C   UNL     1     123.718 177.597 121.365  1.00  0.00    -0.000 C 
BRANCH  17  18
ATOM     18  C   UNL     1     123.807 177.446 119.836  1.00  0.00    -0.003 C 
ATOM     19  C   UNL     1     124.886 178.323 119.203  1.00  0.00     0.004 C 
ENDBRANCH  17  18
ENDBRANCH  16  17
ENDBRANCH  15  16
ENDBRANCH  14  15
ENDBRANCH  13  14
ENDBRANCH  12  13
ENDBRANCH   1  12
TORSDOF 14
ENDMDL
MODEL 2
REMARK VINA RESULT:    -5.364      2.380      4.533
REMARK INTER + INTRA:         -11.333
REMARK INTER:                  -8.670
REMARK INTRA:                  -2.663
REMARK UNBOUND:                -1.579
REMARK SMILES CCCCCCCCCCCCCC[C@H](C)C(=O)[O-]
REMARK SMILES IDX 9 1 10 2 11 3 12 4 13 5 14 6 15 7 16 8 17 9 18 10 19 11 8 12
REMARK SMILES IDX 7 13 6 14 5 15 4 16 3 17 2 18 1 19
REMARK H PARENT
REMARK Flexibility Score: inf
ROOT
ATOM      1  C   UNL     1     122.924 178.990 126.524  1.00  0.00     0.000 C 
ENDROOT
BRANCH   1   2
ATOM      2  C   UNL     1     123.627 177.803 125.839  1.00  0.00     0.000 C 
BRANCH   2   3
ATOM      3  C   UNL     1     122.734 177.142 124.768  1.00  0.00     0.000 C 
BRANCH   3   4
ATOM      4  C   UNL     1     121.641 178.075 124.211  1.00  0.00     0.000 C 
BRANCH   4   5
ATOM      5  C   UNL     1     120.220 177.556 124.482  1.00  0.00     0.001 C 
BRANCH   5   6
ATOM      6  C   UNL     1     119.163 178.678 124.531  1.00  0.00     0.009 C 
BRANCH   6   7
ATOM      7  C   UNL     1     117.882 178.349 125.335  1.00  0.00     0.032 C 
ATOM      8  C   UNL     1     117.881 176.916 125.888  1.00  0.00     0.014 C 
BRANCH   7   9
ATOM      9  C   UNL     1     116.671 178.560 124.468  1.00  0.00     0.044 C 
ATOM     10  O   UNL     1     115.539 178.754 124.986  1.00  0.00    -0.550 OA
ATOM     11  O   UNL     1     116.797 178.538 123.085  1.00  0.00    -0.550 OA
ENDBRANCH   7   9
ENDBRANCH   6   7
ENDBRANCH   5   6
ENDBRANCH   4   5
ENDBRANCH   3   4
ENDBRANCH   2   3
ENDBRANCH   1   2
BRANCH   1  12
ATOM     12  C   UNL     1     123.252 179.095 128.023  1.00  0.00     0.000 C 
BRANCH  12  13
ATOM     13  C   UNL     1     122.052 178.728 128.918  1.00  0.00    -0.000 C 
BRANCH  13  14
ATOM     14  C   UNL     1     120.858 178.174 128.120  1.00  0.00    -0.000 C 
BRANCH  14  15
ATOM     15  C   UNL     1     120.520 176.698 128.394  1.00  0.00    -0.000 C 
BRANCH  15  16
ATOM     16  C   UNL     1     121.766 175.838 128.669  1.00  0.00    -0.000 C 
BRANCH  16  17
ATOM     17  C   UNL     1     121.790 174.549 127.822  1.00  0.00    -0.000 C 
BRANCH  17  18
ATOM     18  C   UNL     1     120.593 174.416 126.864  1.00  0.00    -0.003 C 
ATOM     19  C   UNL     1     120.993 173.999 125.450  1.00  0.00     0.004 C 
ENDBRANCH  17  18
ENDBRANCH  16  17
ENDBRANCH  15  16
ENDBRANCH  14  15
ENDBRANCH  13  14
ENDBRANCH  12  13
ENDBRANCH   1  12
TORSDOF 14
ENDMDL
MODEL 3
REMARK VINA RESULT:    -5.332      2.938      5.933
REMARK INTER + INTRA:         -11.276
REMARK INTER:                  -9.107
REMARK INTRA:                  -2.169
REMARK UNBOUND:                -1.579
REMARK SMILES CCCCCCCCCCCCCC[C@H](C)C(=O)[O-]
REMARK SMILES IDX 9 1 10 2 11 3 12 4 13 5 14 6 15 7 16 8 17 9 18 10 19 11 8 12
REMARK SMILES IDX 7 13 6 14 5 15 4 16 3 17 2 18 1 19
REMARK H PARENT
REMARK Flexibility Score: inf
ROOT
ATOM      1  C   UNL     1     122.982 177.173 125.270  1.00  0.00     0.000 C 
ENDROOT
BRANCH   1   2
ATOM      2  C   UNL     1     123.953 178.145 125.966  1.00  0.00     0.000 C 
BRANCH   2   3
ATOM      3  C   UNL     1     123.231 179.055 126.982  1.00  0.00     0.000 C 
BRANCH   3   4
ATOM      4  C   UNL     1     122.665 178.298 128.199  1.00  0.00     0.000 C 
BRANCH   4   5
ATOM      5  C   UNL     1     121.156 178.521 128.391  1.00  0.00     0.001 C 
BRANCH   5   6
ATOM      6  C   UNL     1     120.387 177.222 128.710  1.00  0.00     0.009 C 
BRANCH   6   7
ATOM      7  C   UNL     1     119.341 176.793 127.652  1.00  0.00     0.032 C 
ATOM      8  C   UNL     1     117.937 176.613 128.246  1.00  0.00     0.014 C 
BRANCH   7   9
ATOM      9  C   UNL     1     119.783 175.516 126.992  1.00  0.00     0.044 C 
ATOM     10  O   UNL     1     119.014 174.904 126.204  1.00  0.00    -0.550 OA
ATOM     11  O   UNL     1     121.046 175.001 127.255  1.00  0.00    -0.550 OA
ENDBRANCH   7   9
ENDBRANCH   6   7
ENDBRANCH   5   6
ENDBRANCH   4   5
ENDBRANCH   3   4
ENDBRANCH   2   3
ENDBRANCH   1   2
BRANCH   1  12
ATOM     12  C   UNL     1     122.207 177.828 124.115  1.00  0.00     0.000 C 
BRANCH  12  13
ATOM     13  C   UNL     1     120.691 177.904 124.387  1.00  0.00    -0.000 C 
BRANCH  13  14
ATOM     14  C   UNL     1     120.227 179.312 124.798  1.00  0.00    -0.000 C 
BRANCH  14  15
ATOM     15  C   UNL     1     118.785 179.393 125.332  1.00  0.00    -0.000 C 
BRANCH  15  16
ATOM     16  C   UNL     1     117.808 178.489 124.560  1.00  0.00    -0.000 C 
BRANCH  16  17
ATOM     17  C   UNL     1     116.483 178.273 125.319  1.00  0.00    -0.000 C 
BRANCH  17  18
ATOM     18  C   UNL     1     115.298 179.059 124.730  1.00  0.00    -0.003 C 
ATOM     19  C   UNL     1     114.197 179.346 125.750  1.00  0.00     0.004 C 
ENDBRANCH  17  18
ENDBRANCH  16  17
ENDBRANCH  15  16
ENDBRANCH  14  15
ENDBRANCH  13  14
ENDBRANCH  12  13
ENDBRANCH   1  12
TORSDOF 14
ENDMDL
MODEL 4
REMARK VINA RESULT:    -5.311      1.761      2.889
REMARK INTER + INTRA:         -11.237
REMARK INTER:                  -8.806
REMARK INTRA:                  -2.431
REMARK UNBOUND:                -1.579
REMARK SMILES CCCCCCCCCCCCCC[C@H](C)C(=O)[O-]
REMARK SMILES IDX 9 1 10 2 11 3 12 4 13 5 14 6 15 7 16 8 17 9 18 10 19 11 8 12
REMARK SMILES IDX 7 13 6 14 5 15 4 16 3 17 2 18 1 19
REMARK H PARENT
REMARK Flexibility Score: inf
ROOT
ATOM      1  C   UNL     1     122.780 177.324 128.380  1.00  0.00     0.000 C 
ENDROOT
BRANCH   1   2
ATOM      2  C   UNL     1     122.121 178.701 128.589  1.00  0.00     0.000 C 
BRANCH   2   3
ATOM      3  C   UNL     1     120.860 178.876 127.716  1.00  0.00     0.000 C 
BRANCH   3   4
ATOM      4  C   UNL     1     121.166 179.050 126.215  1.00  0.00     0.000 C 
BRANCH   4   5
ATOM      5  C   UNL     1     120.023 179.736 125.450  1.00  0.00     0.001 C 
BRANCH   5   6
ATOM      6  C   UNL     1     119.100 178.741 124.717  1.00  0.00     0.009 C 
BRANCH   6   7
ATOM      7  C   UNL     1     117.712 178.520 125.368  1.00  0.00     0.032 C 
ATOM      8  C   UNL     1     117.596 177.159 126.069  1.00  0.00     0.014 C 
BRANCH   7   9
ATOM      9  C   UNL     1     116.638 178.648 124.323  1.00  0.00     0.044 C 
ATOM     10  O   UNL     1     116.920 178.547 123.100  1.00  0.00    -0.550 OA
ATOM     11  O   UNL     1     115.323 178.885 124.705  1.00  0.00    -0.550 OA
ENDBRANCH   7   9
ENDBRANCH   6   7
ENDBRANCH   5   6
ENDBRANCH   4   5
ENDBRANCH   3   4
ENDBRANCH   2   3
ENDBRANCH   1   2
BRANCH   1  12
ATOM     12  C   UNL     1     122.047 176.193 129.120  1.00  0.00     0.000 C 
BRANCH  12  13
ATOM     13  C   UNL     1     121.718 175.000 128.201  1.00  0.00    -0.000 C 
BRANCH  13  14
ATOM     14  C   UNL     1     120.593 175.312 127.198  1.00  0.00    -0.000 C 
BRANCH  14  15
ATOM     15  C   UNL     1     120.791 174.719 125.791  1.00  0.00    -0.000 C 
BRANCH  15  16
ATOM     16  C   UNL     1     121.372 175.733 124.790  1.00  0.00    -0.000 C 
BRANCH  16  17
ATOM     17  C   UNL     1     122.913 175.776 124.824  1.00  0.00    -0.000 C 
BRANCH  17  18
ATOM     18  C   UNL     1     123.513 177.027 124.159  1.00  0.00    -0.003 C 
ATOM     19  C   UNL     1     122.586 177.665 123.124  1.00  0.00     0.004 C 
ENDBRANCH  17  18
ENDBRANCH  16  17
ENDBRANCH  15  16
ENDBRANCH  14  15
ENDBRANCH  13  14
ENDBRANCH  12  13
ENDBRANCH   1  12
TORSDOF 14
ENDMDL
MODEL 5
REMARK VINA RESULT:    -5.290      1.700      2.484
REMARK INTER + INTRA:         -11.199
REMARK INTER:                  -8.782
REMARK INTRA:                  -2.417
REMARK UNBOUND:                -1.579
REMARK SMILES CCCCCCCCCCCCCC[C@H](C)C(=O)[O-]
REMARK SMILES IDX 9 1 10 2 11 3 12 4 13 5 14 6 15 7 16 8 17 9 18 10 19 11 8 12
REMARK SMILES IDX 7 13 6 14 5 15 4 16 3 17 2 18 1 19
REMARK H PARENT
REMARK Flexibility Score: inf
ROOT
ATOM      1  C   UNL     1     120.399 177.151 127.915  1.00  0.00     0.000 C 
ENDROOT
BRANCH   1   2
ATOM      2  C   UNL     1     121.657 178.037 127.853  1.00  0.00     0.000 C 
BRANCH   2   3
ATOM      3  C   UNL     1     121.655 178.957 126.613  1.00  0.00     0.000 C 
BRANCH   3   4
ATOM      4  C   UNL     1     120.244 179.382 126.160  1.00  0.00     0.000 C 
BRANCH   4   5
ATOM      5  C   UNL     1     119.985 179.095 124.672  1.00  0.00     0.001 C 
BRANCH   5   6
ATOM      6  C   UNL     1     118.564 178.562 124.395  1.00  0.00     0.009 C 
BRANCH   6   7
ATOM      7  C   UNL     1     117.541 178.778 125.536  1.00  0.00     0.032 C 
ATOM      8  C   UNL     1     116.993 177.459 126.099  1.00  0.00     0.014 C 
BRANCH   7   9
ATOM      9  C   UNL     1     116.405 179.631 125.042  1.00  0.00     0.044 C 
ATOM     10  O   UNL     1     116.414 180.878 125.226  1.00  0.00    -0.550 OA
ATOM     11  O   UNL     1     115.333 179.044 124.382  1.00  0.00    -0.550 OA
ENDBRANCH   7   9
ENDBRANCH   6   7
ENDBRANCH   5   6
ENDBRANCH   4   5
ENDBRANCH   3   4
ENDBRANCH   2   3
ENDBRANCH   1   2
BRANCH   1  12
ATOM     12  C   UNL     1     120.644 175.727 127.388  1.00  0.00     0.000 C 
BRANCH  12  13
ATOM     13  C   UNL     1     120.166 175.544 125.934  1.00  0.00    -0.000 C 
BRANCH  13  14
ATOM     14  C   UNL     1     121.256 174.963 125.016  1.00  0.00    -0.000 C 
BRANCH  14  15
ATOM     15  C   UNL     1     122.556 175.785 124.945  1.00  0.00    -0.000 C 
BRANCH  15  16
ATOM     16  C   UNL     1     122.584 176.761 123.757  1.00  0.00    -0.000 C 
BRANCH  16  17
ATOM     17  C   UNL     1     124.019 177.062 123.277  1.00  0.00    -0.000 C 
BRANCH  17  18
ATOM     18  C   UNL     1     124.988 177.429 124.415  1.00  0.00    -0.003 C 
ATOM     19  C   UNL     1     126.450 177.472 123.974  1.00  0.00     0.004 C 
ENDBRANCH  17  18
ENDBRANCH  16  17
ENDBRANCH  15  16
ENDBRANCH  14  15
ENDBRANCH  13  14
ENDBRANCH  12  13
ENDBRANCH   1  12
TORSDOF 14
ENDMDL
MODEL 6
REMARK VINA RESULT:    -5.282      2.575      4.513
REMARK INTER + INTRA:         -11.183
REMARK INTER:                  -8.601
REMARK INTRA:                  -2.582
REMARK UNBOUND:                -1.579
REMARK SMILES CCCCCCCCCCCCCC[C@H](C)C(=O)[O-]
REMARK SMILES IDX 9 1 10 2 11 3 12 4 13 5 14 6 15 7 16 8 17 9 18 10 19 11 8 12
REMARK SMILES IDX 7 13 6 14 5 15 4 16 3 17 2 18 1 19
REMARK H PARENT
REMARK Flexibility Score: inf
ROOT
ATOM      1  C   UNL     1     121.122 179.241 126.391  1.00  0.00     0.000 C 
ENDROOT
BRANCH   1   2
ATOM      2  C   UNL     1     120.539 178.822 127.754  1.00  0.00     0.000 C 
BRANCH   2   3
ATOM      3  C   UNL     1     120.439 177.288 127.893  1.00  0.00     0.000 C 
BRANCH   3   4
ATOM      4  C   UNL     1     118.992 176.769 127.997  1.00  0.00     0.000 C 
BRANCH   4   5
ATOM      5  C   UNL     1     118.298 176.661 126.629  1.00  0.00     0.001 C 
BRANCH   5   6
ATOM      6  C   UNL     1     117.111 177.634 126.473  1.00  0.00     0.009 C 
BRANCH   6   7
ATOM      7  C   UNL     1     116.810 178.085 125.023  1.00  0.00     0.032 C 
ATOM      8  C   UNL     1     118.071 178.529 124.267  1.00  0.00     0.014 C 
BRANCH   7   9
ATOM      9  C   UNL     1     115.806 179.205 125.040  1.00  0.00     0.044 C 
ATOM     10  O   UNL     1     115.521 179.791 126.119  1.00  0.00    -0.550 OA
ATOM     11  O   UNL     1     115.181 179.596 123.863  1.00  0.00    -0.550 OA
ENDBRANCH   7   9
ENDBRANCH   6   7
ENDBRANCH   5   6
ENDBRANCH   4   5
ENDBRANCH   3   4
ENDBRANCH   2   3
ENDBRANCH   1   2
BRANCH   1  12
ATOM     12  C   UNL     1     122.119 178.215 125.827  1.00  0.00     0.000 C 
BRANCH  12  13
ATOM     13  C   UNL     1     121.769 177.776 124.392  1.00  0.00    -0.000 C 
BRANCH  13  14
ATOM     14  C   UNL     1     121.147 176.369 124.332  1.00  0.00    -0.000 C 
BRANCH  14  15
ATOM     15  C   UNL     1     121.915 175.284 125.108  1.00  0.00    -0.000 C 
BRANCH  15  16
ATOM     16  C   UNL     1     121.117 173.977 125.259  1.00  0.00    -0.000 C 
BRANCH  16  17
ATOM     17  C   UNL     1     120.872 173.605 126.736  1.00  0.00    -0.000 C 
BRANCH  17  18
ATOM     18  C   UNL     1     119.416 173.211 127.042  1.00  0.00    -0.003 C 
ATOM     19  C   UNL     1     118.596 172.906 125.790  1.00  0.00     0.004 C 
ENDBRANCH  17  18
ENDBRANCH  16  17
ENDBRANCH  15  16
ENDBRANCH  14  15
ENDBRANCH  13  14
ENDBRANCH  12  13
ENDBRANCH   1  12
TORSDOF 14
ENDMDL
MODEL 7
REMARK VINA RESULT:    -5.261      3.844      6.899
REMARK INTER + INTRA:         -11.145
REMARK INTER:                  -8.743
REMARK INTRA:                  -2.402
REMARK UNBOUND:                -1.579
REMARK SMILES CCCCCCCCCCCCCC[C@H](C)C(=O)[O-]
REMARK SMILES IDX 9 1 10 2 11 3 12 4 13 5 14 6 15 7 16 8 17 9 18 10 19 11 8 12
REMARK SMILES IDX 7 13 6 14 5 15 4 16 3 17 2 18 1 19
REMARK H PARENT
REMARK Flexibility Score: inf
ROOT
ATOM      1  C   UNL     1     122.847 178.831 126.940  1.00  0.00     0.000 C 
ENDROOT
BRANCH   1   2
ATOM      2  C   UNL     1     123.496 178.083 125.760  1.00  0.00     0.000 C 
BRANCH   2   3
ATOM      3  C   UNL     1     122.800 176.734 125.479  1.00  0.00     0.000 C 
BRANCH   3   4
ATOM      4  C   UNL     1     122.545 176.468 123.983  1.00  0.00     0.000 C 
BRANCH   4   5
ATOM      5  C   UNL     1     122.899 177.672 123.095  1.00  0.00     0.001 C 
BRANCH   5   6
ATOM      6  C   UNL     1     123.891 177.323 121.966  1.00  0.00     0.009 C 
BRANCH   6   7
ATOM      7  C   UNL     1     125.204 176.642 122.424  1.00  0.00     0.032 C 
ATOM      8  C   UNL     1     126.098 177.575 123.253  1.00  0.00     0.014 C 
BRANCH   7   9
ATOM      9  C   UNL     1     125.961 176.144 121.223  1.00  0.00     0.044 C 
ATOM     10  O   UNL     1     126.231 176.922 120.270  1.00  0.00    -0.550 OA
ATOM     11  O   UNL     1     126.363 174.816 121.158  1.00  0.00    -0.550 OA
ENDBRANCH   7   9
ENDBRANCH   6   7
ENDBRANCH   5   6
ENDBRANCH   4   5
ENDBRANCH   3   4
ENDBRANCH   2   3
ENDBRANCH   1   2
BRANCH   1  12
ATOM     12  C   UNL     1     122.250 177.882 127.993  1.00  0.00     0.000 C 
BRANCH  12  13
ATOM     13  C   UNL     1     120.794 178.238 128.352  1.00  0.00    -0.000 C 
BRANCH  13  14
ATOM     14  C   UNL     1     119.881 177.003 128.441  1.00  0.00    -0.000 C 
BRANCH  14  15
ATOM     15  C   UNL     1     118.706 176.988 127.446  1.00  0.00    -0.000 C 
BRANCH  15  16
ATOM     16  C   UNL     1     119.160 176.815 125.986  1.00  0.00    -0.000 C 
BRANCH  16  17
ATOM     17  C   UNL     1     118.680 177.968 125.081  1.00  0.00    -0.000 C 
BRANCH  17  18
ATOM     18  C   UNL     1     119.806 178.923 124.645  1.00  0.00    -0.003 C 
ATOM     19  C   UNL     1     119.864 180.206 125.472  1.00  0.00     0.004 C 
ENDBRANCH  17  18
ENDBRANCH  16  17
ENDBRANCH  15  16
ENDBRANCH  14  15
ENDBRANCH  13  14
ENDBRANCH  12  13
ENDBRANCH   1  12
TORSDOF 14
ENDMDL
MODEL 8
REMARK VINA RESULT:    -5.225      3.755      7.308
REMARK INTER + INTRA:         -11.079
REMARK INTER:                  -8.809
REMARK INTRA:                  -2.271
REMARK UNBOUND:                -1.579
REMARK SMILES CCCCCCCCCCCCCC[C@H](C)C(=O)[O-]
REMARK SMILES IDX 9 1 10 2 11 3 12 4 13 5 14 6 15 7 16 8 17 9 18 10 19 11 8 12
REMARK SMILES IDX 7 13 6 14 5 15 4 16 3 17 2 18 1 19
REMARK H PARENT
REMARK Flexibility Score: inf
ROOT
ATOM      1  C   UNL     1     121.947 176.311 124.092  1.00  0.00     0.000 C 
ENDROOT
BRANCH   1   2
ATOM      2  C   UNL     1     123.382 176.048 124.586  1.00  0.00     0.000 C 
BRANCH   2   3
ATOM      3  C   UNL     1     124.211 177.347 124.674  1.00  0.00     0.000 C 
BRANCH   3   4
ATOM      4  C   UNL     1     125.558 177.274 123.929  1.00  0.00     0.000 C 
BRANCH   4   5
ATOM      5  C   UNL     1     125.417 176.739 122.494  1.00  0.00     0.001 C 
BRANCH   5   6
ATOM      6  C   UNL     1     126.023 177.681 121.433  1.00  0.00     0.009 C 
BRANCH   6   7
ATOM      7  C   UNL     1     125.006 178.323 120.458  1.00  0.00     0.032 C 
ATOM      8  C   UNL     1     123.597 177.729 120.596  1.00  0.00     0.014 C 
BRANCH   7   9
ATOM      9  C   UNL     1     125.492 178.160 119.043  1.00  0.00     0.044 C 
ATOM     10  O   UNL     1     124.675 178.158 118.084  1.00  0.00    -0.550 OA
ATOM     11  O   UNL     1     126.848 178.007 118.789  1.00  0.00    -0.550 OA
ENDBRANCH   7   9
ENDBRANCH   6   7
ENDBRANCH   5   6
ENDBRANCH   4   5
ENDBRANCH   3   4
ENDBRANCH   2   3
ENDBRANCH   1   2
BRANCH   1  12
ATOM     12  C   UNL     1     121.652 177.806 123.884  1.00  0.00     0.000 C 
BRANCH  12  13
ATOM     13  C   UNL     1     120.323 178.242 124.531  1.00  0.00    -0.000 C 
BRANCH  13  14
ATOM     14  C   UNL     1     120.472 179.489 125.422  1.00  0.00    -0.000 C 
BRANCH  14  15
ATOM     15  C   UNL     1     120.739 179.198 126.910  1.00  0.00    -0.000 C 
BRANCH  15  16
ATOM     16  C   UNL     1     122.235 179.030 127.230  1.00  0.00    -0.000 C 
BRANCH  16  17
ATOM     17  C   UNL     1     122.528 177.728 128.003  1.00  0.00    -0.000 C 
BRANCH  17  18
ATOM     18  C   UNL     1     121.273 176.892 128.307  1.00  0.00    -0.003 C 
ATOM     19  C   UNL     1     121.284 175.519 127.637  1.00  0.00     0.004 C 
ENDBRANCH  17  18
ENDBRANCH  16  17
ENDBRANCH  15  16
ENDBRANCH  14  15
ENDBRANCH  13  14
ENDBRANCH  12  13
ENDBRANCH   1  12
TORSDOF 14
ENDMDL
MODEL 9
REMARK VINA RESULT:    -5.215      3.888      7.015
REMARK INTER + INTRA:         -11.061
REMARK INTER:                  -8.828
REMARK INTRA:                  -2.234
REMARK UNBOUND:                -1.579
REMARK SMILES CCCCCCCCCCCCCC[C@H](C)C(=O)[O-]
REMARK SMILES IDX 9 1 10 2 11 3 12 4 13 5 14 6 15 7 16 8 17 9 18 10 19 11 8 12
REMARK SMILES IDX 7 13 6 14 5 15 4 16 3 17 2 18 1 19
REMARK H PARENT
REMARK Flexibility Score: inf
ROOT
ATOM      1  C   UNL     1     121.473 175.433 125.259  1.00  0.00     0.000 C 
ENDROOT
BRANCH   1   2
ATOM      2  C   UNL     1     121.476 176.171 123.907  1.00  0.00     0.000 C 
BRANCH   2   3
ATOM      3  C   UNL     1     122.445 177.373 123.907  1.00  0.00     0.000 C 
BRANCH   3   4
ATOM      4  C   UNL     1     123.720 177.140 124.740  1.00  0.00     0.000 C 
BRANCH   4   5
ATOM      5  C   UNL     1     125.008 177.321 123.920  1.00  0.00     0.001 C 
BRANCH   5   6
ATOM      6  C   UNL     1     125.010 176.511 122.607  1.00  0.00     0.009 C 
BRANCH   6   7
ATOM      7  C   UNL     1     125.168 177.346 121.313  1.00  0.00     0.032 C 
ATOM      8  C   UNL     1     123.824 177.650 120.635  1.00  0.00     0.014 C 
BRANCH   7   9
ATOM      9  C   UNL     1     126.071 176.623 120.351  1.00  0.00     0.044 C 
ATOM     10  O   UNL     1     126.798 175.674 120.748  1.00  0.00    -0.550 OA
ATOM     11  O   UNL     1     126.110 177.004 119.016  1.00  0.00    -0.550 OA
ENDBRANCH   7   9
ENDBRANCH   6   7
ENDBRANCH   5   6
ENDBRANCH   4   5
ENDBRANCH   3   4
ENDBRANCH   2   3
ENDBRANCH   1   2
BRANCH   1  12
ATOM     12  C   UNL     1     120.238 175.758 126.115  1.00  0.00     0.000 C 
BRANCH  12  13
ATOM     13  C   UNL     1     120.599 176.063 127.582  1.00  0.00    -0.000 C 
BRANCH  13  14
ATOM     14  C   UNL     1     121.466 177.327 127.735  1.00  0.00    -0.000 C 
BRANCH  14  15
ATOM     15  C   UNL     1     120.704 178.658 127.607  1.00  0.00    -0.000 C 
BRANCH  15  16
ATOM     16  C   UNL     1     121.064 179.435 126.328  1.00  0.00    -0.000 C 
BRANCH  16  17
ATOM     17  C   UNL     1     119.820 180.000 125.614  1.00  0.00    -0.000 C 
BRANCH  17  18
ATOM     18  C   UNL     1     118.688 178.972 125.434  1.00  0.00    -0.003 C 
ATOM     19  C   UNL     1     118.615 178.394 124.022  1.00  0.00     0.004 C 
ENDBRANCH  17  18
ENDBRANCH  16  17
ENDBRANCH  15  16
ENDBRANCH  14  15
ENDBRANCH  13  14
ENDBRANCH  12  13
ENDBRANCH   1  12
TORSDOF 14
ENDMDL
