MODEL 1
REMARK VINA RESULT:    -3.724      0.000      0.000
REMARK INTER + INTRA:          -4.176
REMARK INTER:                  -4.051
REMARK INTRA:                  -0.125
REMARK UNBOUND:                -0.125
REMARK SMILES Cc1ccc(C(C)C)cc1O
REMARK SMILES IDX 1 1 2 2 10 3 9 4 5 5 4 6 3 7 11 8 6 10 7 11 8 12
REMARK H PARENT 11 9
REMARK Flexibility Score: inf
ROOT
ATOM      1  C   UNL     1     153.282 157.639 165.587  1.00  0.00     0.048 C 
ATOM      2  C   UNL     1     154.550 158.239 166.124  1.00  0.00    -0.009 A 
ATOM      3  C   UNL     1     154.524 159.028 167.287  1.00  0.00     0.118 A 
ATOM      4  C   UNL     1     155.711 159.586 167.782  1.00  0.00     0.050 A 
ATOM      5  C   UNL     1     156.935 159.365 167.129  1.00  0.00    -0.042 A 
ATOM      6  C   UNL     1     156.952 158.574 165.966  1.00  0.00     0.004 A 
ATOM      7  C   UNL     1     155.771 158.017 165.468  1.00  0.00     0.007 A 
ENDROOT
BRANCH   3   8
ATOM      8  O   UNL     1     153.316 159.256 167.947  1.00  0.00    -0.508 OA
ATOM      9  H   UNL     1     153.117 158.839 168.849  1.00  0.00     0.293 HD
ENDBRANCH   3   8
BRANCH   5  10
ATOM     10  C   UNL     1     158.211 159.975 167.679  1.00  0.00     0.013 C 
ATOM     11  C   UNL     1     158.395 161.414 167.180  1.00  0.00     0.012 C 
ATOM     12  C   UNL     1     159.431 159.112 167.333  1.00  0.00     0.012 C 
ENDBRANCH   5  10
TORSDOF 2
ENDMDL
MODEL 2
REMARK VINA RESULT:    -3.678      4.390      5.717
REMARK INTER + INTRA:          -4.126
REMARK INTER:                  -3.999
REMARK INTRA:                  -0.127
REMARK UNBOUND:                -0.125
REMARK SMILES Cc1ccc(C(C)C)cc1O
REMARK SMILES IDX 1 1 2 2 10 3 9 4 5 5 4 6 3 7 11 8 6 10 7 11 8 12
REMARK H PARENT 11 9
REMARK Flexibility Score: inf
ROOT
ATOM      1  C   UNL     1     155.297 157.498 167.523  1.00  0.00     0.048 C 
ATOM      2  C   UNL     1     155.874 156.252 166.914  1.00  0.00    -0.009 A 
ATOM      3  C   UNL     1     156.332 155.208 167.736  1.00  0.00     0.118 A 
ATOM      4  C   UNL     1     156.870 154.048 167.161  1.00  0.00     0.050 A 
ATOM      5  C   UNL     1     156.958 153.914 165.765  1.00  0.00    -0.042 A 
ATOM      6  C   UNL     1     156.498 154.964 164.950  1.00  0.00     0.004 A 
ATOM      7  C   UNL     1     155.962 156.122 165.520  1.00  0.00     0.007 A 
ENDROOT
BRANCH   3   8
ATOM      8  O   UNL     1     156.250 155.326 169.123  1.00  0.00    -0.508 OA
ATOM      9  H   UNL     1     155.378 155.557 169.587  1.00  0.00     0.293 HD
ENDBRANCH   3   8
BRANCH   5  10
ATOM     10  C   UNL     1     157.543 152.651 165.159  1.00  0.00     0.013 C 
ATOM     11  C   UNL     1     157.162 152.520 163.679  1.00  0.00     0.012 C 
ATOM     12  C   UNL     1     157.115 151.409 165.949  1.00  0.00     0.012 C 
ENDBRANCH   5  10
TORSDOF 2
ENDMDL
MODEL 3
REMARK VINA RESULT:    -3.677      4.348      6.115
REMARK INTER + INTRA:          -4.125
REMARK INTER:                  -4.011
REMARK INTRA:                  -0.114
REMARK UNBOUND:                -0.125
REMARK SMILES Cc1ccc(C(C)C)cc1O
REMARK SMILES IDX 1 1 2 2 10 3 9 4 5 5 4 6 3 7 11 8 6 10 7 11 8 12
REMARK H PARENT 11 9
REMARK Flexibility Score: inf
ROOT
ATOM      1  C   UNL     1     157.472 166.635 163.719  1.00  0.00     0.048 C 
ATOM      2  C   UNL     1     157.532 165.249 164.297  1.00  0.00    -0.009 A 
ATOM      3  C   UNL     1     157.990 165.049 165.611  1.00  0.00     0.118 A 
ATOM      4  C   UNL     1     158.044 163.753 166.144  1.00  0.00     0.050 A 
ATOM      5  C   UNL     1     157.644 162.645 165.378  1.00  0.00    -0.042 A 
ATOM      6  C   UNL     1     157.188 162.855 164.064  1.00  0.00     0.004 A 
ATOM      7  C   UNL     1     157.133 164.145 163.529  1.00  0.00     0.007 A 
ENDROOT
BRANCH   3   8
ATOM      8  O   UNL     1     158.390 166.139 166.383  1.00  0.00    -0.508 OA
ATOM      9  H   UNL     1     159.328 166.519 166.321  1.00  0.00     0.293 HD
ENDBRANCH   3   8
BRANCH   5  10
ATOM     10  C   UNL     1     157.709 161.249 165.971  1.00  0.00     0.013 C 
ATOM     11  C   UNL     1     156.306 160.654 166.139  1.00  0.00     0.012 C 
ATOM     12  C   UNL     1     158.470 161.249 167.302  1.00  0.00     0.012 C 
ENDBRANCH   5  10
TORSDOF 2
ENDMDL
MODEL 4
REMARK VINA RESULT:    -3.658      4.260      6.124
REMARK INTER + INTRA:          -4.105
REMARK INTER:                  -3.979
REMARK INTRA:                  -0.125
REMARK UNBOUND:                -0.125
REMARK SMILES Cc1ccc(C(C)C)cc1O
REMARK SMILES IDX 1 1 2 2 10 3 9 4 5 5 4 6 3 7 11 8 6 10 7 11 8 12
REMARK H PARENT 11 9
REMARK Flexibility Score: inf
ROOT
ATOM      1  C   UNL     1     161.745 157.632 165.569  1.00  0.00     0.048 C 
ATOM      2  C   UNL     1     160.519 156.959 166.118  1.00  0.00    -0.009 A 
ATOM      3  C   UNL     1     160.591 156.227 167.317  1.00  0.00     0.118 A 
ATOM      4  C   UNL     1     159.444 155.600 167.824  1.00  0.00     0.050 A 
ATOM      5  C   UNL     1     158.216 155.695 167.147  1.00  0.00    -0.042 A 
ATOM      6  C   UNL     1     158.154 156.429 165.949  1.00  0.00     0.004 A 
ATOM      7  C   UNL     1     159.295 157.054 165.440  1.00  0.00     0.007 A 
ENDROOT
BRANCH   3   8
ATOM      8  O   UNL     1     161.802 156.125 168.000  1.00  0.00    -0.508 OA
ATOM      9  H   UNL     1     162.293 156.946 168.338  1.00  0.00     0.293 HD
ENDBRANCH   3   8
BRANCH   5  10
ATOM     10  C   UNL     1     156.983 155.010 167.710  1.00  0.00     0.013 C 
ATOM     11  C   UNL     1     156.739 153.661 167.025  1.00  0.00     0.012 C 
ATOM     12  C   UNL     1     155.750 155.915 167.601  1.00  0.00     0.012 C 
ENDBRANCH   5  10
TORSDOF 2
ENDMDL
MODEL 5
REMARK VINA RESULT:    -3.658      7.488      8.433
REMARK INTER + INTRA:          -4.104
REMARK INTER:                  -3.978
REMARK INTRA:                  -0.125
REMARK UNBOUND:                -0.125
REMARK SMILES Cc1ccc(C(C)C)cc1O
REMARK SMILES IDX 1 1 2 2 10 3 9 4 5 5 4 6 3 7 11 8 6 10 7 11 8 12
REMARK H PARENT 11 9
REMARK Flexibility Score: inf
ROOT
ATOM      1  C   UNL     1     159.269 148.615 164.197  1.00  0.00     0.048 C 
ATOM      2  C   UNL     1     158.782 149.955 164.671  1.00  0.00    -0.009 A 
ATOM      3  C   UNL     1     157.601 150.053 165.427  1.00  0.00     0.118 A 
ATOM      4  C   UNL     1     157.152 151.306 165.865  1.00  0.00     0.050 A 
ATOM      5  C   UNL     1     157.871 152.474 165.559  1.00  0.00    -0.042 A 
ATOM      6  C   UNL     1     159.053 152.367 164.803  1.00  0.00     0.004 A 
ATOM      7  C   UNL     1     159.503 151.119 164.363  1.00  0.00     0.007 A 
ENDROOT
BRANCH   3   8
ATOM      8  O   UNL     1     156.876 148.903 165.739  1.00  0.00    -0.508 OA
ATOM      9  H   UNL     1     157.102 148.336 166.549  1.00  0.00     0.293 HD
ENDBRANCH   3   8
BRANCH   5  10
ATOM     10  C   UNL     1     157.371 153.823 166.043  1.00  0.00     0.013 C 
ATOM     11  C   UNL     1     158.536 154.791 166.283  1.00  0.00     0.012 C 
ATOM     12  C   UNL     1     156.510 153.674 167.302  1.00  0.00     0.012 C 
ENDBRANCH   5  10
TORSDOF 2
ENDMDL
MODEL 6
REMARK VINA RESULT:    -3.657      6.371      8.593
REMARK INTER + INTRA:          -4.103
REMARK INTER:                  -4.002
REMARK INTRA:                  -0.101
REMARK UNBOUND:                -0.125
REMARK SMILES Cc1ccc(C(C)C)cc1O
REMARK SMILES IDX 1 1 2 2 10 3 9 4 5 5 4 6 3 7 11 8 6 10 7 11 8 12
REMARK H PARENT 11 9
REMARK Flexibility Score: inf
ROOT
ATOM      1  C   UNL     1     166.105 156.229 163.229  1.00  0.00     0.048 C 
ATOM      2  C   UNL     1     164.778 156.616 163.817  1.00  0.00    -0.009 A 
ATOM      3  C   UNL     1     164.687 157.001 165.167  1.00  0.00     0.118 A 
ATOM      4  C   UNL     1     163.445 157.359 165.710  1.00  0.00     0.050 A 
ATOM      5  C   UNL     1     162.283 157.340 164.919  1.00  0.00    -0.042 A 
ATOM      6  C   UNL     1     162.384 156.955 163.571  1.00  0.00     0.004 A 
ATOM      7  C   UNL     1     163.620 156.595 163.026  1.00  0.00     0.007 A 
ENDROOT
BRANCH   3   8
ATOM      8  O   UNL     1     165.831 157.025 165.964  1.00  0.00    -0.508 OA
ATOM      9  H   UNL     1     166.097 157.852 166.486  1.00  0.00     0.293 HD
ENDBRANCH   3   8
BRANCH   5  10
ATOM     10  C   UNL     1     160.947 157.733 165.524  1.00  0.00     0.013 C 
ATOM     11  C   UNL     1     160.825 159.255 165.654  1.00  0.00     0.012 C 
ATOM     12  C   UNL     1     160.729 157.045 166.877  1.00  0.00     0.012 C 
ENDBRANCH   5  10
TORSDOF 2
ENDMDL
MODEL 7
REMARK VINA RESULT:    -3.629      3.293      5.167
REMARK INTER + INTRA:          -4.072
REMARK INTER:                  -3.966
REMARK INTRA:                  -0.106
REMARK UNBOUND:                -0.125
REMARK SMILES Cc1ccc(C(C)C)cc1O
REMARK SMILES IDX 1 1 2 2 10 3 9 4 5 5 4 6 3 7 11 8 6 10 7 11 8 12
REMARK H PARENT 11 9
REMARK Flexibility Score: inf
ROOT
ATOM      1  C   UNL     1     148.783 158.323 163.269  1.00  0.00     0.048 C 
ATOM      2  C   UNL     1     150.156 158.145 163.853  1.00  0.00    -0.009 A 
ATOM      3  C   UNL     1     150.344 158.182 165.246  1.00  0.00     0.118 A 
ATOM      4  C   UNL     1     151.628 158.015 165.784  1.00  0.00     0.050 A 
ATOM      5  C   UNL     1     152.736 157.809 164.945  1.00  0.00    -0.042 A 
ATOM      6  C   UNL     1     152.539 157.773 163.553  1.00  0.00     0.004 A 
ATOM      7  C   UNL     1     151.261 157.940 163.013  1.00  0.00     0.007 A 
ENDROOT
BRANCH   3   8
ATOM      8  O   UNL     1     149.254 158.385 166.091  1.00  0.00    -0.508 OA
ATOM      9  H   UNL     1     148.609 157.636 166.316  1.00  0.00     0.293 HD
ENDBRANCH   3   8
BRANCH   5  10
ATOM     10  C   UNL     1     154.119 157.630 165.545  1.00  0.00     0.013 C 
ATOM     11  C   UNL     1     154.455 156.145 165.726  1.00  0.00     0.012 C 
ATOM     12  C   UNL     1     154.250 158.389 166.871  1.00  0.00     0.012 C 
ENDBRANCH   5  10
TORSDOF 2
ENDMDL
MODEL 8
REMARK VINA RESULT:    -3.614      3.488      4.322
REMARK INTER + INTRA:          -4.056
REMARK INTER:                  -3.929
REMARK INTRA:                  -0.127
REMARK UNBOUND:                -0.125
REMARK SMILES Cc1ccc(C(C)C)cc1O
REMARK SMILES IDX 1 1 2 2 10 3 9 4 5 5 4 6 3 7 11 8 6 10 7 11 8 12
REMARK H PARENT 11 9
REMARK Flexibility Score: inf
ROOT
ATOM      1  C   UNL     1     159.815 157.693 167.662  1.00  0.00     0.048 C 
ATOM      2  C   UNL     1     159.210 158.883 166.973  1.00  0.00    -0.009 A 
ATOM      3  C   UNL     1     158.672 159.941 167.727  1.00  0.00     0.118 A 
ATOM      4  C   UNL     1     158.108 161.048 167.077  1.00  0.00     0.050 A 
ATOM      5  C   UNL     1     158.074 161.116 165.674  1.00  0.00    -0.042 A 
ATOM      6  C   UNL     1     158.614 160.053 164.927  1.00  0.00     0.004 A 
ATOM      7  C   UNL     1     159.176 158.947 165.571  1.00  0.00     0.007 A 
ENDROOT
BRANCH   3   8
ATOM      8  O   UNL     1     158.700 159.888 169.120  1.00  0.00    -0.508 OA
ATOM      9  H   UNL     1     158.348 160.651 169.688  1.00  0.00     0.293 HD
ENDBRANCH   3   8
BRANCH   5  10
ATOM     10  C   UNL     1     157.460 162.322 164.987  1.00  0.00     0.013 C 
ATOM     11  C   UNL     1     157.959 162.449 163.542  1.00  0.00     0.012 C 
ATOM     12  C   UNL     1     157.732 163.607 165.778  1.00  0.00     0.012 C 
ENDBRANCH   5  10
TORSDOF 2
ENDMDL
