MODEL 1
REMARK VINA RESULT:    -5.398      0.000      0.000
REMARK INTER + INTRA:          -5.398
REMARK INTER:                  -5.398
REMARK INTRA:                   0.000
REMARK UNBOUND:                 0.000
REMARK SMILES O=c1ccc2ccccc2o1
REMARK SMILES IDX 7 1 8 2 9 3 10 4 5 5 6 6 4 7 3 8 2 9 1 10 11 11
REMARK H PARENT
REMARK Flexibility Score: inf
ROOT
ATOM      1  C   UNL     1      28.484   0.905  13.078  1.00  0.00     0.001 A 
ATOM      2  C   UNL     1      27.883  -0.337  13.305  1.00  0.00     0.004 A 
ATOM      3  C   UNL     1      26.490  -0.465  13.258  1.00  0.00     0.048 A 
ATOM      4  C   UNL     1      25.693   0.652  12.984  1.00  0.00     0.138 A 
ATOM      5  C   UNL     1      26.300   1.907  12.756  1.00  0.00     0.018 A 
ATOM      6  C   UNL     1      27.696   2.028  12.804  1.00  0.00     0.012 A 
ATOM      7  C   UNL     1      25.477   3.005  12.485  1.00  0.00     0.019 A 
ATOM      8  C   UNL     1      24.094   2.831  12.448  1.00  0.00     0.094 A 
ATOM      9  C   UNL     1      23.563   1.557  12.684  1.00  0.00     0.336 A 
ATOM     10  O   UNL     1      22.318   1.381  12.655  1.00  0.00    -0.246 OA
ATOM     11  O   UNL     1      24.369   0.530  12.941  1.00  0.00    -0.423 OA
ENDROOT
TORSDOF 0
ENDMDL
MODEL 2
REMARK VINA RESULT:    -5.351      1.853      4.339
REMARK INTER + INTRA:          -5.351
REMARK INTER:                  -5.351
REMARK INTRA:                   0.000
REMARK UNBOUND:                 0.000
REMARK SMILES O=c1ccc2ccccc2o1
REMARK SMILES IDX 7 1 8 2 9 3 10 4 5 5 6 6 4 7 3 8 2 9 1 10 11 11
REMARK H PARENT
REMARK Flexibility Score: inf
ROOT
ATOM      1  C   UNL     1      22.885   1.501  12.626  1.00  0.00     0.001 A 
ATOM      2  C   UNL     1      23.372   2.754  12.242  1.00  0.00     0.004 A 
ATOM      3  C   UNL     1      24.749   3.007  12.248  1.00  0.00     0.048 A 
ATOM      4  C   UNL     1      25.643   2.005  12.641  1.00  0.00     0.138 A 
ATOM      5  C   UNL     1      25.151   0.739  13.031  1.00  0.00     0.018 A 
ATOM      6  C   UNL     1      23.770   0.492  13.021  1.00  0.00     0.012 A 
ATOM      7  C   UNL     1      26.068  -0.242  13.418  1.00  0.00     0.019 A 
ATOM      8  C   UNL     1      27.431   0.054  13.410  1.00  0.00     0.094 A 
ATOM      9  C   UNL     1      27.846   1.330  13.012  1.00  0.00     0.336 A 
ATOM     10  O   UNL     1      29.071   1.616  12.998  1.00  0.00    -0.246 OA
ATOM     11  O   UNL     1      26.951   2.246  12.648  1.00  0.00    -0.423 OA
ENDROOT
TORSDOF 0
ENDMDL
MODEL 3
REMARK VINA RESULT:    -5.329      1.472      3.797
REMARK INTER + INTRA:          -5.329
REMARK INTER:                  -5.329
REMARK INTRA:                   0.000
REMARK UNBOUND:                 0.000
REMARK SMILES O=c1ccc2ccccc2o1
REMARK SMILES IDX 7 1 8 2 9 3 10 4 5 5 6 6 4 7 3 8 2 9 1 10 11 11
REMARK H PARENT
REMARK Flexibility Score: inf
ROOT
ATOM      1  C   UNL     1      23.357   2.918  12.367  1.00  0.00     0.001 A 
ATOM      2  C   UNL     1      22.831   1.633  12.541  1.00  0.00     0.004 A 
ATOM      3  C   UNL     1      23.684   0.547  12.766  1.00  0.00     0.048 A 
ATOM      4  C   UNL     1      25.069   0.743  12.817  1.00  0.00     0.138 A 
ATOM      5  C   UNL     1      25.600   2.040  12.641  1.00  0.00     0.018 A 
ATOM      6  C   UNL     1      24.739   3.124  12.416  1.00  0.00     0.012 A 
ATOM      7  C   UNL     1      26.987   2.205  12.698  1.00  0.00     0.019 A 
ATOM      8  C   UNL     1      27.800   1.094  12.924  1.00  0.00     0.094 A 
ATOM      9  C   UNL     1      27.203  -0.161  13.090  1.00  0.00     0.336 A 
ATOM     10  O   UNL     1      27.919  -1.175  13.295  1.00  0.00    -0.246 OA
ATOM     11  O   UNL     1      25.879  -0.290  13.030  1.00  0.00    -0.423 OA
ENDROOT
TORSDOF 0
ENDMDL
MODEL 4
REMARK VINA RESULT:    -5.094      1.717      3.613
REMARK INTER + INTRA:          -5.094
REMARK INTER:                  -5.094
REMARK INTRA:                   0.000
REMARK UNBOUND:                 0.000
REMARK SMILES O=c1ccc2ccccc2o1
REMARK SMILES IDX 7 1 8 2 9 3 10 4 5 5 6 6 4 7 3 8 2 9 1 10 11 11
REMARK H PARENT
REMARK Flexibility Score: inf
ROOT
ATOM      1  C   UNL     1      25.775   3.014  12.330  1.00  0.00     0.001 A 
ATOM      2  C   UNL     1      24.509   2.998  12.924  1.00  0.00     0.004 A 
ATOM      3  C   UNL     1      24.145   1.950  13.777  1.00  0.00     0.048 A 
ATOM      4  C   UNL     1      25.047   0.913  14.038  1.00  0.00     0.138 A 
ATOM      5  C   UNL     1      26.326   0.929  13.437  1.00  0.00     0.018 A 
ATOM      6  C   UNL     1      26.685   1.982  12.583  1.00  0.00     0.012 A 
ATOM      7  C   UNL     1      27.206  -0.120  13.717  1.00  0.00     0.019 A 
ATOM      8  C   UNL     1      26.801  -1.144  14.573  1.00  0.00     0.094 A 
ATOM      9  C   UNL     1      25.519  -1.094  15.132  1.00  0.00     0.336 A 
ATOM     10  O   UNL     1      25.135  -2.008  15.906  1.00  0.00    -0.246 OA
ATOM     11  O   UNL     1      24.700  -0.083  14.848  1.00  0.00    -0.423 OA
ENDROOT
TORSDOF 0
ENDMDL
MODEL 5
REMARK VINA RESULT:    -5.066      1.159      2.092
REMARK INTER + INTRA:          -5.066
REMARK INTER:                  -5.066
REMARK INTRA:                   0.000
REMARK UNBOUND:                 0.000
REMARK SMILES O=c1ccc2ccccc2o1
REMARK SMILES IDX 7 1 8 2 9 3 10 4 5 5 6 6 4 7 3 8 2 9 1 10 11 11
REMARK H PARENT
REMARK Flexibility Score: inf
ROOT
ATOM      1  C   UNL     1      28.168   0.056  13.565  1.00  0.00     0.001 A 
ATOM      2  C   UNL     1      28.546   1.276  12.995  1.00  0.00     0.004 A 
ATOM      3  C   UNL     1      27.573   2.206  12.611  1.00  0.00     0.048 A 
ATOM      4  C   UNL     1      26.217   1.916  12.795  1.00  0.00     0.138 A 
ATOM      5  C   UNL     1      25.834   0.683  13.369  1.00  0.00     0.018 A 
ATOM      6  C   UNL     1      26.815  -0.244  13.752  1.00  0.00     0.012 A 
ATOM      7  C   UNL     1      24.472   0.423  13.541  1.00  0.00     0.019 A 
ATOM      8  C   UNL     1      23.537   1.378  13.143  1.00  0.00     0.094 A 
ATOM      9  C   UNL     1      23.989   2.578  12.581  1.00  0.00     0.336 A 
ATOM     10  O   UNL     1      23.161   3.452  12.216  1.00  0.00    -0.246 OA
ATOM     11  O   UNL     1      25.292   2.800  12.428  1.00  0.00    -0.423 OA
ENDROOT
TORSDOF 0
ENDMDL
MODEL 6
REMARK VINA RESULT:    -5.060      1.457      2.000
REMARK INTER + INTRA:          -5.060
REMARK INTER:                  -5.060
REMARK INTRA:                   0.000
REMARK UNBOUND:                 0.000
REMARK SMILES O=c1ccc2ccccc2o1
REMARK SMILES IDX 7 1 8 2 9 3 10 4 5 5 6 6 4 7 3 8 2 9 1 10 11 11
REMARK H PARENT
REMARK Flexibility Score: inf
ROOT
ATOM      1  C   UNL     1      27.112  -1.092  14.478  1.00  0.00     0.001 A 
ATOM      2  C   UNL     1      25.859  -1.224  15.086  1.00  0.00     0.004 A 
ATOM      3  C   UNL     1      24.862  -0.268  14.859  1.00  0.00     0.048 A 
ATOM      4  C   UNL     1      25.116   0.824  14.022  1.00  0.00     0.138 A 
ATOM      5  C   UNL     1      26.382   0.957  13.408  1.00  0.00     0.018 A 
ATOM      6  C   UNL     1      27.376  -0.004  13.639  1.00  0.00     0.012 A 
ATOM      7  C   UNL     1      26.606   2.059  12.576  1.00  0.00     0.019 A 
ATOM      8  C   UNL     1      25.583   2.986  12.379  1.00  0.00     0.094 A 
ATOM      9  C   UNL     1      24.355   2.790  13.020  1.00  0.00     0.336 A 
ATOM     10  O   UNL     1      23.421   3.616  12.855  1.00  0.00    -0.246 OA
ATOM     11  O   UNL     1      24.168   1.733  13.807  1.00  0.00    -0.423 OA
ENDROOT
TORSDOF 0
ENDMDL
MODEL 7
REMARK VINA RESULT:    -5.039      1.806      2.192
REMARK INTER + INTRA:          -5.039
REMARK INTER:                  -5.039
REMARK INTRA:                   0.000
REMARK UNBOUND:                 0.000
REMARK SMILES O=c1ccc2ccccc2o1
REMARK SMILES IDX 7 1 8 2 9 3 10 4 5 5 6 6 4 7 3 8 2 9 1 10 11 11
REMARK H PARENT
REMARK Flexibility Score: inf
ROOT
ATOM      1  C   UNL     1      26.520  -1.154  14.623  1.00  0.00     0.001 A 
ATOM      2  C   UNL     1      27.098  -1.357  13.365  1.00  0.00     0.004 A 
ATOM      3  C   UNL     1      26.710  -0.570  12.276  1.00  0.00     0.048 A 
ATOM      4  C   UNL     1      25.739   0.424  12.440  1.00  0.00     0.138 A 
ATOM      5  C   UNL     1      25.154   0.630  13.710  1.00  0.00     0.018 A 
ATOM      6  C   UNL     1      25.548  -0.163  14.798  1.00  0.00     0.012 A 
ATOM      7  C   UNL     1      24.188   1.631  13.844  1.00  0.00     0.019 A 
ATOM      8  C   UNL     1      23.831   2.391  12.730  1.00  0.00     0.094 A 
ATOM      9  C   UNL     1      24.453   2.131  11.503  1.00  0.00     0.336 A 
ATOM     10  O   UNL     1      24.144   2.806  10.487  1.00  0.00    -0.246 OA
ATOM     11  O   UNL     1      25.370   1.171  11.404  1.00  0.00    -0.423 OA
ENDROOT
TORSDOF 0
ENDMDL
MODEL 8
REMARK VINA RESULT:    -4.992      1.807      2.339
REMARK INTER + INTRA:          -4.992
REMARK INTER:                  -4.992
REMARK INTRA:                   0.000
REMARK UNBOUND:                 0.000
REMARK SMILES O=c1ccc2ccccc2o1
REMARK SMILES IDX 7 1 8 2 9 3 10 4 5 5 6 6 4 7 3 8 2 9 1 10 11 11
REMARK H PARENT
REMARK Flexibility Score: inf
ROOT
ATOM      1  C   UNL     1      26.375  -0.805  11.420  1.00  0.00     0.001 A 
ATOM      2  C   UNL     1      27.193  -0.394  12.478  1.00  0.00     0.004 A 
ATOM      3  C   UNL     1      26.874   0.757  13.207  1.00  0.00     0.048 A 
ATOM      4  C   UNL     1      25.736   1.502  12.878  1.00  0.00     0.138 A 
ATOM      5  C   UNL     1      24.911   1.087  11.809  1.00  0.00     0.018 A 
ATOM      6  C   UNL     1      25.236  -0.068  11.083  1.00  0.00     0.012 A 
ATOM      7  C   UNL     1      23.781   1.852  11.505  1.00  0.00     0.019 A 
ATOM      8  C   UNL     1      23.503   2.992  12.258  1.00  0.00     0.094 A 
ATOM      9  C   UNL     1      24.365   3.342  13.303  1.00  0.00     0.336 A 
ATOM     10  O   UNL     1      24.131   4.368  13.994  1.00  0.00    -0.246 OA
ATOM     11  O   UNL     1      25.435   2.597  13.571  1.00  0.00    -0.423 OA
ENDROOT
TORSDOF 0
ENDMDL
MODEL 9
REMARK VINA RESULT:    -4.622      7.622      7.875
REMARK INTER + INTRA:          -4.622
REMARK INTER:                  -4.622
REMARK INTRA:                   0.000
REMARK UNBOUND:                 0.000
REMARK SMILES O=c1ccc2ccccc2o1
REMARK SMILES IDX 7 1 8 2 9 3 10 4 5 5 6 6 4 7 3 8 2 9 1 10 11 11
REMARK H PARENT
REMARK Flexibility Score: inf
ROOT
ATOM      1  C   UNL     1      30.485   0.404   7.070  1.00  0.00     0.001 A 
ATOM      2  C   UNL     1      29.771  -0.368   7.993  1.00  0.00     0.004 A 
ATOM      3  C   UNL     1      28.557  -0.960   7.626  1.00  0.00     0.048 A 
ATOM      4  C   UNL     1      28.052  -0.780   6.334  1.00  0.00     0.138 A 
ATOM      5  C   UNL     1      28.772   0.000   5.402  1.00  0.00     0.018 A 
ATOM      6  C   UNL     1      29.989   0.590   5.776  1.00  0.00     0.012 A 
ATOM      7  C   UNL     1      28.243   0.161   4.118  1.00  0.00     0.019 A 
ATOM      8  C   UNL     1      27.030  -0.446   3.797  1.00  0.00     0.094 A 
ATOM      9  C   UNL     1      26.372  -1.205   4.771  1.00  0.00     0.336 A 
ATOM     10  O   UNL     1      25.276  -1.761   4.500  1.00  0.00    -0.246 OA
ATOM     11  O   UNL     1      26.897  -1.342   5.986  1.00  0.00    -0.423 OA
ENDROOT
TORSDOF 0
ENDMDL
