MODEL 1
REMARK VINA RESULT:    -4.574      0.000      0.000
REMARK INTER + INTRA:          -6.932
REMARK INTER:                  -6.981
REMARK INTRA:                   0.049
REMARK UNBOUND:                 0.049
REMARK SMILES CC1=CCC[C@H](C)C(=O)C[C@H](C(C)C)C(=O)C1
REMARK SMILES IDX 8 1 9 2 6 3 7 4 5 5 4 6 3 7 2 8 1 9 10 11 11 12 15 13 16 14
REMARK SMILES IDX 17 15 12 17 13 18 14 19
REMARK H PARENT
REMARK Flexibility Score: 70.00
ROOT
ATOM      1  C   UNL     1      21.048  27.997 -15.127  1.00  0.00     0.136 C 
ATOM      2  O   UNL     1      20.699  27.115 -15.896  1.00  0.00    -0.299 OA
ENDROOT
BRANCH   1   3
ATOM      3  C   UNL     1      22.535  28.277 -14.967  1.00  0.00     0.053 C 
ATOM      4  C   UNL     1      23.379  27.491 -15.982  1.00  0.00     0.016 C 
BRANCH   3   5
ATOM      5  C   UNL     1      22.840  29.802 -14.848  1.00  0.00     0.015 C 
BRANCH   5   6
ATOM      6  C   UNL     1      23.177  30.408 -13.468  1.00  0.00     0.028 C 
BRANCH   6   7
ATOM      7  C   UNL     1      23.162  29.481 -12.276  1.00  0.00    -0.028 C 
ATOM      8  C   UNL     1      22.073  29.039 -11.605  1.00  0.00    -0.070 CG0
ATOM      9  C   UNL     1      22.281  27.966 -10.565  1.00  0.00     0.039 C 
ATOM     10  G   UNL     1      20.678  29.599 -11.788  1.00  0.00     0.000 G0
ENDBRANCH   6   7
ENDBRANCH   5   6
ENDBRANCH   3   5
ENDBRANCH   1   3
BRANCH   1  11
ATOM     11  C   UNL     1      19.986  28.765 -14.372  1.00  0.00     0.087 C 
BRANCH  11  12
ATOM     12  C   UNL     1      19.303  27.901 -13.267  1.00  0.00     0.066 C 
BRANCH  12  13
ATOM     13  C   UNL     1      19.668  28.473 -11.907  1.00  0.00     0.140 C 
ATOM     14  O   UNL     1      19.060  28.109 -10.910  1.00  0.00    -0.299 OA
BRANCH  13  15
ATOM     15  C   UNL     1      20.665  29.600 -11.778  1.00  0.00     0.106 CG0
ATOM     16  G   UNL     1      22.061  29.034 -11.618  1.00  0.00     0.000 G0
ENDBRANCH  13  15
ENDBRANCH  12  13
BRANCH  12  17
ATOM     17  C   UNL     1      17.753  27.779 -13.450  1.00  0.00    -0.006 C 
ATOM     18  C   UNL     1      17.310  28.104 -14.887  1.00  0.00     0.008 C 
ATOM     19  C   UNL     1      17.259  26.363 -13.095  1.00  0.00     0.008 C 
ENDBRANCH  12  17
ENDBRANCH  11  12
ENDBRANCH   1  11
TORSDOF 1
ENDMDL
MODEL 2
REMARK VINA RESULT:    -4.569      2.131      5.163
REMARK INTER + INTRA:          -6.924
REMARK INTER:                  -6.963
REMARK INTRA:                   0.039
REMARK UNBOUND:                 0.049
REMARK SMILES CC1=CCC[C@H](C)C(=O)C[C@H](C(C)C)C(=O)C1
REMARK SMILES IDX 8 1 9 2 6 3 7 4 5 5 4 6 3 7 2 8 1 9 10 11 11 12 15 13 16 14
REMARK SMILES IDX 17 15 12 17 13 18 14 19
REMARK H PARENT
REMARK Flexibility Score: 70.00
ROOT
ATOM      1  C   UNL     1      19.681  28.495 -12.159  1.00  0.00     0.136 C 
ATOM      2  O   UNL     1      19.510  28.396 -10.953  1.00  0.00    -0.299 OA
ENDROOT
BRANCH   1   3
ATOM      3  C   UNL     1      18.784  27.694 -13.090  1.00  0.00     0.053 C 
ATOM      4  C   UNL     1      17.467  27.288 -12.409  1.00  0.00     0.016 C 
BRANCH   3   5
ATOM      5  C   UNL     1      18.660  28.350 -14.499  1.00  0.00     0.015 C 
BRANCH   5   6
ATOM      6  C   UNL     1      19.386  27.714 -15.705  1.00  0.00     0.028 C 
BRANCH   6   7
ATOM      7  C   UNL     1      20.250  28.617 -16.554  1.00  0.00    -0.028 C 
ATOM      8  C   UNL     1      21.600  28.703 -16.532  1.00  0.00    -0.070 CG0
ATOM      9  C   UNL     1      22.264  29.532 -17.604  1.00  0.00     0.039 C 
ATOM     10  G   UNL     1      22.474  28.076 -15.466  1.00  0.00     0.000 G0
ENDBRANCH   6   7
ENDBRANCH   5   6
ENDBRANCH   3   5
ENDBRANCH   1   3
BRANCH   1  11
ATOM     11  C   UNL     1      20.777  29.407 -12.663  1.00  0.00     0.087 C 
BRANCH  11  12
ATOM     12  C   UNL     1      22.119  28.646 -12.901  1.00  0.00     0.066 C 
BRANCH  12  13
ATOM     13  C   UNL     1      22.642  29.002 -14.283  1.00  0.00     0.140 C 
ATOM     14  O   UNL     1      23.105  30.115 -14.490  1.00  0.00    -0.299 OA
BRANCH  13  15
ATOM     15  C   UNL     1      22.460  28.062 -15.451  1.00  0.00     0.106 CG0
ATOM     16  G   UNL     1      21.604  28.721 -16.512  1.00  0.00     0.000 G0
ENDBRANCH  13  15
ENDBRANCH  12  13
BRANCH  12  17
ATOM     17  C   UNL     1      23.185  28.915 -11.788  1.00  0.00    -0.006 C 
ATOM     18  C   UNL     1      22.661  29.866 -10.697  1.00  0.00     0.008 C 
ATOM     19  C   UNL     1      23.634  27.603 -11.116  1.00  0.00     0.008 C 
ENDBRANCH  12  17
ENDBRANCH  11  12
ENDBRANCH   1  11
TORSDOF 1
ENDMDL
MODEL 3
REMARK VINA RESULT:    -4.498      1.740      4.391
REMARK INTER + INTRA:          -6.816
REMARK INTER:                  -6.691
REMARK INTRA:                  -0.125
REMARK UNBOUND:                 0.049
REMARK SMILES CC1=CCC[C@H](C)C(=O)C[C@H](C(C)C)C(=O)C1
REMARK SMILES IDX 8 1 9 2 6 3 7 4 5 5 4 6 3 7 2 8 1 9 10 11 11 12 15 13 16 14
REMARK SMILES IDX 17 15 12 17 13 18 14 19
REMARK H PARENT
REMARK Flexibility Score: 70.00
ROOT
ATOM      1  C   UNL     1      23.276  28.436 -12.492  1.00  0.00     0.136 C 
ATOM      2  O   UNL     1      24.114  27.617 -12.837  1.00  0.00    -0.299 OA
ENDROOT
BRANCH   1   3
ATOM      3  C   UNL     1      23.081  28.697 -11.006  1.00  0.00     0.053 C 
ATOM      4  C   UNL     1      23.164  30.194 -10.671  1.00  0.00     0.016 C 
BRANCH   3   5
ATOM      5  C   UNL     1      21.854  27.926 -10.427  1.00  0.00     0.015 C 
BRANCH   5   6
ATOM      6  C   UNL     1      20.460  28.589 -10.440  1.00  0.00     0.028 C 
BRANCH   6   7
ATOM      7  C   UNL     1      19.346  27.861 -11.155  1.00  0.00    -0.028 C 
ATOM      8  C   UNL     1      19.061  27.912 -12.476  1.00  0.00    -0.070 CG0
ATOM      9  C   UNL     1      18.024  26.952 -13.004  1.00  0.00     0.039 C 
ATOM     10  G   UNL     1      19.669  28.911 -13.439  1.00  0.00     0.000 G0
ENDBRANCH   6   7
ENDBRANCH   5   6
ENDBRANCH   3   5
ENDBRANCH   1   3
BRANCH   1  11
ATOM     11  C   UNL     1      22.473  29.145 -13.559  1.00  0.00     0.087 C 
BRANCH  11  12
ATOM     12  C   UNL     1      21.893  28.158 -14.620  1.00  0.00     0.066 C 
BRANCH  12  13
ATOM     13  C   UNL     1      20.376  28.234 -14.578  1.00  0.00     0.140 C 
ATOM     14  O   UNL     1      19.720  27.832 -15.529  1.00  0.00    -0.299 OA
BRANCH  13  15
ATOM     15  C   UNL     1      19.662  28.941 -13.450  1.00  0.00     0.106 CG0
ATOM     16  G   UNL     1      19.074  27.922 -12.496  1.00  0.00     0.000 G0
ENDBRANCH  13  15
ENDBRANCH  12  13
BRANCH  12  17
ATOM     17  C   UNL     1      22.449  28.407 -16.062  1.00  0.00    -0.006 C 
ATOM     18  C   UNL     1      22.938  29.853 -16.255  1.00  0.00     0.008 C 
ATOM     19  C   UNL     1      23.615  27.451 -16.383  1.00  0.00     0.008 C 
ENDBRANCH  12  17
ENDBRANCH  11  12
ENDBRANCH   1  11
TORSDOF 1
ENDMDL
MODEL 4
REMARK VINA RESULT:    -4.425      1.603      3.930
REMARK INTER + INTRA:          -6.705
REMARK INTER:                  -6.485
REMARK INTRA:                  -0.219
REMARK UNBOUND:                 0.049
REMARK SMILES CC1=CCC[C@H](C)C(=O)C[C@H](C(C)C)C(=O)C1
REMARK SMILES IDX 8 1 9 2 6 3 7 4 5 5 4 6 3 7 2 8 1 9 10 11 11 12 15 13 16 14
REMARK SMILES IDX 17 15 12 17 13 18 14 19
REMARK H PARENT
REMARK Flexibility Score: 70.00
ROOT
ATOM      1  C   UNL     1      22.949  28.025 -15.083  1.00  0.00     0.136 C 
ATOM      2  O   UNL     1      23.626  27.167 -15.629  1.00  0.00    -0.299 OA
ENDROOT
BRANCH   1   3
ATOM      3  C   UNL     1      22.056  28.904 -15.945  1.00  0.00     0.053 C 
ATOM      4  C   UNL     1      22.787  29.414 -17.197  1.00  0.00     0.016 C 
BRANCH   3   5
ATOM      5  C   UNL     1      20.650  28.270 -16.177  1.00  0.00     0.015 C 
BRANCH   5   6
ATOM      6  C   UNL     1      19.449  28.741 -15.327  1.00  0.00     0.028 C 
BRANCH   6   7
ATOM      7  C   UNL     1      18.982  27.833 -14.214  1.00  0.00    -0.028 C 
ATOM      8  C   UNL     1      19.014  28.095 -12.887  1.00  0.00    -0.070 CG0
ATOM      9  C   UNL     1      18.318  27.123 -11.967  1.00  0.00     0.039 C 
ATOM     10  G   UNL     1      19.757  29.261 -12.268  1.00  0.00     0.000 G0
ENDBRANCH   6   7
ENDBRANCH   5   6
ENDBRANCH   3   5
ENDBRANCH   1   3
BRANCH   1  11
ATOM     11  C   UNL     1      23.036  28.171 -13.581  1.00  0.00     0.087 C 
BRANCH  11  12
ATOM     12  C   UNL     1      22.247  29.412 -13.059  1.00  0.00     0.066 C 
BRANCH  12  13
ATOM     13  C   UNL     1      21.206  28.940 -12.057  1.00  0.00     0.140 C 
ATOM     14  O   UNL     1      21.529  28.180 -11.155  1.00  0.00    -0.299 OA
BRANCH  13  15
ATOM     15  C   UNL     1      19.743  29.268 -12.243  1.00  0.00     0.106 CG0
ATOM     16  G   UNL     1      19.032  28.095 -12.886  1.00  0.00     0.000 G0
ENDBRANCH  13  15
ENDBRANCH  12  13
BRANCH  12  17
ATOM     17  C   UNL     1      23.173  30.521 -12.457  1.00  0.00    -0.006 C 
ATOM     18  C   UNL     1      23.735  31.461 -13.539  1.00  0.00     0.008 C 
ATOM     19  C   UNL     1      22.419  31.372 -11.416  1.00  0.00     0.008 C 
ENDBRANCH  12  17
ENDBRANCH  11  12
ENDBRANCH   1  11
TORSDOF 1
ENDMDL
MODEL 5
REMARK VINA RESULT:    -4.344      1.819      4.135
REMARK INTER + INTRA:          -6.581
REMARK INTER:                  -6.751
REMARK INTRA:                   0.169
REMARK UNBOUND:                 0.049
REMARK SMILES CC1=CCC[C@H](C)C(=O)C[C@H](C(C)C)C(=O)C1
REMARK SMILES IDX 8 1 9 2 6 3 7 4 5 5 4 6 3 7 2 8 1 9 10 11 11 12 15 13 16 14
REMARK SMILES IDX 17 15 12 17 13 18 14 19
REMARK H PARENT
REMARK Flexibility Score: 70.00
ROOT
ATOM      1  C   UNL     1      19.745  27.349 -15.667  1.00  0.00     0.136 C 
ATOM      2  O   UNL     1      19.088  26.406 -16.079  1.00  0.00    -0.299 OA
ENDROOT
BRANCH   1   3
ATOM      3  C   UNL     1      19.072  28.361 -14.751  1.00  0.00     0.053 C 
ATOM      4  C   UNL     1      17.584  28.540 -15.090  1.00  0.00     0.016 C 
BRANCH   3   5
ATOM      5  C   UNL     1      19.414  28.117 -13.249  1.00  0.00     0.015 C 
BRANCH   5   6
ATOM      6  C   UNL     1      20.195  29.191 -12.460  1.00  0.00     0.028 C 
BRANCH   6   7
ATOM      7  C   UNL     1      21.525  28.791 -11.866  1.00  0.00    -0.028 C 
ATOM      8  C   UNL     1      22.753  29.129 -12.324  1.00  0.00    -0.070 CG0
ATOM      9  C   UNL     1      23.940  28.778 -11.462  1.00  0.00     0.039 C 
ATOM     10  G   UNL     1      23.009  29.774 -13.671  1.00  0.00     0.000 G0
ENDBRANCH   6   7
ENDBRANCH   5   6
ENDBRANCH   3   5
ENDBRANCH   1   3
BRANCH   1  11
ATOM     11  C   UNL     1      21.193  27.464 -16.089  1.00  0.00     0.087 C 
BRANCH  11  12
ATOM     12  C   UNL     1      21.775  28.888 -15.828  1.00  0.00     0.066 C 
BRANCH  12  13
ATOM     13  C   UNL     1      22.886  28.779 -14.797  1.00  0.00     0.140 C 
ATOM     14  O   UNL     1      23.614  27.795 -14.788  1.00  0.00    -0.299 OA
BRANCH  13  15
ATOM     15  C   UNL     1      23.015  29.788 -13.680  1.00  0.00     0.106 CG0
ATOM     16  G   UNL     1      22.760  29.114 -12.348  1.00  0.00     0.000 G0
ENDBRANCH  13  15
ENDBRANCH  12  13
BRANCH  12  17
ATOM     17  C   UNL     1      22.260  29.604 -17.133  1.00  0.00    -0.006 C 
ATOM     18  C   UNL     1      23.794  29.605 -17.260  1.00  0.00     0.008 C 
ATOM     19  C   UNL     1      21.666  28.937 -18.389  1.00  0.00     0.008 C 
ENDBRANCH  12  17
ENDBRANCH  11  12
ENDBRANCH   1  11
TORSDOF 1
ENDMDL
MODEL 6
REMARK VINA RESULT:    -4.305      1.742      4.154
REMARK INTER + INTRA:          -6.521
REMARK INTER:                  -6.579
REMARK INTRA:                   0.058
REMARK UNBOUND:                 0.049
REMARK SMILES CC1=CCC[C@H](C)C(=O)C[C@H](C(C)C)C(=O)C1
REMARK SMILES IDX 8 1 9 2 6 3 7 4 5 5 4 6 3 7 2 8 1 9 10 11 11 12 15 13 16 14
REMARK SMILES IDX 17 15 12 17 13 18 14 19
REMARK H PARENT
REMARK Flexibility Score: 70.00
ROOT
ATOM      1  C   UNL     1      19.894  28.483 -15.524  1.00  0.00     0.136 C 
ATOM      2  O   UNL     1      19.711  28.797 -16.690  1.00  0.00    -0.299 OA
ENDROOT
BRANCH   1   3
ATOM      3  C   UNL     1      18.701  28.456 -14.582  1.00  0.00     0.053 C 
ATOM      4  C   UNL     1      17.947  27.118 -14.648  1.00  0.00     0.016 C 
BRANCH   3   5
ATOM      5  C   UNL     1      19.063  28.975 -13.156  1.00  0.00     0.015 C 
BRANCH   5   6
ATOM      6  C   UNL     1      19.767  28.032 -12.156  1.00  0.00     0.028 C 
BRANCH   6   7
ATOM      7  C   UNL     1      20.774  28.643 -11.210  1.00  0.00    -0.028 C 
ATOM      8  C   UNL     1      22.069  28.928 -11.479  1.00  0.00    -0.070 CG0
ATOM      9  C   UNL     1      22.840  29.713 -10.447  1.00  0.00     0.039 C 
ATOM     10  G   UNL     1      22.805  28.452 -12.715  1.00  0.00     0.000 G0
ENDBRANCH   6   7
ENDBRANCH   5   6
ENDBRANCH   3   5
ENDBRANCH   1   3
BRANCH   1  11
ATOM     11  C   UNL     1      21.298  28.141 -15.077  1.00  0.00     0.087 C 
BRANCH  11  12
ATOM     12  C   UNL     1      22.253  29.374 -15.124  1.00  0.00     0.066 C 
BRANCH  12  13
ATOM     13  C   UNL     1      22.885  29.552 -13.753  1.00  0.00     0.140 C 
ATOM     14  O   UNL     1      23.562  30.544 -13.519  1.00  0.00    -0.299 OA
BRANCH  13  15
ATOM     15  C   UNL     1      22.825  28.452 -12.719  1.00  0.00     0.106 CG0
ATOM     16  G   UNL     1      22.061  28.933 -11.503  1.00  0.00     0.000 G0
ENDBRANCH  13  15
ENDBRANCH  12  13
BRANCH  12  17
ATOM     17  C   UNL     1      23.331  29.276 -16.254  1.00  0.00    -0.006 C 
ATOM     18  C   UNL     1      23.550  27.827 -16.726  1.00  0.00     0.008 C 
ATOM     19  C   UNL     1      22.939  30.132 -17.474  1.00  0.00     0.008 C 
ENDBRANCH  12  17
ENDBRANCH  11  12
ENDBRANCH   1  11
TORSDOF 1
ENDMDL
MODEL 7
REMARK VINA RESULT:    -4.013     16.098     18.519
REMARK INTER + INTRA:          -6.076
REMARK INTER:                  -5.821
REMARK INTRA:                  -0.254
REMARK UNBOUND:                 0.049
REMARK SMILES CC1=CCC[C@H](C)C(=O)C[C@H](C(C)C)C(=O)C1
REMARK SMILES IDX 8 1 9 2 6 3 7 4 5 5 4 6 3 7 2 8 1 9 10 11 11 12 15 13 16 14
REMARK SMILES IDX 17 15 12 17 13 18 14 19
REMARK H PARENT
REMARK Flexibility Score: 70.00
ROOT
ATOM      1  C   UNL     1      31.509  36.966 -22.062  1.00  0.00     0.136 C 
ATOM      2  O   UNL     1      30.615  36.383 -21.470  1.00  0.00    -0.299 OA
ENDROOT
BRANCH   1   3
ATOM      3  C   UNL     1      31.134  37.991 -23.121  1.00  0.00     0.053 C 
ATOM      4  C   UNL     1      31.655  39.394 -22.772  1.00  0.00     0.016 C 
BRANCH   3   5
ATOM      5  C   UNL     1      31.430  37.483 -24.566  1.00  0.00     0.015 C 
BRANCH   5   6
ATOM      6  C   UNL     1      32.448  38.239 -25.447  1.00  0.00     0.028 C 
BRANCH   6   7
ATOM      7  C   UNL     1      33.569  37.436 -26.065  1.00  0.00    -0.028 C 
ATOM      8  C   UNL     1      34.613  36.869 -25.417  1.00  0.00    -0.070 CG0
ATOM      9  C   UNL     1      35.509  35.949 -26.209  1.00  0.00     0.039 C 
ATOM     10  G   UNL     1      34.971  37.151 -23.972  1.00  0.00     0.000 G0
ENDBRANCH   6   7
ENDBRANCH   5   6
ENDBRANCH   3   5
ENDBRANCH   1   3
BRANCH   1  11
ATOM     11  C   UNL     1      32.944  36.637 -21.715  1.00  0.00     0.087 C 
BRANCH  11  12
ATOM     12  C   UNL     1      33.504  35.454 -22.565  1.00  0.00     0.066 C 
BRANCH  12  13
ATOM     13  C   UNL     1      34.837  35.873 -23.163  1.00  0.00     0.140 C 
ATOM     14  O   UNL     1      35.852  35.251 -22.882  1.00  0.00    -0.299 OA
BRANCH  13  15
ATOM     15  C   UNL     1      34.962  37.139 -23.977  1.00  0.00     0.106 CG0
ATOM     16  G   UNL     1      34.622  36.853 -25.426  1.00  0.00     0.000 G0
ENDBRANCH  13  15
ENDBRANCH  12  13
BRANCH  12  17
ATOM     17  C   UNL     1      33.622  34.118 -21.758  1.00  0.00    -0.006 C 
ATOM     18  C   UNL     1      33.617  34.354 -20.238  1.00  0.00     0.008 C 
ATOM     19  C   UNL     1      32.471  33.153 -22.106  1.00  0.00     0.008 C 
ENDBRANCH  12  17
ENDBRANCH  11  12
ENDBRANCH   1  11
TORSDOF 1
ENDMDL
MODEL 8
REMARK VINA RESULT:    -3.912     16.021     17.962
REMARK INTER + INTRA:          -5.921
REMARK INTER:                  -5.412
REMARK INTRA:                  -0.509
REMARK UNBOUND:                 0.049
REMARK SMILES CC1=CCC[C@H](C)C(=O)C[C@H](C(C)C)C(=O)C1
REMARK SMILES IDX 8 1 9 2 6 3 7 4 5 5 4 6 3 7 2 8 1 9 10 11 11 12 15 13 16 14
REMARK SMILES IDX 17 15 12 17 13 18 14 19
REMARK H PARENT
REMARK Flexibility Score: 70.00
ROOT
ATOM      1  C   UNL     1      33.707  35.351 -22.771  1.00  0.00     0.136 C 
ATOM      2  O   UNL     1      34.718  35.198 -22.103  1.00  0.00    -0.299 OA
ENDROOT
BRANCH   1   3
ATOM      3  C   UNL     1      32.406  34.738 -22.273  1.00  0.00     0.053 C 
ATOM      4  C   UNL     1      32.574  33.255 -21.905  1.00  0.00     0.016 C 
BRANCH   3   5
ATOM      5  C   UNL     1      31.698  35.637 -21.214  1.00  0.00     0.015 C 
BRANCH   5   6
ATOM      6  C   UNL     1      31.866  37.171 -21.278  1.00  0.00     0.028 C 
BRANCH   6   7
ATOM      7  C   UNL     1      30.782  37.964 -21.969  1.00  0.00    -0.028 C 
ATOM      8  C   UNL     1      30.804  38.431 -23.238  1.00  0.00    -0.070 CG0
ATOM      9  C   UNL     1      29.531  39.032 -23.783  1.00  0.00     0.039 C 
ATOM     10  G   UNL     1      32.037  38.447 -24.118  1.00  0.00     0.000 G0
ENDBRANCH   6   7
ENDBRANCH   5   6
ENDBRANCH   3   5
ENDBRANCH   1   3
BRANCH   1  11
ATOM     11  C   UNL     1      33.800  36.138 -24.059  1.00  0.00     0.087 C 
BRANCH  11  12
ATOM     12  C   UNL     1      32.519  35.990 -24.938  1.00  0.00     0.066 C 
BRANCH  12  13
ATOM     13  C   UNL     1      31.930  37.371 -25.176  1.00  0.00     0.140 C 
ATOM     14  O   UNL     1      31.475  37.657 -26.275  1.00  0.00    -0.299 OA
BRANCH  13  15
ATOM     15  C   UNL     1      32.034  38.453 -24.128  1.00  0.00     0.106 CG0
ATOM     16  G   UNL     1      30.802  38.433 -23.246  1.00  0.00     0.000 G0
ENDBRANCH  13  15
ENDBRANCH  12  13
BRANCH  12  17
ATOM     17  C   UNL     1      32.778  35.228 -26.281  1.00  0.00    -0.006 C 
ATOM     18  C   UNL     1      34.235  35.366 -26.756  1.00  0.00     0.008 C 
ATOM     19  C   UNL     1      32.450  33.728 -26.144  1.00  0.00     0.008 C 
ENDBRANCH  12  17
ENDBRANCH  11  12
ENDBRANCH   1  11
TORSDOF 1
ENDMDL
MODEL 9
REMARK VINA RESULT:    -3.907      2.126      3.939
REMARK INTER + INTRA:          -5.914
REMARK INTER:                  -6.228
REMARK INTRA:                   0.314
REMARK UNBOUND:                 0.049
REMARK SMILES CC1=CCC[C@H](C)C(=O)C[C@H](C(C)C)C(=O)C1
REMARK SMILES IDX 8 1 9 2 6 3 7 4 5 5 4 6 3 7 2 8 1 9 10 11 11 12 15 13 16 14
REMARK SMILES IDX 17 15 12 17 13 18 14 19
REMARK H PARENT
REMARK Flexibility Score: 70.00
ROOT
ATOM      1  C   UNL     1      20.934  28.000  -9.588  1.00  0.00     0.136 C 
ATOM      2  O   UNL     1      20.173  28.229  -8.660  1.00  0.00    -0.299 OA
ENDROOT
BRANCH   1   3
ATOM      3  C   UNL     1      22.408  28.338  -9.421  1.00  0.00     0.053 C 
ATOM      4  C   UNL     1      22.763  28.653  -7.960  1.00  0.00     0.016 C 
BRANCH   3   5
ATOM      5  C   UNL     1      23.333  27.317 -10.153  1.00  0.00     0.015 C 
BRANCH   5   6
ATOM      6  C   UNL     1      23.774  27.592 -11.607  1.00  0.00     0.028 C 
BRANCH   6   7
ATOM      7  C   UNL     1      23.926  29.034 -12.030  1.00  0.00    -0.028 C 
ATOM      8  C   UNL     1      22.979  29.819 -12.592  1.00  0.00    -0.070 CG0
ATOM      9  C   UNL     1      23.294  31.286 -12.755  1.00  0.00     0.039 C 
ATOM     10  G   UNL     1      21.656  29.307 -13.123  1.00  0.00     0.000 G0
ENDBRANCH   6   7
ENDBRANCH   5   6
ENDBRANCH   3   5
ENDBRANCH   1   3
BRANCH   1  11
ATOM     11  C   UNL     1      20.372  27.397 -10.855  1.00  0.00     0.087 C 
BRANCH  11  12
ATOM     12  C   UNL     1      19.588  28.439 -11.712  1.00  0.00     0.066 C 
BRANCH  12  13
ATOM     13  C   UNL     1      20.542  29.549 -12.121  1.00  0.00     0.140 C 
ATOM     14  O   UNL     1      20.344  30.693 -11.736  1.00  0.00    -0.299 OA
BRANCH  13  15
ATOM     15  C   UNL     1      21.644  29.299 -13.122  1.00  0.00     0.106 CG0
ATOM     16  G   UNL     1      22.956  29.833 -12.585  1.00  0.00     0.000 G0
ENDBRANCH  13  15
ENDBRANCH  12  13
BRANCH  12  17
ATOM     17  C   UNL     1      18.869  27.804 -12.949  1.00  0.00    -0.006 C 
ATOM     18  C   UNL     1      17.714  26.874 -12.537  1.00  0.00     0.008 C 
ATOM     19  C   UNL     1      18.308  28.891 -13.887  1.00  0.00     0.008 C 
ENDBRANCH  12  17
ENDBRANCH  11  12
ENDBRANCH   1  11
TORSDOF 1
ENDMDL
