MODEL 1
REMARK VINA RESULT:    -5.363      0.000      0.000
REMARK INTER + INTRA:         -10.758
REMARK INTER:                  -8.499
REMARK INTRA:                  -2.259
REMARK UNBOUND:                -2.259
REMARK SMILES C[C@H]1O[C@H](O[C@H]2[C@@H](Oc3cc(O)c4c(c3)O[C@H](c3ccc(O)cc3)CC4=O)O[C@H](CO)[C@H](O)[C@@H]2O)[C@H](O)[C@H](O)[C@H]1O
REMARK SMILES IDX 6 1 34 2 32 3 29 4 28 5 7 6 5 7 4 8 1 9 2 10 40 11 3 12
REMARK SMILES IDX 38 13 36 14 41 15 39 17 37 19 35 21 8 23 9 24 10 25 15 26
REMARK SMILES IDX 11 27 14 28 13 29 16 30 26 31 17 32 27 33 25 34 12 35 18 37
REMARK SMILES IDX 19 38 24 39 20 40 23 41 21 42 22 43 33 45 30 47 31 48
REMARK H PARENT 41 16 39 18 37 20 35 22 12 36 22 44 33 46 31 49
REMARK Flexibility Score: inf
ROOT
ATOM      1  C   UNL     1      13.209  25.897  78.324  1.00  0.00     0.221 C 
ATOM      2  C   UNL     1      12.963  27.208  77.531  1.00  0.00     0.181 C 
ATOM      3  C   UNL     1      11.456  27.388  77.266  1.00  0.00     0.177 C 
ATOM      4  C   UNL     1      10.814  26.094  76.700  1.00  0.00     0.179 C 
ATOM      5  O   UNL     1      11.101  24.967  77.516  1.00  0.00    -0.332 OA
ATOM      6  C   UNL     1      12.494  24.718  77.645  1.00  0.00     0.339 C 
ENDROOT
BRANCH   1   7
ATOM      7  O   UNL     1      12.691  26.031  79.642  1.00  0.00    -0.337 OA
BRANCH   7   8
ATOM      8  C   UNL     1      13.696  26.424  80.567  1.00  0.00     0.282 C 
ATOM      9  C   UNL     1      11.549  27.300  83.423  1.00  0.00     0.041 C 
ATOM     10  C   UNL     1      12.240  26.391  82.407  1.00  0.00     0.150 C 
ATOM     11  C   UNL     1      12.979  25.228  83.108  1.00  0.00     0.174 C 
ATOM     12  O   UNL     1      13.140  27.176  81.636  1.00  0.00    -0.344 OA
ATOM     13  C   UNL     1      13.643  24.332  82.046  1.00  0.00     0.179 C 
ATOM     14  C   UNL     1      14.484  25.200  81.091  1.00  0.00     0.202 C 
BRANCH  11  15
ATOM     15  O   UNL     1      13.952  25.744  83.986  1.00  0.00    -0.388 OA
ATOM     16  H   UNL     1      13.616  26.628  84.302  1.00  0.00     0.211 HD
ENDBRANCH  11  15
BRANCH  13  17
ATOM     17  O   UNL     1      12.656  23.634  81.327  1.00  0.00    -0.387 OA
ATOM     18  H   UNL     1      13.129  22.943  80.792  1.00  0.00     0.211 HD
ENDBRANCH  13  17
BRANCH  14  19
ATOM     19  O   UNL     1      15.029  24.439  80.036  1.00  0.00    -0.385 OA
ATOM     20  H   UNL     1      15.999  24.320  80.204  1.00  0.00     0.211 HD
ENDBRANCH  14  19
ENDBRANCH   7   8
ENDBRANCH   1   7
BRANCH   2  21
ATOM     21  O   UNL     1      13.676  27.283  76.312  1.00  0.00    -0.387 OA
ATOM     22  H   UNL     1      13.647  26.401  75.849  1.00  0.00     0.211 HD
ENDBRANCH   2  21
BRANCH   6  23
ATOM     23  O   UNL     1      12.678  23.571  78.475  1.00  0.00    -0.462 OA
BRANCH  23  24
ATOM     24  C   UNL     1      13.013  22.290  78.016  1.00  0.00     0.130 A 
ATOM     25  C   UNL     1      13.315  21.230  78.886  1.00  0.00     0.093 A 
ATOM     26  C   UNL     1      13.074  22.083  76.639  1.00  0.00     0.094 A 
ATOM     27  C   UNL     1      13.679  19.972  78.385  1.00  0.00     0.133 A 
ATOM     28  C   UNL     1      13.442  20.840  76.119  1.00  0.00     0.138 A 
ATOM     29  C   UNL     1      13.712  19.759  76.982  1.00  0.00     0.102 A 
ATOM     30  O   UNL     1      13.563  20.709  74.731  1.00  0.00    -0.484 OA
ATOM     31  C   UNL     1      14.014  18.455  76.347  1.00  0.00     0.174 C 
ATOM     32  C   UNL     1      13.757  19.469  74.046  1.00  0.00     0.211 C 
ATOM     33  O   UNL     1      13.859  17.373  76.970  1.00  0.00    -0.294 OA
ATOM     34  C   UNL     1      14.483  18.420  74.919  1.00  0.00     0.131 C 
BRANCH  27  35
ATOM     35  O   UNL     1      14.032  18.988  79.315  1.00  0.00    -0.507 OA
ATOM     36  H   UNL     1      14.510  19.173  80.183  1.00  0.00     0.293 HD
ENDBRANCH  27  35
BRANCH  32  37
ATOM     37  C   UNL     1      12.436  19.013  73.450  1.00  0.00    -0.007 A 
ATOM     38  C   UNL     1      11.524  19.995  73.022  1.00  0.00     0.011 A 
ATOM     39  C   UNL     1      12.052  17.658  73.383  1.00  0.00     0.011 A 
ATOM     40  C   UNL     1      10.278  19.637  72.502  1.00  0.00     0.046 A 
ATOM     41  C   UNL     1      10.806  17.303  72.855  1.00  0.00     0.046 A 
ATOM     42  C   UNL     1       9.918  18.289  72.413  1.00  0.00     0.115 A 
BRANCH  42  43
ATOM     43  O   UNL     1       8.675  17.945  71.885  1.00  0.00    -0.508 OA
ATOM     44  H   UNL     1       7.964  18.644  71.699  1.00  0.00     0.293 HD
ENDBRANCH  42  43
ENDBRANCH  32  37
ENDBRANCH  23  24
ENDBRANCH   6  23
BRANCH   3  45
ATOM     45  O   UNL     1      11.230  28.470  76.400  1.00  0.00    -0.387 OA
ATOM     46  H   UNL     1      10.260  28.677  76.449  1.00  0.00     0.211 HD
ENDBRANCH   3  45
BRANCH   4  47
ATOM     47  C   UNL     1      11.099  25.809  75.206  1.00  0.00     0.191 C 
BRANCH  47  48
ATOM     48  O   UNL     1      10.225  26.540  74.386  1.00  0.00    -0.394 OA
ATOM     49  H   UNL     1      10.521  26.382  73.451  1.00  0.00     0.210 HD
ENDBRANCH  47  48
ENDBRANCH   4  47
TORSDOF 14
ENDMDL
MODEL 2
REMARK VINA RESULT:    -5.200      3.369      8.433
REMARK INTER + INTRA:         -10.499
REMARK INTER:                  -8.746
REMARK INTRA:                  -1.753
REMARK UNBOUND:                -2.259
REMARK SMILES C[C@H]1O[C@H](O[C@H]2[C@@H](Oc3cc(O)c4c(c3)O[C@H](c3ccc(O)cc3)CC4=O)O[C@H](CO)[C@H](O)[C@@H]2O)[C@H](O)[C@H](O)[C@H]1O
REMARK SMILES IDX 6 1 34 2 32 3 29 4 28 5 7 6 5 7 4 8 1 9 2 10 40 11 3 12
REMARK SMILES IDX 38 13 36 14 41 15 39 17 37 19 35 21 8 23 9 24 10 25 15 26
REMARK SMILES IDX 11 27 14 28 13 29 16 30 26 31 17 32 27 33 25 34 12 35 18 37
REMARK SMILES IDX 19 38 24 39 20 40 23 41 21 42 22 43 33 45 30 47 31 48
REMARK H PARENT 41 16 39 18 37 20 35 22 12 36 22 44 33 46 31 49
REMARK Flexibility Score: inf
ROOT
ATOM      1  C   UNL     1      10.987  21.241  71.693  1.00  0.00     0.221 C 
ATOM      2  C   UNL     1      10.460  20.046  70.855  1.00  0.00     0.181 C 
ATOM      3  C   UNL     1       9.790  19.010  71.778  1.00  0.00     0.177 C 
ATOM      4  C   UNL     1      10.680  18.671  73.002  1.00  0.00     0.179 C 
ATOM      5  O   UNL     1      11.091  19.842  73.692  1.00  0.00    -0.332 OA
ATOM      6  C   UNL     1      11.833  20.736  72.873  1.00  0.00     0.339 C 
ENDROOT
BRANCH   1   7
ATOM      7  O   UNL     1       9.889  21.978  72.218  1.00  0.00    -0.337 OA
BRANCH   7   8
ATOM      8  C   UNL     1       9.192  22.682  71.199  1.00  0.00     0.282 C 
ATOM      9  C   UNL     1       5.951  23.093  72.890  1.00  0.00     0.041 C 
ATOM     10  C   UNL     1       7.438  23.321  72.621  1.00  0.00     0.150 C 
ATOM     11  C   UNL     1       7.763  24.830  72.522  1.00  0.00     0.174 C 
ATOM     12  O   UNL     1       7.789  22.645  71.422  1.00  0.00    -0.344 OA
ATOM     13  C   UNL     1       9.272  25.009  72.268  1.00  0.00     0.179 C 
ATOM     14  C   UNL     1       9.702  24.138  71.073  1.00  0.00     0.202 C 
BRANCH  11  15
ATOM     15  O   UNL     1       7.022  25.409  71.474  1.00  0.00    -0.388 OA
ATOM     16  H   UNL     1       6.238  25.862  71.892  1.00  0.00     0.211 HD
ENDBRANCH  11  15
BRANCH  13  17
ATOM     17  O   UNL     1       9.995  24.649  73.419  1.00  0.00    -0.387 OA
ATOM     18  H   UNL     1       9.808  23.687  73.583  1.00  0.00     0.211 HD
ENDBRANCH  13  17
BRANCH  14  19
ATOM     19  O   UNL     1      11.095  24.186  70.866  1.00  0.00    -0.385 OA
ATOM     20  H   UNL     1      11.414  25.100  71.083  1.00  0.00     0.211 HD
ENDBRANCH  14  19
ENDBRANCH   7   8
ENDBRANCH   1   7
BRANCH   2  21
ATOM     21  O   UNL     1      11.452  19.416  70.068  1.00  0.00    -0.387 OA
ATOM     22  H   UNL     1      12.270  19.983  70.038  1.00  0.00     0.211 HD
ENDBRANCH   2  21
BRANCH   6  23
ATOM     23  O   UNL     1      12.200  21.873  73.654  1.00  0.00    -0.462 OA
BRANCH  23  24
ATOM     24  C   UNL     1      12.430  21.860  75.037  1.00  0.00     0.130 A 
ATOM     25  C   UNL     1      11.656  22.607  75.939  1.00  0.00     0.093 A 
ATOM     26  C   UNL     1      13.490  21.093  75.517  1.00  0.00     0.094 A 
ATOM     27  C   UNL     1      11.940  22.593  77.312  1.00  0.00     0.133 A 
ATOM     28  C   UNL     1      13.795  21.070  76.880  1.00  0.00     0.138 A 
ATOM     29  C   UNL     1      13.003  21.788  77.799  1.00  0.00     0.102 A 
ATOM     30  O   UNL     1      14.917  20.346  77.298  1.00  0.00    -0.484 OA
ATOM     31  C   UNL     1      13.345  21.644  79.233  1.00  0.00     0.174 C 
ATOM     32  C   UNL     1      15.253  20.086  78.664  1.00  0.00     0.211 C 
ATOM     33  O   UNL     1      12.499  21.877  80.134  1.00  0.00    -0.294 OA
ATOM     34  C   UNL     1      14.721  21.178  79.620  1.00  0.00     0.131 C 
BRANCH  27  35
ATOM     35  O   UNL     1      11.168  23.418  78.136  1.00  0.00    -0.507 OA
ATOM     36  H   UNL     1      11.274  24.419  78.197  1.00  0.00     0.293 HD
ENDBRANCH  27  35
BRANCH  32  37
ATOM     37  C   UNL     1      14.852  18.664  79.017  1.00  0.00    -0.007 A 
ATOM     38  C   UNL     1      15.681  17.935  79.890  1.00  0.00     0.011 A 
ATOM     39  C   UNL     1      13.737  18.016  78.445  1.00  0.00     0.011 A 
ATOM     40  C   UNL     1      15.384  16.611  80.220  1.00  0.00     0.046 A 
ATOM     41  C   UNL     1      13.439  16.693  78.784  1.00  0.00     0.046 A 
ATOM     42  C   UNL     1      14.260  15.987  79.671  1.00  0.00     0.115 A 
BRANCH  42  43
ATOM     43  O   UNL     1      13.972  14.668  80.015  1.00  0.00    -0.508 OA
ATOM     44  H   UNL     1      14.701  13.970  80.107  1.00  0.00     0.293 HD
ENDBRANCH  42  43
ENDBRANCH  32  37
ENDBRANCH  23  24
ENDBRANCH   6  23
BRANCH   3  45
ATOM     45  O   UNL     1       9.466  17.846  71.063  1.00  0.00    -0.387 OA
ATOM     46  H   UNL     1      10.248  17.639  70.486  1.00  0.00     0.211 HD
ENDBRANCH   3  45
BRANCH   4  47
ATOM     47  C   UNL     1      11.871  17.725  72.714  1.00  0.00     0.191 C 
BRANCH  47  48
ATOM     48  O   UNL     1      11.415  16.458  72.318  1.00  0.00    -0.394 OA
ATOM     49  H   UNL     1      11.821  16.280  71.430  1.00  0.00     0.210 HD
ENDBRANCH  47  48
ENDBRANCH   4  47
TORSDOF 14
ENDMDL
MODEL 3
REMARK VINA RESULT:    -5.040      2.651      6.253
REMARK INTER + INTRA:         -10.246
REMARK INTER:                  -8.004
REMARK INTRA:                  -2.242
REMARK UNBOUND:                -2.259
REMARK SMILES C[C@H]1O[C@H](O[C@H]2[C@@H](Oc3cc(O)c4c(c3)O[C@H](c3ccc(O)cc3)CC4=O)O[C@H](CO)[C@H](O)[C@@H]2O)[C@H](O)[C@H](O)[C@H]1O
REMARK SMILES IDX 6 1 34 2 32 3 29 4 28 5 7 6 5 7 4 8 1 9 2 10 40 11 3 12
REMARK SMILES IDX 38 13 36 14 41 15 39 17 37 19 35 21 8 23 9 24 10 25 15 26
REMARK SMILES IDX 11 27 14 28 13 29 16 30 26 31 17 32 27 33 25 34 12 35 18 37
REMARK SMILES IDX 19 38 24 39 20 40 23 41 21 42 22 43 33 45 30 47 31 48
REMARK H PARENT 41 16 39 18 37 20 35 22 12 36 22 44 33 46 31 49
REMARK Flexibility Score: inf
ROOT
ATOM      1  C   UNL     1      13.503  20.261  78.594  1.00  0.00     0.221 C 
ATOM      2  C   UNL     1      14.256  19.389  79.634  1.00  0.00     0.181 C 
ATOM      3  C   UNL     1      15.773  19.444  79.367  1.00  0.00     0.177 C 
ATOM      4  C   UNL     1      16.102  19.196  77.871  1.00  0.00     0.179 C 
ATOM      5  O   UNL     1      15.359  20.058  77.021  1.00  0.00    -0.332 OA
ATOM      6  C   UNL     1      13.954  19.905  77.169  1.00  0.00     0.339 C 
ENDROOT
BRANCH   1   7
ATOM      7  O   UNL     1      13.793  21.635  78.822  1.00  0.00    -0.337 OA
BRANCH   7   8
ATOM      8  C   UNL     1      12.764  22.276  79.563  1.00  0.00     0.282 C 
ATOM      9  C   UNL     1      14.843  24.131  81.965  1.00  0.00     0.041 C 
ATOM     10  C   UNL     1      14.233  23.777  80.609  1.00  0.00     0.150 C 
ATOM     11  C   UNL     1      13.614  25.023  79.933  1.00  0.00     0.174 C 
ATOM     12  O   UNL     1      13.256  22.764  80.803  1.00  0.00    -0.344 OA
ATOM     13  C   UNL     1      13.029  24.622  78.566  1.00  0.00     0.179 C 
ATOM     14  C   UNL     1      12.100  23.405  78.738  1.00  0.00     0.202 C 
BRANCH  11  15
ATOM     15  O   UNL     1      12.604  25.558  80.756  1.00  0.00    -0.388 OA
ATOM     16  H   UNL     1      12.851  25.336  81.696  1.00  0.00     0.211 HD
ENDBRANCH  11  15
BRANCH  13  17
ATOM     17  O   UNL     1      14.071  24.316  77.673  1.00  0.00    -0.387 OA
ATOM     18  H   UNL     1      14.342  23.378  77.861  1.00  0.00     0.211 HD
ENDBRANCH  13  17
BRANCH  14  19
ATOM     19  O   UNL     1      11.621  22.933  77.500  1.00  0.00    -0.385 OA
ATOM     20  H   UNL     1      11.843  23.602  76.802  1.00  0.00     0.211 HD
ENDBRANCH  14  19
ENDBRANCH   7   8
ENDBRANCH   1   7
BRANCH   2  21
ATOM     21  O   UNL     1      13.825  18.043  79.672  1.00  0.00    -0.387 OA
ATOM     22  H   UNL     1      14.153  17.607  80.506  1.00  0.00     0.211 HD
ENDBRANCH   2  21
BRANCH   6  23
ATOM     23  O   UNL     1      13.300  20.807  76.276  1.00  0.00    -0.462 OA
BRANCH  23  24
ATOM     24  C   UNL     1      12.505  20.426  75.186  1.00  0.00     0.130 A 
ATOM     25  C   UNL     1      12.244  19.082  74.874  1.00  0.00     0.093 A 
ATOM     26  C   UNL     1      11.985  21.431  74.372  1.00  0.00     0.094 A 
ATOM     27  C   UNL     1      11.471  18.743  73.754  1.00  0.00     0.133 A 
ATOM     28  C   UNL     1      11.219  21.115  73.247  1.00  0.00     0.138 A 
ATOM     29  C   UNL     1      10.920  19.771  72.945  1.00  0.00     0.102 A 
ATOM     30  O   UNL     1      10.787  22.159  72.422  1.00  0.00    -0.484 OA
ATOM     31  C   UNL     1      10.034  19.528  71.783  1.00  0.00     0.174 C 
ATOM     32  C   UNL     1       9.858  22.012  71.345  1.00  0.00     0.211 C 
ATOM     33  O   UNL     1       9.380  18.459  71.671  1.00  0.00    -0.294 OA
ATOM     34  C   UNL     1       9.886  20.593  70.732  1.00  0.00     0.131 C 
BRANCH  27  35
ATOM     35  O   UNL     1      11.313  17.382  73.471  1.00  0.00    -0.507 OA
ATOM     36  H   UNL     1      11.494  16.965  72.571  1.00  0.00     0.293 HD
ENDBRANCH  27  35
BRANCH  32  37
ATOM     37  C   UNL     1       8.490  22.497  71.792  1.00  0.00    -0.007 A 
ATOM     38  C   UNL     1       8.428  23.566  72.705  1.00  0.00     0.011 A 
ATOM     39  C   UNL     1       7.288  21.872  71.400  1.00  0.00     0.011 A 
ATOM     40  C   UNL     1       7.200  24.030  73.183  1.00  0.00     0.046 A 
ATOM     41  C   UNL     1       6.060  22.344  71.874  1.00  0.00     0.046 A 
ATOM     42  C   UNL     1       6.012  23.422  72.765  1.00  0.00     0.115 A 
BRANCH  42  43
ATOM     43  O   UNL     1       4.793  23.899  73.243  1.00  0.00    -0.508 OA
ATOM     44  H   UNL     1       4.745  24.598  73.976  1.00  0.00     0.293 HD
ENDBRANCH  42  43
ENDBRANCH  32  37
ENDBRANCH  23  24
ENDBRANCH   6  23
BRANCH   3  45
ATOM     45  O   UNL     1      16.453  18.525  80.182  1.00  0.00    -0.387 OA
ATOM     46  H   UNL     1      16.196  18.732  81.119  1.00  0.00     0.211 HD
ENDBRANCH   3  45
BRANCH   4  47
ATOM     47  C   UNL     1      16.018  17.721  77.409  1.00  0.00     0.191 C 
BRANCH  47  48
ATOM     48  O   UNL     1      17.096  16.980  77.917  1.00  0.00    -0.394 OA
ATOM     49  H   UNL     1      17.595  17.590  78.521  1.00  0.00     0.210 HD
ENDBRANCH  47  48
ENDBRANCH   4  47
TORSDOF 14
ENDMDL
MODEL 4
REMARK VINA RESULT:    -5.034      3.186      8.380
REMARK INTER + INTRA:         -10.236
REMARK INTER:                  -8.006
REMARK INTRA:                  -2.230
REMARK UNBOUND:                -2.259
REMARK SMILES C[C@H]1O[C@H](O[C@H]2[C@@H](Oc3cc(O)c4c(c3)O[C@H](c3ccc(O)cc3)CC4=O)O[C@H](CO)[C@H](O)[C@@H]2O)[C@H](O)[C@H](O)[C@H]1O
REMARK SMILES IDX 6 1 34 2 32 3 29 4 28 5 7 6 5 7 4 8 1 9 2 10 40 11 3 12
REMARK SMILES IDX 38 13 36 14 41 15 39 17 37 19 35 21 8 23 9 24 10 25 15 26
REMARK SMILES IDX 11 27 14 28 13 29 16 30 26 31 17 32 27 33 25 34 12 35 18 37
REMARK SMILES IDX 19 38 24 39 20 40 23 41 21 42 22 43 33 45 30 47 31 48
REMARK H PARENT 41 16 39 18 37 20 35 22 12 36 22 44 33 46 31 49
REMARK Flexibility Score: inf
ROOT
ATOM      1  C   UNL     1      10.098  21.699  72.894  1.00  0.00     0.221 C 
ATOM      2  C   UNL     1       8.760  21.820  72.118  1.00  0.00     0.181 C 
ATOM      3  C   UNL     1       9.020  22.378  70.705  1.00  0.00     0.177 C 
ATOM      4  C   UNL     1       9.927  23.635  70.741  1.00  0.00     0.179 C 
ATOM      5  O   UNL     1      11.123  23.397  71.470  1.00  0.00    -0.332 OA
ATOM      6  C   UNL     1      10.883  23.018  72.819  1.00  0.00     0.339 C 
ENDROOT
BRANCH   1   7
ATOM      7  O   UNL     1      10.896  20.673  72.314  1.00  0.00    -0.337 OA
BRANCH   7   8
ATOM      8  C   UNL     1      10.298  19.392  72.463  1.00  0.00     0.282 C 
ATOM      9  C   UNL     1      11.178  17.956  69.193  1.00  0.00     0.041 C 
ATOM     10  C   UNL     1      11.411  18.482  70.608  1.00  0.00     0.150 C 
ATOM     11  C   UNL     1      12.221  17.473  71.453  1.00  0.00     0.174 C 
ATOM     12  O   UNL     1      10.149  18.750  71.205  1.00  0.00    -0.344 OA
ATOM     13  C   UNL     1      12.446  18.053  72.862  1.00  0.00     0.179 C 
ATOM     14  C   UNL     1      11.099  18.512  73.452  1.00  0.00     0.202 C 
BRANCH  11  15
ATOM     15  O   UNL     1      11.523  16.253  71.536  1.00  0.00    -0.388 OA
ATOM     16  H   UNL     1      12.102  15.560  71.111  1.00  0.00     0.211 HD
ENDBRANCH  11  15
BRANCH  13  17
ATOM     17  O   UNL     1      13.342  19.135  72.795  1.00  0.00    -0.387 OA
ATOM     18  H   UNL     1      12.992  19.833  73.409  1.00  0.00     0.211 HD
ENDBRANCH  13  17
BRANCH  14  19
ATOM     19  O   UNL     1      11.265  19.148  74.700  1.00  0.00    -0.385 OA
ATOM     20  H   UNL     1      11.611  18.482  75.348  1.00  0.00     0.211 HD
ENDBRANCH  14  19
ENDBRANCH   7   8
ENDBRANCH   1   7
BRANCH   2  21
ATOM     21  O   UNL     1       7.787  22.611  72.773  1.00  0.00    -0.387 OA
ATOM     22  H   UNL     1       7.730  23.505  72.337  1.00  0.00     0.211 HD
ENDBRANCH   2  21
BRANCH   6  23
ATOM     23  O   UNL     1      12.139  22.806  73.463  1.00  0.00    -0.462 OA
BRANCH  23  24
ATOM     24  C   UNL     1      12.325  22.703  74.849  1.00  0.00     0.130 A 
ATOM     25  C   UNL     1      11.568  23.444  75.771  1.00  0.00     0.093 A 
ATOM     26  C   UNL     1      13.326  21.850  75.314  1.00  0.00     0.094 A 
ATOM     27  C   UNL     1      11.810  23.338  77.148  1.00  0.00     0.133 A 
ATOM     28  C   UNL     1      13.588  21.735  76.681  1.00  0.00     0.138 A 
ATOM     29  C   UNL     1      12.810  22.446  77.617  1.00  0.00     0.102 A 
ATOM     30  O   UNL     1      14.653  20.925  77.087  1.00  0.00    -0.484 OA
ATOM     31  C   UNL     1      13.100  22.205  79.049  1.00  0.00     0.174 C 
ATOM     32  C   UNL     1      14.933  20.571  78.445  1.00  0.00     0.211 C 
ATOM     33  O   UNL     1      12.242  22.436  79.939  1.00  0.00    -0.294 OA
ATOM     34  C   UNL     1      14.435  21.638  79.447  1.00  0.00     0.131 C 
BRANCH  27  35
ATOM     35  O   UNL     1      11.061  24.159  77.996  1.00  0.00    -0.507 OA
ATOM     36  H   UNL     1      10.536  23.827  78.791  1.00  0.00     0.293 HD
ENDBRANCH  27  35
BRANCH  32  37
ATOM     37  C   UNL     1      14.441  19.158  78.706  1.00  0.00    -0.007 A 
ATOM     38  C   UNL     1      14.983  18.455  79.798  1.00  0.00     0.011 A 
ATOM     39  C   UNL     1      13.533  18.492  77.857  1.00  0.00     0.011 A 
ATOM     40  C   UNL     1      14.600  17.139  80.064  1.00  0.00     0.046 A 
ATOM     41  C   UNL     1      13.145  17.177  78.131  1.00  0.00     0.046 A 
ATOM     42  C   UNL     1      13.676  16.498  79.234  1.00  0.00     0.115 A 
BRANCH  42  43
ATOM     43  O   UNL     1      13.295  15.187  79.515  1.00  0.00    -0.508 OA
ATOM     44  H   UNL     1      12.404  14.972  79.949  1.00  0.00     0.293 HD
ENDBRANCH  42  43
ENDBRANCH  32  37
ENDBRANCH  23  24
ENDBRANCH   6  23
BRANCH   3  45
ATOM     45  O   UNL     1       7.808  22.661  70.053  1.00  0.00    -0.387 OA
ATOM     46  H   UNL     1       7.519  23.558  70.367  1.00  0.00     0.211 HD
ENDBRANCH   3  45
BRANCH   4  47
ATOM     47  C   UNL     1       9.232  24.943  71.189  1.00  0.00     0.191 C 
BRANCH  47  48
ATOM     48  O   UNL     1       8.409  25.442  70.167  1.00  0.00    -0.394 OA
ATOM     49  H   UNL     1       7.649  24.808  70.085  1.00  0.00     0.210 HD
ENDBRANCH  47  48
ENDBRANCH   4  47
TORSDOF 14
ENDMDL
MODEL 5
REMARK VINA RESULT:    -4.939      1.781      2.132
REMARK INTER + INTRA:         -10.085
REMARK INTER:                  -8.130
REMARK INTRA:                  -1.956
REMARK UNBOUND:                -2.259
REMARK SMILES C[C@H]1O[C@H](O[C@H]2[C@@H](Oc3cc(O)c4c(c3)O[C@H](c3ccc(O)cc3)CC4=O)O[C@H](CO)[C@H](O)[C@@H]2O)[C@H](O)[C@H](O)[C@H]1O
REMARK SMILES IDX 6 1 34 2 32 3 29 4 28 5 7 6 5 7 4 8 1 9 2 10 40 11 3 12
REMARK SMILES IDX 38 13 36 14 41 15 39 17 37 19 35 21 8 23 9 24 10 25 15 26
REMARK SMILES IDX 11 27 14 28 13 29 16 30 26 31 17 32 27 33 25 34 12 35 18 37
REMARK SMILES IDX 19 38 24 39 20 40 23 41 21 42 22 43 33 45 30 47 31 48
REMARK H PARENT 41 16 39 18 37 20 35 22 12 36 22 44 33 46 31 49
REMARK Flexibility Score: inf
ROOT
ATOM      1  C   UNL     1      14.528  25.155  78.861  1.00  0.00     0.221 C 
ATOM      2  C   UNL     1      13.683  26.305  78.250  1.00  0.00     0.181 C 
ATOM      3  C   UNL     1      12.183  25.973  78.363  1.00  0.00     0.177 C 
ATOM      4  C   UNL     1      11.873  24.536  77.870  1.00  0.00     0.179 C 
ATOM      5  O   UNL     1      12.701  23.574  78.507  1.00  0.00    -0.332 OA
ATOM      6  C   UNL     1      14.087  23.801  78.284  1.00  0.00     0.339 C 
ENDROOT
BRANCH   1   7
ATOM      7  O   UNL     1      14.338  25.120  80.271  1.00  0.00    -0.337 OA
BRANCH   7   8
ATOM      8  C   UNL     1      15.538  25.421  80.972  1.00  0.00     0.282 C 
ATOM      9  C   UNL     1      14.594  28.694  82.360  1.00  0.00     0.041 C 
ATOM     10  C   UNL     1      14.570  27.176  82.194  1.00  0.00     0.150 C 
ATOM     11  C   UNL     1      14.734  26.461  83.555  1.00  0.00     0.174 C 
ATOM     12  O   UNL     1      15.606  26.802  81.295  1.00  0.00    -0.344 OA
ATOM     13  C   UNL     1      14.686  24.937  83.339  1.00  0.00     0.179 C 
ATOM     14  C   UNL     1      15.684  24.540  82.236  1.00  0.00     0.202 C 
BRANCH  11  15
ATOM     15  O   UNL     1      15.959  26.830  84.142  1.00  0.00    -0.388 OA
ATOM     16  H   UNL     1      16.571  27.084  83.397  1.00  0.00     0.211 HD
ENDBRANCH  11  15
BRANCH  13  17
ATOM     17  O   UNL     1      13.383  24.547  82.981  1.00  0.00    -0.387 OA
ATOM     18  H   UNL     1      13.443  23.606  82.666  1.00  0.00     0.211 HD
ENDBRANCH  13  17
BRANCH  14  19
ATOM     19  O   UNL     1      15.603  23.167  81.926  1.00  0.00    -0.385 OA
ATOM     20  H   UNL     1      15.132  23.068  81.059  1.00  0.00     0.211 HD
ENDBRANCH  14  19
ENDBRANCH   7   8
ENDBRANCH   1   7
BRANCH   2  21
ATOM     21  O   UNL     1      14.008  26.602  76.906  1.00  0.00    -0.387 OA
ATOM     22  H   UNL     1      14.543  25.858  76.515  1.00  0.00     0.211 HD
ENDBRANCH   2  21
BRANCH   6  23
ATOM     23  O   UNL     1      14.830  22.786  78.958  1.00  0.00    -0.462 OA
BRANCH  23  24
ATOM     24  C   UNL     1      14.803  21.421  78.639  1.00  0.00     0.130 A 
ATOM     25  C   UNL     1      14.845  20.415  79.617  1.00  0.00     0.093 A 
ATOM     26  C   UNL     1      14.763  21.065  77.291  1.00  0.00     0.094 A 
ATOM     27  C   UNL     1      14.851  19.060  79.253  1.00  0.00     0.133 A 
ATOM     28  C   UNL     1      14.775  19.722  76.907  1.00  0.00     0.138 A 
ATOM     29  C   UNL     1      14.781  18.703  77.881  1.00  0.00     0.102 A 
ATOM     30  O   UNL     1      14.812  19.422  75.542  1.00  0.00    -0.484 OA
ATOM     31  C   UNL     1      14.710  17.307  77.390  1.00  0.00     0.174 C 
ATOM     32  C   UNL     1      14.652  18.110  74.994  1.00  0.00     0.211 C 
ATOM     33  O   UNL     1      14.298  16.374  78.127  1.00  0.00    -0.294 OA
ATOM     34  C   UNL     1      15.106  17.003  75.972  1.00  0.00     0.131 C 
BRANCH  27  35
ATOM     35  O   UNL     1      14.964  18.120  80.282  1.00  0.00    -0.507 OA
ATOM     36  H   UNL     1      14.935  17.121  80.144  1.00  0.00     0.293 HD
ENDBRANCH  27  35
BRANCH  32  37
ATOM     37  C   UNL     1      13.239  17.960  74.456  1.00  0.00    -0.007 A 
ATOM     38  C   UNL     1      13.044  17.171  73.307  1.00  0.00     0.011 A 
ATOM     39  C   UNL     1      12.133  18.641  75.004  1.00  0.00     0.011 A 
ATOM     40  C   UNL     1      11.774  17.027  72.744  1.00  0.00     0.046 A 
ATOM     41  C   UNL     1      10.861  18.490  74.442  1.00  0.00     0.046 A 
ATOM     42  C   UNL     1      10.678  17.684  73.313  1.00  0.00     0.115 A 
BRANCH  42  43
ATOM     43  O   UNL     1       9.415  17.526  72.746  1.00  0.00    -0.508 OA
ATOM     44  H   UNL     1       8.762  18.299  72.676  1.00  0.00     0.293 HD
ENDBRANCH  42  43
ENDBRANCH  32  37
ENDBRANCH  23  24
ENDBRANCH   6  23
BRANCH   3  45
ATOM     45  O   UNL     1      11.413  26.914  77.660  1.00  0.00    -0.387 OA
ATOM     46  H   UNL     1      10.479  26.820  77.986  1.00  0.00     0.211 HD
ENDBRANCH   3  45
BRANCH   4  47
ATOM     47  C   UNL     1      11.854  24.350  76.333  1.00  0.00     0.191 C 
BRANCH  47  48
ATOM     48  O   UNL     1      11.519  23.030  75.997  1.00  0.00    -0.394 OA
ATOM     49  H   UNL     1      12.377  22.539  75.902  1.00  0.00     0.210 HD
ENDBRANCH  47  48
ENDBRANCH   4  47
TORSDOF 14
ENDMDL
MODEL 6
REMARK VINA RESULT:    -4.918      3.036      7.031
REMARK INTER + INTRA:         -10.052
REMARK INTER:                  -7.760
REMARK INTRA:                  -2.292
REMARK UNBOUND:                -2.259
REMARK SMILES C[C@H]1O[C@H](O[C@H]2[C@@H](Oc3cc(O)c4c(c3)O[C@H](c3ccc(O)cc3)CC4=O)O[C@H](CO)[C@H](O)[C@@H]2O)[C@H](O)[C@H](O)[C@H]1O
REMARK SMILES IDX 6 1 34 2 32 3 29 4 28 5 7 6 5 7 4 8 1 9 2 10 40 11 3 12
REMARK SMILES IDX 38 13 36 14 41 15 39 17 37 19 35 21 8 23 9 24 10 25 15 26
REMARK SMILES IDX 11 27 14 28 13 29 16 30 26 31 17 32 27 33 25 34 12 35 18 37
REMARK SMILES IDX 19 38 24 39 20 40 23 41 21 42 22 43 33 45 30 47 31 48
REMARK H PARENT 41 16 39 18 37 20 35 22 12 36 22 44 33 46 31 49
REMARK Flexibility Score: inf
ROOT
ATOM      1  C   UNL     1      13.970  18.716  77.775  1.00  0.00     0.221 C 
ATOM      2  C   UNL     1      13.952  17.999  79.151  1.00  0.00     0.181 C 
ATOM      3  C   UNL     1      15.392  17.688  79.603  1.00  0.00     0.177 C 
ATOM      4  C   UNL     1      16.216  17.019  78.472  1.00  0.00     0.179 C 
ATOM      5  O   UNL     1      16.164  17.771  77.269  1.00  0.00    -0.332 OA
ATOM      6  C   UNL     1      14.840  17.937  76.777  1.00  0.00     0.339 C 
ENDROOT
BRANCH   1   7
ATOM      7  O   UNL     1      14.521  20.020  77.923  1.00  0.00    -0.337 OA
BRANCH   7   8
ATOM      8  C   UNL     1      13.694  21.012  77.331  1.00  0.00     0.282 C 
ATOM      9  C   UNL     1      12.220  22.439  80.384  1.00  0.00     0.041 C 
ATOM     10  C   UNL     1      13.309  22.128  79.359  1.00  0.00     0.150 C 
ATOM     11  C   UNL     1      14.042  23.415  78.914  1.00  0.00     0.174 C 
ATOM     12  O   UNL     1      12.712  21.472  78.249  1.00  0.00    -0.344 OA
ATOM     13  C   UNL     1      15.139  23.051  77.897  1.00  0.00     0.179 C 
ATOM     14  C   UNL     1      14.537  22.185  76.775  1.00  0.00     0.202 C 
BRANCH  11  15
ATOM     15  O   UNL     1      13.122  24.311  78.336  1.00  0.00    -0.388 OA
ATOM     16  H   UNL     1      13.628  25.141  78.115  1.00  0.00     0.211 HD
ENDBRANCH  11  15
BRANCH  13  17
ATOM     17  O   UNL     1      16.177  22.356  78.544  1.00  0.00    -0.387 OA
ATOM     18  H   UNL     1      17.009  22.876  78.388  1.00  0.00     0.211 HD
ENDBRANCH  13  17
BRANCH  14  19
ATOM     19  O   UNL     1      15.523  21.737  75.873  1.00  0.00    -0.385 OA
ATOM     20  H   UNL     1      16.155  21.152  76.365  1.00  0.00     0.211 HD
ENDBRANCH  14  19
ENDBRANCH   7   8
ENDBRANCH   1   7
BRANCH   2  21
ATOM     21  O   UNL     1      13.178  16.815  79.170  1.00  0.00    -0.387 OA
ATOM     22  H   UNL     1      13.735  16.043  78.877  1.00  0.00     0.211 HD
ENDBRANCH   2  21
BRANCH   6  23
ATOM     23  O   UNL     1      14.894  18.700  75.571  1.00  0.00    -0.462 OA
BRANCH  23  24
ATOM     24  C   UNL     1      13.985  18.593  74.510  1.00  0.00     0.130 A 
ATOM     25  C   UNL     1      13.514  17.357  74.039  1.00  0.00     0.093 A 
ATOM     26  C   UNL     1      13.562  19.768  73.888  1.00  0.00     0.094 A 
ATOM     27  C   UNL     1      12.631  17.292  72.951  1.00  0.00     0.133 A 
ATOM     28  C   UNL     1      12.689  19.725  72.799  1.00  0.00     0.138 A 
ATOM     29  C   UNL     1      12.182  18.493  72.341  1.00  0.00     0.102 A 
ATOM     30  O   UNL     1      12.359  20.927  72.165  1.00  0.00    -0.484 OA
ATOM     31  C   UNL     1      11.198  18.543  71.235  1.00  0.00     0.174 C 
ATOM     32  C   UNL     1      11.351  21.065  71.159  1.00  0.00     0.211 C 
ATOM     33  O   UNL     1      10.392  17.599  71.032  1.00  0.00    -0.294 OA
ATOM     34  C   UNL     1      11.137  19.762  70.356  1.00  0.00     0.131 C 
BRANCH  27  35
ATOM     35  O   UNL     1      12.263  16.021  72.498  1.00  0.00    -0.507 OA
ATOM     36  H   UNL     1      12.916  15.281  72.292  1.00  0.00     0.293 HD
ENDBRANCH  27  35
BRANCH  32  37
ATOM     37  C   UNL     1      10.098  21.656  71.782  1.00  0.00    -0.007 A 
ATOM     38  C   UNL     1       8.849  21.248  71.281  1.00  0.00     0.011 A 
ATOM     39  C   UNL     1      10.134  22.653  72.779  1.00  0.00     0.011 A 
ATOM     40  C   UNL     1       7.663  21.785  71.787  1.00  0.00     0.046 A 
ATOM     41  C   UNL     1       8.944  23.184  73.289  1.00  0.00     0.046 A 
ATOM     42  C   UNL     1       7.708  22.752  72.796  1.00  0.00     0.115 A 
BRANCH  42  43
ATOM     43  O   UNL     1       6.518  23.275  73.298  1.00  0.00    -0.508 OA
ATOM     44  H   UNL     1       6.299  23.246  74.287  1.00  0.00     0.293 HD
ENDBRANCH  42  43
ENDBRANCH  32  37
ENDBRANCH  23  24
ENDBRANCH   6  23
BRANCH   3  45
ATOM     45  O   UNL     1      15.389  16.885  80.755  1.00  0.00    -0.387 OA
ATOM     46  H   UNL     1      16.276  17.001  81.185  1.00  0.00     0.211 HD
ENDBRANCH   3  45
BRANCH   4  47
ATOM     47  C   UNL     1      15.911  15.521  78.227  1.00  0.00     0.191 C 
BRANCH  47  48
ATOM     48  O   UNL     1      16.569  14.719  79.173  1.00  0.00    -0.394 OA
ATOM     49  H   UNL     1      16.516  13.787  78.834  1.00  0.00     0.210 HD
ENDBRANCH  47  48
ENDBRANCH   4  47
TORSDOF 14
ENDMDL
MODEL 7
REMARK VINA RESULT:    -4.787      1.200      4.452
REMARK INTER + INTRA:          -9.844
REMARK INTER:                  -7.714
REMARK INTRA:                  -2.129
REMARK UNBOUND:                -2.259
REMARK SMILES C[C@H]1O[C@H](O[C@H]2[C@@H](Oc3cc(O)c4c(c3)O[C@H](c3ccc(O)cc3)CC4=O)O[C@H](CO)[C@H](O)[C@@H]2O)[C@H](O)[C@H](O)[C@H]1O
REMARK SMILES IDX 6 1 34 2 32 3 29 4 28 5 7 6 5 7 4 8 1 9 2 10 40 11 3 12
REMARK SMILES IDX 38 13 36 14 41 15 39 17 37 19 35 21 8 23 9 24 10 25 15 26
REMARK SMILES IDX 11 27 14 28 13 29 16 30 26 31 17 32 27 33 25 34 12 35 18 37
REMARK SMILES IDX 19 38 24 39 20 40 23 41 21 42 22 43 33 45 30 47 31 48
REMARK H PARENT 41 16 39 18 37 20 35 22 12 36 22 44 33 46 31 49
REMARK Flexibility Score: inf
ROOT
ATOM      1  C   UNL     1      12.678  25.651  79.981  1.00  0.00     0.221 C 
ATOM      2  C   UNL     1      12.968  26.331  81.345  1.00  0.00     0.181 C 
ATOM      3  C   UNL     1      14.489  26.438  81.568  1.00  0.00     0.177 C 
ATOM      4  C   UNL     1      15.206  25.091  81.288  1.00  0.00     0.179 C 
ATOM      5  O   UNL     1      14.869  24.574  80.009  1.00  0.00    -0.332 OA
ATOM      6  C   UNL     1      13.475  24.344  79.854  1.00  0.00     0.339 C 
ENDROOT
BRANCH   1   7
ATOM      7  O   UNL     1      13.072  26.517  78.923  1.00  0.00    -0.337 OA
BRANCH   7   8
ATOM      8  C   UNL     1      11.962  27.208  78.365  1.00  0.00     0.282 C 
ATOM      9  C   UNL     1      13.737  30.086  76.918  1.00  0.00     0.041 C 
ATOM     10  C   UNL     1      13.300  28.629  77.063  1.00  0.00     0.150 C 
ATOM     11  C   UNL     1      12.780  28.065  75.720  1.00  0.00     0.174 C 
ATOM     12  O   UNL     1      12.298  28.555  78.068  1.00  0.00    -0.344 OA
ATOM     13  C   UNL     1      12.369  26.593  75.911  1.00  0.00     0.179 C 
ATOM     14  C   UNL     1      11.417  26.475  77.116  1.00  0.00     0.202 C 
BRANCH  11  15
ATOM     15  O   UNL     1      11.679  28.824  75.279  1.00  0.00    -0.388 OA
ATOM     16  H   UNL     1      11.274  28.328  74.515  1.00  0.00     0.211 HD
ENDBRANCH  11  15
BRANCH  13  17
ATOM     17  O   UNL     1      13.514  25.802  76.116  1.00  0.00    -0.387 OA
ATOM     18  H   UNL     1      13.407  25.372  77.005  1.00  0.00     0.211 HD
ENDBRANCH  13  17
BRANCH  14  19
ATOM     19  O   UNL     1      11.094  25.132  77.397  1.00  0.00    -0.385 OA
ATOM     20  H   UNL     1      11.368  24.933  78.329  1.00  0.00     0.211 HD
ENDBRANCH  14  19
ENDBRANCH   7   8
ENDBRANCH   1   7
BRANCH   2  21
ATOM     21  O   UNL     1      12.367  25.682  82.449  1.00  0.00    -0.387 OA
ATOM     22  H   UNL     1      12.246  26.329  83.196  1.00  0.00     0.211 HD
ENDBRANCH   2  21
BRANCH   6  23
ATOM     23  O   UNL     1      13.241  23.825  78.545  1.00  0.00    -0.462 OA
BRANCH  23  24
ATOM     24  C   UNL     1      13.380  22.481  78.174  1.00  0.00     0.130 A 
ATOM     25  C   UNL     1      13.483  21.444  79.116  1.00  0.00     0.093 A 
ATOM     26  C   UNL     1      13.447  22.179  76.815  1.00  0.00     0.094 A 
ATOM     27  C   UNL     1      13.655  20.114  78.703  1.00  0.00     0.133 A 
ATOM     28  C   UNL     1      13.625  20.863  76.383  1.00  0.00     0.138 A 
ATOM     29  C   UNL     1      13.693  19.810  77.317  1.00  0.00     0.102 A 
ATOM     30  O   UNL     1      13.763  20.627  75.011  1.00  0.00    -0.484 OA
ATOM     31  C   UNL     1      13.801  18.437  76.772  1.00  0.00     0.174 C 
ATOM     32  C   UNL     1      13.776  19.331  74.407  1.00  0.00     0.211 C 
ATOM     33  O   UNL     1      13.457  17.435  77.450  1.00  0.00    -0.294 OA
ATOM     34  C   UNL     1      14.299  18.238  75.367  1.00  0.00     0.131 C 
BRANCH  27  35
ATOM     35  O   UNL     1      13.818  19.149  79.702  1.00  0.00    -0.507 OA
ATOM     36  H   UNL     1      14.713  18.827  80.039  1.00  0.00     0.293 HD
ENDBRANCH  27  35
BRANCH  32  37
ATOM     37  C   UNL     1      12.417  19.052  73.788  1.00  0.00    -0.007 A 
ATOM     38  C   UNL     1      12.059  17.714  73.539  1.00  0.00     0.011 A 
ATOM     39  C   UNL     1      11.538  20.075  73.375  1.00  0.00     0.011 A 
ATOM     40  C   UNL     1      10.840  17.399  72.936  1.00  0.00     0.046 A 
ATOM     41  C   UNL     1      10.314  19.755  72.778  1.00  0.00     0.046 A 
ATOM     42  C   UNL     1       9.962  18.420  72.557  1.00  0.00     0.115 A 
BRANCH  42  43
ATOM     43  O   UNL     1       8.745  18.091  71.963  1.00  0.00    -0.508 OA
ATOM     44  H   UNL     1       8.517  17.136  71.708  1.00  0.00     0.293 HD
ENDBRANCH  42  43
ENDBRANCH  32  37
ENDBRANCH  23  24
ENDBRANCH   6  23
BRANCH   3  45
ATOM     45  O   UNL     1      14.770  26.886  82.869  1.00  0.00    -0.387 OA
ATOM     46  H   UNL     1      14.049  26.532  83.454  1.00  0.00     0.211 HD
ENDBRANCH   3  45
BRANCH   4  47
ATOM     47  C   UNL     1      15.063  24.020  82.397  1.00  0.00     0.191 C 
BRANCH  47  48
ATOM     48  O   UNL     1      16.015  23.002  82.229  1.00  0.00    -0.394 OA
ATOM     49  H   UNL     1      15.505  22.168  82.052  1.00  0.00     0.210 HD
ENDBRANCH  47  48
ENDBRANCH   4  47
TORSDOF 14
ENDMDL
MODEL 8
REMARK VINA RESULT:    -4.784      2.171     10.112
REMARK INTER + INTRA:          -9.839
REMARK INTER:                  -7.595
REMARK INTRA:                  -2.244
REMARK UNBOUND:                -2.259
REMARK SMILES C[C@H]1O[C@H](O[C@H]2[C@@H](Oc3cc(O)c4c(c3)O[C@H](c3ccc(O)cc3)CC4=O)O[C@H](CO)[C@H](O)[C@@H]2O)[C@H](O)[C@H](O)[C@H]1O
REMARK SMILES IDX 6 1 34 2 32 3 29 4 28 5 7 6 5 7 4 8 1 9 2 10 40 11 3 12
REMARK SMILES IDX 38 13 36 14 41 15 39 17 37 19 35 21 8 23 9 24 10 25 15 26
REMARK SMILES IDX 11 27 14 28 13 29 16 30 26 31 17 32 27 33 25 34 12 35 18 37
REMARK SMILES IDX 19 38 24 39 20 40 23 41 21 42 22 43 33 45 30 47 31 48
REMARK H PARENT 41 16 39 18 37 20 35 22 12 36 22 44 33 46 31 49
REMARK Flexibility Score: inf
ROOT
ATOM      1  C   UNL     1      14.946  18.363  75.977  1.00  0.00     0.221 C 
ATOM      2  C   UNL     1      15.937  17.411  76.698  1.00  0.00     0.181 C 
ATOM      3  C   UNL     1      15.164  16.427  77.597  1.00  0.00     0.177 C 
ATOM      4  C   UNL     1      14.121  17.157  78.483  1.00  0.00     0.179 C 
ATOM      5  O   UNL     1      13.267  17.988  77.710  1.00  0.00    -0.332 OA
ATOM      6  C   UNL     1      13.973  18.989  76.988  1.00  0.00     0.339 C 
ENDROOT
BRANCH   1   7
ATOM      7  O   UNL     1      14.185  17.628  75.025  1.00  0.00    -0.337 OA
BRANCH   7   8
ATOM      8  C   UNL     1      14.767  17.682  73.729  1.00  0.00     0.282 C 
ATOM      9  C   UNL     1      14.137  14.219  72.662  1.00  0.00     0.041 C 
ATOM     10  C   UNL     1      13.797  15.661  73.036  1.00  0.00     0.150 C 
ATOM     11  C   UNL     1      12.923  16.329  71.949  1.00  0.00     0.174 C 
ATOM     12  O   UNL     1      15.010  16.377  73.224  1.00  0.00    -0.344 OA
ATOM     13  C   UNL     1      12.593  17.771  72.377  1.00  0.00     0.179 C 
ATOM     14  C   UNL     1      13.891  18.508  72.756  1.00  0.00     0.202 C 
BRANCH  11  15
ATOM     15  O   UNL     1      13.610  16.332  70.721  1.00  0.00    -0.388 OA
ATOM     16  H   UNL     1      14.094  17.202  70.663  1.00  0.00     0.211 HD
ENDBRANCH  11  15
BRANCH  13  17
ATOM     17  O   UNL     1      11.706  17.754  73.468  1.00  0.00    -0.387 OA
ATOM     18  H   UNL     1      10.819  18.037  73.120  1.00  0.00     0.211 HD
ENDBRANCH  13  17
BRANCH  14  19
ATOM     19  O   UNL     1      13.632  19.800  73.256  1.00  0.00    -0.385 OA
ATOM     20  H   UNL     1      12.750  20.098  72.915  1.00  0.00     0.211 HD
ENDBRANCH  14  19
ENDBRANCH   7   8
ENDBRANCH   1   7
BRANCH   2  21
ATOM     21  O   UNL     1      16.924  18.080  77.459  1.00  0.00    -0.387 OA
ATOM     22  H   UNL     1      16.949  19.043  77.206  1.00  0.00     0.211 HD
ENDBRANCH   2  21
BRANCH   6  23
ATOM     23  O   UNL     1      13.032  19.769  76.250  1.00  0.00    -0.462 OA
BRANCH  23  24
ATOM     24  C   UNL     1      12.883  21.159  76.352  1.00  0.00     0.130 A 
ATOM     25  C   UNL     1      12.025  21.890  75.516  1.00  0.00     0.093 A 
ATOM     26  C   UNL     1      13.646  21.832  77.306  1.00  0.00     0.094 A 
ATOM     27  C   UNL     1      11.930  23.285  75.627  1.00  0.00     0.133 A 
ATOM     28  C   UNL     1      13.573  23.221  77.429  1.00  0.00     0.138 A 
ATOM     29  C   UNL     1      12.688  23.962  76.620  1.00  0.00     0.102 A 
ATOM     30  O   UNL     1      14.417  23.852  78.349  1.00  0.00    -0.484 OA
ATOM     31  C   UNL     1      12.612  25.419  76.871  1.00  0.00     0.174 C 
ATOM     32  C   UNL     1      14.335  25.233  78.712  1.00  0.00     0.211 C 
ATOM     33  O   UNL     1      11.605  26.091  76.529  1.00  0.00    -0.294 OA
ATOM     34  C   UNL     1      13.746  26.106  77.580  1.00  0.00     0.131 C 
BRANCH  27  35
ATOM     35  O   UNL     1      11.106  23.948  74.713  1.00  0.00    -0.507 OA
ATOM     36  H   UNL     1      10.661  24.836  74.889  1.00  0.00     0.293 HD
ENDBRANCH  27  35
BRANCH  32  37
ATOM     37  C   UNL     1      13.638  25.359  80.055  1.00  0.00    -0.007 A 
ATOM     38  C   UNL     1      13.122  26.615  80.423  1.00  0.00     0.011 A 
ATOM     39  C   UNL     1      13.561  24.298  80.982  1.00  0.00     0.011 A 
ATOM     40  C   UNL     1      12.506  26.801  81.663  1.00  0.00     0.046 A 
ATOM     41  C   UNL     1      12.937  24.486  82.219  1.00  0.00     0.046 A 
ATOM     42  C   UNL     1      12.408  25.735  82.563  1.00  0.00     0.115 A 
BRANCH  42  43
ATOM     43  O   UNL     1      11.785  25.932  83.793  1.00  0.00    -0.508 OA
ATOM     44  H   UNL     1      11.684  26.856  84.198  1.00  0.00     0.293 HD
ENDBRANCH  42  43
ENDBRANCH  32  37
ENDBRANCH  23  24
ENDBRANCH   6  23
BRANCH   3  45
ATOM     45  O   UNL     1      16.049  15.679  78.389  1.00  0.00    -0.387 OA
ATOM     46  H   UNL     1      16.859  15.518  77.837  1.00  0.00     0.211 HD
ENDBRANCH   3  45
BRANCH   4  47
ATOM     47  C   UNL     1      14.699  17.907  79.708  1.00  0.00     0.191 C 
BRANCH  47  48
ATOM     48  O   UNL     1      14.990  17.010  80.747  1.00  0.00    -0.394 OA
ATOM     49  H   UNL     1      14.882  17.518  81.593  1.00  0.00     0.210 HD
ENDBRANCH  47  48
ENDBRANCH   4  47
TORSDOF 14
ENDMDL
MODEL 9
REMARK VINA RESULT:    -4.694      2.756      9.827
REMARK INTER + INTRA:          -9.698
REMARK INTER:                  -7.669
REMARK INTRA:                  -2.028
REMARK UNBOUND:                -2.259
REMARK SMILES C[C@H]1O[C@H](O[C@H]2[C@@H](Oc3cc(O)c4c(c3)O[C@H](c3ccc(O)cc3)CC4=O)O[C@H](CO)[C@H](O)[C@@H]2O)[C@H](O)[C@H](O)[C@H]1O
REMARK SMILES IDX 6 1 34 2 32 3 29 4 28 5 7 6 5 7 4 8 1 9 2 10 40 11 3 12
REMARK SMILES IDX 38 13 36 14 41 15 39 17 37 19 35 21 8 23 9 24 10 25 15 26
REMARK SMILES IDX 11 27 14 28 13 29 16 30 26 31 17 32 27 33 25 34 12 35 18 37
REMARK SMILES IDX 19 38 24 39 20 40 23 41 21 42 22 43 33 45 30 47 31 48
REMARK H PARENT 41 16 39 18 37 20 35 22 12 36 22 44 33 46 31 49
REMARK Flexibility Score: inf
ROOT
ATOM      1  C   UNL     1      14.757  19.991  76.768  1.00  0.00     0.221 C 
ATOM      2  C   UNL     1      15.240  18.517  76.728  1.00  0.00     0.181 C 
ATOM      3  C   UNL     1      14.360  17.650  77.648  1.00  0.00     0.177 C 
ATOM      4  C   UNL     1      14.184  18.293  79.048  1.00  0.00     0.179 C 
ATOM      5  O   UNL     1      13.730  19.636  78.955  1.00  0.00    -0.332 OA
ATOM      6  C   UNL     1      14.617  20.470  78.222  1.00  0.00     0.339 C 
ENDROOT
BRANCH   1   7
ATOM      7  O   UNL     1      13.483  20.094  76.142  1.00  0.00    -0.337 OA
BRANCH   7   8
ATOM      8  C   UNL     1      13.599  20.335  74.746  1.00  0.00     0.282 C 
ATOM      9  C   UNL     1      10.735  18.348  73.572  1.00  0.00     0.041 C 
ATOM     10  C   UNL     1      11.459  19.503  74.263  1.00  0.00     0.150 C 
ATOM     11  C   UNL     1      10.918  20.869  73.784  1.00  0.00     0.174 C 
ATOM     12  O   UNL     1      12.851  19.386  74.001  1.00  0.00    -0.344 OA
ATOM     13  C   UNL     1      11.664  21.998  74.520  1.00  0.00     0.179 C 
ATOM     14  C   UNL     1      13.183  21.783  74.391  1.00  0.00     0.202 C 
BRANCH  11  15
ATOM     15  O   UNL     1      11.099  20.992  72.394  1.00  0.00    -0.388 OA
ATOM     16  H   UNL     1      10.901  21.941  72.160  1.00  0.00     0.211 HD
ENDBRANCH  11  15
BRANCH  13  17
ATOM     17  O   UNL     1      11.287  22.015  75.875  1.00  0.00    -0.387 OA
ATOM     18  H   UNL     1      11.536  22.910  76.229  1.00  0.00     0.211 HD
ENDBRANCH  13  17
BRANCH  14  19
ATOM     19  O   UNL     1      13.911  22.733  75.137  1.00  0.00    -0.385 OA
ATOM     20  H   UNL     1      13.872  23.602  74.661  1.00  0.00     0.211 HD
ENDBRANCH  14  19
ENDBRANCH   7   8
ENDBRANCH   1   7
BRANCH   2  21
ATOM     21  O   UNL     1      16.602  18.351  77.072  1.00  0.00    -0.387 OA
ATOM     22  H   UNL     1      16.680  17.740  77.855  1.00  0.00     0.211 HD
ENDBRANCH   2  21
BRANCH   6  23
ATOM     23  O   UNL     1      14.077  21.791  78.186  1.00  0.00    -0.462 OA
BRANCH  23  24
ATOM     24  C   UNL     1      14.646  22.911  78.810  1.00  0.00     0.130 A 
ATOM     25  C   UNL     1      15.572  23.746  78.164  1.00  0.00     0.093 A 
ATOM     26  C   UNL     1      14.292  23.175  80.132  1.00  0.00     0.094 A 
ATOM     27  C   UNL     1      16.144  24.837  78.836  1.00  0.00     0.133 A 
ATOM     28  C   UNL     1      14.855  24.251  80.821  1.00  0.00     0.138 A 
ATOM     29  C   UNL     1      15.758  25.118  80.173  1.00  0.00     0.102 A 
ATOM     30  O   UNL     1      14.523  24.424  82.169  1.00  0.00    -0.484 OA
ATOM     31  C   UNL     1      16.244  26.281  80.950  1.00  0.00     0.174 C 
ATOM     32  C   UNL     1      14.876  25.568  82.952  1.00  0.00     0.211 C 
ATOM     33  O   UNL     1      16.693  27.308  80.378  1.00  0.00    -0.294 OA
ATOM     34  C   UNL     1      16.170  26.249  82.451  1.00  0.00     0.131 C 
BRANCH  27  35
ATOM     35  O   UNL     1      17.108  25.579  78.148  1.00  0.00    -0.507 OA
ATOM     36  H   UNL     1      16.988  26.539  77.861  1.00  0.00     0.293 HD
ENDBRANCH  27  35
BRANCH  32  37
ATOM     37  C   UNL     1      13.670  26.482  83.078  1.00  0.00    -0.007 A 
ATOM     38  C   UNL     1      13.876  27.872  83.006  1.00  0.00     0.011 A 
ATOM     39  C   UNL     1      12.370  26.004  83.346  1.00  0.00     0.011 A 
ATOM     40  C   UNL     1      12.811  28.763  83.154  1.00  0.00     0.046 A 
ATOM     41  C   UNL     1      11.304  26.899  83.487  1.00  0.00     0.046 A 
ATOM     42  C   UNL     1      11.521  28.278  83.391  1.00  0.00     0.115 A 
BRANCH  42  43
ATOM     43  O   UNL     1      10.466  29.178  83.529  1.00  0.00    -0.508 OA
ATOM     44  H   UNL     1       9.695  29.001  84.163  1.00  0.00     0.293 HD
ENDBRANCH  42  43
ENDBRANCH  32  37
ENDBRANCH  23  24
ENDBRANCH   6  23
BRANCH   3  45
ATOM     45  O   UNL     1      14.889  16.354  77.763  1.00  0.00    -0.387 OA
ATOM     46  H   UNL     1      14.867  16.121  78.728  1.00  0.00     0.211 HD
ENDBRANCH   3  45
BRANCH   4  47
ATOM     47  C   UNL     1      15.401  18.163  79.997  1.00  0.00     0.191 C 
BRANCH  47  48
ATOM     48  O   UNL     1      15.320  16.980  80.747  1.00  0.00    -0.394 OA
ATOM     49  H   UNL     1      16.231  16.814  81.107  1.00  0.00     0.210 HD
ENDBRANCH  47  48
ENDBRANCH   4  47
TORSDOF 14
ENDMDL
