MODEL 1
REMARK VINA RESULT:    -3.870      0.000      0.000
REMARK INTER + INTRA:          -6.659
REMARK INTER:                  -5.906
REMARK INTRA:                  -0.753
REMARK UNBOUND:                -0.753
REMARK SMILES O=C([O-])CCCCCCCCC(=O)[O-]
REMARK SMILES IDX 7 1 6 2 5 3 4 4 2 5 1 6 3 7 8 8 9 9 10 10 11 11 12 12 13 13
REMARK SMILES IDX 14 14
REMARK H PARENT
REMARK Flexibility Score: inf
ROOT
ATOM      1  C   UNL     1       2.247  23.386  22.014  1.00  0.00     0.000 C 
ENDROOT
BRANCH   1   2
ATOM      2  C   UNL     1       2.924  24.563  22.729  1.00  0.00     0.000 C 
BRANCH   2   3
ATOM      3  C   UNL     1       4.300  24.155  23.277  1.00  0.00     0.006 C 
BRANCH   3   4
ATOM      4  C   UNL     1       4.382  24.294  24.802  1.00  0.00     0.053 C 
BRANCH   4   5
ATOM      5  C   UNL     1       5.798  24.414  25.277  1.00  0.00     0.041 C 
ATOM      6  O   UNL     1       6.122  25.329  26.078  1.00  0.00    -0.550 OA
ATOM      7  O   UNL     1       6.766  23.536  24.806  1.00  0.00    -0.550 OA
ENDBRANCH   4   5
ENDBRANCH   3   4
ENDBRANCH   2   3
ENDBRANCH   1   2
BRANCH   1   8
ATOM      8  C   UNL     1       1.553  22.458  23.021  1.00  0.00     0.000 C 
BRANCH   8   9
ATOM      9  C   UNL     1       0.858  23.224  24.163  1.00  0.00     0.000 C 
BRANCH   9  10
ATOM     10  C   UNL     1       1.175  22.711  25.582  1.00  0.00     0.006 C 
BRANCH  10  11
ATOM     11  C   UNL     1       1.121  23.789  26.676  1.00  0.00     0.053 C 
BRANCH  11  12
ATOM     12  C   UNL     1      -0.143  24.589  26.613  1.00  0.00     0.041 C 
ATOM     13  O   UNL     1      -0.098  25.833  26.424  1.00  0.00    -0.550 OA
ATOM     14  O   UNL     1      -1.371  23.967  26.799  1.00  0.00    -0.550 OA
ENDBRANCH  11  12
ENDBRANCH  10  11
ENDBRANCH   9  10
ENDBRANCH   8   9
ENDBRANCH   1   8
TORSDOF 9
ENDMDL
MODEL 2
REMARK VINA RESULT:    -3.816      0.904      5.311
REMARK INTER + INTRA:          -6.577
REMARK INTER:                  -5.952
REMARK INTRA:                  -0.625
REMARK UNBOUND:                -0.753
REMARK SMILES O=C([O-])CCCCCCCCC(=O)[O-]
REMARK SMILES IDX 7 1 6 2 5 3 4 4 2 5 1 6 3 7 8 8 9 9 10 10 11 11 12 12 13 13
REMARK SMILES IDX 14 14
REMARK H PARENT
REMARK Flexibility Score: inf
ROOT
ATOM      1  C   UNL     1       1.494  22.971  22.787  1.00  0.00     0.000 C 
ENDROOT
BRANCH   1   2
ATOM      2  C   UNL     1       1.786  22.534  24.228  1.00  0.00     0.000 C 
BRANCH   2   3
ATOM      3  C   UNL     1       0.752  23.120  25.202  1.00  0.00     0.006 C 
BRANCH   3   4
ATOM      4  C   UNL     1       0.943  24.627  25.413  1.00  0.00     0.053 C 
BRANCH   4   5
ATOM      5  C   UNL     1      -0.164  25.219  26.231  1.00  0.00     0.041 C 
ATOM      6  O   UNL     1      -0.157  26.448  26.511  1.00  0.00    -0.550 OA
ATOM      7  O   UNL     1      -1.184  24.409  26.713  1.00  0.00    -0.550 OA
ENDBRANCH   4   5
ENDBRANCH   3   4
ENDBRANCH   2   3
ENDBRANCH   1   2
BRANCH   1   8
ATOM      8  C   UNL     1       2.756  23.535  22.118  1.00  0.00     0.000 C 
BRANCH   8   9
ATOM      9  C   UNL     1       3.441  24.630  22.956  1.00  0.00     0.000 C 
BRANCH   9  10
ATOM     10  C   UNL     1       4.816  24.244  23.537  1.00  0.00     0.006 C 
BRANCH  10  11
ATOM     11  C   UNL     1       4.893  24.282  25.072  1.00  0.00     0.053 C 
BRANCH  11  12
ATOM     12  C   UNL     1       6.130  24.977  25.554  1.00  0.00     0.041 C 
ATOM     13  O   UNL     1       6.301  25.185  26.783  1.00  0.00    -0.550 OA
ATOM     14  O   UNL     1       7.077  25.425  24.641  1.00  0.00    -0.550 OA
ENDBRANCH  11  12
ENDBRANCH  10  11
ENDBRANCH   9  10
ENDBRANCH   8   9
ENDBRANCH   1   8
TORSDOF 9
ENDMDL
MODEL 3
REMARK VINA RESULT:    -3.508      2.495      3.721
REMARK INTER + INTRA:          -6.107
REMARK INTER:                  -5.442
REMARK INTRA:                  -0.665
REMARK UNBOUND:                -0.753
REMARK SMILES O=C([O-])CCCCCCCCC(=O)[O-]
REMARK SMILES IDX 7 1 6 2 5 3 4 4 2 5 1 6 3 7 8 8 9 9 10 10 11 11 12 12 13 13
REMARK SMILES IDX 14 14
REMARK H PARENT
REMARK Flexibility Score: inf
ROOT
ATOM      1  C   UNL     1       2.490  22.564  26.353  1.00  0.00     0.000 C 
ENDROOT
BRANCH   1   2
ATOM      2  C   UNL     1       3.969  22.754  26.713  1.00  0.00     0.000 C 
BRANCH   2   3
ATOM      3  C   UNL     1       4.555  23.985  26.005  1.00  0.00     0.006 C 
BRANCH   3   4
ATOM      4  C   UNL     1       5.883  24.435  26.627  1.00  0.00     0.053 C 
BRANCH   4   5
ATOM      5  C   UNL     1       6.522  25.537  25.839  1.00  0.00     0.041 C 
ATOM      6  O   UNL     1       6.748  26.653  26.378  1.00  0.00    -0.550 OA
ATOM      7  O   UNL     1       6.836  25.344  24.500  1.00  0.00    -0.550 OA
ENDBRANCH   4   5
ENDBRANCH   3   4
ENDBRANCH   2   3
ENDBRANCH   1   2
BRANCH   1   8
ATOM      8  C   UNL     1       1.831  23.909  26.014  1.00  0.00     0.000 C 
BRANCH   8   9
ATOM      9  C   UNL     1       1.066  23.881  24.677  1.00  0.00     0.000 C 
BRANCH   9  10
ATOM     10  C   UNL     1       1.478  22.752  23.712  1.00  0.00     0.006 C 
BRANCH  10  11
ATOM     11  C   UNL     1       1.844  23.225  22.296  1.00  0.00     0.053 C 
BRANCH  11  12
ATOM     12  C   UNL     1       2.708  24.448  22.319  1.00  0.00     0.041 C 
ATOM     13  O   UNL     1       3.894  24.379  22.733  1.00  0.00    -0.550 OA
ATOM     14  O   UNL     1       2.191  25.673  21.915  1.00  0.00    -0.550 OA
ENDBRANCH  11  12
ENDBRANCH  10  11
ENDBRANCH   9  10
ENDBRANCH   8   9
ENDBRANCH   1   8
TORSDOF 9
ENDMDL
MODEL 4
REMARK VINA RESULT:    -3.443      4.120      5.886
REMARK INTER + INTRA:          -6.007
REMARK INTER:                  -5.568
REMARK INTRA:                  -0.440
REMARK UNBOUND:                -0.753
REMARK SMILES O=C([O-])CCCCCCCCC(=O)[O-]
REMARK SMILES IDX 7 1 6 2 5 3 4 4 2 5 1 6 3 7 8 8 9 9 10 10 11 11 12 12 13 13
REMARK SMILES IDX 14 14
REMARK H PARENT
REMARK Flexibility Score: inf
ROOT
ATOM      1  C   UNL     1       1.660  26.008  21.636  1.00  0.00     0.000 C 
ENDROOT
BRANCH   1   2
ATOM      2  C   UNL     1       1.122  27.069  22.605  1.00  0.00     0.000 C 
BRANCH   2   3
ATOM      3  C   UNL     1       0.818  28.382  21.868  1.00  0.00     0.006 C 
BRANCH   3   4
ATOM      4  C   UNL     1      -0.294  28.218  20.824  1.00  0.00     0.053 C 
BRANCH   4   5
ATOM      5  C   UNL     1      -0.812  29.540  20.348  1.00  0.00     0.041 C 
ATOM      6  O   UNL     1      -2.049  29.776  20.356  1.00  0.00    -0.550 OA
ATOM      7  O   UNL     1       0.069  30.499  19.864  1.00  0.00    -0.550 OA
ENDBRANCH   4   5
ENDBRANCH   3   4
ENDBRANCH   2   3
ENDBRANCH   1   2
BRANCH   1   8
ATOM      8  C   UNL     1       2.605  25.036  22.357  1.00  0.00     0.000 C 
BRANCH   8   9
ATOM      9  C   UNL     1       2.372  23.566  21.959  1.00  0.00     0.000 C 
BRANCH   9  10
ATOM     10  C   UNL     1       1.464  22.767  22.915  1.00  0.00     0.006 C 
BRANCH  10  11
ATOM     11  C   UNL     1       1.933  22.753  24.379  1.00  0.00     0.053 C 
BRANCH  11  12
ATOM     12  C   UNL     1       0.916  23.352  25.300  1.00  0.00     0.041 C 
ATOM     13  O   UNL     1       0.255  22.616  26.079  1.00  0.00    -0.550 OA
ATOM     14  O   UNL     1       0.672  24.719  25.273  1.00  0.00    -0.550 OA
ENDBRANCH  11  12
ENDBRANCH  10  11
ENDBRANCH   9  10
ENDBRANCH   8   9
ENDBRANCH   1   8
TORSDOF 9
ENDMDL
MODEL 5
REMARK VINA RESULT:    -3.429      2.460      3.572
REMARK INTER + INTRA:          -5.986
REMARK INTER:                  -5.055
REMARK INTRA:                  -0.930
REMARK UNBOUND:                -0.753
REMARK SMILES O=C([O-])CCCCCCCCC(=O)[O-]
REMARK SMILES IDX 7 1 6 2 5 3 4 4 2 5 1 6 3 7 8 8 9 9 10 10 11 11 12 12 13 13
REMARK SMILES IDX 14 14
REMARK H PARENT
REMARK Flexibility Score: inf
ROOT
ATOM      1  C   UNL     1       4.925  23.172  26.149  1.00  0.00     0.000 C 
ENDROOT
BRANCH   1   2
ATOM      2  C   UNL     1       4.736  24.447  25.316  1.00  0.00     0.000 C 
BRANCH   2   3
ATOM      3  C   UNL     1       4.120  24.122  23.947  1.00  0.00     0.006 C 
BRANCH   3   4
ATOM      4  C   UNL     1       2.636  24.505  23.873  1.00  0.00     0.053 C 
BRANCH   4   5
ATOM      5  C   UNL     1       1.904  23.703  22.842  1.00  0.00     0.041 C 
ATOM      6  O   UNL     1       1.868  24.093  21.644  1.00  0.00    -0.550 OA
ATOM      7  O   UNL     1       1.232  22.544  23.209  1.00  0.00    -0.550 OA
ENDBRANCH   4   5
ENDBRANCH   3   4
ENDBRANCH   2   3
ENDBRANCH   1   2
BRANCH   1   8
ATOM      8  C   UNL     1       3.754  22.975  27.124  1.00  0.00     0.000 C 
BRANCH   8   9
ATOM      9  C   UNL     1       2.696  21.987  26.598  1.00  0.00     0.000 C 
BRANCH   9  10
ATOM     10  C   UNL     1       1.235  22.454  26.745  1.00  0.00     0.006 C 
BRANCH  10  11
ATOM     11  C   UNL     1       1.073  23.944  27.089  1.00  0.00     0.053 C 
BRANCH  11  12
ATOM     12  C   UNL     1      -0.209  24.506  26.558  1.00  0.00     0.041 C 
ATOM     13  O   UNL     1      -1.306  23.952  26.832  1.00  0.00    -0.550 OA
ATOM     14  O   UNL     1      -0.190  25.623  25.732  1.00  0.00    -0.550 OA
ENDBRANCH  11  12
ENDBRANCH  10  11
ENDBRANCH   9  10
ENDBRANCH   8   9
ENDBRANCH   1   8
TORSDOF 9
ENDMDL
MODEL 6
REMARK VINA RESULT:    -3.420      2.462      4.942
REMARK INTER + INTRA:          -5.972
REMARK INTER:                  -5.445
REMARK INTRA:                  -0.527
REMARK UNBOUND:                -0.753
REMARK SMILES O=C([O-])CCCCCCCCC(=O)[O-]
REMARK SMILES IDX 7 1 6 2 5 3 4 4 2 5 1 6 3 7 8 8 9 9 10 10 11 11 12 12 13 13
REMARK SMILES IDX 14 14
REMARK H PARENT
REMARK Flexibility Score: inf
ROOT
ATOM      1  C   UNL     1       1.265  22.699  25.831  1.00  0.00     0.000 C 
ENDROOT
BRANCH   1   2
ATOM      2  C   UNL     1       1.033  23.354  24.463  1.00  0.00     0.000 C 
BRANCH   2   3
ATOM      3  C   UNL     1       1.640  22.505  23.337  1.00  0.00     0.006 C 
BRANCH   3   4
ATOM      4  C   UNL     1       1.889  23.323  22.063  1.00  0.00     0.053 C 
BRANCH   4   5
ATOM      5  C   UNL     1       2.703  24.550  22.339  1.00  0.00     0.041 C 
ATOM      6  O   UNL     1       2.275  25.684  21.997  1.00  0.00    -0.550 OA
ATOM      7  O   UNL     1       3.948  24.438  22.943  1.00  0.00    -0.550 OA
ENDBRANCH   4   5
ENDBRANCH   3   4
ENDBRANCH   2   3
ENDBRANCH   1   2
BRANCH   1   8
ATOM      8  C   UNL     1       2.177  23.567  26.709  1.00  0.00     0.000 C 
BRANCH   8   9
ATOM      9  C   UNL     1       3.563  22.936  26.941  1.00  0.00     0.000 C 
BRANCH   9  10
ATOM     10  C   UNL     1       4.730  23.940  27.037  1.00  0.00     0.006 C 
BRANCH  10  11
ATOM     11  C   UNL     1       5.730  23.869  25.872  1.00  0.00     0.053 C 
BRANCH  11  12
ATOM     12  C   UNL     1       6.381  25.192  25.610  1.00  0.00     0.041 C 
ATOM     13  O   UNL     1       6.819  25.468  24.463  1.00  0.00    -0.550 OA
ATOM     14  O   UNL     1       6.534  26.109  26.643  1.00  0.00    -0.550 OA
ENDBRANCH  11  12
ENDBRANCH  10  11
ENDBRANCH   9  10
ENDBRANCH   8   9
ENDBRANCH   1   8
TORSDOF 9
ENDMDL
MODEL 7
REMARK VINA RESULT:    -3.345      4.036      5.948
REMARK INTER + INTRA:          -5.859
REMARK INTER:                  -5.418
REMARK INTRA:                  -0.441
REMARK UNBOUND:                -0.753
REMARK SMILES O=C([O-])CCCCCCCCC(=O)[O-]
REMARK SMILES IDX 7 1 6 2 5 3 4 4 2 5 1 6 3 7 8 8 9 9 10 10 11 11 12 12 13 13
REMARK SMILES IDX 14 14
REMARK H PARENT
REMARK Flexibility Score: inf
ROOT
ATOM      1  C   UNL     1       2.570  24.820  22.702  1.00  0.00     0.000 C 
ENDROOT
BRANCH   1   2
ATOM      2  C   UNL     1       1.824  23.484  22.591  1.00  0.00     0.000 C 
BRANCH   2   3
ATOM      3  C   UNL     1       1.461  22.940  23.981  1.00  0.00     0.006 C 
BRANCH   3   4
ATOM      4  C   UNL     1       1.567  24.015  25.070  1.00  0.00     0.053 C 
BRANCH   4   5
ATOM      5  C   UNL     1       0.297  24.141  25.855  1.00  0.00     0.041 C 
ATOM      6  O   UNL     1      -0.242  23.118  26.356  1.00  0.00    -0.550 OA
ATOM      7  O   UNL     1      -0.310  25.381  26.004  1.00  0.00    -0.550 OA
ENDBRANCH   4   5
ENDBRANCH   3   4
ENDBRANCH   2   3
ENDBRANCH   1   2
BRANCH   1   8
ATOM      8  C   UNL     1       1.916  25.889  21.814  1.00  0.00     0.000 C 
BRANCH   8   9
ATOM      9  C   UNL     1       1.106  26.922  22.619  1.00  0.00     0.000 C 
BRANCH   9  10
ATOM     10  C   UNL     1       0.843  28.256  21.892  1.00  0.00     0.006 C 
BRANCH  10  11
ATOM     11  C   UNL     1      -0.263  28.195  20.826  1.00  0.00     0.053 C 
BRANCH  11  12
ATOM     12  C   UNL     1      -0.699  29.560  20.392  1.00  0.00     0.041 C 
ATOM     13  O   UNL     1      -1.919  29.871  20.412  1.00  0.00    -0.550 OA
ATOM     14  O   UNL     1       0.237  30.477  19.933  1.00  0.00    -0.550 OA
ENDBRANCH  11  12
ENDBRANCH  10  11
ENDBRANCH   9  10
ENDBRANCH   8   9
ENDBRANCH   1   8
TORSDOF 9
ENDMDL
MODEL 8
REMARK VINA RESULT:    -3.344      1.221      1.508
REMARK INTER + INTRA:          -5.857
REMARK INTER:                  -5.195
REMARK INTRA:                  -0.662
REMARK UNBOUND:                -0.753
REMARK SMILES O=C([O-])CCCCCCCCC(=O)[O-]
REMARK SMILES IDX 7 1 6 2 5 3 4 4 2 5 1 6 3 7 8 8 9 9 10 10 11 11 12 12 13 13
REMARK SMILES IDX 14 14
REMARK H PARENT
REMARK Flexibility Score: inf
ROOT
ATOM      1  C   UNL     1       3.098  24.727  22.610  1.00  0.00     0.000 C 
ENDROOT
BRANCH   1   2
ATOM      2  C   UNL     1       4.301  23.948  23.157  1.00  0.00     0.000 C 
BRANCH   2   3
ATOM      3  C   UNL     1       5.040  24.761  24.231  1.00  0.00     0.006 C 
BRANCH   3   4
ATOM      4  C   UNL     1       4.729  24.267  25.649  1.00  0.00     0.053 C 
BRANCH   4   5
ATOM      5  C   UNL     1       5.563  23.078  26.020  1.00  0.00     0.041 C 
ATOM      6  O   UNL     1       5.118  22.220  26.828  1.00  0.00    -0.550 OA
ATOM      7  O   UNL     1       6.843  22.937  25.502  1.00  0.00    -0.550 OA
ENDBRANCH   4   5
ENDBRANCH   3   4
ENDBRANCH   2   3
ENDBRANCH   1   2
BRANCH   1   8
ATOM      8  C   UNL     1       1.843  23.842  22.572  1.00  0.00     0.000 C 
BRANCH   8   9
ATOM      9  C   UNL     1       1.753  22.878  23.770  1.00  0.00     0.000 C 
BRANCH   9  10
ATOM     10  C   UNL     1       0.892  23.378  24.947  1.00  0.00     0.006 C 
BRANCH  10  11
ATOM     11  C   UNL     1       0.964  24.894  25.192  1.00  0.00     0.053 C 
BRANCH  11  12
ATOM     12  C   UNL     1      -0.084  25.357  26.156  1.00  0.00     0.041 C 
ATOM     13  O   UNL     1      -0.077  26.543  26.578  1.00  0.00    -0.550 OA
ATOM     14  O   UNL     1      -1.048  24.469  26.615  1.00  0.00    -0.550 OA
ENDBRANCH  11  12
ENDBRANCH  10  11
ENDBRANCH   9  10
ENDBRANCH   8   9
ENDBRANCH   1   8
TORSDOF 9
ENDMDL
MODEL 9
REMARK VINA RESULT:    -3.159      2.424      5.246
REMARK INTER + INTRA:          -5.574
REMARK INTER:                  -4.740
REMARK INTRA:                  -0.833
REMARK UNBOUND:                -0.753
REMARK SMILES O=C([O-])CCCCCCCCC(=O)[O-]
REMARK SMILES IDX 7 1 6 2 5 3 4 4 2 5 1 6 3 7 8 8 9 9 10 10 11 11 12 12 13 13
REMARK SMILES IDX 14 14
REMARK H PARENT
REMARK Flexibility Score: inf
ROOT
ATOM      1  C   UNL     1       3.784  23.435  26.931  1.00  0.00     0.000 C 
ENDROOT
BRANCH   1   2
ATOM      2  C   UNL     1       2.764  22.295  26.813  1.00  0.00     0.000 C 
BRANCH   2   3
ATOM      3  C   UNL     1       1.327  22.834  26.872  1.00  0.00     0.006 C 
BRANCH   3   4
ATOM      4  C   UNL     1       1.277  24.364  26.767  1.00  0.00     0.053 C 
BRANCH   4   5
ATOM      5  C   UNL     1      -0.131  24.875  26.730  1.00  0.00     0.041 C 
ATOM      6  O   UNL     1      -1.098  24.068  26.756  1.00  0.00    -0.550 OA
ATOM      7  O   UNL     1      -0.374  26.238  26.633  1.00  0.00    -0.550 OA
ENDBRANCH   4   5
ENDBRANCH   3   4
ENDBRANCH   2   3
ENDBRANCH   1   2
BRANCH   1   8
ATOM      8  C   UNL     1       4.909  23.273  25.899  1.00  0.00     0.000 C 
BRANCH   8   9
ATOM      9  C   UNL     1       4.899  24.375  24.823  1.00  0.00     0.000 C 
BRANCH   9  10
ATOM     10  C   UNL     1       4.180  24.000  23.512  1.00  0.00     0.006 C 
BRANCH  10  11
ATOM     11  C   UNL     1       2.682  24.346  23.484  1.00  0.00     0.053 C 
BRANCH  11  12
ATOM     12  C   UNL     1       1.866  23.253  22.866  1.00  0.00     0.041 C 
ATOM     13  O   UNL     1       1.127  22.530  23.584  1.00  0.00    -0.550 OA
ATOM     14  O   UNL     1       1.949  23.010  21.500  1.00  0.00    -0.550 OA
ENDBRANCH  11  12
ENDBRANCH  10  11
ENDBRANCH   9  10
ENDBRANCH   8   9
ENDBRANCH   1   8
TORSDOF 9
ENDMDL
