MODEL 1
REMARK VINA RESULT:    -1.997      0.000      0.000
REMARK INTER + INTRA:          -2.397
REMARK INTER:                  -2.347
REMARK INTRA:                  -0.050
REMARK UNBOUND:                -0.050
REMARK SMILES O=C([O-])CCC(=O)[O-]
REMARK SMILES IDX 4 1 2 2 1 3 3 4 5 5 6 6 7 7 8 8
REMARK H PARENT
REMARK Flexibility Score: inf
ROOT
ATOM      1  C   UNL     1     178.496 207.472 200.112  1.00  0.00     0.059 C 
ENDROOT
BRANCH   1   2
ATOM      2  C   UNL     1     178.907 207.312 198.681  1.00  0.00     0.042 C 
ATOM      3  O   UNL     1     180.112 207.093 198.387  1.00  0.00    -0.550 OA
ATOM      4  O   UNL     1     177.965 207.444 197.669  1.00  0.00    -0.550 OA
ENDBRANCH   1   2
BRANCH   1   5
ATOM      5  C   UNL     1     177.114 208.124 200.233  1.00  0.00     0.059 C 
BRANCH   5   6
ATOM      6  C   UNL     1     176.298 207.493 201.320  1.00  0.00     0.042 C 
ATOM      7  O   UNL     1     175.068 207.742 201.414  1.00  0.00    -0.550 OA
ATOM      8  O   UNL     1     176.888 206.598 202.202  1.00  0.00    -0.550 OA
ENDBRANCH   5   6
ENDBRANCH   1   5
TORSDOF 3
ENDMDL
MODEL 2
REMARK VINA RESULT:    -1.984      1.356      1.890
REMARK INTER + INTRA:          -2.381
REMARK INTER:                  -2.348
REMARK INTRA:                  -0.033
REMARK UNBOUND:                -0.050
REMARK SMILES O=C([O-])CCC(=O)[O-]
REMARK SMILES IDX 4 1 2 2 1 3 3 4 5 5 6 6 7 7 8 8
REMARK H PARENT
REMARK Flexibility Score: inf
ROOT
ATOM      1  C   UNL     1     178.528 207.090 198.624  1.00  0.00     0.059 C 
ENDROOT
BRANCH   1   2
ATOM      2  C   UNL     1     179.966 207.061 198.205  1.00  0.00     0.042 C 
ATOM      3  O   UNL     1     180.878 206.983 199.070  1.00  0.00    -0.550 OA
ATOM      4  O   UNL     1     180.300 207.161 196.861  1.00  0.00    -0.550 OA
ENDBRANCH   1   2
BRANCH   1   5
ATOM      5  C   UNL     1     178.339 207.852 199.940  1.00  0.00     0.059 C 
BRANCH   5   6
ATOM      6  C   UNL     1     176.888 208.028 200.273  1.00  0.00     0.042 C 
ATOM      7  O   UNL     1     176.522 208.125 201.473  1.00  0.00    -0.550 OA
ATOM      8  O   UNL     1     175.948 208.125 199.256  1.00  0.00    -0.550 OA
ENDBRANCH   5   6
ENDBRANCH   1   5
TORSDOF 3
ENDMDL
MODEL 3
REMARK VINA RESULT:    -1.938      1.359      1.526
REMARK INTER + INTRA:          -2.329
REMARK INTER:                  -2.212
REMARK INTRA:                  -0.116
REMARK UNBOUND:                -0.050
REMARK SMILES O=C([O-])CCC(=O)[O-]
REMARK SMILES IDX 4 1 2 2 1 3 3 4 5 5 6 6 7 7 8 8
REMARK H PARENT
REMARK Flexibility Score: inf
ROOT
ATOM      1  C   UNL     1     177.796 206.986 200.668  1.00  0.00     0.059 C 
ENDROOT
BRANCH   1   2
ATOM      2  C   UNL     1     178.815 207.303 199.617  1.00  0.00     0.042 C 
ATOM      3  O   UNL     1     180.028 207.437 199.929  1.00  0.00    -0.550 OA
ATOM      4  O   UNL     1     178.420 207.488 198.299  1.00  0.00    -0.550 OA
ENDBRANCH   1   2
BRANCH   1   5
ATOM      5  C   UNL     1     176.770 208.115 200.816  1.00  0.00     0.059 C 
BRANCH   5   6
ATOM      6  C   UNL     1     175.379 207.639 200.527  1.00  0.00     0.042 C 
ATOM      7  O   UNL     1     174.433 207.938 201.302  1.00  0.00    -0.550 OA
ATOM      8  O   UNL     1     175.121 206.900 199.380  1.00  0.00    -0.550 OA
ENDBRANCH   5   6
ENDBRANCH   1   5
TORSDOF 3
ENDMDL
MODEL 4
REMARK VINA RESULT:    -1.925      1.443      3.871
REMARK INTER + INTRA:          -2.313
REMARK INTER:                  -2.244
REMARK INTRA:                  -0.069
REMARK UNBOUND:                -0.050
REMARK SMILES O=C([O-])CCC(=O)[O-]
REMARK SMILES IDX 4 1 2 2 1 3 3 4 5 5 6 6 7 7 8 8
REMARK H PARENT
REMARK Flexibility Score: inf
ROOT
ATOM      1  C   UNL     1     176.583 207.763 201.138  1.00  0.00     0.059 C 
ENDROOT
BRANCH   1   2
ATOM      2  C   UNL     1     175.208 207.875 200.555  1.00  0.00     0.042 C 
ATOM      3  O   UNL     1     174.219 208.107 201.301  1.00  0.00    -0.550 OA
ATOM      4  O   UNL     1     175.012 207.684 199.194  1.00  0.00    -0.550 OA
ENDBRANCH   1   2
BRANCH   1   5
ATOM      5  C   UNL     1     177.662 208.120 200.110  1.00  0.00     0.059 C 
BRANCH   5   6
ATOM      6  C   UNL     1     178.774 207.115 200.104  1.00  0.00     0.042 C 
ATOM      7  O   UNL     1     178.673 206.056 200.777  1.00  0.00    -0.550 OA
ATOM      8  O   UNL     1     179.902 207.330 199.325  1.00  0.00    -0.550 OA
ENDBRANCH   5   6
ENDBRANCH   1   5
TORSDOF 3
ENDMDL
MODEL 5
REMARK VINA RESULT:    -1.910     23.729     24.561
REMARK INTER + INTRA:          -2.295
REMARK INTER:                  -2.172
REMARK INTRA:                  -0.124
REMARK UNBOUND:                -0.050
REMARK SMILES O=C([O-])CCC(=O)[O-]
REMARK SMILES IDX 4 1 2 2 1 3 3 4 5 5 6 6 7 7 8 8
REMARK H PARENT
REMARK Flexibility Score: inf
ROOT
ATOM      1  C   UNL     1     162.356 196.623 184.350  1.00  0.00     0.059 C 
ENDROOT
BRANCH   1   2
ATOM      2  C   UNL     1     162.336 195.126 184.349  1.00  0.00     0.042 C 
ATOM      3  O   UNL     1     163.375 194.476 184.640  1.00  0.00    -0.550 OA
ATOM      4  O   UNL     1     161.180 194.447 183.986  1.00  0.00    -0.550 OA
ENDBRANCH   1   2
BRANCH   1   5
ATOM      5  C   UNL     1     162.891 197.181 183.027  1.00  0.00     0.059 C 
BRANCH   5   6
ATOM      6  C   UNL     1     164.303 197.665 183.162  1.00  0.00     0.042 C 
ATOM      7  O   UNL     1     165.261 196.851 183.090  1.00  0.00    -0.550 OA
ATOM      8  O   UNL     1     164.563 199.019 183.325  1.00  0.00    -0.550 OA
ENDBRANCH   5   6
ENDBRANCH   1   5
TORSDOF 3
ENDMDL
MODEL 6
REMARK VINA RESULT:    -1.904      0.657      3.823
REMARK INTER + INTRA:          -2.288
REMARK INTER:                  -2.201
REMARK INTRA:                  -0.087
REMARK UNBOUND:                -0.050
REMARK SMILES O=C([O-])CCC(=O)[O-]
REMARK SMILES IDX 4 1 2 2 1 3 3 4 5 5 6 6 7 7 8 8
REMARK H PARENT
REMARK Flexibility Score: inf
ROOT
ATOM      1  C   UNL     1     177.004 208.118 200.518  1.00  0.00     0.059 C 
ENDROOT
BRANCH   1   2
ATOM      2  C   UNL     1     176.417 206.981 201.295  1.00  0.00     0.042 C 
ATOM      3  O   UNL     1     177.149 206.272 202.035  1.00  0.00    -0.550 OA
ATOM      4  O   UNL     1     175.067 206.678 201.172  1.00  0.00    -0.550 OA
ENDBRANCH   1   2
BRANCH   1   5
ATOM      5  C   UNL     1     178.394 207.772 199.974  1.00  0.00     0.059 C 
BRANCH   5   6
ATOM      6  C   UNL     1     178.341 207.390 198.526  1.00  0.00     0.042 C 
ATOM      7  O   UNL     1     177.249 207.423 197.902  1.00  0.00    -0.550 OA
ATOM      8  O   UNL     1     179.505 207.037 197.856  1.00  0.00    -0.550 OA
ENDBRANCH   5   6
ENDBRANCH   1   5
TORSDOF 3
ENDMDL
MODEL 7
REMARK VINA RESULT:    -1.891     23.616     24.290
REMARK INTER + INTRA:          -2.273
REMARK INTER:                  -2.150
REMARK INTRA:                  -0.123
REMARK UNBOUND:                -0.050
REMARK SMILES O=C([O-])CCC(=O)[O-]
REMARK SMILES IDX 4 1 2 2 1 3 3 4 5 5 6 6 7 7 8 8
REMARK H PARENT
REMARK Flexibility Score: inf
ROOT
ATOM      1  C   UNL     1     162.979 197.242 183.091  1.00  0.00     0.059 C 
ENDROOT
BRANCH   1   2
ATOM      2  C   UNL     1     164.360 197.756 183.360  1.00  0.00     0.042 C 
ATOM      3  O   UNL     1     165.358 197.002 183.213  1.00  0.00    -0.550 OA
ATOM      4  O   UNL     1     164.542 199.057 183.811  1.00  0.00    -0.550 OA
ENDBRANCH   1   2
BRANCH   1   5
ATOM      5  C   UNL     1     162.347 196.640 184.350  1.00  0.00     0.059 C 
BRANCH   5   6
ATOM      6  C   UNL     1     162.374 195.142 184.319  1.00  0.00     0.042 C 
ATOM      7  O   UNL     1     163.419 194.520 184.646  1.00  0.00    -0.550 OA
ATOM      8  O   UNL     1     161.233 194.432 183.968  1.00  0.00    -0.550 OA
ENDBRANCH   5   6
ENDBRANCH   1   5
TORSDOF 3
ENDMDL
MODEL 8
REMARK VINA RESULT:    -1.873      1.366      3.985
REMARK INTER + INTRA:          -2.251
REMARK INTER:                  -2.173
REMARK INTRA:                  -0.079
REMARK UNBOUND:                -0.050
REMARK SMILES O=C([O-])CCC(=O)[O-]
REMARK SMILES IDX 4 1 2 2 1 3 3 4 5 5 6 6 7 7 8 8
REMARK H PARENT
REMARK Flexibility Score: inf
ROOT
ATOM      1  C   UNL     1     177.828 208.067 200.136  1.00  0.00     0.059 C 
ENDROOT
BRANCH   1   2
ATOM      2  C   UNL     1     176.575 207.358 200.549  1.00  0.00     0.042 C 
ATOM      3  O   UNL     1     176.477 206.110 200.415  1.00  0.00    -0.550 OA
ATOM      4  O   UNL     1     175.498 208.082 201.046  1.00  0.00    -0.550 OA
ENDBRANCH   1   2
BRANCH   1   5
ATOM      5  C   UNL     1     178.496 207.380 198.940  1.00  0.00     0.059 C 
BRANCH   5   6
ATOM      6  C   UNL     1     179.957 207.151 199.180  1.00  0.00     0.042 C 
ATOM      7  O   UNL     1     180.751 207.058 198.207  1.00  0.00    -0.550 OA
ATOM      8  O   UNL     1     180.448 207.081 200.477  1.00  0.00    -0.550 OA
ENDBRANCH   5   6
ENDBRANCH   1   5
TORSDOF 3
ENDMDL
MODEL 9
REMARK VINA RESULT:    -0.088      1.752      4.252
REMARK INTER + INTRA:          -0.153
REMARK INTER:                  -0.034
REMARK INTRA:                  -0.119
REMARK UNBOUND:                -0.050
REMARK SMILES O=C([O-])CCC(=O)[O-]
REMARK SMILES IDX 4 1 2 2 1 3 3 4 5 5 6 6 7 7 8 8
REMARK H PARENT
REMARK Flexibility Score: inf
ROOT
ATOM      1  C   UNL     1     175.860 206.897 201.518  1.00  0.00     0.059 C 
ENDROOT
BRANCH   1   2
ATOM      2  C   UNL     1     174.390 207.004 201.253  1.00  0.00     0.042 C 
ATOM      3  O   UNL     1     173.949 207.883 200.465  1.00  0.00    -0.550 OA
ATOM      4  O   UNL     1     173.503 206.160 201.908  1.00  0.00    -0.550 OA
ENDBRANCH   1   2
BRANCH   1   5
ATOM      5  C   UNL     1     176.618 208.125 201.000  1.00  0.00     0.059 C 
BRANCH   5   6
ATOM      6  C   UNL     1     177.522 207.775 199.858  1.00  0.00     0.042 C 
ATOM      7  O   UNL     1     177.038 207.517 198.724  1.00  0.00    -0.550 OA
ATOM      8  O   UNL     1     178.899 207.775 200.034  1.00  0.00    -0.550 OA
ENDBRANCH   5   6
ENDBRANCH   1   5
TORSDOF 3
ENDMDL
