MODEL 1
REMARK VINA RESULT:    -2.395      0.000      0.000
REMARK INTER + INTRA:          -5.169
REMARK INTER:                  -3.795
REMARK INTRA:                  -1.373
REMARK UNBOUND:                -1.373
REMARK SMILES CCCCCCCCCCCC=O
REMARK SMILES IDX 7 1 6 2 5 3 4 4 3 5 2 6 1 7 8 8 9 9 10 10 11 11 12 12 13 13
REMARK H PARENT
REMARK Flexibility Score: inf
ROOT
ATOM      1  C   UNL     1     147.370 158.318 139.632  1.00  0.00     0.000 C 
ENDROOT
BRANCH   1   2
ATOM      2  C   UNL     1     147.953 158.858 138.316  1.00  0.00     0.000 C 
BRANCH   2   3
ATOM      3  C   UNL     1     149.488 158.941 138.335  1.00  0.00    -0.000 C 
BRANCH   3   4
ATOM      4  C   UNL     1     150.127 157.864 139.231  1.00  0.00    -0.000 C 
BRANCH   4   5
ATOM      5  C   UNL     1     150.483 156.586 138.453  1.00  0.00    -0.000 C 
BRANCH   5   6
ATOM      6  C   UNL     1     149.917 155.317 139.107  1.00  0.00    -0.003 C 
ATOM      7  C   UNL     1     149.554 155.568 140.568  1.00  0.00     0.004 C 
ENDBRANCH   5   6
ENDBRANCH   4   5
ENDBRANCH   3   4
ENDBRANCH   2   3
ENDBRANCH   1   2
BRANCH   1   8
ATOM      8  C   UNL     1     146.430 157.132 139.368  1.00  0.00     0.000 C 
BRANCH   8   9
ATOM      9  C   UNL     1     146.517 156.617 137.922  1.00  0.00     0.000 C 
BRANCH   9  10
ATOM     10  C   UNL     1     146.465 155.084 137.834  1.00  0.00     0.008 C 
BRANCH  10  11
ATOM     11  C   UNL     1     145.281 154.531 138.635  1.00  0.00     0.072 C 
BRANCH  11  12
ATOM     12  C   UNL     1     144.912 153.156 138.164  1.00  0.00     0.224 C 
ATOM     13  O   UNL     1     144.482 152.326 138.950  1.00  0.00    -0.303 OA
ENDBRANCH  11  12
ENDBRANCH  10  11
ENDBRANCH   9  10
ENDBRANCH   8   9
ENDBRANCH   1   8
TORSDOF 10
ENDMDL
MODEL 2
REMARK VINA RESULT:    -2.388      1.002      1.536
REMARK INTER + INTRA:          -5.157
REMARK INTER:                  -3.566
REMARK INTRA:                  -1.591
REMARK UNBOUND:                -1.373
REMARK SMILES CCCCCCCCCCCC=O
REMARK SMILES IDX 7 1 6 2 5 3 4 4 3 5 2 6 1 7 8 8 9 9 10 10 11 11 12 12 13 13
REMARK H PARENT
REMARK Flexibility Score: inf
ROOT
ATOM      1  C   UNL     1     147.713 158.738 137.371  1.00  0.00     0.000 C 
ENDROOT
BRANCH   1   2
ATOM      2  C   UNL     1     149.085 159.421 137.249  1.00  0.00     0.000 C 
BRANCH   2   3
ATOM      3  C   UNL     1     150.234 158.548 137.779  1.00  0.00    -0.000 C 
BRANCH   3   4
ATOM      4  C   UNL     1     150.273 157.158 137.119  1.00  0.00    -0.000 C 
BRANCH   4   5
ATOM      5  C   UNL     1     150.247 156.016 138.149  1.00  0.00    -0.000 C 
BRANCH   5   6
ATOM      6  C   UNL     1     150.316 156.522 139.597  1.00  0.00    -0.003 C 
ATOM      7  C   UNL     1     149.525 155.614 140.534  1.00  0.00     0.004 C 
ENDBRANCH   5   6
ENDBRANCH   4   5
ENDBRANCH   3   4
ENDBRANCH   2   3
ENDBRANCH   1   2
BRANCH   1   8
ATOM      8  C   UNL     1     147.304 158.593 138.845  1.00  0.00     0.000 C 
BRANCH   8   9
ATOM      9  C   UNL     1     146.578 157.268 139.130  1.00  0.00     0.000 C 
BRANCH   9  10
ATOM     10  C   UNL     1     146.417 156.398 137.875  1.00  0.00     0.008 C 
BRANCH  10  11
ATOM     11  C   UNL     1     146.478 154.909 138.230  1.00  0.00     0.072 C 
BRANCH  11  12
ATOM     12  C   UNL     1     145.104 154.310 138.273  1.00  0.00     0.224 C 
ATOM     13  O   UNL     1     144.435 154.366 139.293  1.00  0.00    -0.303 OA
ENDBRANCH  11  12
ENDBRANCH  10  11
ENDBRANCH   9  10
ENDBRANCH   8   9
ENDBRANCH   1   8
TORSDOF 10
ENDMDL
MODEL 3
REMARK VINA RESULT:    -2.387      6.971      9.441
REMARK INTER + INTRA:          -5.156
REMARK INTER:                  -3.876
REMARK INTRA:                  -1.280
REMARK UNBOUND:                -1.373
REMARK SMILES CCCCCCCCCCCC=O
REMARK SMILES IDX 7 1 6 2 5 3 4 4 3 5 2 6 1 7 8 8 9 9 10 10 11 11 12 12 13 13
REMARK H PARENT
REMARK Flexibility Score: inf
ROOT
ATOM      1  C   UNL     1     141.701 148.033 139.628  1.00  0.00     0.000 C 
ENDROOT
BRANCH   1   2
ATOM      2  C   UNL     1     141.961 148.906 138.391  1.00  0.00     0.000 C 
BRANCH   2   3
ATOM      3  C   UNL     1     142.076 150.401 138.732  1.00  0.00    -0.000 C 
BRANCH   3   4
ATOM      4  C   UNL     1     143.359 151.038 138.170  1.00  0.00    -0.000 C 
BRANCH   4   5
ATOM      5  C   UNL     1     144.447 151.219 139.242  1.00  0.00    -0.000 C 
BRANCH   5   6
ATOM      6  C   UNL     1     145.496 150.098 139.217  1.00  0.00    -0.003 C 
ATOM      7  C   UNL     1     145.678 149.486 140.604  1.00  0.00     0.004 C 
ENDBRANCH   5   6
ENDBRANCH   4   5
ENDBRANCH   3   4
ENDBRANCH   2   3
ENDBRANCH   1   2
BRANCH   1   8
ATOM      8  C   UNL     1     142.904 147.122 139.918  1.00  0.00     0.000 C 
BRANCH   8   9
ATOM      9  C   UNL     1     143.769 146.869 138.673  1.00  0.00     0.000 C 
BRANCH   9  10
ATOM     10  C   UNL     1     145.063 146.107 138.995  1.00  0.00     0.008 C 
BRANCH  10  11
ATOM     11  C   UNL     1     146.156 146.428 137.970  1.00  0.00     0.072 C 
BRANCH  11  12
ATOM     12  C   UNL     1     147.263 145.420 138.033  1.00  0.00     0.224 C 
ATOM     13  O   UNL     1     147.333 144.633 138.964  1.00  0.00    -0.303 OA
ENDBRANCH  11  12
ENDBRANCH  10  11
ENDBRANCH   9  10
ENDBRANCH   8   9
ENDBRANCH   1   8
TORSDOF 10
ENDMDL
MODEL 4
REMARK VINA RESULT:    -2.386      6.940      9.000
REMARK INTER + INTRA:          -5.155
REMARK INTER:                  -3.545
REMARK INTRA:                  -1.610
REMARK UNBOUND:                -1.373
REMARK SMILES CCCCCCCCCCCC=O
REMARK SMILES IDX 7 1 6 2 5 3 4 4 3 5 2 6 1 7 8 8 9 9 10 10 11 11 12 12 13 13
REMARK H PARENT
REMARK Flexibility Score: inf
ROOT
ATOM      1  C   UNL     1     145.307 146.400 137.634  1.00  0.00     0.000 C 
ENDROOT
BRANCH   1   2
ATOM      2  C   UNL     1     146.670 147.091 137.465  1.00  0.00     0.000 C 
BRANCH   2   3
ATOM      3  C   UNL     1     146.545 148.532 136.943  1.00  0.00    -0.000 C 
BRANCH   3   4
ATOM      4  C   UNL     1     146.608 149.577 138.071  1.00  0.00    -0.000 C 
BRANCH   4   5
ATOM      5  C   UNL     1     145.301 150.375 138.209  1.00  0.00    -0.000 C 
BRANCH   5   6
ATOM      6  C   UNL     1     144.871 150.559 139.672  1.00  0.00    -0.003 C 
ATOM      7  C   UNL     1     145.594 149.573 140.585  1.00  0.00     0.004 C 
ENDBRANCH   5   6
ENDBRANCH   4   5
ENDBRANCH   3   4
ENDBRANCH   2   3
ENDBRANCH   1   2
BRANCH   1   8
ATOM      8  C   UNL     1     144.878 146.389 139.109  1.00  0.00     0.000 C 
BRANCH   8   9
ATOM      9  C   UNL     1     143.426 146.852 139.307  1.00  0.00     0.000 C 
BRANCH   9  10
ATOM     10  C   UNL     1     142.763 147.300 137.996  1.00  0.00     0.008 C 
BRANCH  10  11
ATOM     11  C   UNL     1     142.042 148.640 138.178  1.00  0.00     0.072 C 
BRANCH  11  12
ATOM     12  C   UNL     1     141.454 148.750 139.553  1.00  0.00     0.224 C 
ATOM     13  O   UNL     1     141.354 149.837 140.100  1.00  0.00    -0.303 OA
ENDBRANCH  11  12
ENDBRANCH  10  11
ENDBRANCH   9  10
ENDBRANCH   8   9
ENDBRANCH   1   8
TORSDOF 10
ENDMDL
MODEL 5
REMARK VINA RESULT:    -2.335      8.408     10.920
REMARK INTER + INTRA:          -5.073
REMARK INTER:                  -3.582
REMARK INTRA:                  -1.491
REMARK UNBOUND:                -1.373
REMARK SMILES CCCCCCCCCCCC=O
REMARK SMILES IDX 7 1 6 2 5 3 4 4 3 5 2 6 1 7 8 8 9 9 10 10 11 11 12 12 13 13
REMARK H PARENT
REMARK Flexibility Score: inf
ROOT
ATOM      1  C   UNL     1     159.688 153.696 138.726  1.00  0.00     0.000 C 
ENDROOT
BRANCH   1   2
ATOM      2  C   UNL     1     159.645 152.164 138.605  1.00  0.00     0.000 C 
BRANCH   2   3
ATOM      3  C   UNL     1     158.847 151.686 137.382  1.00  0.00    -0.000 C 
BRANCH   3   4
ATOM      4  C   UNL     1     157.440 151.184 137.753  1.00  0.00    -0.000 C 
BRANCH   4   5
ATOM      5  C   UNL     1     157.414 150.448 139.103  1.00  0.00    -0.000 C 
BRANCH   5   6
ATOM      6  C   UNL     1     156.357 151.010 140.065  1.00  0.00    -0.003 C 
ATOM      7  C   UNL     1     155.174 151.596 139.298  1.00  0.00     0.004 C 
ENDBRANCH   5   6
ENDBRANCH   4   5
ENDBRANCH   3   4
ENDBRANCH   2   3
ENDBRANCH   1   2
BRANCH   1   8
ATOM      8  C   UNL     1     159.116 154.155 140.075  1.00  0.00     0.000 C 
BRANCH   8   9
ATOM      9  C   UNL     1     157.596 154.383 140.027  1.00  0.00     0.000 C 
BRANCH   9  10
ATOM     10  C   UNL     1     157.102 154.792 138.632  1.00  0.00     0.008 C 
BRANCH  10  11
ATOM     11  C   UNL     1     155.654 155.292 138.689  1.00  0.00     0.072 C 
BRANCH  11  12
ATOM     12  C   UNL     1     154.899 154.891 137.458  1.00  0.00     0.224 C 
ATOM     13  O   UNL     1     155.443 154.237 136.582  1.00  0.00    -0.303 OA
ENDBRANCH  11  12
ENDBRANCH  10  11
ENDBRANCH   9  10
ENDBRANCH   8   9
ENDBRANCH   1   8
TORSDOF 10
ENDMDL
MODEL 6
REMARK VINA RESULT:    -2.307     11.672     13.959
REMARK INTER + INTRA:          -5.028
REMARK INTER:                  -3.495
REMARK INTRA:                  -1.534
REMARK UNBOUND:                -1.373
REMARK SMILES CCCCCCCCCCCC=O
REMARK SMILES IDX 7 1 6 2 5 3 4 4 3 5 2 6 1 7 8 8 9 9 10 10 11 11 12 12 13 13
REMARK H PARENT
REMARK Flexibility Score: inf
ROOT
ATOM      1  C   UNL     1     153.889 142.662 138.509  1.00  0.00     0.000 C 
ENDROOT
BRANCH   1   2
ATOM      2  C   UNL     1     152.952 141.634 139.163  1.00  0.00     0.000 C 
BRANCH   2   3
ATOM      3  C   UNL     1     151.499 142.127 139.255  1.00  0.00    -0.000 C 
BRANCH   3   4
ATOM      4  C   UNL     1     151.115 143.055 138.089  1.00  0.00    -0.000 C 
BRANCH   4   5
ATOM      5  C   UNL     1     150.737 144.469 138.561  1.00  0.00    -0.000 C 
BRANCH   5   6
ATOM      6  C   UNL     1     150.771 144.613 140.089  1.00  0.00    -0.003 C 
ATOM      7  C   UNL     1     151.729 145.723 140.515  1.00  0.00     0.004 C 
ENDBRANCH   5   6
ENDBRANCH   4   5
ENDBRANCH   3   4
ENDBRANCH   2   3
ENDBRANCH   1   2
BRANCH   1   8
ATOM      8  C   UNL     1     154.535 143.567 139.569  1.00  0.00     0.000 C 
BRANCH   8   9
ATOM      9  C   UNL     1     154.957 144.933 139.004  1.00  0.00     0.000 C 
BRANCH   9  10
ATOM     10  C   UNL     1     154.310 145.238 137.645  1.00  0.00     0.008 C 
BRANCH  10  11
ATOM     11  C   UNL     1     153.893 146.710 137.557  1.00  0.00     0.072 C 
BRANCH  11  12
ATOM     12  C   UNL     1     155.073 147.586 137.260  1.00  0.00     0.224 C 
ATOM     13  O   UNL     1     155.773 147.372 136.283  1.00  0.00    -0.303 OA
ENDBRANCH  11  12
ENDBRANCH  10  11
ENDBRANCH   9  10
ENDBRANCH   8   9
ENDBRANCH   1   8
TORSDOF 10
ENDMDL
MODEL 7
REMARK VINA RESULT:    -2.303      9.723     11.703
REMARK INTER + INTRA:          -5.023
REMARK INTER:                  -3.292
REMARK INTRA:                  -1.731
REMARK UNBOUND:                -1.373
REMARK SMILES CCCCCCCCCCCC=O
REMARK SMILES IDX 7 1 6 2 5 3 4 4 3 5 2 6 1 7 8 8 9 9 10 10 11 11 12 12 13 13
REMARK H PARENT
REMARK Flexibility Score: inf
ROOT
ATOM      1  C   UNL     1     156.684 150.208 138.944  1.00  0.00     0.000 C 
ENDROOT
BRANCH   1   2
ATOM      2  C   UNL     1     156.304 151.183 140.070  1.00  0.00     0.000 C 
BRANCH   2   3
ATOM      3  C   UNL     1     155.977 152.593 139.552  1.00  0.00    -0.000 C 
BRANCH   3   4
ATOM      4  C   UNL     1     156.930 153.663 140.112  1.00  0.00    -0.000 C 
BRANCH   4   5
ATOM      5  C   UNL     1     157.266 154.752 139.079  1.00  0.00    -0.000 C 
BRANCH   5   6
ATOM      6  C   UNL     1     156.381 154.674 137.827  1.00  0.00    -0.003 C 
ATOM      7  C   UNL     1     157.228 154.638 136.557  1.00  0.00     0.004 C 
ENDBRANCH   5   6
ENDBRANCH   4   5
ENDBRANCH   3   4
ENDBRANCH   2   3
ENDBRANCH   1   2
BRANCH   1   8
ATOM      8  C   UNL     1     156.542 150.878 137.569  1.00  0.00     0.000 C 
BRANCH   8   9
ATOM      9  C   UNL     1     157.837 150.817 136.743  1.00  0.00     0.000 C 
BRANCH   9  10
ATOM     10  C   UNL     1     159.095 150.727 137.620  1.00  0.00     0.008 C 
BRANCH  10  11
ATOM     11  C   UNL     1     159.680 152.120 137.879  1.00  0.00     0.072 C 
BRANCH  11  12
ATOM     12  C   UNL     1     160.238 152.217 139.268  1.00  0.00     0.224 C 
ATOM     13  O   UNL     1     159.923 151.402 140.121  1.00  0.00    -0.303 OA
ENDBRANCH  11  12
ENDBRANCH  10  11
ENDBRANCH   9  10
ENDBRANCH   8   9
ENDBRANCH   1   8
TORSDOF 10
ENDMDL
MODEL 8
REMARK VINA RESULT:    -2.301      3.368      5.362
REMARK INTER + INTRA:          -5.020
REMARK INTER:                  -3.572
REMARK INTRA:                  -1.448
REMARK UNBOUND:                -1.373
REMARK SMILES CCCCCCCCCCCC=O
REMARK SMILES IDX 7 1 6 2 5 3 4 4 3 5 2 6 1 7 8 8 9 9 10 10 11 11 12 12 13 13
REMARK H PARENT
REMARK Flexibility Score: inf
ROOT
ATOM      1  C   UNL     1     147.870 155.912 138.764  1.00  0.00     0.000 C 
ENDROOT
BRANCH   1   2
ATOM      2  C   UNL     1     146.863 157.074 138.776  1.00  0.00     0.000 C 
BRANCH   2   3
ATOM      3  C   UNL     1     146.843 157.831 140.113  1.00  0.00    -0.000 C 
BRANCH   3   4
ATOM      4  C   UNL     1     147.208 159.318 139.956  1.00  0.00    -0.000 C 
BRANCH   4   5
ATOM      5  C   UNL     1     147.690 159.660 138.536  1.00  0.00    -0.000 C 
BRANCH   5   6
ATOM      6  C   UNL     1     149.196 159.957 138.478  1.00  0.00    -0.003 C 
ATOM      7  C   UNL     1     149.779 160.117 139.879  1.00  0.00     0.004 C 
ENDBRANCH   5   6
ENDBRANCH   4   5
ENDBRANCH   3   4
ENDBRANCH   2   3
ENDBRANCH   1   2
BRANCH   1   8
ATOM      8  C   UNL     1     148.779 155.964 140.001  1.00  0.00     0.000 C 
BRANCH   8   9
ATOM      9  C   UNL     1     150.194 156.470 139.675  1.00  0.00     0.000 C 
BRANCH   9  10
ATOM     10  C   UNL     1     150.513 156.412 138.174  1.00  0.00     0.008 C 
BRANCH  10  11
ATOM     11  C   UNL     1     151.791 157.196 137.857  1.00  0.00     0.072 C 
BRANCH  11  12
ATOM     12  C   UNL     1     152.930 156.739 138.719  1.00  0.00     0.224 C 
ATOM     13  O   UNL     1     154.029 156.525 138.232  1.00  0.00    -0.303 OA
ENDBRANCH  11  12
ENDBRANCH  10  11
ENDBRANCH   9  10
ENDBRANCH   8   9
ENDBRANCH   1   8
TORSDOF 10
ENDMDL
MODEL 9
REMARK VINA RESULT:    -2.277      3.089      4.659
REMARK INTER + INTRA:          -4.981
REMARK INTER:                  -3.414
REMARK INTRA:                  -1.568
REMARK UNBOUND:                -1.373
REMARK SMILES CCCCCCCCCCCC=O
REMARK SMILES IDX 7 1 6 2 5 3 4 4 3 5 2 6 1 7 8 8 9 9 10 10 11 11 12 12 13 13
REMARK H PARENT
REMARK Flexibility Score: inf
ROOT
ATOM      1  C   UNL     1     146.423 156.801 137.560  1.00  0.00     0.000 C 
ENDROOT
BRANCH   1   2
ATOM      2  C   UNL     1     146.795 155.477 136.873  1.00  0.00     0.000 C 
BRANCH   2   3
ATOM      3  C   UNL     1     148.310 155.217 136.864  1.00  0.00    -0.000 C 
BRANCH   3   4
ATOM      4  C   UNL     1     149.126 156.485 136.555  1.00  0.00    -0.000 C 
BRANCH   4   5
ATOM      5  C   UNL     1     150.211 156.760 137.610  1.00  0.00    -0.000 C 
BRANCH   5   6
ATOM      6  C   UNL     1     150.097 155.836 138.832  1.00  0.00    -0.003 C 
ATOM      7  C   UNL     1     150.513 156.562 140.109  1.00  0.00     0.004 C 
ENDBRANCH   5   6
ENDBRANCH   4   5
ENDBRANCH   3   4
ENDBRANCH   2   3
ENDBRANCH   1   2
BRANCH   1   8
ATOM      8  C   UNL     1     146.379 156.633 139.086  1.00  0.00     0.000 C 
BRANCH   8   9
ATOM      9  C   UNL     1     147.000 157.825 139.831  1.00  0.00     0.000 C 
BRANCH   9  10
ATOM     10  C   UNL     1     147.486 158.930 138.882  1.00  0.00     0.008 C 
BRANCH  10  11
ATOM     11  C   UNL     1     148.004 160.139 139.669  1.00  0.00     0.072 C 
BRANCH  11  12
ATOM     12  C   UNL     1     149.480 160.030 139.909  1.00  0.00     0.224 C 
ATOM     13  O   UNL     1     150.271 160.193 138.994  1.00  0.00    -0.303 OA
ENDBRANCH  11  12
ENDBRANCH  10  11
ENDBRANCH   9  10
ENDBRANCH   8   9
ENDBRANCH   1   8
TORSDOF 10
ENDMDL
