MODEL 1
REMARK VINA RESULT:    -1.806      0.000      0.000
REMARK INTER + INTRA:          -2.027
REMARK INTER:                  -2.017
REMARK INTRA:                  -0.010
REMARK UNBOUND:                -0.010
REMARK SMILES CCCC(=O)[O-]
REMARK SMILES IDX 3 1 4 2 5 3 6 4 2 5 1 6
REMARK H PARENT
REMARK Flexibility Score: inf
ROOT
ATOM      1  C   UNL     1     -32.359  21.097 -10.055  1.00  0.00     0.052 C 
ENDROOT
BRANCH   1   2
ATOM      2  C   UNL     1     -31.645  19.823 -10.375  1.00  0.00     0.041 C 
ATOM      3  O   UNL     1     -32.280  18.736 -10.429  1.00  0.00    -0.550 OA
ATOM      4  O   UNL     1     -30.269  19.825 -10.567  1.00  0.00    -0.550 OA
ENDBRANCH   1   2
BRANCH   1   5
ATOM      5  C   UNL     1     -31.486  22.304 -10.406  1.00  0.00     0.003 C 
ATOM      6  C   UNL     1     -32.114  23.602  -9.907  1.00  0.00     0.004 C 
ENDBRANCH   1   5
TORSDOF 2
ENDMDL
MODEL 2
REMARK VINA RESULT:    -1.497      2.879      3.921
REMARK INTER + INTRA:          -1.682
REMARK INTER:                  -1.677
REMARK INTRA:                  -0.006
REMARK UNBOUND:                -0.010
REMARK SMILES CCCC(=O)[O-]
REMARK SMILES IDX 3 1 4 2 5 3 6 4 2 5 1 6
REMARK H PARENT
REMARK Flexibility Score: inf
ROOT
ATOM      1  C   UNL     1     -31.817  22.217 -10.732  1.00  0.00     0.052 C 
ENDROOT
BRANCH   1   2
ATOM      2  C   UNL     1     -32.302  23.448 -10.033  1.00  0.00     0.041 C 
ATOM      3  O   UNL     1     -31.512  24.125  -9.321  1.00  0.00    -0.550 OA
ATOM      4  O   UNL     1     -33.636  23.822 -10.125  1.00  0.00    -0.550 OA
ENDBRANCH   1   2
BRANCH   1   5
ATOM      5  C   UNL     1     -32.329  20.962 -10.022  1.00  0.00     0.003 C 
ATOM      6  C   UNL     1     -31.493  19.740 -10.393  1.00  0.00     0.004 C 
ENDBRANCH   1   5
TORSDOF 2
ENDMDL
MODEL 3
REMARK VINA RESULT:    -1.297      2.790      3.638
REMARK INTER + INTRA:          -1.459
REMARK INTER:                  -1.453
REMARK INTRA:                  -0.006
REMARK UNBOUND:                -0.010
REMARK SMILES CCCC(=O)[O-]
REMARK SMILES IDX 3 1 4 2 5 3 6 4 2 5 1 6
REMARK H PARENT
REMARK Flexibility Score: inf
ROOT
ATOM      1  C   UNL     1     -29.839  18.533 -10.736  1.00  0.00     0.052 C 
ENDROOT
BRANCH   1   2
ATOM      2  C   UNL     1     -29.456  17.307 -11.503  1.00  0.00     0.041 C 
ATOM      3  O   UNL     1     -29.702  16.164 -11.035  1.00  0.00    -0.550 OA
ATOM      4  O   UNL     1     -28.783  17.424 -12.712  1.00  0.00    -0.550 OA
ENDBRANCH   1   2
BRANCH   1   5
ATOM      5  C   UNL     1     -31.347  18.555 -10.479  1.00  0.00     0.003 C 
ATOM      6  C   UNL     1     -31.856  19.984 -10.309  1.00  0.00     0.004 C 
ENDBRANCH   1   5
TORSDOF 2
ENDMDL
MODEL 4
REMARK VINA RESULT:    -1.226      1.951      2.652
REMARK INTER + INTRA:          -1.379
REMARK INTER:                  -1.367
REMARK INTRA:                  -0.012
REMARK UNBOUND:                -0.010
REMARK SMILES CCCC(=O)[O-]
REMARK SMILES IDX 3 1 4 2 5 3 6 4 2 5 1 6
REMARK H PARENT
REMARK Flexibility Score: inf
ROOT
ATOM      1  C   UNL     1     -30.343  19.149 -10.606  1.00  0.00     0.052 C 
ENDROOT
BRANCH   1   2
ATOM      2  C   UNL     1     -30.282  17.666 -10.791  1.00  0.00     0.041 C 
ATOM      3  O   UNL     1     -31.280  16.951 -10.508  1.00  0.00    -0.550 OA
ATOM      4  O   UNL     1     -29.109  17.066 -11.228  1.00  0.00    -0.550 OA
ENDBRANCH   1   2
BRANCH   1   5
ATOM      5  C   UNL     1     -31.786  19.602 -10.374  1.00  0.00     0.003 C 
ATOM      6  C   UNL     1     -31.882  21.123 -10.307  1.00  0.00     0.004 C 
ENDBRANCH   1   5
TORSDOF 2
ENDMDL
MODEL 5
REMARK VINA RESULT:    -1.219      2.813      4.206
REMARK INTER + INTRA:          -1.372
REMARK INTER:                  -1.337
REMARK INTRA:                  -0.035
REMARK UNBOUND:                -0.010
REMARK SMILES CCCC(=O)[O-]
REMARK SMILES IDX 3 1 4 2 5 3 6 4 2 5 1 6
REMARK H PARENT
REMARK Flexibility Score: inf
ROOT
ATOM      1  C   UNL     1     -29.716  18.729 -10.753  1.00  0.00     0.052 C 
ENDROOT
BRANCH   1   2
ATOM      2  C   UNL     1     -31.180  18.831 -10.462  1.00  0.00     0.041 C 
ATOM      3  O   UNL     1     -31.884  17.789 -10.382  1.00  0.00    -0.550 OA
ATOM      4  O   UNL     1     -31.778  20.076 -10.328  1.00  0.00    -0.550 OA
ENDBRANCH   1   2
BRANCH   1   5
ATOM      5  C   UNL     1     -29.347  17.298 -11.151  1.00  0.00     0.003 C 
ATOM      6  C   UNL     1     -28.914  17.227 -12.613  1.00  0.00     0.004 C 
ENDBRANCH   1   5
TORSDOF 2
ENDMDL
MODEL 6
REMARK VINA RESULT:    -1.128      2.228      3.533
REMARK INTER + INTRA:          -1.270
REMARK INTER:                  -1.257
REMARK INTRA:                  -0.012
REMARK UNBOUND:                -0.010
REMARK SMILES CCCC(=O)[O-]
REMARK SMILES IDX 3 1 4 2 5 3 6 4 2 5 1 6
REMARK H PARENT
REMARK Flexibility Score: inf
ROOT
ATOM      1  C   UNL     1     -32.502  20.944 -10.011  1.00  0.00     0.052 C 
ENDROOT
BRANCH   1   2
ATOM      2  C   UNL     1     -32.026  22.330 -10.310  1.00  0.00     0.041 C 
ATOM      3  O   UNL     1     -30.826  22.531 -10.638  1.00  0.00    -0.550 OA
ATOM      4  O   UNL     1     -32.892  23.407 -10.180  1.00  0.00    -0.550 OA
ENDBRANCH   1   2
BRANCH   1   5
ATOM      5  C   UNL     1     -31.441  19.915 -10.409  1.00  0.00     0.003 C 
ATOM      6  C   UNL     1     -32.027  18.507 -10.448  1.00  0.00     0.004 C 
ENDBRANCH   1   5
TORSDOF 2
ENDMDL
MODEL 7
REMARK VINA RESULT:    -1.096      2.260      4.144
REMARK INTER + INTRA:          -1.235
REMARK INTER:                  -1.223
REMARK INTRA:                  -0.012
REMARK UNBOUND:                -0.010
REMARK SMILES CCCC(=O)[O-]
REMARK SMILES IDX 3 1 4 2 5 3 6 4 2 5 1 6
REMARK H PARENT
REMARK Flexibility Score: inf
ROOT
ATOM      1  C   UNL     1     -30.269  18.964 -10.633  1.00  0.00     0.052 C 
ENDROOT
BRANCH   1   2
ATOM      2  C   UNL     1     -31.614  19.577 -10.404  1.00  0.00     0.041 C 
ATOM      3  O   UNL     1     -31.731  20.827 -10.302  1.00  0.00    -0.550 OA
ATOM      4  O   UNL     1     -32.732  18.767 -10.252  1.00  0.00    -0.550 OA
ENDBRANCH   1   2
BRANCH   1   5
ATOM      5  C   UNL     1     -30.376  17.438 -10.678  1.00  0.00     0.003 C 
ATOM      6  C   UNL     1     -29.194  16.825 -11.424  1.00  0.00     0.004 C 
ENDBRANCH   1   5
TORSDOF 2
ENDMDL
MODEL 8
REMARK VINA RESULT:    -0.610      2.098      3.731
REMARK INTER + INTRA:          -0.692
REMARK INTER:                  -0.681
REMARK INTRA:                  -0.011
REMARK UNBOUND:                -0.010
REMARK SMILES CCCC(=O)[O-]
REMARK SMILES IDX 3 1 4 2 5 3 6 4 2 5 1 6
REMARK H PARENT
REMARK Flexibility Score: inf
ROOT
ATOM      1  C   UNL     1     -31.156  18.646 -10.581  1.00  0.00     0.052 C 
ENDROOT
BRANCH   1   2
ATOM      2  C   UNL     1     -31.479  20.090 -10.358  1.00  0.00     0.041 C 
ATOM      3  O   UNL     1     -32.633  20.430  -9.985  1.00  0.00    -0.550 OA
ATOM      4  O   UNL     1     -30.522  21.064 -10.610  1.00  0.00    -0.550 OA
ENDBRANCH   1   2
BRANCH   1   5
ATOM      5  C   UNL     1     -29.650  18.459 -10.784  1.00  0.00     0.003 C 
ATOM      6  C   UNL     1     -29.330  17.044 -11.259  1.00  0.00     0.004 C 
ENDBRANCH   1   5
TORSDOF 2
ENDMDL
MODEL 9
REMARK VINA RESULT:    -0.223      3.722      5.300
REMARK INTER + INTRA:          -0.259
REMARK INTER:                  -0.252
REMARK INTRA:                  -0.007
REMARK UNBOUND:                -0.010
REMARK SMILES CCCC(=O)[O-]
REMARK SMILES IDX 3 1 4 2 5 3 6 4 2 5 1 6
REMARK H PARENT
REMARK Flexibility Score: inf
ROOT
ATOM      1  C   UNL     1     -29.359  16.794 -11.398  1.00  0.00     0.052 C 
ENDROOT
BRANCH   1   2
ATOM      2  C   UNL     1     -30.168  17.889 -10.778  1.00  0.00     0.041 C 
ATOM      3  O   UNL     1     -29.651  19.019 -10.572  1.00  0.00    -0.550 OA
ATOM      4  O   UNL     1     -31.477  17.649 -10.382  1.00  0.00    -0.550 OA
ENDBRANCH   1   2
BRANCH   1   5
ATOM      5  C   UNL     1     -28.861  17.214 -12.783  1.00  0.00     0.003 C 
ATOM      6  C   UNL     1     -28.998  16.073 -13.787  1.00  0.00     0.004 C 
ENDBRANCH   1   5
TORSDOF 2
ENDMDL
