MODEL 1
REMARK VINA RESULT:    -3.996      0.000      0.000
REMARK INTER + INTRA:          -5.303
REMARK INTER:                  -5.165
REMARK INTRA:                  -0.138
REMARK UNBOUND:                -0.138
REMARK SMILES CCCCCCC(=O)[O-]
REMARK SMILES IDX 5 1 6 2 7 3 8 4 9 5 4 6 3 7 2 8 1 9
REMARK H PARENT
REMARK Flexibility Score: inf
ROOT
ATOM      1  C   UNL     1      -9.141   4.488  -9.307  1.00  0.00     0.006 C 
ENDROOT
BRANCH   1   2
ATOM      2  C   UNL     1      -9.116   5.513  -8.167  1.00  0.00     0.053 C 
BRANCH   2   3
ATOM      3  C   UNL     1      -7.791   5.533  -7.469  1.00  0.00     0.041 C 
ATOM      4  O   UNL     1      -7.709   5.217  -6.253  1.00  0.00    -0.550 OA
ATOM      5  O   UNL     1      -6.650   5.932  -8.154  1.00  0.00    -0.550 OA
ENDBRANCH   2   3
ENDBRANCH   1   2
BRANCH   1   6
ATOM      6  C   UNL     1      -9.483   5.130 -10.660  1.00  0.00     0.000 C 
BRANCH   6   7
ATOM      7  C   UNL     1      -8.279   5.090 -11.609  1.00  0.00    -0.000 C 
BRANCH   7   8
ATOM      8  C   UNL     1      -8.647   4.418 -12.936  1.00  0.00    -0.003 C 
ATOM      9  C   UNL     1      -8.090   5.199 -14.123  1.00  0.00     0.004 C 
ENDBRANCH   7   8
ENDBRANCH   6   7
ENDBRANCH   1   6
TORSDOF 5
ENDMDL
MODEL 2
REMARK VINA RESULT:    -3.815      3.115      5.036
REMARK INTER + INTRA:          -5.069
REMARK INTER:                  -4.900
REMARK INTRA:                  -0.169
REMARK UNBOUND:                -0.138
REMARK SMILES CCCCCCC(=O)[O-]
REMARK SMILES IDX 5 1 6 2 7 3 8 4 9 5 4 6 3 7 2 8 1 9
REMARK H PARENT
REMARK Flexibility Score: inf
ROOT
ATOM      1  C   UNL     1      -9.449   5.025 -10.824  1.00  0.00     0.006 C 
ENDROOT
BRANCH   1   2
ATOM      2  C   UNL     1      -8.105   5.202 -11.542  1.00  0.00     0.053 C 
BRANCH   2   3
ATOM      3  C   UNL     1      -8.092   4.511 -12.870  1.00  0.00     0.041 C 
ATOM      4  O   UNL     1      -9.172   4.266 -13.470  1.00  0.00    -0.550 OA
ATOM      5  O   UNL     1      -6.887   4.107 -13.432  1.00  0.00    -0.550 OA
ENDBRANCH   2   3
ENDBRANCH   1   2
BRANCH   1   6
ATOM      6  C   UNL     1      -9.283   4.428  -9.419  1.00  0.00     0.000 C 
BRANCH   6   7
ATOM      7  C   UNL     1      -9.058   5.531  -8.376  1.00  0.00    -0.000 C 
BRANCH   7   8
ATOM      8  C   UNL     1      -7.694   5.373  -7.695  1.00  0.00    -0.003 C 
ATOM      9  C   UNL     1      -7.281   6.658  -6.983  1.00  0.00     0.004 C 
ENDBRANCH   7   8
ENDBRANCH   6   7
ENDBRANCH   1   6
TORSDOF 5
ENDMDL
MODEL 3
REMARK VINA RESULT:    -3.730      1.641      2.706
REMARK INTER + INTRA:          -4.958
REMARK INTER:                  -4.840
REMARK INTRA:                  -0.118
REMARK UNBOUND:                -0.138
REMARK SMILES CCCCCCC(=O)[O-]
REMARK SMILES IDX 5 1 6 2 7 3 8 4 9 5 4 6 3 7 2 8 1 9
REMARK H PARENT
REMARK Flexibility Score: inf
ROOT
ATOM      1  C   UNL     1      -7.781   5.500  -7.154  1.00  0.00     0.006 C 
ENDROOT
BRANCH   1   2
ATOM      2  C   UNL     1      -7.250   6.880  -6.745  1.00  0.00     0.053 C 
BRANCH   2   3
ATOM      3  C   UNL     1      -5.796   7.033  -7.069  1.00  0.00     0.041 C 
ATOM      4  O   UNL     1      -4.971   7.323  -6.163  1.00  0.00    -0.550 OA
ATOM      5  O   UNL     1      -5.356   6.886  -8.379  1.00  0.00    -0.550 OA
ENDBRANCH   2   3
ENDBRANCH   1   2
BRANCH   1   6
ATOM      6  C   UNL     1      -9.087   5.594  -7.956  1.00  0.00     0.000 C 
BRANCH   6   7
ATOM      7  C   UNL     1      -9.104   4.573  -9.101  1.00  0.00    -0.000 C 
BRANCH   7   8
ATOM      8  C   UNL     1      -9.655   5.199 -10.387  1.00  0.00    -0.003 C 
ATOM      9  C   UNL     1      -8.750   4.896 -11.578  1.00  0.00     0.004 C 
ENDBRANCH   7   8
ENDBRANCH   6   7
ENDBRANCH   1   6
TORSDOF 5
ENDMDL
MODEL 4
REMARK VINA RESULT:    -3.612      1.675      2.797
REMARK INTER + INTRA:          -4.806
REMARK INTER:                  -4.652
REMARK INTRA:                  -0.154
REMARK UNBOUND:                -0.138
REMARK SMILES CCCCCCC(=O)[O-]
REMARK SMILES IDX 5 1 6 2 7 3 8 4 9 5 4 6 3 7 2 8 1 9
REMARK H PARENT
REMARK Flexibility Score: inf
ROOT
ATOM      1  C   UNL     1      -7.663   5.757  -7.609  1.00  0.00     0.006 C 
ENDROOT
BRANCH   1   2
ATOM      2  C   UNL     1      -7.558   6.746  -6.441  1.00  0.00     0.053 C 
BRANCH   2   3
ATOM      3  C   UNL     1      -7.340   6.043  -5.137  1.00  0.00     0.041 C 
ATOM      4  O   UNL     1      -6.190   5.996  -4.626  1.00  0.00    -0.550 OA
ATOM      5  O   UNL     1      -8.402   5.412  -4.501  1.00  0.00    -0.550 OA
ENDBRANCH   2   3
ENDBRANCH   1   2
BRANCH   1   6
ATOM      6  C   UNL     1      -9.120   5.481  -8.009  1.00  0.00     0.000 C 
BRANCH   6   7
ATOM      7  C   UNL     1      -9.191   4.499  -9.184  1.00  0.00    -0.000 C 
BRANCH   7   8
ATOM      8  C   UNL     1      -9.619   5.212 -10.472  1.00  0.00    -0.003 C 
ATOM      9  C   UNL     1      -8.685   4.869 -11.629  1.00  0.00     0.004 C 
ENDBRANCH   7   8
ENDBRANCH   6   7
ENDBRANCH   1   6
TORSDOF 5
ENDMDL
MODEL 5
REMARK VINA RESULT:    -3.585      2.834      3.970
REMARK INTER + INTRA:          -4.771
REMARK INTER:                  -4.624
REMARK INTRA:                  -0.147
REMARK UNBOUND:                -0.138
REMARK SMILES CCCCCCC(=O)[O-]
REMARK SMILES IDX 5 1 6 2 7 3 8 4 9 5 4 6 3 7 2 8 1 9
REMARK H PARENT
REMARK Flexibility Score: inf
ROOT
ATOM      1  C   UNL     1      -7.680   5.324  -5.886  1.00  0.00     0.006 C 
ENDROOT
BRANCH   1   2
ATOM      2  C   UNL     1      -9.036   5.591  -5.219  1.00  0.00     0.053 C 
BRANCH   2   3
ATOM      3  C   UNL     1      -8.880   6.315  -3.917  1.00  0.00     0.041 C 
ATOM      4  O   UNL     1      -9.420   7.439  -3.747  1.00  0.00    -0.550 OA
ATOM      5  O   UNL     1      -8.110   5.761  -2.901  1.00  0.00    -0.550 OA
ENDBRANCH   2   3
ENDBRANCH   1   2
BRANCH   1   6
ATOM      6  C   UNL     1      -7.689   5.673  -7.381  1.00  0.00     0.000 C 
BRANCH   6   7
ATOM      7  C   UNL     1      -9.106   5.571  -7.961  1.00  0.00    -0.000 C 
BRANCH   7   8
ATOM      8  C   UNL     1      -9.130   4.660  -9.194  1.00  0.00    -0.003 C 
ATOM      9  C   UNL     1      -9.889   5.312 -10.346  1.00  0.00     0.004 C 
ENDBRANCH   7   8
ENDBRANCH   6   7
ENDBRANCH   1   6
TORSDOF 5
ENDMDL
MODEL 6
REMARK VINA RESULT:    -3.567      3.519      5.632
REMARK INTER + INTRA:          -4.748
REMARK INTER:                  -4.634
REMARK INTRA:                  -0.114
REMARK UNBOUND:                -0.138
REMARK SMILES CCCCCCC(=O)[O-]
REMARK SMILES IDX 5 1 6 2 7 3 8 4 9 5 4 6 3 7 2 8 1 9
REMARK H PARENT
REMARK Flexibility Score: inf
ROOT
ATOM      1  C   UNL     1      -8.568   4.542 -12.989  1.00  0.00     0.006 C 
ENDROOT
BRANCH   1   2
ATOM      2  C   UNL     1      -7.996   5.474 -14.065  1.00  0.00     0.053 C 
BRANCH   2   3
ATOM      3  C   UNL     1      -6.815   4.865 -14.755  1.00  0.00     0.041 C 
ATOM      4  O   UNL     1      -6.214   3.886 -14.240  1.00  0.00    -0.550 OA
ATOM      5  O   UNL     1      -6.359   5.399 -15.954  1.00  0.00    -0.550 OA
ENDBRANCH   2   3
ENDBRANCH   1   2
BRANCH   1   6
ATOM      6  C   UNL     1      -8.312   5.066 -11.569  1.00  0.00     0.000 C 
BRANCH   6   7
ATOM      7  C   UNL     1      -9.593   5.020 -10.726  1.00  0.00    -0.000 C 
BRANCH   7   8
ATOM      8  C   UNL     1      -9.317   4.429  -9.339  1.00  0.00    -0.003 C 
ATOM      9  C   UNL     1      -8.859   5.508  -8.361  1.00  0.00     0.004 C 
ENDBRANCH   7   8
ENDBRANCH   6   7
ENDBRANCH   1   6
TORSDOF 5
ENDMDL
MODEL 7
REMARK VINA RESULT:    -3.462      2.073      3.317
REMARK INTER + INTRA:          -4.613
REMARK INTER:                  -4.438
REMARK INTRA:                  -0.175
REMARK UNBOUND:                -0.138
REMARK SMILES CCCCCCC(=O)[O-]
REMARK SMILES IDX 5 1 6 2 7 3 8 4 9 5 4 6 3 7 2 8 1 9
REMARK H PARENT
REMARK Flexibility Score: inf
ROOT
ATOM      1  C   UNL     1      -7.900   5.483 -12.301  1.00  0.00     0.006 C 
ENDROOT
BRANCH   1   2
ATOM      2  C   UNL     1      -8.813   4.483 -11.582  1.00  0.00     0.053 C 
BRANCH   2   3
ATOM      3  C   UNL     1      -9.258   4.997 -10.248  1.00  0.00     0.041 C 
ATOM      4  O   UNL     1      -8.573   4.764  -9.217  1.00  0.00    -0.550 OA
ATOM      5  O   UNL     1     -10.446   5.710 -10.138  1.00  0.00    -0.550 OA
ENDBRANCH   2   3
ENDBRANCH   1   2
BRANCH   1   6
ATOM      6  C   UNL     1      -6.724   4.794 -13.008  1.00  0.00     0.000 C 
BRANCH   6   7
ATOM      7  C   UNL     1      -6.926   4.782 -14.528  1.00  0.00    -0.000 C 
BRANCH   7   8
ATOM      8  C   UNL     1      -8.003   5.789 -14.947  1.00  0.00    -0.003 C 
ATOM      9  C   UNL     1      -7.634   6.476 -16.259  1.00  0.00     0.004 C 
ENDBRANCH   7   8
ENDBRANCH   6   7
ENDBRANCH   1   6
TORSDOF 5
ENDMDL
MODEL 8
REMARK VINA RESULT:    -3.445      2.781      5.176
REMARK INTER + INTRA:          -4.591
REMARK INTER:                  -4.416
REMARK INTRA:                  -0.175
REMARK UNBOUND:                -0.138
REMARK SMILES CCCCCCC(=O)[O-]
REMARK SMILES IDX 5 1 6 2 7 3 8 4 9 5 4 6 3 7 2 8 1 9
REMARK H PARENT
REMARK Flexibility Score: inf
ROOT
ATOM      1  C   UNL     1      -9.181   5.552  -7.721  1.00  0.00     0.006 C 
ENDROOT
BRANCH   1   2
ATOM      2  C   UNL     1      -8.440   4.975  -8.934  1.00  0.00     0.053 C 
BRANCH   2   3
ATOM      3  C   UNL     1      -9.247   5.103 -10.189  1.00  0.00     0.041 C 
ATOM      4  O   UNL     1     -10.429   5.534 -10.142  1.00  0.00    -0.550 OA
ATOM      5  O   UNL     1      -8.703   4.717 -11.408  1.00  0.00    -0.550 OA
ENDBRANCH   2   3
ENDBRANCH   1   2
BRANCH   1   6
ATOM      6  C   UNL     1      -8.222   6.177  -6.697  1.00  0.00     0.000 C 
BRANCH   6   7
ATOM      7  C   UNL     1      -6.858   6.474  -7.331  1.00  0.00    -0.000 C 
BRANCH   7   8
ATOM      8  C   UNL     1      -6.041   7.432  -6.455  1.00  0.00    -0.003 C 
ATOM      9  C   UNL     1      -5.617   6.760  -5.152  1.00  0.00     0.004 C 
ENDBRANCH   7   8
ENDBRANCH   6   7
ENDBRANCH   1   6
TORSDOF 5
ENDMDL
MODEL 9
REMARK VINA RESULT:    -3.397      3.450      5.062
REMARK INTER + INTRA:          -4.529
REMARK INTER:                  -4.265
REMARK INTRA:                  -0.263
REMARK UNBOUND:                -0.138
REMARK SMILES CCCCCCC(=O)[O-]
REMARK SMILES IDX 5 1 6 2 7 3 8 4 9 5 4 6 3 7 2 8 1 9
REMARK H PARENT
REMARK Flexibility Score: inf
ROOT
ATOM      1  C   UNL     1      -6.280   4.547 -13.827  1.00  0.00     0.006 C 
ENDROOT
BRANCH   1   2
ATOM      2  C   UNL     1      -6.947   5.200 -12.610  1.00  0.00     0.053 C 
BRANCH   2   3
ATOM      3  C   UNL     1      -8.363   4.742 -12.443  1.00  0.00     0.041 C 
ATOM      4  O   UNL     1      -8.982   4.225 -13.410  1.00  0.00    -0.550 OA
ATOM      5  O   UNL     1      -9.011   4.914 -11.225  1.00  0.00    -0.550 OA
ENDBRANCH   2   3
ENDBRANCH   1   2
BRANCH   1   6
ATOM      6  C   UNL     1      -5.779   5.585 -14.842  1.00  0.00     0.000 C 
BRANCH   6   7
ATOM      7  C   UNL     1      -6.615   5.544 -16.128  1.00  0.00    -0.000 C 
BRANCH   7   8
ATOM      8  C   UNL     1      -7.901   6.364 -15.974  1.00  0.00    -0.003 C 
ATOM      9  C   UNL     1      -7.948   7.509 -16.982  1.00  0.00     0.004 C 
ENDBRANCH   7   8
ENDBRANCH   6   7
ENDBRANCH   1   6
TORSDOF 5
ENDMDL
