MODEL 1
REMARK VINA RESULT:    -4.969      0.000      0.000
REMARK INTER + INTRA:          -8.304
REMARK INTER:                  -7.583
REMARK INTRA:                  -0.721
REMARK UNBOUND:                -0.721
REMARK SMILES O=C([O-])CCCCCCCCC(=O)[O-]
REMARK SMILES IDX 7 1 6 2 5 3 4 4 2 5 1 6 3 7 8 8 9 9 10 10 11 11 12 12 13 13
REMARK SMILES IDX 14 14
REMARK H PARENT
REMARK Flexibility Score: inf
ROOT
ATOM      1  C   UNL     1      18.368  22.642   6.916  1.00  0.00     0.000 C 
ENDROOT
BRANCH   1   2
ATOM      2  C   UNL     1      17.378  23.716   6.451  1.00  0.00     0.000 C 
BRANCH   2   3
ATOM      3  C   UNL     1      16.876  24.552   7.638  1.00  0.00     0.006 C 
BRANCH   3   4
ATOM      4  C   UNL     1      18.019  24.992   8.563  1.00  0.00     0.053 C 
BRANCH   4   5
ATOM      5  C   UNL     1      17.982  26.466   8.829  1.00  0.00     0.041 C 
ATOM      6  O   UNL     1      16.905  27.022   9.170  1.00  0.00    -0.550 OA
ATOM      7  O   UNL     1      19.131  27.231   8.669  1.00  0.00    -0.550 OA
ENDBRANCH   4   5
ENDBRANCH   3   4
ENDBRANCH   2   3
ENDBRANCH   1   2
BRANCH   1   8
ATOM      8  C   UNL     1      19.442  22.384   5.852  1.00  0.00     0.000 C 
BRANCH   8   9
ATOM      9  C   UNL     1      20.786  22.023   6.503  1.00  0.00     0.000 C 
BRANCH   9  10
ATOM     10  C   UNL     1      21.271  23.093   7.495  1.00  0.00     0.006 C 
BRANCH  10  11
ATOM     11  C   UNL     1      21.725  22.496   8.833  1.00  0.00     0.053 C 
BRANCH  11  12
ATOM     12  C   UNL     1      20.691  22.731   9.887  1.00  0.00     0.041 C 
ATOM     13  O   UNL     1      20.793  23.715  10.668  1.00  0.00    -0.550 OA
ATOM     14  O   UNL     1      19.584  21.895   9.976  1.00  0.00    -0.550 OA
ENDBRANCH  11  12
ENDBRANCH  10  11
ENDBRANCH   9  10
ENDBRANCH   8   9
ENDBRANCH   1   8
TORSDOF 9
ENDMDL
MODEL 2
REMARK VINA RESULT:    -4.888      1.475      4.157
REMARK INTER + INTRA:          -8.181
REMARK INTER:                  -7.066
REMARK INTRA:                  -1.115
REMARK UNBOUND:                -0.721
REMARK SMILES O=C([O-])CCCCCCCCC(=O)[O-]
REMARK SMILES IDX 7 1 6 2 5 3 4 4 2 5 1 6 3 7 8 8 9 9 10 10 11 11 12 12 13 13
REMARK SMILES IDX 14 14
REMARK H PARENT
REMARK Flexibility Score: inf
ROOT
ATOM      1  C   UNL     1      19.232  22.372   5.758  1.00  0.00     0.000 C 
ENDROOT
BRANCH   1   2
ATOM      2  C   UNL     1      20.235  22.791   6.837  1.00  0.00     0.000 C 
BRANCH   2   3
ATOM      3  C   UNL     1      20.322  21.734   7.949  1.00  0.00     0.006 C 
BRANCH   3   4
ATOM      4  C   UNL     1      20.152  22.345   9.346  1.00  0.00     0.053 C 
BRANCH   4   5
ATOM      5  C   UNL     1      18.993  21.740  10.079  1.00  0.00     0.041 C 
ATOM      6  O   UNL     1      18.219  20.940   9.491  1.00  0.00    -0.550 OA
ATOM      7  O   UNL     1      18.750  22.084  11.403  1.00  0.00    -0.550 OA
ENDBRANCH   4   5
ENDBRANCH   3   4
ENDBRANCH   2   3
ENDBRANCH   1   2
BRANCH   1   8
ATOM      8  C   UNL     1      17.798  22.383   6.303  1.00  0.00     0.000 C 
BRANCH   8   9
ATOM      9  C   UNL     1      17.270  23.819   6.432  1.00  0.00     0.000 C 
BRANCH   9  10
ATOM     10  C   UNL     1      16.958  24.207   7.887  1.00  0.00     0.006 C 
BRANCH  10  11
ATOM     11  C   UNL     1      17.742  25.443   8.349  1.00  0.00     0.053 C 
BRANCH  11  12
ATOM     12  C   UNL     1      18.010  25.370   9.819  1.00  0.00     0.041 C 
ATOM     13  O   UNL     1      19.100  25.796  10.286  1.00  0.00    -0.550 OA
ATOM     14  O   UNL     1      17.036  24.880  10.680  1.00  0.00    -0.550 OA
ENDBRANCH  11  12
ENDBRANCH  10  11
ENDBRANCH   9  10
ENDBRANCH   8   9
ENDBRANCH   1   8
TORSDOF 9
ENDMDL
MODEL 3
REMARK VINA RESULT:    -4.866      1.019      4.173
REMARK INTER + INTRA:          -8.146
REMARK INTER:                  -7.108
REMARK INTRA:                  -1.039
REMARK UNBOUND:                -0.721
REMARK SMILES O=C([O-])CCCCCCCCC(=O)[O-]
REMARK SMILES IDX 7 1 6 2 5 3 4 4 2 5 1 6 3 7 8 8 9 9 10 10 11 11 12 12 13 13
REMARK SMILES IDX 14 14
REMARK H PARENT
REMARK Flexibility Score: inf
ROOT
ATOM      1  C   UNL     1      19.129  21.858   6.193  1.00  0.00     0.000 C 
ENDROOT
BRANCH   1   2
ATOM      2  C   UNL     1      20.632  22.126   6.061  1.00  0.00     0.000 C 
BRANCH   2   3
ATOM      3  C   UNL     1      21.353  21.885   7.396  1.00  0.00     0.006 C 
BRANCH   3   4
ATOM      4  C   UNL     1      21.352  23.131   8.290  1.00  0.00     0.053 C 
BRANCH   4   5
ATOM      5  C   UNL     1      20.686  22.870   9.607  1.00  0.00     0.041 C 
ATOM      6  O   UNL     1      21.018  23.530  10.627  1.00  0.00    -0.550 OA
ATOM      7  O   UNL     1      19.723  21.875   9.715  1.00  0.00    -0.550 OA
ENDBRANCH   4   5
ENDBRANCH   3   4
ENDBRANCH   2   3
ENDBRANCH   1   2
BRANCH   1   8
ATOM      8  C   UNL     1      18.320  23.146   5.997  1.00  0.00     0.000 C 
BRANCH   8   9
ATOM      9  C   UNL     1      17.023  23.111   6.819  1.00  0.00     0.000 C 
BRANCH   9  10
ATOM     10  C   UNL     1      17.152  23.847   8.162  1.00  0.00     0.006 C 
BRANCH  10  11
ATOM     11  C   UNL     1      18.086  25.063   8.082  1.00  0.00     0.053 C 
BRANCH  11  12
ATOM     12  C   UNL     1      18.317  25.634   9.444  1.00  0.00     0.041 C 
ATOM     13  O   UNL     1      17.917  25.017  10.467  1.00  0.00    -0.550 OA
ATOM     14  O   UNL     1      19.021  26.823   9.590  1.00  0.00    -0.550 OA
ENDBRANCH  11  12
ENDBRANCH  10  11
ENDBRANCH   9  10
ENDBRANCH   8   9
ENDBRANCH   1   8
TORSDOF 9
ENDMDL
MODEL 4
REMARK VINA RESULT:    -4.819      1.015      1.404
REMARK INTER + INTRA:          -8.075
REMARK INTER:                  -7.078
REMARK INTRA:                  -0.998
REMARK UNBOUND:                -0.721
REMARK SMILES O=C([O-])CCCCCCCCC(=O)[O-]
REMARK SMILES IDX 7 1 6 2 5 3 4 4 2 5 1 6 3 7 8 8 9 9 10 10 11 11 12 12 13 13
REMARK SMILES IDX 14 14
REMARK H PARENT
REMARK Flexibility Score: inf
ROOT
ATOM      1  C   UNL     1      17.947  23.505   6.234  1.00  0.00     0.000 C 
ENDROOT
BRANCH   1   2
ATOM      2  C   UNL     1      16.971  23.419   7.412  1.00  0.00     0.000 C 
BRANCH   2   3
ATOM      3  C   UNL     1      17.061  24.674   8.294  1.00  0.00     0.006 C 
BRANCH   3   4
ATOM      4  C   UNL     1      18.374  25.440   8.082  1.00  0.00     0.053 C 
BRANCH   4   5
ATOM      5  C   UNL     1      18.750  26.244   9.289  1.00  0.00     0.041 C 
ATOM      6  O   UNL     1      18.860  25.687  10.413  1.00  0.00    -0.550 OA
ATOM      7  O   UNL     1      18.945  27.615   9.179  1.00  0.00    -0.550 OA
ENDBRANCH   4   5
ENDBRANCH   3   4
ENDBRANCH   2   3
ENDBRANCH   1   2
BRANCH   1   8
ATOM      8  C   UNL     1      18.362  22.107   5.759  1.00  0.00     0.000 C 
BRANCH   8   9
ATOM      9  C   UNL     1      19.887  21.935   5.822  1.00  0.00     0.000 C 
BRANCH   9  10
ATOM     10  C   UNL     1      20.530  22.753   6.954  1.00  0.00     0.006 C 
BRANCH  10  11
ATOM     11  C   UNL     1      20.949  21.884   8.147  1.00  0.00     0.053 C 
BRANCH  11  12
ATOM     12  C   UNL     1      20.393  22.441   9.418  1.00  0.00     0.041 C 
ATOM     13  O   UNL     1      19.244  22.104   9.809  1.00  0.00    -0.550 OA
ATOM     14  O   UNL     1      21.163  23.294  10.200  1.00  0.00    -0.550 OA
ENDBRANCH  11  12
ENDBRANCH  10  11
ENDBRANCH   9  10
ENDBRANCH   8   9
ENDBRANCH   1   8
TORSDOF 9
ENDMDL
MODEL 5
REMARK VINA RESULT:    -4.811      1.875      2.845
REMARK INTER + INTRA:          -8.063
REMARK INTER:                  -7.140
REMARK INTRA:                  -0.923
REMARK UNBOUND:                -0.721
REMARK SMILES O=C([O-])CCCCCCCCC(=O)[O-]
REMARK SMILES IDX 7 1 6 2 5 3 4 4 2 5 1 6 3 7 8 8 9 9 10 10 11 11 12 12 13 13
REMARK SMILES IDX 14 14
REMARK H PARENT
REMARK Flexibility Score: inf
ROOT
ATOM      1  C   UNL     1      17.817  22.568  10.013  1.00  0.00     0.000 C 
ENDROOT
BRANCH   1   2
ATOM      2  C   UNL     1      17.404  24.020  10.274  1.00  0.00     0.000 C 
BRANCH   2   3
ATOM      3  C   UNL     1      17.019  24.726   8.965  1.00  0.00     0.006 C 
BRANCH   3   4
ATOM      4  C   UNL     1      18.164  25.584   8.409  1.00  0.00     0.053 C 
BRANCH   4   5
ATOM      5  C   UNL     1      18.128  26.979   8.955  1.00  0.00     0.041 C 
ATOM      6  O   UNL     1      17.025  27.549   9.167  1.00  0.00    -0.550 OA
ATOM      7  O   UNL     1      19.313  27.662   9.200  1.00  0.00    -0.550 OA
ENDBRANCH   4   5
ENDBRANCH   3   4
ENDBRANCH   2   3
ENDBRANCH   1   2
BRANCH   1   8
ATOM      8  C   UNL     1      19.105  22.216  10.769  1.00  0.00     0.000 C 
BRANCH   8   9
ATOM      9  C   UNL     1      20.205  23.252  10.494  1.00  0.00     0.000 C 
BRANCH   9  10
ATOM     10  C   UNL     1      21.269  22.740   9.511  1.00  0.00     0.006 C 
BRANCH  10  11
ATOM     11  C   UNL     1      21.174  23.412   8.135  1.00  0.00     0.053 C 
BRANCH  11  12
ATOM     12  C   UNL     1      20.422  22.541   7.180  1.00  0.00     0.041 C 
ATOM     13  O   UNL     1      19.585  23.046   6.386  1.00  0.00    -0.550 OA
ATOM     14  O   UNL     1      20.682  21.177   7.130  1.00  0.00    -0.550 OA
ENDBRANCH  11  12
ENDBRANCH  10  11
ENDBRANCH   9  10
ENDBRANCH   8   9
ENDBRANCH   1   8
TORSDOF 9
ENDMDL
MODEL 6
REMARK VINA RESULT:    -4.796      1.239      4.476
REMARK INTER + INTRA:          -8.040
REMARK INTER:                  -7.336
REMARK INTRA:                  -0.703
REMARK UNBOUND:                -0.721
REMARK SMILES O=C([O-])CCCCCCCCC(=O)[O-]
REMARK SMILES IDX 7 1 6 2 5 3 4 4 2 5 1 6 3 7 8 8 9 9 10 10 11 11 12 12 13 13
REMARK SMILES IDX 14 14
REMARK H PARENT
REMARK Flexibility Score: inf
ROOT
ATOM      1  C   UNL     1      18.735  22.348   5.643  1.00  0.00     0.000 C 
ENDROOT
BRANCH   1   2
ATOM      2  C   UNL     1      19.727  21.610   6.548  1.00  0.00     0.000 C 
BRANCH   2   3
ATOM      3  C   UNL     1      21.045  22.389   6.670  1.00  0.00     0.006 C 
BRANCH   3   4
ATOM      4  C   UNL     1      21.048  23.342   7.872  1.00  0.00     0.053 C 
BRANCH   4   5
ATOM      5  C   UNL     1      21.636  22.698   9.091  1.00  0.00     0.041 C 
ATOM      6  O   UNL     1      22.481  21.772   8.972  1.00  0.00    -0.550 OA
ATOM      7  O   UNL     1      21.227  23.098  10.357  1.00  0.00    -0.550 OA
ENDBRANCH   4   5
ENDBRANCH   3   4
ENDBRANCH   2   3
ENDBRANCH   1   2
BRANCH   1   8
ATOM      8  C   UNL     1      17.437  22.669   6.394  1.00  0.00     0.000 C 
BRANCH   8   9
ATOM      9  C   UNL     1      17.366  24.159   6.759  1.00  0.00     0.000 C 
BRANCH   9  10
ATOM     10  C   UNL     1      17.584  24.413   8.259  1.00  0.00     0.006 C 
BRANCH  10  11
ATOM     11  C   UNL     1      17.476  25.898   8.629  1.00  0.00     0.053 C 
BRANCH  11  12
ATOM     12  C   UNL     1      18.682  26.333   9.398  1.00  0.00     0.041 C 
ATOM     13  O   UNL     1      19.182  25.579  10.275  1.00  0.00    -0.550 OA
ATOM     14  O   UNL     1      19.287  27.552   9.113  1.00  0.00    -0.550 OA
ENDBRANCH  11  12
ENDBRANCH  10  11
ENDBRANCH   9  10
ENDBRANCH   8   9
ENDBRANCH   1   8
TORSDOF 9
ENDMDL
MODEL 7
REMARK VINA RESULT:    -4.627      1.892      4.528
REMARK INTER + INTRA:          -7.782
REMARK INTER:                  -6.964
REMARK INTRA:                  -0.818
REMARK UNBOUND:                -0.721
REMARK SMILES O=C([O-])CCCCCCCCC(=O)[O-]
REMARK SMILES IDX 7 1 6 2 5 3 4 4 2 5 1 6 3 7 8 8 9 9 10 10 11 11 12 12 13 13
REMARK SMILES IDX 14 14
REMARK H PARENT
REMARK Flexibility Score: inf
ROOT
ATOM      1  C   UNL     1      20.993  23.432   8.015  1.00  0.00     0.000 C 
ENDROOT
BRANCH   1   2
ATOM      2  C   UNL     1      21.398  22.290   7.077  1.00  0.00     0.000 C 
BRANCH   2   3
ATOM      3  C   UNL     1      20.340  22.073   5.984  1.00  0.00     0.006 C 
BRANCH   3   4
ATOM      4  C   UNL     1      19.017  22.781   6.308  1.00  0.00     0.053 C 
BRANCH   4   5
ATOM      5  C   UNL     1      17.951  21.810   6.712  1.00  0.00     0.041 C 
ATOM      6  O   UNL     1      18.025  21.211   7.817  1.00  0.00    -0.550 OA
ATOM      7  O   UNL     1      16.891  21.542   5.854  1.00  0.00    -0.550 OA
ENDBRANCH   4   5
ENDBRANCH   3   4
ENDBRANCH   2   3
ENDBRANCH   1   2
BRANCH   1   8
ATOM      8  C   UNL     1      21.368  23.113   9.467  1.00  0.00     0.000 C 
BRANCH   8   9
ATOM      9  C   UNL     1      20.113  22.987  10.345  1.00  0.00     0.000 C 
BRANCH   9  10
ATOM     10  C   UNL     1      18.971  23.905   9.880  1.00  0.00     0.006 C 
BRANCH  10  11
ATOM     11  C   UNL     1      19.166  25.361  10.322  1.00  0.00     0.053 C 
BRANCH  11  12
ATOM     12  C   UNL     1      18.728  26.297   9.242  1.00  0.00     0.041 C 
ATOM     13  O   UNL     1      19.046  27.515   9.290  1.00  0.00    -0.550 OA
ATOM     14  O   UNL     1      18.010  25.816   8.153  1.00  0.00    -0.550 OA
ENDBRANCH  11  12
ENDBRANCH  10  11
ENDBRANCH   9  10
ENDBRANCH   8   9
ENDBRANCH   1   8
TORSDOF 9
ENDMDL
MODEL 8
REMARK VINA RESULT:    -4.606      2.197      3.477
REMARK INTER + INTRA:          -7.750
REMARK INTER:                  -6.977
REMARK INTRA:                  -0.773
REMARK UNBOUND:                -0.721
REMARK SMILES O=C([O-])CCCCCCCCC(=O)[O-]
REMARK SMILES IDX 7 1 6 2 5 3 4 4 2 5 1 6 3 7 8 8 9 9 10 10 11 11 12 12 13 13
REMARK SMILES IDX 14 14
REMARK H PARENT
REMARK Flexibility Score: inf
ROOT
ATOM      1  C   UNL     1      20.926  23.259  10.242  1.00  0.00     0.000 C 
ENDROOT
BRANCH   1   2
ATOM      2  C   UNL     1      19.544  22.676  10.559  1.00  0.00     0.000 C 
BRANCH   2   3
ATOM      3  C   UNL     1      18.428  23.563   9.989  1.00  0.00     0.006 C 
BRANCH   3   4
ATOM      4  C   UNL     1      18.848  25.036   9.892  1.00  0.00     0.053 C 
BRANCH   4   5
ATOM      5  C   UNL     1      18.378  25.666   8.616  1.00  0.00     0.041 C 
ATOM      6  O   UNL     1      18.543  26.899   8.421  1.00  0.00    -0.550 OA
ATOM      7  O   UNL     1      17.730  24.898   7.658  1.00  0.00    -0.550 OA
ENDBRANCH   4   5
ENDBRANCH   3   4
ENDBRANCH   2   3
ENDBRANCH   1   2
BRANCH   1   8
ATOM      8  C   UNL     1      21.591  22.503   9.085  1.00  0.00     0.000 C 
BRANCH   8   9
ATOM      9  C   UNL     1      21.368  23.233   7.751  1.00  0.00     0.000 C 
BRANCH   9  10
ATOM     10  C   UNL     1      20.480  22.437   6.782  1.00  0.00     0.006 C 
BRANCH  10  11
ATOM     11  C   UNL     1      21.295  21.621   5.769  1.00  0.00     0.053 C 
BRANCH  11  12
ATOM     12  C   UNL     1      21.525  20.235   6.279  1.00  0.00     0.041 C 
ATOM     13  O   UNL     1      22.659  19.898   6.712  1.00  0.00    -0.550 OA
ATOM     14  O   UNL     1      20.473  19.327   6.326  1.00  0.00    -0.550 OA
ENDBRANCH  11  12
ENDBRANCH  10  11
ENDBRANCH   9  10
ENDBRANCH   8   9
ENDBRANCH   1   8
TORSDOF 9
ENDMDL
MODEL 9
REMARK VINA RESULT:    -4.603      1.693      3.148
REMARK INTER + INTRA:          -7.745
REMARK INTER:                  -6.709
REMARK INTRA:                  -1.036
REMARK UNBOUND:                -0.721
REMARK SMILES O=C([O-])CCCCCCCCC(=O)[O-]
REMARK SMILES IDX 7 1 6 2 5 3 4 4 2 5 1 6 3 7 8 8 9 9 10 10 11 11 12 12 13 13
REMARK SMILES IDX 14 14
REMARK H PARENT
REMARK Flexibility Score: inf
ROOT
ATOM      1  C   UNL     1      20.678  23.124  10.218  1.00  0.00     0.000 C 
ENDROOT
BRANCH   1   2
ATOM      2  C   UNL     1      19.285  22.486  10.229  1.00  0.00     0.000 C 
BRANCH   2   3
ATOM      3  C   UNL     1      18.187  23.561  10.251  1.00  0.00     0.006 C 
BRANCH   3   4
ATOM      4  C   UNL     1      18.118  24.349   8.937  1.00  0.00     0.053 C 
BRANCH   4   5
ATOM      5  C   UNL     1      18.311  25.818   9.158  1.00  0.00     0.041 C 
ATOM      6  O   UNL     1      17.757  26.652   8.394  1.00  0.00    -0.550 OA
ATOM      7  O   UNL     1      19.128  26.266  10.188  1.00  0.00    -0.550 OA
ENDBRANCH   4   5
ENDBRANCH   3   4
ENDBRANCH   2   3
ENDBRANCH   1   2
BRANCH   1   8
ATOM      8  C   UNL     1      21.568  22.489   9.143  1.00  0.00     0.000 C 
BRANCH   8   9
ATOM      9  C   UNL     1      21.417  23.220   7.801  1.00  0.00     0.000 C 
BRANCH   9  10
ATOM     10  C   UNL     1      21.138  22.262   6.632  1.00  0.00     0.006 C 
BRANCH  10  11
ATOM     11  C   UNL     1      19.706  22.385   6.095  1.00  0.00     0.053 C 
BRANCH  11  12
ATOM     12  C   UNL     1      18.815  21.380   6.751  1.00  0.00     0.041 C 
ATOM     13  O   UNL     1      17.567  21.549   6.760  1.00  0.00    -0.550 OA
ATOM     14  O   UNL     1      19.357  20.228   7.308  1.00  0.00    -0.550 OA
ENDBRANCH  11  12
ENDBRANCH  10  11
ENDBRANCH   9  10
ENDBRANCH   8   9
ENDBRANCH   1   8
TORSDOF 9
ENDMDL
