MODEL 1
REMARK VINA RESULT:    -5.180      0.000      0.000
REMARK INTER + INTRA:          -6.512
REMARK INTER:                  -6.240
REMARK INTRA:                  -0.272
REMARK UNBOUND:                -0.272
REMARK SMILES Oc1cc(O)c2cc(O)c(-c3ccc(O)c(O)c3)[o+]c2c1.[Cl-]
REMARK SMILES IDX 10 1 19 2 20 3 21 4 2 5 3 6 4 7 6 8 7 9 8 10 11 11 12 12
REMARK SMILES IDX 13 13 14 14 18 15 16 16 15 17 17 19 9 21 1 23 5 25
REMARK H PARENT 15 18 17 20 9 22 1 24 5 26
REMARK Flexibility Score: inf
ROOT
ATOM      1  C   UNL     1      32.550  -5.483   0.343  1.00  0.00     0.402 A 
ATOM      2  O   UNL     1      33.455  -5.845  -0.563  1.00  0.00    -0.202 OA
ATOM      3  C   UNL     1      33.140  -6.408  -1.724  1.00  0.00     0.368 A 
ATOM      4  C   UNL     1      34.163  -6.756  -2.611  1.00  0.00     0.162 A 
ATOM      5  C   UNL     1      33.860  -7.353  -3.838  1.00  0.00     0.128 A 
ATOM      6  C   UNL     1      32.530  -7.603  -4.179  1.00  0.00     0.093 A 
ATOM      7  C   UNL     1      31.487  -7.264  -3.310  1.00  0.00     0.136 A 
ATOM      8  C   UNL     1      31.788  -6.656  -2.063  1.00  0.00     0.125 A 
ATOM      9  C   UNL     1      30.808  -6.271  -1.135  1.00  0.00     0.078 A 
ATOM     10  C   UNL     1      31.182  -5.672   0.072  1.00  0.00     0.223 A 
ENDROOT
BRANCH   1  11
ATOM     11  C   UNL     1      33.027  -4.874   1.606  1.00  0.00     0.087 A 
ATOM     12  C   UNL     1      33.516  -3.556   1.645  1.00  0.00     0.022 A 
ATOM     13  C   UNL     1      33.938  -2.995   2.854  1.00  0.00     0.051 A 
ATOM     14  C   UNL     1      33.866  -3.736   4.039  1.00  0.00     0.157 A 
ATOM     15  C   UNL     1      32.938  -5.605   2.802  1.00  0.00     0.068 A 
ATOM     16  C   UNL     1      33.362  -5.043   4.015  1.00  0.00     0.158 A 
BRANCH  14  17
ATOM     17  O   UNL     1      34.287  -3.181   5.246  1.00  0.00    -0.504 OA
ATOM     18  H   UNL     1      33.878  -2.326   5.607  1.00  0.00     0.293 HD
ENDBRANCH  14  17
BRANCH  16  19
ATOM     19  O   UNL     1      33.284  -5.775   5.198  1.00  0.00    -0.504 OA
ATOM     20  H   UNL     1      34.003  -6.442   5.456  1.00  0.00     0.293 HD
ENDBRANCH  16  19
ENDBRANCH   1  11
BRANCH  10  21
ATOM     21  O   UNL     1      30.206  -5.243   0.973  1.00  0.00    -0.500 OA
ATOM     22  H   UNL     1      29.226  -5.208   0.719  1.00  0.00     0.294 HD
ENDBRANCH  10  21
BRANCH   5  23
ATOM     23  O   UNL     1      34.875  -7.701  -4.727  1.00  0.00    -0.507 OA
ATOM     24  H   UNL     1      35.835  -7.419  -4.571  1.00  0.00     0.293 HD
ENDBRANCH   5  23
BRANCH   7  25
ATOM     25  O   UNL     1      30.183  -7.551  -3.724  1.00  0.00    -0.507 OA
ATOM     26  H   UNL     1      29.669  -7.013  -4.407  1.00  0.00     0.293 HD
ENDBRANCH   7  25
TORSDOF 6
ENDMDL
MODEL 2
REMARK VINA RESULT:    -5.119      1.376      1.669
REMARK INTER + INTRA:          -6.438
REMARK INTER:                  -6.096
REMARK INTRA:                  -0.343
REMARK UNBOUND:                -0.272
REMARK SMILES Oc1cc(O)c2cc(O)c(-c3ccc(O)c(O)c3)[o+]c2c1.[Cl-]
REMARK SMILES IDX 10 1 19 2 20 3 21 4 2 5 3 6 4 7 6 8 7 9 8 10 11 11 12 12
REMARK SMILES IDX 13 13 14 14 18 15 16 16 15 17 17 19 9 21 1 23 5 25
REMARK H PARENT 15 18 17 20 9 22 1 24 5 26
REMARK Flexibility Score: inf
ROOT
ATOM      1  C   UNL     1      33.106  -4.667   1.058  1.00  0.00     0.402 A 
ATOM      2  O   UNL     1      33.705  -5.111  -0.044  1.00  0.00    -0.202 OA
ATOM      3  C   UNL     1      33.091  -5.852  -0.960  1.00  0.00     0.368 A 
ATOM      4  C   UNL     1      33.807  -6.272  -2.085  1.00  0.00     0.162 A 
ATOM      5  C   UNL     1      33.187  -7.056  -3.062  1.00  0.00     0.128 A 
ATOM      6  C   UNL     1      31.847  -7.421  -2.915  1.00  0.00     0.093 A 
ATOM      7  C   UNL     1      31.109  -7.013  -1.798  1.00  0.00     0.136 A 
ATOM      8  C   UNL     1      31.732  -6.215  -0.804  1.00  0.00     0.125 A 
ATOM      9  C   UNL     1      31.067  -5.749   0.342  1.00  0.00     0.078 A 
ATOM     10  C   UNL     1      31.747  -4.963   1.277  1.00  0.00     0.223 A 
ENDROOT
BRANCH   1  11
ATOM     11  C   UNL     1      33.900  -3.857   2.010  1.00  0.00     0.087 A 
ATOM     12  C   UNL     1      34.030  -2.465   1.857  1.00  0.00     0.022 A 
ATOM     13  C   UNL     1      34.765  -1.719   2.783  1.00  0.00     0.051 A 
ATOM     14  C   UNL     1      35.369  -2.349   3.878  1.00  0.00     0.157 A 
ATOM     15  C   UNL     1      34.490  -4.480   3.122  1.00  0.00     0.068 A 
ATOM     16  C   UNL     1      35.229  -3.732   4.050  1.00  0.00     0.158 A 
BRANCH  14  17
ATOM     17  O   UNL     1      36.103  -1.608   4.802  1.00  0.00    -0.504 OA
ATOM     18  H   UNL     1      37.005  -1.927   5.139  1.00  0.00     0.293 HD
ENDBRANCH  14  17
BRANCH  16  19
ATOM     19  O   UNL     1      35.824  -4.355   5.146  1.00  0.00    -0.504 OA
ATOM     20  H   UNL     1      35.931  -5.362   5.188  1.00  0.00     0.293 HD
ENDBRANCH  16  19
ENDBRANCH   1  11
BRANCH  10  21
ATOM     21  O   UNL     1      31.073  -4.458   2.390  1.00  0.00    -0.500 OA
ATOM     22  H   UNL     1      30.255  -4.919   2.770  1.00  0.00     0.294 HD
ENDBRANCH  10  21
BRANCH   5  23
ATOM     23  O   UNL     1      33.894  -7.478  -4.187  1.00  0.00    -0.507 OA
ATOM     24  H   UNL     1      33.765  -7.038  -5.090  1.00  0.00     0.293 HD
ENDBRANCH   5  23
BRANCH   7  25
ATOM     25  O   UNL     1      29.774  -7.424  -1.722  1.00  0.00    -0.507 OA
ATOM     26  H   UNL     1      29.086  -7.017  -1.105  1.00  0.00     0.293 HD
ENDBRANCH   7  25
TORSDOF 6
ENDMDL
MODEL 3
REMARK VINA RESULT:    -5.051      1.840      7.356
REMARK INTER + INTRA:          -6.357
REMARK INTER:                  -6.012
REMARK INTRA:                  -0.345
REMARK UNBOUND:                -0.272
REMARK SMILES Oc1cc(O)c2cc(O)c(-c3ccc(O)c(O)c3)[o+]c2c1.[Cl-]
REMARK SMILES IDX 10 1 19 2 20 3 21 4 2 5 3 6 4 7 6 8 7 9 8 10 11 11 12 12
REMARK SMILES IDX 13 13 14 14 18 15 16 16 15 17 17 19 9 21 1 23 5 25
REMARK H PARENT 15 18 17 20 9 22 1 24 5 26
REMARK Flexibility Score: inf
ROOT
ATOM      1  C   UNL     1      33.022  -6.160   1.619  1.00  0.00     0.402 A 
ATOM      2  O   UNL     1      32.651  -5.051   2.252  1.00  0.00    -0.202 OA
ATOM      3  C   UNL     1      32.895  -4.829   3.539  1.00  0.00     0.368 A 
ATOM      4  C   UNL     1      32.462  -3.632   4.117  1.00  0.00     0.162 A 
ATOM      5  C   UNL     1      32.702  -3.374   5.469  1.00  0.00     0.128 A 
ATOM      6  C   UNL     1      33.377  -4.316   6.247  1.00  0.00     0.093 A 
ATOM      7  C   UNL     1      33.821  -5.523   5.693  1.00  0.00     0.136 A 
ATOM      8  C   UNL     1      33.582  -5.789   4.320  1.00  0.00     0.125 A 
ATOM      9  C   UNL     1      34.002  -6.964   3.677  1.00  0.00     0.078 A 
ATOM     10  C   UNL     1      33.733  -7.154   2.318  1.00  0.00     0.223 A 
ENDROOT
BRANCH   1  11
ATOM     11  C   UNL     1      32.683  -6.296   0.184  1.00  0.00     0.087 A 
ATOM     12  C   UNL     1      33.587  -5.910  -0.822  1.00  0.00     0.022 A 
ATOM     13  C   UNL     1      33.252  -6.070  -2.170  1.00  0.00     0.051 A 
ATOM     14  C   UNL     1      32.020  -6.627  -2.531  1.00  0.00     0.157 A 
ATOM     15  C   UNL     1      31.457  -6.873  -0.185  1.00  0.00     0.068 A 
ATOM     16  C   UNL     1      31.121  -7.032  -1.536  1.00  0.00     0.158 A 
BRANCH  14  17
ATOM     17  O   UNL     1      31.682  -6.787  -3.874  1.00  0.00    -0.504 OA
ATOM     18  H   UNL     1      30.782  -7.159  -4.153  1.00  0.00     0.293 HD
ENDBRANCH  14  17
BRANCH  16  19
ATOM     19  O   UNL     1      29.897  -7.594  -1.899  1.00  0.00    -0.504 OA
ATOM     20  H   UNL     1      29.821  -8.243  -2.673  1.00  0.00     0.293 HD
ENDBRANCH  16  19
ENDBRANCH   1  11
BRANCH  10  21
ATOM     21  O   UNL     1      34.194  -8.299   1.666  1.00  0.00    -0.500 OA
ATOM     22  H   UNL     1      33.562  -9.031   1.367  1.00  0.00     0.294 HD
ENDBRANCH  10  21
BRANCH   5  23
ATOM     23  O   UNL     1      32.274  -2.182   6.051  1.00  0.00    -0.507 OA
ATOM     24  H   UNL     1      32.924  -1.438   6.275  1.00  0.00     0.293 HD
ENDBRANCH   5  23
BRANCH   7  25
ATOM     25  O   UNL     1      34.486  -6.415   6.540  1.00  0.00    -0.507 OA
ATOM     26  H   UNL     1      34.067  -7.243   6.939  1.00  0.00     0.293 HD
ENDBRANCH   7  25
TORSDOF 6
ENDMDL
MODEL 4
REMARK VINA RESULT:    -5.040      1.779      3.141
REMARK INTER + INTRA:          -6.344
REMARK INTER:                  -6.005
REMARK INTRA:                  -0.339
REMARK UNBOUND:                -0.272
REMARK SMILES Oc1cc(O)c2cc(O)c(-c3ccc(O)c(O)c3)[o+]c2c1.[Cl-]
REMARK SMILES IDX 10 1 19 2 20 3 21 4 2 5 3 6 4 7 6 8 7 9 8 10 11 11 12 12
REMARK SMILES IDX 13 13 14 14 18 15 16 16 15 17 17 19 9 21 1 23 5 25
REMARK H PARENT 15 18 17 20 9 22 1 24 5 26
REMARK Flexibility Score: inf
ROOT
ATOM      1  C   UNL     1      33.098  -6.310  -0.967  1.00  0.00     0.402 A 
ATOM      2  O   UNL     1      32.148  -7.053  -1.529  1.00  0.00    -0.202 OA
ATOM      3  C   UNL     1      32.016  -7.197  -2.843  1.00  0.00     0.368 A 
ATOM      4  C   UNL     1      30.983  -7.997  -3.339  1.00  0.00     0.162 A 
ATOM      5  C   UNL     1      30.819  -8.163  -4.717  1.00  0.00     0.128 A 
ATOM      6  C   UNL     1      31.690  -7.526  -5.603  1.00  0.00     0.093 A 
ATOM      7  C   UNL     1      32.733  -6.719  -5.132  1.00  0.00     0.136 A 
ATOM      8  C   UNL     1      32.906  -6.549  -3.734  1.00  0.00     0.125 A 
ATOM      9  C   UNL     1      33.930  -5.770  -3.171  1.00  0.00     0.078 A 
ATOM     10  C   UNL     1      34.039  -5.653  -1.782  1.00  0.00     0.223 A 
ENDROOT
BRANCH   1  11
ATOM     11  C   UNL     1      33.136  -6.220   0.510  1.00  0.00     0.087 A 
ATOM     12  C   UNL     1      33.961  -7.063   1.275  1.00  0.00     0.022 A 
ATOM     13  C   UNL     1      33.997  -6.942   2.668  1.00  0.00     0.051 A 
ATOM     14  C   UNL     1      33.220  -5.972   3.313  1.00  0.00     0.157 A 
ATOM     15  C   UNL     1      32.375  -5.235   1.162  1.00  0.00     0.068 A 
ATOM     16  C   UNL     1      32.410  -5.115   2.558  1.00  0.00     0.158 A 
BRANCH  14  17
ATOM     17  O   UNL     1      33.252  -5.850   4.700  1.00  0.00    -0.504 OA
ATOM     18  H   UNL     1      32.425  -6.007   5.265  1.00  0.00     0.293 HD
ENDBRANCH  14  17
BRANCH  16  19
ATOM     19  O   UNL     1      31.643  -4.145   3.203  1.00  0.00    -0.504 OA
ATOM     20  H   UNL     1      30.677  -3.978   2.947  1.00  0.00     0.293 HD
ENDBRANCH  16  19
ENDBRANCH   1  11
BRANCH  10  21
ATOM     21  O   UNL     1      35.087  -4.920  -1.222  1.00  0.00    -0.500 OA
ATOM     22  H   UNL     1      35.094  -4.669  -0.240  1.00  0.00     0.294 HD
ENDBRANCH  10  21
BRANCH   5  23
ATOM     23  O   UNL     1      29.792  -8.960  -5.218  1.00  0.00    -0.507 OA
ATOM     24  H   UNL     1      28.955  -9.147  -4.679  1.00  0.00     0.293 HD
ENDBRANCH   5  23
BRANCH   7  25
ATOM     25  O   UNL     1      33.559  -6.113  -6.083  1.00  0.00    -0.507 OA
ATOM     26  H   UNL     1      33.876  -5.155  -6.037  1.00  0.00     0.293 HD
ENDBRANCH   7  25
TORSDOF 6
ENDMDL
MODEL 5
REMARK VINA RESULT:    -4.985      7.266     10.071
REMARK INTER + INTRA:          -6.278
REMARK INTER:                  -5.960
REMARK INTRA:                  -0.318
REMARK UNBOUND:                -0.272
REMARK SMILES Oc1cc(O)c2cc(O)c(-c3ccc(O)c(O)c3)[o+]c2c1.[Cl-]
REMARK SMILES IDX 10 1 19 2 20 3 21 4 2 5 3 6 4 7 6 8 7 9 8 10 11 11 12 12
REMARK SMILES IDX 13 13 14 14 18 15 16 16 15 17 17 19 9 21 1 23 5 25
REMARK H PARENT 15 18 17 20 9 22 1 24 5 26
REMARK Flexibility Score: inf
ROOT
ATOM      1  C   UNL     1      35.848   0.195  -3.574  1.00  0.00     0.402 A 
ATOM      2  O   UNL     1      35.922   0.953  -2.483  1.00  0.00    -0.202 OA
ATOM      3  C   UNL     1      36.003   0.457  -1.254  1.00  0.00     0.368 A 
ATOM      4  C   UNL     1      36.075   1.335  -0.169  1.00  0.00     0.162 A 
ATOM      5  C   UNL     1      36.157   0.840   1.135  1.00  0.00     0.128 A 
ATOM      6  C   UNL     1      36.167  -0.539   1.356  1.00  0.00     0.093 A 
ATOM      7  C   UNL     1      36.097  -1.440   0.287  1.00  0.00     0.136 A 
ATOM      8  C   UNL     1      36.015  -0.943  -1.039  1.00  0.00     0.125 A 
ATOM      9  C   UNL     1      35.954  -1.770  -2.172  1.00  0.00     0.078 A 
ATOM     10  C   UNL     1      35.880  -1.206  -3.449  1.00  0.00     0.223 A 
ENDROOT
BRANCH   1  11
ATOM     11  C   UNL     1      35.751   0.868  -4.890  1.00  0.00     0.087 A 
ATOM     12  C   UNL     1      36.889   1.384  -5.535  1.00  0.00     0.022 A 
ATOM     13  C   UNL     1      36.775   1.993  -6.788  1.00  0.00     0.051 A 
ATOM     14  C   UNL     1      35.529   2.084  -7.418  1.00  0.00     0.157 A 
ATOM     15  C   UNL     1      34.507   0.944  -5.537  1.00  0.00     0.068 A 
ATOM     16  C   UNL     1      34.392   1.556  -6.793  1.00  0.00     0.158 A 
BRANCH  14  17
ATOM     17  O   UNL     1      35.411   2.692  -8.667  1.00  0.00    -0.504 OA
ATOM     18  H   UNL     1      35.811   2.274  -9.499  1.00  0.00     0.293 HD
ENDBRANCH  14  17
BRANCH  16  19
ATOM     19  O   UNL     1      33.153   1.641  -7.427  1.00  0.00    -0.504 OA
ATOM     20  H   UNL     1      32.908   2.436  -8.005  1.00  0.00     0.293 HD
ENDBRANCH  16  19
ENDBRANCH   1  11
BRANCH  10  21
ATOM     21  O   UNL     1      35.870  -2.028  -4.578  1.00  0.00    -0.500 OA
ATOM     22  H   UNL     1      35.146  -1.954  -5.283  1.00  0.00     0.294 HD
ENDBRANCH  10  21
BRANCH   5  23
ATOM     23  O   UNL     1      36.230   1.710   2.221  1.00  0.00    -0.507 OA
ATOM     24  H   UNL     1      35.400   2.137   2.614  1.00  0.00     0.293 HD
ENDBRANCH   5  23
BRANCH   7  25
ATOM     25  O   UNL     1      36.109  -2.804   0.592  1.00  0.00    -0.507 OA
ATOM     26  H   UNL     1      35.520  -3.239   1.289  1.00  0.00     0.293 HD
ENDBRANCH   7  25
TORSDOF 6
ENDMDL
MODEL 6
REMARK VINA RESULT:    -4.983      1.793      7.124
REMARK INTER + INTRA:          -6.275
REMARK INTER:                  -6.045
REMARK INTRA:                  -0.230
REMARK UNBOUND:                -0.272
REMARK SMILES Oc1cc(O)c2cc(O)c(-c3ccc(O)c(O)c3)[o+]c2c1.[Cl-]
REMARK SMILES IDX 10 1 19 2 20 3 21 4 2 5 3 6 4 7 6 8 7 9 8 10 11 11 12 12
REMARK SMILES IDX 13 13 14 14 18 15 16 16 15 17 17 19 9 21 1 23 5 25
REMARK H PARENT 15 18 17 20 9 22 1 24 5 26
REMARK Flexibility Score: inf
ROOT
ATOM      1  C   UNL     1      32.573  -6.649  -1.910  1.00  0.00     0.402 A 
ATOM      2  O   UNL     1      33.616  -6.009  -1.388  1.00  0.00    -0.202 OA
ATOM      3  C   UNL     1      33.556  -5.319  -0.254  1.00  0.00     0.368 A 
ATOM      4  C   UNL     1      34.706  -4.678   0.214  1.00  0.00     0.162 A 
ATOM      5  C   UNL     1      34.670  -3.942   1.401  1.00  0.00     0.128 A 
ATOM      6  C   UNL     1      33.479  -3.846   2.124  1.00  0.00     0.093 A 
ATOM      7  C   UNL     1      32.313  -4.479   1.677  1.00  0.00     0.136 A 
ATOM      8  C   UNL     1      32.344  -5.229   0.473  1.00  0.00     0.125 A 
ATOM      9  C   UNL     1      31.229  -5.907  -0.044  1.00  0.00     0.078 A 
ATOM     10  C   UNL     1      31.338  -6.631  -1.235  1.00  0.00     0.223 A 
ENDROOT
BRANCH   1  11
ATOM     11  C   UNL     1      32.764  -7.376  -3.185  1.00  0.00     0.087 A 
ATOM     12  C   UNL     1      32.718  -8.781  -3.242  1.00  0.00     0.022 A 
ATOM     13  C   UNL     1      32.878  -9.443  -4.463  1.00  0.00     0.051 A 
ATOM     14  C   UNL     1      33.072  -8.714  -5.642  1.00  0.00     0.157 A 
ATOM     15  C   UNL     1      32.938  -6.650  -4.375  1.00  0.00     0.068 A 
ATOM     16  C   UNL     1      33.099  -7.315  -5.600  1.00  0.00     0.158 A 
BRANCH  14  17
ATOM     17  O   UNL     1      33.232  -9.372  -6.861  1.00  0.00    -0.504 OA
ATOM     18  H   UNL     1      32.594 -10.102  -7.157  1.00  0.00     0.293 HD
ENDBRANCH  14  17
BRANCH  16  19
ATOM     19  O   UNL     1      33.285  -6.591  -6.777  1.00  0.00    -0.504 OA
ATOM     20  H   UNL     1      34.196  -6.517  -7.214  1.00  0.00     0.293 HD
ENDBRANCH  16  19
ENDBRANCH   1  11
BRANCH  10  21
ATOM     21  O   UNL     1      30.243  -7.346  -1.723  1.00  0.00    -0.500 OA
ATOM     22  H   UNL     1      29.817  -7.123  -2.615  1.00  0.00     0.294 HD
ENDBRANCH  10  21
BRANCH   5  23
ATOM     23  O   UNL     1      35.813  -3.301   1.874  1.00  0.00    -0.507 OA
ATOM     24  H   UNL     1      36.287  -2.591   1.328  1.00  0.00     0.293 HD
ENDBRANCH   5  23
BRANCH   7  25
ATOM     25  O   UNL     1      31.161  -4.331   2.456  1.00  0.00    -0.507 OA
ATOM     26  H   UNL     1      30.338  -3.823   2.167  1.00  0.00     0.293 HD
ENDBRANCH   7  25
TORSDOF 6
ENDMDL
MODEL 7
REMARK VINA RESULT:    -4.926      2.298      4.010
REMARK INTER + INTRA:          -6.207
REMARK INTER:                  -5.928
REMARK INTRA:                  -0.279
REMARK UNBOUND:                -0.272
REMARK SMILES Oc1cc(O)c2cc(O)c(-c3ccc(O)c(O)c3)[o+]c2c1.[Cl-]
REMARK SMILES IDX 10 1 19 2 20 3 21 4 2 5 3 6 4 7 6 8 7 9 8 10 11 11 12 12
REMARK SMILES IDX 13 13 14 14 18 15 16 16 15 17 17 19 9 21 1 23 5 25
REMARK H PARENT 15 18 17 20 9 22 1 24 5 26
REMARK Flexibility Score: inf
ROOT
ATOM      1  C   UNL     1      33.073  -5.080   3.330  1.00  0.00     0.402 A 
ATOM      2  O   UNL     1      32.440  -4.884   2.177  1.00  0.00    -0.202 OA
ATOM      3  C   UNL     1      32.323  -5.819   1.241  1.00  0.00     0.368 A 
ATOM      4  C   UNL     1      31.640  -5.517   0.059  1.00  0.00     0.162 A 
ATOM      5  C   UNL     1      31.506  -6.481  -0.944  1.00  0.00     0.128 A 
ATOM      6  C   UNL     1      32.056  -7.752  -0.765  1.00  0.00     0.093 A 
ATOM      7  C   UNL     1      32.745  -8.080   0.409  1.00  0.00     0.136 A 
ATOM      8  C   UNL     1      32.882  -7.106   1.431  1.00  0.00     0.125 A 
ATOM      9  C   UNL     1      33.544  -7.349   2.646  1.00  0.00     0.078 A 
ATOM     10  C   UNL     1      33.636  -6.340   3.609  1.00  0.00     0.223 A 
ENDROOT
BRANCH   1  11
ATOM     11  C   UNL     1      33.145  -3.955   4.291  1.00  0.00     0.087 A 
ATOM     12  C   UNL     1      32.361  -3.936   5.458  1.00  0.00     0.022 A 
ATOM     13  C   UNL     1      32.464  -2.874   6.361  1.00  0.00     0.051 A 
ATOM     14  C   UNL     1      33.359  -1.825   6.118  1.00  0.00     0.157 A 
ATOM     15  C   UNL     1      34.055  -2.909   4.063  1.00  0.00     0.068 A 
ATOM     16  C   UNL     1      34.158  -1.843   4.968  1.00  0.00     0.158 A 
BRANCH  14  17
ATOM     17  O   UNL     1      33.463  -0.764   7.015  1.00  0.00    -0.504 OA
ATOM     18  H   UNL     1      33.585   0.191   6.695  1.00  0.00     0.293 HD
ENDBRANCH  14  17
BRANCH  16  19
ATOM     19  O   UNL     1      35.054  -0.801   4.733  1.00  0.00    -0.504 OA
ATOM     20  H   UNL     1      34.803  -0.009   4.153  1.00  0.00     0.293 HD
ENDBRANCH  16  19
ENDBRANCH   1  11
BRANCH  10  21
ATOM     21  O   UNL     1      34.249  -6.596   4.836  1.00  0.00    -0.500 OA
ATOM     22  H   UNL     1      33.728  -6.582   5.705  1.00  0.00     0.294 HD
ENDBRANCH  10  21
BRANCH   5  23
ATOM     23  O   UNL     1      30.825  -6.187  -2.123  1.00  0.00    -0.507 OA
ATOM     24  H   UNL     1      30.296  -5.330  -2.230  1.00  0.00     0.293 HD
ENDBRANCH   5  23
BRANCH   7  25
ATOM     25  O   UNL     1      33.269  -9.372   0.508  1.00  0.00    -0.507 OA
ATOM     26  H   UNL     1      33.260 -10.051  -0.239  1.00  0.00     0.293 HD
ENDBRANCH   7  25
TORSDOF 6
ENDMDL
MODEL 8
REMARK VINA RESULT:    -4.906      2.096      6.992
REMARK INTER + INTRA:          -6.182
REMARK INTER:                  -5.829
REMARK INTRA:                  -0.353
REMARK UNBOUND:                -0.272
REMARK SMILES Oc1cc(O)c2cc(O)c(-c3ccc(O)c(O)c3)[o+]c2c1.[Cl-]
REMARK SMILES IDX 10 1 19 2 20 3 21 4 2 5 3 6 4 7 6 8 7 9 8 10 11 11 12 12
REMARK SMILES IDX 13 13 14 14 18 15 16 16 15 17 17 19 9 21 1 23 5 25
REMARK H PARENT 15 18 17 20 9 22 1 24 5 26
REMARK Flexibility Score: inf
ROOT
ATOM      1  C   UNL     1      32.970  -6.136   1.518  1.00  0.00     0.402 A 
ATOM      2  O   UNL     1      33.610  -7.130   2.127  1.00  0.00    -0.202 OA
ATOM      3  C   UNL     1      33.983  -7.086   3.401  1.00  0.00     0.368 A 
ATOM      4  C   UNL     1      34.654  -8.182   3.951  1.00  0.00     0.162 A 
ATOM      5  C   UNL     1      35.062  -8.160   5.288  1.00  0.00     0.128 A 
ATOM      6  C   UNL     1      34.799  -7.039   6.077  1.00  0.00     0.093 A 
ATOM      7  C   UNL     1      34.130  -5.929   5.550  1.00  0.00     0.136 A 
ATOM      8  C   UNL     1      33.711  -5.946   4.194  1.00  0.00     0.125 A 
ATOM      9  C   UNL     1      33.023  -4.885   3.584  1.00  0.00     0.078 A 
ATOM     10  C   UNL     1      32.638  -4.976   2.244  1.00  0.00     0.223 A 
ENDROOT
BRANCH   1  11
ATOM     11  C   UNL     1      32.615  -6.301   0.090  1.00  0.00     0.087 A 
ATOM     12  C   UNL     1      33.483  -5.884  -0.934  1.00  0.00     0.022 A 
ATOM     13  C   UNL     1      33.135  -6.072  -2.275  1.00  0.00     0.051 A 
ATOM     14  C   UNL     1      31.924  -6.689  -2.611  1.00  0.00     0.157 A 
ATOM     15  C   UNL     1      31.410  -6.937  -0.253  1.00  0.00     0.068 A 
ATOM     16  C   UNL     1      31.060  -7.125  -1.598  1.00  0.00     0.158 A 
BRANCH  14  17
ATOM     17  O   UNL     1      31.573  -6.877  -3.946  1.00  0.00    -0.504 OA
ATOM     18  H   UNL     1      32.260  -6.808  -4.689  1.00  0.00     0.293 HD
ENDBRANCH  14  17
BRANCH  16  19
ATOM     19  O   UNL     1      29.858  -7.746  -1.935  1.00  0.00    -0.504 OA
ATOM     20  H   UNL     1      29.271  -7.392  -2.681  1.00  0.00     0.293 HD
ENDBRANCH  16  19
ENDBRANCH   1  11
BRANCH  10  21
ATOM     21  O   UNL     1      31.910  -3.943   1.651  1.00  0.00    -0.500 OA
ATOM     22  H   UNL     1      31.007  -3.656   2.010  1.00  0.00     0.294 HD
ENDBRANCH  10  21
BRANCH   5  23
ATOM     23  O   UNL     1      35.730  -9.250   5.843  1.00  0.00    -0.507 OA
ATOM     24  H   UNL     1      36.611  -9.140   6.330  1.00  0.00     0.293 HD
ENDBRANCH   5  23
BRANCH   7  25
ATOM     25  O   UNL     1      33.908  -4.844   6.404  1.00  0.00    -0.507 OA
ATOM     26  H   UNL     1      34.532  -4.055   6.499  1.00  0.00     0.293 HD
ENDBRANCH   7  25
TORSDOF 6
ENDMDL
MODEL 9
REMARK VINA RESULT:    -4.852      2.133      4.269
REMARK INTER + INTRA:          -6.117
REMARK INTER:                  -5.778
REMARK INTRA:                  -0.339
REMARK UNBOUND:                -0.272
REMARK SMILES Oc1cc(O)c2cc(O)c(-c3ccc(O)c(O)c3)[o+]c2c1.[Cl-]
REMARK SMILES IDX 10 1 19 2 20 3 21 4 2 5 3 6 4 7 6 8 7 9 8 10 11 11 12 12
REMARK SMILES IDX 13 13 14 14 18 15 16 16 15 17 17 19 9 21 1 23 5 25
REMARK H PARENT 15 18 17 20 9 22 1 24 5 26
REMARK Flexibility Score: inf
ROOT
ATOM      1  C   UNL     1      33.668  -4.001   2.994  1.00  0.00     0.402 A 
ATOM      2  O   UNL     1      32.627  -4.581   2.402  1.00  0.00    -0.202 OA
ATOM      3  C   UNL     1      32.650  -5.013   1.146  1.00  0.00     0.368 A 
ATOM      4  C   UNL     1      31.504  -5.608   0.610  1.00  0.00     0.162 A 
ATOM      5  C   UNL     1      31.499  -6.068  -0.710  1.00  0.00     0.128 A 
ATOM      6  C   UNL     1      32.644  -5.931  -1.498  1.00  0.00     0.093 A 
ATOM      7  C   UNL     1      33.804  -5.339  -0.985  1.00  0.00     0.136 A 
ATOM      8  C   UNL     1      33.816  -4.873   0.355  1.00  0.00     0.125 A 
ATOM      9  C   UNL     1      34.937  -4.278   0.956  1.00  0.00     0.078 A 
ATOM     10  C   UNL     1      34.873  -3.847   2.284  1.00  0.00     0.223 A 
ENDROOT
BRANCH   1  11
ATOM     11  C   UNL     1      33.516  -3.552   4.397  1.00  0.00     0.087 A 
ATOM     12  C   UNL     1      33.720  -4.433   5.474  1.00  0.00     0.022 A 
ATOM     13  C   UNL     1      33.594  -3.979   6.790  1.00  0.00     0.051 A 
ATOM     14  C   UNL     1      33.275  -2.641   7.049  1.00  0.00     0.157 A 
ATOM     15  C   UNL     1      33.216  -2.206   4.663  1.00  0.00     0.068 A 
ATOM     16  C   UNL     1      33.088  -1.751   5.983  1.00  0.00     0.158 A 
BRANCH  14  17
ATOM     17  O   UNL     1      33.147  -2.185   8.360  1.00  0.00    -0.504 OA
ATOM     18  H   UNL     1      33.952  -2.086   8.967  1.00  0.00     0.293 HD
ENDBRANCH  14  17
BRANCH  16  19
ATOM     19  O   UNL     1      32.778  -0.417   6.244  1.00  0.00    -0.504 OA
ATOM     20  H   UNL     1      32.748  -0.056   7.190  1.00  0.00     0.293 HD
ENDBRANCH  16  19
ENDBRANCH   1  11
BRANCH  10  21
ATOM     21  O   UNL     1      36.003  -3.301   2.898  1.00  0.00    -0.500 OA
ATOM     22  H   UNL     1      35.926  -2.601   3.627  1.00  0.00     0.294 HD
ENDBRANCH  10  21
BRANCH   5  23
ATOM     23  O   UNL     1      30.361  -6.663  -1.249  1.00  0.00    -0.507 OA
ATOM     24  H   UNL     1      30.091  -7.609  -1.005  1.00  0.00     0.293 HD
ENDBRANCH   5  23
BRANCH   7  25
ATOM     25  O   UNL     1      34.906  -5.237  -1.840  1.00  0.00    -0.507 OA
ATOM     26  H   UNL     1      34.933  -4.664  -2.671  1.00  0.00     0.293 HD
ENDBRANCH   7  25
TORSDOF 6
ENDMDL
