MODEL 1
REMARK VINA RESULT:    -4.097      0.000      0.000
REMARK INTER + INTRA:          -4.433
REMARK INTER:                  -4.337
REMARK INTRA:                  -0.097
REMARK UNBOUND:                -0.097
REMARK SMILES C=C(C)[C@H]1CC=C(C)C(=O)C1
REMARK SMILES IDX 8 1 7 2 6 3 5 4 4 5 11 6 9 7 10 8 2 9 1 10 3 11
REMARK H PARENT
REMARK Flexibility Score: inf
ROOT
ATOM      1  C   UNL     1      -5.246   9.106   0.380  1.00  0.00     0.048 C 
ATOM      2  C   UNL     1      -4.852   9.063   1.831  1.00  0.00    -0.012 C 
ATOM      3  C   UNL     1      -4.240  10.121   2.388  1.00  0.00    -0.019 C 
ATOM      4  C   UNL     1      -3.806  10.125   3.831  1.00  0.00     0.036 C 
ATOM      5  C   UNL     1      -4.768   9.291   4.700  1.00  0.00     0.025 C 
ATOM      6  C   UNL     1      -4.899   7.866   4.134  1.00  0.00     0.089 C 
ATOM      7  C   UNL     1      -5.251   7.907   2.672  1.00  0.00     0.158 C 
ATOM      8  O   UNL     1      -5.858   6.929   2.159  1.00  0.00    -0.295 OA
ENDROOT
BRANCH   5   9
ATOM      9  C   UNL     1      -4.328   9.273   6.158  1.00  0.00    -0.077 C 
ATOM     10  C   UNL     1      -3.055   8.988   6.473  1.00  0.00     0.008 C 
ATOM     11  C   UNL     1      -5.297   9.573   7.274  1.00  0.00     0.039 C 
ENDBRANCH   5   9
TORSDOF 1
ENDMDL
MODEL 2
REMARK VINA RESULT:    -3.949      1.402      2.057
REMARK INTER + INTRA:          -4.277
REMARK INTER:                  -4.184
REMARK INTRA:                  -0.093
REMARK UNBOUND:                -0.097
REMARK SMILES C=C(C)[C@H]1CC=C(C)C(=O)C1
REMARK SMILES IDX 8 1 7 2 6 3 5 4 4 5 11 6 9 7 10 8 2 9 1 10 3 11
REMARK H PARENT
REMARK Flexibility Score: inf
ROOT
ATOM      1  C   UNL     1      -5.537   7.723   0.888  1.00  0.00     0.048 C 
ATOM      2  C   UNL     1      -5.164   8.210   2.261  1.00  0.00    -0.012 C 
ATOM      3  C   UNL     1      -5.466   7.465   3.338  1.00  0.00    -0.019 C 
ATOM      4  C   UNL     1      -5.132   7.912   4.738  1.00  0.00     0.036 C 
ATOM      5  C   UNL     1      -3.834   8.742   4.759  1.00  0.00     0.025 C 
ATOM      6  C   UNL     1      -3.938   9.923   3.779  1.00  0.00     0.089 C 
ATOM      7  C   UNL     1      -4.355   9.444   2.414  1.00  0.00     0.158 C 
ATOM      8  O   UNL     1      -4.039  10.125   1.402  1.00  0.00    -0.295 OA
ENDROOT
BRANCH   5   9
ATOM      9  C   UNL     1      -3.498   9.214   6.167  1.00  0.00    -0.077 C 
ATOM     10  C   UNL     1      -2.270   9.681   6.445  1.00  0.00     0.008 C 
ATOM     11  C   UNL     1      -4.521   9.175   7.274  1.00  0.00     0.039 C 
ENDBRANCH   5   9
TORSDOF 1
ENDMDL
MODEL 3
REMARK VINA RESULT:    -3.867     11.556     12.311
REMARK INTER + INTRA:          -4.190
REMARK INTER:                  -4.096
REMARK INTRA:                  -0.094
REMARK UNBOUND:                -0.097
REMARK SMILES C=C(C)[C@H]1CC=C(C)C(=O)C1
REMARK SMILES IDX 8 1 7 2 6 3 5 4 4 5 11 6 9 7 10 8 2 9 1 10 3 11
REMARK H PARENT
REMARK Flexibility Score: inf
ROOT
ATOM      1  C   UNL     1       6.366   7.269  -5.271  1.00  0.00     0.048 C 
ATOM      2  C   UNL     1       6.156   7.700  -3.845  1.00  0.00    -0.012 C 
ATOM      3  C   UNL     1       6.815   7.074  -2.854  1.00  0.00    -0.019 C 
ATOM      4  C   UNL     1       6.628   7.451  -1.408  1.00  0.00     0.036 C 
ATOM      5  C   UNL     1       6.340   8.958  -1.262  1.00  0.00     0.025 C 
ATOM      6  C   UNL     1       5.133   9.358  -2.129  1.00  0.00     0.089 C 
ATOM      7  C   UNL     1       5.322   8.890  -3.547  1.00  0.00     0.158 C 
ATOM      8  O   UNL     1       4.732   9.501  -4.478  1.00  0.00    -0.295 OA
ENDROOT
BRANCH   5   9
ATOM      9  C   UNL     1       6.131   9.346   0.196  1.00  0.00    -0.077 C 
ATOM     10  C   UNL     1       7.073   9.063   1.109  1.00  0.00     0.008 C 
ATOM     11  C   UNL     1       4.878  10.053   0.649  1.00  0.00     0.039 C 
ENDBRANCH   5   9
TORSDOF 1
ENDMDL
MODEL 4
REMARK VINA RESULT:    -3.732     15.818     17.260
REMARK INTER + INTRA:          -4.047
REMARK INTER:                  -3.949
REMARK INTRA:                  -0.098
REMARK UNBOUND:                -0.097
REMARK SMILES C=C(C)[C@H]1CC=C(C)C(=O)C1
REMARK SMILES IDX 8 1 7 2 6 3 5 4 4 5 11 6 9 7 10 8 2 9 1 10 3 11
REMARK H PARENT
REMARK Flexibility Score: inf
ROOT
ATOM      1  C   UNL     1       5.639   4.904  -7.189  1.00  0.00     0.048 C 
ATOM      2  C   UNL     1       5.984   3.441  -7.128  1.00  0.00    -0.012 C 
ATOM      3  C   UNL     1       7.079   2.986  -7.763  1.00  0.00    -0.019 C 
ATOM      4  C   UNL     1       7.461   1.529  -7.751  1.00  0.00     0.036 C 
ATOM      5  C   UNL     1       7.048   0.859  -6.426  1.00  0.00     0.025 C 
ATOM      6  C   UNL     1       5.546   1.070  -6.166  1.00  0.00     0.089 C 
ATOM      7  C   UNL     1       5.190   2.529  -6.269  1.00  0.00     0.158 C 
ATOM      8  O   UNL     1       4.185   2.961  -5.644  1.00  0.00    -0.295 OA
ENDROOT
BRANCH   5   9
ATOM      9  C   UNL     1       7.414  -0.619  -6.411  1.00  0.00    -0.077 C 
ATOM     10  C   UNL     1       8.164  -1.136  -7.397  1.00  0.00     0.008 C 
ATOM     11  C   UNL     1       6.952  -1.532  -5.303  1.00  0.00     0.039 C 
ENDBRANCH   5   9
TORSDOF 1
ENDMDL
MODEL 5
REMARK VINA RESULT:    -3.679     11.823     13.224
REMARK INTER + INTRA:          -3.991
REMARK INTER:                  -3.893
REMARK INTRA:                  -0.099
REMARK UNBOUND:                -0.097
REMARK SMILES C=C(C)[C@H]1CC=C(C)C(=O)C1
REMARK SMILES IDX 8 1 7 2 6 3 5 4 4 5 11 6 9 7 10 8 2 9 1 10 3 11
REMARK H PARENT
REMARK Flexibility Score: inf
ROOT
ATOM      1  C   UNL     1       5.745   9.728   0.770  1.00  0.00     0.048 C 
ATOM      2  C   UNL     1       5.757   9.093  -0.593  1.00  0.00    -0.012 C 
ATOM      3  C   UNL     1       5.155   9.711  -1.624  1.00  0.00    -0.019 C 
ATOM      4  C   UNL     1       5.120   9.111  -3.005  1.00  0.00     0.036 C 
ATOM      5  C   UNL     1       6.392   8.288  -3.284  1.00  0.00     0.025 C 
ATOM      6  C   UNL     1       6.591   7.223  -2.191  1.00  0.00     0.089 C 
ATOM      7  C   UNL     1       6.536   7.851  -0.824  1.00  0.00     0.158 C 
ATOM      8  O   UNL     1       7.132   7.289   0.134  1.00  0.00    -0.295 OA
ENDROOT
BRANCH   5   9
ATOM      9  C   UNL     1       6.358   7.662  -4.671  1.00  0.00    -0.077 C 
ATOM     10  C   UNL     1       6.491   6.334  -4.814  1.00  0.00     0.008 C 
ATOM     11  C   UNL     1       6.173   8.504  -5.909  1.00  0.00     0.039 C 
ENDBRANCH   5   9
TORSDOF 1
ENDMDL
MODEL 6
REMARK VINA RESULT:    -3.613     15.763     17.261
REMARK INTER + INTRA:          -3.921
REMARK INTER:                  -3.834
REMARK INTRA:                  -0.087
REMARK UNBOUND:                -0.097
REMARK SMILES C=C(C)[C@H]1CC=C(C)C(=O)C1
REMARK SMILES IDX 8 1 7 2 6 3 5 4 4 5 11 6 9 7 10 8 2 9 1 10 3 11
REMARK H PARENT
REMARK Flexibility Score: inf
ROOT
ATOM      1  C   UNL     1       5.956   5.245  -7.357  1.00  0.00     0.048 C 
ATOM      2  C   UNL     1       6.103   3.798  -6.973  1.00  0.00    -0.012 C 
ATOM      3  C   UNL     1       5.084   3.159  -6.373  1.00  0.00    -0.019 C 
ATOM      4  C   UNL     1       5.184   1.716  -5.950  1.00  0.00     0.036 C 
ATOM      5  C   UNL     1       6.087   0.919  -6.912  1.00  0.00     0.025 C 
ATOM      6  C   UNL     1       7.468   1.589  -7.028  1.00  0.00     0.089 C 
ATOM      7  C   UNL     1       7.321   3.048  -7.369  1.00  0.00     0.158 C 
ATOM      8  O   UNL     1       8.263   3.637  -7.964  1.00  0.00    -0.295 OA
ENDROOT
BRANCH   5   9
ATOM      9  C   UNL     1       6.210  -0.537  -6.482  1.00  0.00    -0.077 C 
ATOM     10  C   UNL     1       5.601  -1.501  -7.191  1.00  0.00     0.008 C 
ATOM     11  C   UNL     1       7.009  -0.932  -5.266  1.00  0.00     0.039 C 
ENDBRANCH   5   9
TORSDOF 1
ENDMDL
MODEL 7
REMARK VINA RESULT:    -3.601     16.058     17.639
REMARK INTER + INTRA:          -3.908
REMARK INTER:                  -3.811
REMARK INTRA:                  -0.096
REMARK UNBOUND:                -0.097
REMARK SMILES C=C(C)[C@H]1CC=C(C)C(=O)C1
REMARK SMILES IDX 8 1 7 2 6 3 5 4 4 5 11 6 9 7 10 8 2 9 1 10 3 11
REMARK H PARENT
REMARK Flexibility Score: inf
ROOT
ATOM      1  C   UNL     1       4.695  -2.300  -8.885  1.00  0.00     0.048 C 
ATOM      2  C   UNL     1       5.209  -0.952  -8.464  1.00  0.00    -0.012 C 
ATOM      3  C   UNL     1       5.048   0.108  -9.274  1.00  0.00    -0.019 C 
ATOM      4  C   UNL     1       5.560   1.477  -8.911  1.00  0.00     0.036 C 
ATOM      5  C   UNL     1       5.505   1.702  -7.387  1.00  0.00     0.025 C 
ATOM      6  C   UNL     1       6.264   0.583  -6.654  1.00  0.00     0.089 C 
ATOM      7  C   UNL     1       5.780  -0.769  -7.106  1.00  0.00     0.158 C 
ATOM      8  O   UNL     1       5.899  -1.755  -6.330  1.00  0.00    -0.295 OA
ENDROOT
BRANCH   5   9
ATOM      9  C   UNL     1       6.038   3.077  -7.008  1.00  0.00    -0.077 C 
ATOM     10  C   UNL     1       7.313   3.402  -7.275  1.00  0.00     0.008 C 
ATOM     11  C   UNL     1       5.160   4.101  -6.332  1.00  0.00     0.039 C 
ENDBRANCH   5   9
TORSDOF 1
ENDMDL
MODEL 8
REMARK VINA RESULT:    -3.591     16.097     17.581
REMARK INTER + INTRA:          -3.898
REMARK INTER:                  -3.801
REMARK INTRA:                  -0.097
REMARK UNBOUND:                -0.097
REMARK SMILES C=C(C)[C@H]1CC=C(C)C(=O)C1
REMARK SMILES IDX 8 1 7 2 6 3 5 4 4 5 11 6 9 7 10 8 2 9 1 10 3 11
REMARK H PARENT
REMARK Flexibility Score: inf
ROOT
ATOM      1  C   UNL     1       8.062  -1.487  -8.572  1.00  0.00     0.048 C 
ATOM      2  C   UNL     1       7.456  -0.269  -7.932  1.00  0.00    -0.012 C 
ATOM      3  C   UNL     1       7.583   0.931  -8.525  1.00  0.00    -0.019 C 
ATOM      4  C   UNL     1       7.013   2.186  -7.918  1.00  0.00     0.036 C 
ATOM      5  C   UNL     1       5.717   1.885  -7.140  1.00  0.00     0.025 C 
ATOM      6  C   UNL     1       5.968   0.792  -6.087  1.00  0.00     0.089 C 
ATOM      7  C   UNL     1       6.615  -0.412  -6.718  1.00  0.00     0.158 C 
ATOM      8  O   UNL     1       6.464  -1.542  -6.180  1.00  0.00    -0.295 OA
ENDROOT
BRANCH   5   9
ATOM      9  C   UNL     1       5.142   3.145  -6.508  1.00  0.00    -0.077 C 
ATOM     10  C   UNL     1       4.118   3.058  -5.644  1.00  0.00     0.008 C 
ATOM     11  C   UNL     1       5.700   4.510  -6.827  1.00  0.00     0.039 C 
ENDBRANCH   5   9
TORSDOF 1
ENDMDL
MODEL 9
REMARK VINA RESULT:    -3.514     16.309     17.867
REMARK INTER + INTRA:          -3.816
REMARK INTER:                  -3.718
REMARK INTRA:                  -0.098
REMARK UNBOUND:                -0.097
REMARK SMILES C=C(C)[C@H]1CC=C(C)C(=O)C1
REMARK SMILES IDX 8 1 7 2 6 3 5 4 4 5 11 6 9 7 10 8 2 9 1 10 3 11
REMARK H PARENT
REMARK Flexibility Score: inf
ROOT
ATOM      1  C   UNL     1       6.821  -1.790  -5.536  1.00  0.00     0.048 C 
ATOM      2  C   UNL     1       6.254  -0.629  -6.307  1.00  0.00    -0.012 C 
ATOM      3  C   UNL     1       6.048   0.546  -5.688  1.00  0.00    -0.019 C 
ATOM      4  C   UNL     1       5.465   1.735  -6.406  1.00  0.00     0.036 C 
ATOM      5  C   UNL     1       5.889   1.749  -7.887  1.00  0.00     0.025 C 
ATOM      6  C   UNL     1       5.514   0.419  -8.564  1.00  0.00     0.089 C 
ATOM      7  C   UNL     1       6.043  -0.746  -7.771  1.00  0.00     0.158 C 
ATOM      8  O   UNL     1       6.270  -1.836  -8.359  1.00  0.00    -0.295 OA
ENDROOT
BRANCH   5   9
ATOM      9  C   UNL     1       5.290   2.938  -8.627  1.00  0.00    -0.077 C 
ATOM     10  C   UNL     1       4.300   3.651  -8.066  1.00  0.00     0.008 C 
ATOM     11  C   UNL     1       5.786   3.346  -9.992  1.00  0.00     0.039 C 
ENDBRANCH   5   9
TORSDOF 1
ENDMDL
