MODEL 1
REMARK VINA RESULT:    -4.358      0.000      0.000
REMARK INTER + INTRA:          -8.491
REMARK INTER:                  -7.415
REMARK INTRA:                  -1.076
REMARK UNBOUND:                -1.076
REMARK SMILES CCCCCCCCCCCCCC(=O)[O-]
REMARK SMILES IDX 8 1 9 2 10 3 11 4 12 5 13 6 14 7 15 8 16 9 7 10 6 11 5 12
REMARK SMILES IDX 4 13 3 14 2 15 1 16
REMARK H PARENT
REMARK Flexibility Score: inf
ROOT
ATOM      1  C   UNL     1      -5.397  -3.115   6.515  1.00  0.00     0.000 C 
ENDROOT
BRANCH   1   2
ATOM      2  C   UNL     1      -3.972  -2.614   6.810  1.00  0.00     0.000 C 
BRANCH   2   3
ATOM      3  C   UNL     1      -3.736  -2.352   8.305  1.00  0.00     0.000 C 
BRANCH   3   4
ATOM      4  C   UNL     1      -3.884  -0.869   8.679  1.00  0.00     0.000 C 
BRANCH   4   5
ATOM      5  C   UNL     1      -3.254   0.031   7.609  1.00  0.00     0.006 C 
BRANCH   5   6
ATOM      6  C   UNL     1      -2.575   1.249   8.245  1.00  0.00     0.053 C 
BRANCH   6   7
ATOM      7  C   UNL     1      -3.314   2.501   7.895  1.00  0.00     0.041 C 
ATOM      8  O   UNL     1      -4.001   2.558   6.841  1.00  0.00    -0.550 OA
ATOM      9  O   UNL     1      -3.204   3.623   8.706  1.00  0.00    -0.550 OA
ENDBRANCH   6   7
ENDBRANCH   5   6
ENDBRANCH   4   5
ENDBRANCH   3   4
ENDBRANCH   2   3
ENDBRANCH   1   2
BRANCH   1  10
ATOM     10  C   UNL     1      -5.497  -3.880   5.182  1.00  0.00     0.000 C 
BRANCH  10  11
ATOM     11  C   UNL     1      -6.921  -4.006   4.606  1.00  0.00    -0.000 C 
BRANCH  11  12
ATOM     12  C   UNL     1      -7.709  -2.684   4.506  1.00  0.00    -0.000 C 
BRANCH  12  13
ATOM     13  C   UNL     1      -7.458  -1.873   3.222  1.00  0.00    -0.000 C 
BRANCH  13  14
ATOM     14  C   UNL     1      -7.059  -0.417   3.505  1.00  0.00    -0.000 C 
BRANCH  14  15
ATOM     15  C   UNL     1      -6.632  -0.238   4.966  1.00  0.00    -0.003 C 
ATOM     16  C   UNL     1      -6.927   1.175   5.457  1.00  0.00     0.004 C 
ENDBRANCH  14  15
ENDBRANCH  13  14
ENDBRANCH  12  13
ENDBRANCH  11  12
ENDBRANCH  10  11
ENDBRANCH   1  10
TORSDOF 12
ENDMDL
MODEL 2
REMARK VINA RESULT:    -4.259      1.058      1.958
REMARK INTER + INTRA:          -8.322
REMARK INTER:                  -6.503
REMARK INTRA:                  -1.819
REMARK UNBOUND:                -1.076
REMARK SMILES CCCCCCCCCCCCCC(=O)[O-]
REMARK SMILES IDX 8 1 9 2 10 3 11 4 12 5 13 6 14 7 15 8 16 9 7 10 6 11 5 12
REMARK SMILES IDX 4 13 3 14 2 15 1 16
REMARK H PARENT
REMARK Flexibility Score: inf
ROOT
ATOM      1  C   UNL     1      -6.024  -3.618   4.895  1.00  0.00     0.000 C 
ENDROOT
BRANCH   1   2
ATOM      2  C   UNL     1      -5.643  -3.310   6.354  1.00  0.00     0.000 C 
BRANCH   2   3
ATOM      3  C   UNL     1      -4.279  -2.612   6.472  1.00  0.00     0.000 C 
BRANCH   3   4
ATOM      4  C   UNL     1      -3.855  -2.381   7.932  1.00  0.00     0.000 C 
BRANCH   4   5
ATOM      5  C   UNL     1      -3.889  -0.889   8.282  1.00  0.00     0.006 C 
BRANCH   5   6
ATOM      6  C   UNL     1      -3.362  -0.039   7.121  1.00  0.00     0.053 C 
BRANCH   6   7
ATOM      7  C   UNL     1      -2.975   1.323   7.602  1.00  0.00     0.041 C 
ATOM      8  O   UNL     1      -2.079   1.455   8.477  1.00  0.00    -0.550 OA
ATOM      9  O   UNL     1      -3.637   2.445   7.120  1.00  0.00    -0.550 OA
ENDBRANCH   6   7
ENDBRANCH   5   6
ENDBRANCH   4   5
ENDBRANCH   3   4
ENDBRANCH   2   3
ENDBRANCH   1   2
BRANCH   1  10
ATOM     10  C   UNL     1      -7.491  -3.279   4.576  1.00  0.00     0.000 C 
BRANCH  10  11
ATOM     11  C   UNL     1      -7.729  -2.635   3.197  1.00  0.00    -0.000 C 
BRANCH  11  12
ATOM     12  C   UNL     1      -7.351  -1.143   3.093  1.00  0.00    -0.000 C 
BRANCH  12  13
ATOM     13  C   UNL     1      -7.705  -0.297   4.329  1.00  0.00    -0.000 C 
BRANCH  13  14
ATOM     14  C   UNL     1      -6.469   0.306   5.013  1.00  0.00    -0.000 C 
BRANCH  14  15
ATOM     15  C   UNL     1      -6.812   0.811   6.420  1.00  0.00    -0.003 C 
ATOM     16  C   UNL     1      -7.480  -0.281   7.249  1.00  0.00     0.004 C 
ENDBRANCH  14  15
ENDBRANCH  13  14
ENDBRANCH  12  13
ENDBRANCH  11  12
ENDBRANCH  10  11
ENDBRANCH   1  10
TORSDOF 12
ENDMDL
MODEL 3
REMARK VINA RESULT:    -4.221      1.227      3.628
REMARK INTER + INTRA:          -8.257
REMARK INTER:                  -6.621
REMARK INTRA:                  -1.636
REMARK UNBOUND:                -1.076
REMARK SMILES CCCCCCCCCCCCCC(=O)[O-]
REMARK SMILES IDX 8 1 9 2 10 3 11 4 12 5 13 6 14 7 15 8 16 9 7 10 6 11 5 12
REMARK SMILES IDX 4 13 3 14 2 15 1 16
REMARK H PARENT
REMARK Flexibility Score: inf
ROOT
ATOM      1  C   UNL     1      -7.068  -0.936   3.546  1.00  0.00     0.000 C 
ENDROOT
BRANCH   1   2
ATOM      2  C   UNL     1      -7.029   0.497   4.106  1.00  0.00     0.000 C 
BRANCH   2   3
ATOM      3  C   UNL     1      -6.053   0.645   5.283  1.00  0.00     0.000 C 
BRANCH   3   4
ATOM      4  C   UNL     1      -6.693   1.328   6.503  1.00  0.00     0.000 C 
BRANCH   4   5
ATOM      5  C   UNL     1      -5.620   1.803   7.490  1.00  0.00     0.006 C 
BRANCH   5   6
ATOM      6  C   UNL     1      -4.217   1.644   6.895  1.00  0.00     0.053 C 
BRANCH   6   7
ATOM      7  C   UNL     1      -3.179   2.099   7.871  1.00  0.00     0.041 C 
ATOM      8  O   UNL     1      -2.215   1.346   8.168  1.00  0.00    -0.550 OA
ATOM      9  O   UNL     1      -3.303   3.336   8.492  1.00  0.00    -0.550 OA
ENDBRANCH   6   7
ENDBRANCH   5   6
ENDBRANCH   4   5
ENDBRANCH   3   4
ENDBRANCH   2   3
ENDBRANCH   1   2
BRANCH   1  10
ATOM     10  C   UNL     1      -7.164  -2.005   4.650  1.00  0.00     0.000 C 
BRANCH  10  11
ATOM     11  C   UNL     1      -6.314  -3.269   4.413  1.00  0.00    -0.000 C 
BRANCH  11  12
ATOM     12  C   UNL     1      -5.389  -3.667   5.581  1.00  0.00    -0.000 C 
BRANCH  12  13
ATOM     13  C   UNL     1      -5.318  -2.645   6.730  1.00  0.00    -0.000 C 
BRANCH  13  14
ATOM     14  C   UNL     1      -3.877  -2.254   7.092  1.00  0.00    -0.000 C 
BRANCH  14  15
ATOM     15  C   UNL     1      -3.778  -1.824   8.560  1.00  0.00    -0.003 C 
ATOM     16  C   UNL     1      -5.159  -1.571   9.155  1.00  0.00     0.004 C 
ENDBRANCH  14  15
ENDBRANCH  13  14
ENDBRANCH  12  13
ENDBRANCH  11  12
ENDBRANCH  10  11
ENDBRANCH   1  10
TORSDOF 12
ENDMDL
MODEL 4
REMARK VINA RESULT:    -4.172      1.413      2.023
REMARK INTER + INTRA:          -8.175
REMARK INTER:                  -6.746
REMARK INTRA:                  -1.428
REMARK UNBOUND:                -1.076
REMARK SMILES CCCCCCCCCCCCCC(=O)[O-]
REMARK SMILES IDX 8 1 9 2 10 3 11 4 12 5 13 6 14 7 15 8 16 9 7 10 6 11 5 12
REMARK SMILES IDX 4 13 3 14 2 15 1 16
REMARK H PARENT
REMARK Flexibility Score: inf
ROOT
ATOM      1  C   UNL     1      -5.797  -2.692   7.264  1.00  0.00     0.000 C 
ENDROOT
BRANCH   1   2
ATOM      2  C   UNL     1      -5.484  -1.333   7.914  1.00  0.00     0.000 C 
BRANCH   2   3
ATOM      3  C   UNL     1      -5.810  -0.149   6.992  1.00  0.00     0.000 C 
BRANCH   3   4
ATOM      4  C   UNL     1      -4.568   0.681   6.628  1.00  0.00     0.000 C 
BRANCH   4   5
ATOM      5  C   UNL     1      -3.326   0.157   7.358  1.00  0.00     0.006 C 
BRANCH   5   6
ATOM      6  C   UNL     1      -2.457   1.312   7.866  1.00  0.00     0.053 C 
BRANCH   6   7
ATOM      7  C   UNL     1      -2.931   1.772   9.208  1.00  0.00     0.041 C 
ATOM      8  O   UNL     1      -2.725   2.958   9.580  1.00  0.00    -0.550 OA
ATOM      9  O   UNL     1      -3.555   0.879  10.069  1.00  0.00    -0.550 OA
ENDBRANCH   6   7
ENDBRANCH   5   6
ENDBRANCH   4   5
ENDBRANCH   3   4
ENDBRANCH   2   3
ENDBRANCH   1   2
BRANCH   1  10
ATOM     10  C   UNL     1      -4.728  -3.127   6.245  1.00  0.00     0.000 C 
BRANCH  10  11
ATOM     11  C   UNL     1      -5.269  -3.855   4.999  1.00  0.00    -0.000 C 
BRANCH  11  12
ATOM     12  C   UNL     1      -6.805  -3.896   4.877  1.00  0.00    -0.000 C 
BRANCH  12  13
ATOM     13  C   UNL     1      -7.392  -3.018   3.757  1.00  0.00    -0.000 C 
BRANCH  13  14
ATOM     14  C   UNL     1      -7.483  -1.535   4.147  1.00  0.00    -0.000 C 
BRANCH  14  15
ATOM     15  C   UNL     1      -7.186  -0.632   2.945  1.00  0.00    -0.003 C 
ATOM     16  C   UNL     1      -6.973   0.814   3.382  1.00  0.00     0.004 C 
ENDBRANCH  14  15
ENDBRANCH  13  14
ENDBRANCH  12  13
ENDBRANCH  11  12
ENDBRANCH  10  11
ENDBRANCH   1  10
TORSDOF 12
ENDMDL
MODEL 5
REMARK VINA RESULT:    -4.132      2.102      5.333
REMARK INTER + INTRA:          -8.106
REMARK INTER:                  -7.355
REMARK INTRA:                  -0.751
REMARK UNBOUND:                -1.076
REMARK SMILES CCCCCCCCCCCCCC(=O)[O-]
REMARK SMILES IDX 8 1 9 2 10 3 11 4 12 5 13 6 14 7 15 8 16 9 7 10 6 11 5 12
REMARK SMILES IDX 4 13 3 14 2 15 1 16
REMARK H PARENT
REMARK Flexibility Score: inf
ROOT
ATOM      1  C   UNL     1      -5.466  -3.400   6.391  1.00  0.00     0.000 C 
ENDROOT
BRANCH   1   2
ATOM      2  C   UNL     1      -5.617  -3.680   4.885  1.00  0.00     0.000 C 
BRANCH   2   3
ATOM      3  C   UNL     1      -7.059  -4.038   4.493  1.00  0.00     0.000 C 
BRANCH   3   4
ATOM      4  C   UNL     1      -7.746  -2.929   3.679  1.00  0.00     0.000 C 
BRANCH   4   5
ATOM      5  C   UNL     1      -6.961  -1.615   3.772  1.00  0.00     0.006 C 
BRANCH   5   6
ATOM      6  C   UNL     1      -7.388  -0.640   2.670  1.00  0.00     0.053 C 
BRANCH   6   7
ATOM      7  C   UNL     1      -7.071   0.767   3.064  1.00  0.00     0.041 C 
ATOM      8  O   UNL     1      -6.625   1.018   4.214  1.00  0.00    -0.550 OA
ATOM      9  O   UNL     1      -7.313   1.809   2.178  1.00  0.00    -0.550 OA
ENDBRANCH   6   7
ENDBRANCH   5   6
ENDBRANCH   4   5
ENDBRANCH   3   4
ENDBRANCH   2   3
ENDBRANCH   1   2
BRANCH   1  10
ATOM     10  C   UNL     1      -4.151  -2.677   6.735  1.00  0.00     0.000 C 
BRANCH  10  11
ATOM     11  C   UNL     1      -3.996  -2.270   8.213  1.00  0.00    -0.000 C 
BRANCH  11  12
ATOM     12  C   UNL     1      -3.696  -0.776   8.455  1.00  0.00    -0.000 C 
BRANCH  12  13
ATOM     13  C   UNL     1      -3.331   0.026   7.193  1.00  0.00    -0.000 C 
BRANCH  13  14
ATOM     14  C   UNL     1      -4.336   1.146   6.886  1.00  0.00    -0.000 C 
BRANCH  14  15
ATOM     15  C   UNL     1      -4.585   2.014   8.125  1.00  0.00    -0.003 C 
ATOM     16  C   UNL     1      -3.439   2.996   8.349  1.00  0.00     0.004 C 
ENDBRANCH  14  15
ENDBRANCH  13  14
ENDBRANCH  12  13
ENDBRANCH  11  12
ENDBRANCH  10  11
ENDBRANCH   1  10
TORSDOF 12
ENDMDL
MODEL 6
REMARK VINA RESULT:    -4.098      2.457      5.229
REMARK INTER + INTRA:          -8.048
REMARK INTER:                  -6.759
REMARK INTRA:                  -1.288
REMARK UNBOUND:                -1.076
REMARK SMILES CCCCCCCCCCCCCC(=O)[O-]
REMARK SMILES IDX 8 1 9 2 10 3 11 4 12 5 13 6 14 7 15 8 16 9 7 10 6 11 5 12
REMARK SMILES IDX 4 13 3 14 2 15 1 16
REMARK H PARENT
REMARK Flexibility Score: inf
ROOT
ATOM      1  C   UNL     1      -3.092   0.645   7.907  1.00  0.00     0.000 C 
ENDROOT
BRANCH   1   2
ATOM      2  C   UNL     1      -3.908   1.822   7.343  1.00  0.00     0.000 C 
BRANCH   2   3
ATOM      3  C   UNL     1      -4.873   1.390   6.229  1.00  0.00     0.000 C 
BRANCH   3   4
ATOM      4  C   UNL     1      -6.349   1.505   6.644  1.00  0.00     0.000 C 
BRANCH   4   5
ATOM      5  C   UNL     1      -7.271   1.394   5.424  1.00  0.00     0.006 C 
BRANCH   5   6
ATOM      6  C   UNL     1      -7.072   0.056   4.705  1.00  0.00     0.053 C 
BRANCH   6   7
ATOM      7  C   UNL     1      -7.007   0.262   3.225  1.00  0.00     0.041 C 
ATOM      8  O   UNL     1      -6.992   1.427   2.747  1.00  0.00    -0.550 OA
ATOM      9  O   UNL     1      -7.011  -0.833   2.369  1.00  0.00    -0.550 OA
ENDBRANCH   6   7
ENDBRANCH   5   6
ENDBRANCH   4   5
ENDBRANCH   3   4
ENDBRANCH   2   3
ENDBRANCH   1   2
BRANCH   1  10
ATOM     10  C   UNL     1      -3.944  -0.325   8.745  1.00  0.00     0.000 C 
BRANCH  10  11
ATOM     11  C   UNL     1      -3.618  -1.818   8.550  1.00  0.00    -0.000 C 
BRANCH  11  12
ATOM     12  C   UNL     1      -3.932  -2.383   7.150  1.00  0.00    -0.000 C 
BRANCH  12  13
ATOM     13  C   UNL     1      -5.416  -2.321   6.744  1.00  0.00    -0.000 C 
BRANCH  13  14
ATOM     14  C   UNL     1      -6.166  -3.632   7.022  1.00  0.00    -0.000 C 
BRANCH  14  15
ATOM     15  C   UNL     1      -6.801  -4.184   5.740  1.00  0.00    -0.003 C 
ATOM     16  C   UNL     1      -6.094  -3.647   4.500  1.00  0.00     0.004 C 
ENDBRANCH  14  15
ENDBRANCH  13  14
ENDBRANCH  12  13
ENDBRANCH  11  12
ENDBRANCH  10  11
ENDBRANCH   1  10
TORSDOF 12
ENDMDL
MODEL 7
REMARK VINA RESULT:    -3.999      1.221      3.027
REMARK INTER + INTRA:          -7.880
REMARK INTER:                  -6.664
REMARK INTRA:                  -1.216
REMARK UNBOUND:                -1.076
REMARK SMILES CCCCCCCCCCCCCC(=O)[O-]
REMARK SMILES IDX 8 1 9 2 10 3 11 4 12 5 13 6 14 7 15 8 16 9 7 10 6 11 5 12
REMARK SMILES IDX 4 13 3 14 2 15 1 16
REMARK H PARENT
REMARK Flexibility Score: inf
ROOT
ATOM      1  C   UNL     1      -6.356   0.966   5.010  1.00  0.00     0.000 C 
ENDROOT
BRANCH   1   2
ATOM      2  C   UNL     1      -5.655   0.995   6.379  1.00  0.00     0.000 C 
BRANCH   2   3
ATOM      3  C   UNL     1      -4.803  -0.258   6.632  1.00  0.00     0.000 C 
BRANCH   3   4
ATOM      4  C   UNL     1      -3.765  -0.056   7.748  1.00  0.00     0.000 C 
BRANCH   4   5
ATOM      5  C   UNL     1      -2.906   1.185   7.480  1.00  0.00     0.006 C 
BRANCH   5   6
ATOM      6  C   UNL     1      -2.581   1.921   8.784  1.00  0.00     0.053 C 
BRANCH   6   7
ATOM      7  C   UNL     1      -3.460   3.120   8.942  1.00  0.00     0.041 C 
ATOM      8  O   UNL     1      -2.956   4.274   8.982  1.00  0.00    -0.550 OA
ATOM      9  O   UNL     1      -4.831   2.962   9.094  1.00  0.00    -0.550 OA
ENDBRANCH   6   7
ENDBRANCH   5   6
ENDBRANCH   4   5
ENDBRANCH   3   4
ENDBRANCH   2   3
ENDBRANCH   1   2
BRANCH   1  10
ATOM     10  C   UNL     1      -7.186  -0.312   4.791  1.00  0.00     0.000 C 
BRANCH  10  11
ATOM     11  C   UNL     1      -7.051  -0.949   3.394  1.00  0.00    -0.000 C 
BRANCH  11  12
ATOM     12  C   UNL     1      -7.653  -2.362   3.255  1.00  0.00    -0.000 C 
BRANCH  12  13
ATOM     13  C   UNL     1      -7.302  -3.333   4.397  1.00  0.00    -0.000 C 
BRANCH  13  14
ATOM     14  C   UNL     1      -5.814  -3.712   4.421  1.00  0.00    -0.000 C 
BRANCH  14  15
ATOM     15  C   UNL     1      -5.260  -3.670   5.850  1.00  0.00    -0.003 C 
ATOM     16  C   UNL     1      -6.386  -3.676   6.878  1.00  0.00     0.004 C 
ENDBRANCH  14  15
ENDBRANCH  13  14
ENDBRANCH  12  13
ENDBRANCH  11  12
ENDBRANCH  10  11
ENDBRANCH   1  10
TORSDOF 12
ENDMDL
MODEL 8
REMARK VINA RESULT:    -3.974      2.058      4.633
REMARK INTER + INTRA:          -7.837
REMARK INTER:                  -6.336
REMARK INTRA:                  -1.502
REMARK UNBOUND:                -1.076
REMARK SMILES CCCCCCCCCCCCCC(=O)[O-]
REMARK SMILES IDX 8 1 9 2 10 3 11 4 12 5 13 6 14 7 15 8 16 9 7 10 6 11 5 12
REMARK SMILES IDX 4 13 3 14 2 15 1 16
REMARK H PARENT
REMARK Flexibility Score: inf
ROOT
ATOM      1  C   UNL     1      -6.669  -1.404   3.630  1.00  0.00     0.000 C 
ENDROOT
BRANCH   1   2
ATOM      2  C   UNL     1      -7.539  -2.673   3.681  1.00  0.00     0.000 C 
BRANCH   2   3
ATOM      3  C   UNL     1      -7.129  -3.624   4.817  1.00  0.00     0.000 C 
BRANCH   3   4
ATOM      4  C   UNL     1      -5.639  -3.511   5.178  1.00  0.00     0.000 C 
BRANCH   4   5
ATOM      5  C   UNL     1      -5.456  -3.260   6.679  1.00  0.00     0.006 C 
BRANCH   5   6
ATOM      6  C   UNL     1      -4.350  -2.231   6.934  1.00  0.00     0.053 C 
BRANCH   6   7
ATOM      7  C   UNL     1      -4.124  -2.057   8.402  1.00  0.00     0.041 C 
ATOM      8  O   UNL     1      -4.625  -1.072   9.007  1.00  0.00    -0.550 OA
ATOM      9  O   UNL     1      -3.321  -2.955   9.093  1.00  0.00    -0.550 OA
ENDBRANCH   6   7
ENDBRANCH   5   6
ENDBRANCH   4   5
ENDBRANCH   3   4
ENDBRANCH   2   3
ENDBRANCH   1   2
BRANCH   1  10
ATOM     10  C   UNL     1      -7.502  -0.116   3.501  1.00  0.00     0.000 C 
BRANCH  10  11
ATOM     11  C   UNL     1      -7.577   0.745   4.778  1.00  0.00    -0.000 C 
BRANCH  11  12
ATOM     12  C   UNL     1      -6.784   0.203   5.984  1.00  0.00    -0.000 C 
BRANCH  12  13
ATOM     13  C   UNL     1      -6.047   1.272   6.811  1.00  0.00    -0.000 C 
BRANCH  13  14
ATOM     14  C   UNL     1      -4.578   1.441   6.394  1.00  0.00    -0.000 C 
BRANCH  14  15
ATOM     15  C   UNL     1      -3.769   2.127   7.500  1.00  0.00    -0.003 C 
ATOM     16  C   UNL     1      -2.516   1.328   7.843  1.00  0.00     0.004 C 
ENDBRANCH  14  15
ENDBRANCH  13  14
ENDBRANCH  12  13
ENDBRANCH  11  12
ENDBRANCH  10  11
ENDBRANCH   1  10
TORSDOF 12
ENDMDL
MODEL 9
REMARK VINA RESULT:    -3.905      2.769      5.729
REMARK INTER + INTRA:          -7.720
REMARK INTER:                  -5.793
REMARK INTRA:                  -1.928
REMARK UNBOUND:                -1.076
REMARK SMILES CCCCCCCCCCCCCC(=O)[O-]
REMARK SMILES IDX 8 1 9 2 10 3 11 4 12 5 13 6 14 7 15 8 16 9 7 10 6 11 5 12
REMARK SMILES IDX 4 13 3 14 2 15 1 16
REMARK H PARENT
REMARK Flexibility Score: inf
ROOT
ATOM      1  C   UNL     1      -2.561   1.115   7.458  1.00  0.00     0.000 C 
ENDROOT
BRANCH   1   2
ATOM      2  C   UNL     1      -3.478  -0.106   7.268  1.00  0.00     0.000 C 
BRANCH   2   3
ATOM      3  C   UNL     1      -3.610  -0.950   8.545  1.00  0.00     0.000 C 
BRANCH   3   4
ATOM      4  C   UNL     1      -4.411  -2.243   8.323  1.00  0.00     0.000 C 
BRANCH   4   5
ATOM      5  C   UNL     1      -4.446  -2.617   6.836  1.00  0.00     0.006 C 
BRANCH   5   6
ATOM      6  C   UNL     1      -5.763  -3.310   6.474  1.00  0.00     0.053 C 
BRANCH   6   7
ATOM      7  C   UNL     1      -6.168  -2.968   5.076  1.00  0.00     0.041 C 
ATOM      8  O   UNL     1      -6.338  -1.765   4.742  1.00  0.00    -0.550 OA
ATOM      9  O   UNL     1      -6.406  -3.978   4.153  1.00  0.00    -0.550 OA
ENDBRANCH   6   7
ENDBRANCH   5   6
ENDBRANCH   4   5
ENDBRANCH   3   4
ENDBRANCH   2   3
ENDBRANCH   1   2
BRANCH   1  10
ATOM     10  C   UNL     1      -2.593   1.668   8.895  1.00  0.00     0.000 C 
BRANCH  10  11
ATOM     11  C   UNL     1      -3.627   2.784   9.144  1.00  0.00    -0.000 C 
BRANCH  11  12
ATOM     12  C   UNL     1      -4.936   2.328   9.820  1.00  0.00    -0.000 C 
BRANCH  12  13
ATOM     13  C   UNL     1      -6.160   2.264   8.888  1.00  0.00    -0.000 C 
BRANCH  13  14
ATOM     14  C   UNL     1      -6.829   0.882   8.876  1.00  0.00    -0.000 C 
BRANCH  14  15
ATOM     15  C   UNL     1      -7.034   0.384   7.441  1.00  0.00    -0.003 C 
ATOM     16  C   UNL     1      -6.720   1.479   6.427  1.00  0.00     0.004 C 
ENDBRANCH  14  15
ENDBRANCH  13  14
ENDBRANCH  12  13
ENDBRANCH  11  12
ENDBRANCH  10  11
ENDBRANCH   1  10
TORSDOF 12
ENDMDL
