MODEL 1
REMARK VINA RESULT:    -5.663      0.000      0.000
REMARK INTER + INTRA:          -8.662
REMARK INTER:                  -7.650
REMARK INTRA:                  -1.012
REMARK UNBOUND:                -1.012
REMARK SMILES O=c1c(-c2ccc(O)cc2)coc2c([C@H]3O[C@H](CO)[C@H](O)[C@H](O)[C@H]3O)c(O)ccc12
REMARK SMILES IDX 3 1 11 2 12 3 13 4 30 5 2 6 1 7 29 8 28 9 26 10 14 11 4 12
REMARK SMILES IDX 5 13 6 14 7 15 10 16 9 17 8 18 15 20 24 21 16 22 22 23 17 24
REMARK SMILES IDX 20 25 25 26 23 28 18 30 19 31 21 33 27 35
REMARK H PARENT 8 19 25 27 23 29 19 32 21 34 27 36
REMARK Flexibility Score: inf
ROOT
ATOM      1  C   UNL     1     113.118 120.329 129.947  1.00  0.00     0.065 A 
ATOM      2  C   UNL     1     113.908 121.418 129.387  1.00  0.00     0.208 A 
ATOM      3  O   UNL     1     115.158 121.254 129.045  1.00  0.00    -0.463 OA
ATOM      4  C   UNL     1     115.652 120.017 128.921  1.00  0.00     0.147 A 
ATOM      5  C   UNL     1     114.918 118.958 129.551  1.00  0.00     0.066 A 
ATOM      6  C   UNL     1     114.022 119.391 130.504  1.00  0.00     0.200 A 
ATOM      7  O   UNL     1     113.881 118.693 131.536  1.00  0.00    -0.288 OA
ATOM      8  C   UNL     1     114.107 118.213 128.570  1.00  0.00     0.020 A 
ATOM      9  C   UNL     1     113.950 118.751 127.263  1.00  0.00     0.047 A 
ATOM     10  C   UNL     1     114.810 119.794 126.888  1.00  0.00     0.125 A 
ATOM     11  C   UNL     1     116.051 119.724 127.590  1.00  0.00     0.069 A 
ENDROOT
BRANCH   1  12
ATOM     12  C   UNL     1     111.708 119.963 129.418  1.00  0.00    -0.011 A 
ATOM     13  C   UNL     1     111.242 120.329 128.127  1.00  0.00     0.013 A 
ATOM     14  C   UNL     1     109.975 120.053 127.719  1.00  0.00     0.047 A 
ATOM     15  C   UNL     1     109.051 119.904 128.830  1.00  0.00     0.115 A 
ATOM     16  C   UNL     1     110.876 119.102 130.165  1.00  0.00     0.013 A 
ATOM     17  C   UNL     1     109.477 119.084 129.845  1.00  0.00     0.047 A 
BRANCH  15  18
ATOM     18  O   UNL     1     108.230 121.042 129.183  1.00  0.00    -0.508 OA
ATOM     19  H   UNL     1     108.535 122.009 128.826  1.00  0.00     0.293 HD
ENDBRANCH  15  18
ENDBRANCH   1  12
BRANCH  11  20
ATOM     20  C   UNL     1     116.741 118.388 127.282  1.00  0.00     0.188 C 
ATOM     21  C   UNL     1     118.103 118.046 127.858  1.00  0.00     0.179 C 
ATOM     22  O   UNL     1     116.876 118.145 125.895  1.00  0.00    -0.362 OA
ATOM     23  C   UNL     1     119.215 118.937 127.211  1.00  0.00     0.177 C 
ATOM     24  C   UNL     1     117.687 119.126 125.231  1.00  0.00     0.176 C 
ATOM     25  C   UNL     1     119.102 118.836 125.607  1.00  0.00     0.177 C 
BRANCH  21  26
ATOM     26  O   UNL     1     118.074 118.138 129.261  1.00  0.00    -0.387 OA
ATOM     27  H   UNL     1     118.918 118.637 129.566  1.00  0.00     0.211 HD
ENDBRANCH  21  26
BRANCH  23  28
ATOM     28  O   UNL     1     120.496 118.534 127.624  1.00  0.00    -0.387 OA
ATOM     29  H   UNL     1     121.054 118.547 126.820  1.00  0.00     0.211 HD
ENDBRANCH  23  28
BRANCH  24  30
ATOM     30  C   UNL     1     117.248 119.072 123.722  1.00  0.00     0.191 C 
BRANCH  30  31
ATOM     31  O   UNL     1     115.843 119.102 123.598  1.00  0.00    -0.394 OA
ATOM     32  H   UNL     1     115.566 118.445 124.275  1.00  0.00     0.210 HD
ENDBRANCH  30  31
ENDBRANCH  24  30
BRANCH  25  33
ATOM     33  O   UNL     1     119.425 117.532 125.128  1.00  0.00    -0.388 OA
ATOM     34  H   UNL     1     118.858 116.876 125.577  1.00  0.00     0.211 HD
ENDBRANCH  25  33
ENDBRANCH  11  20
BRANCH  10  35
ATOM     35  O   UNL     1     114.668 120.710 125.822  1.00  0.00    -0.507 OA
ATOM     36  H   UNL     1     115.398 121.047 125.198  1.00  0.00     0.293 HD
ENDBRANCH  10  35
TORSDOF 9
ENDMDL
MODEL 2
REMARK VINA RESULT:    -5.535      3.255      5.873
REMARK INTER + INTRA:          -8.489
REMARK INTER:                  -7.386
REMARK INTRA:                  -1.102
REMARK UNBOUND:                -1.012
REMARK SMILES O=c1c(-c2ccc(O)cc2)coc2c([C@H]3O[C@H](CO)[C@H](O)[C@H](O)[C@H]3O)c(O)ccc12
REMARK SMILES IDX 3 1 11 2 12 3 13 4 30 5 2 6 1 7 29 8 28 9 26 10 14 11 4 12
REMARK SMILES IDX 5 13 6 14 7 15 10 16 9 17 8 18 15 20 24 21 16 22 22 23 17 24
REMARK SMILES IDX 20 25 25 26 23 28 18 30 19 31 21 33 27 35
REMARK H PARENT 8 19 25 27 23 29 19 32 21 34 27 36
REMARK Flexibility Score: inf
ROOT
ATOM      1  C   UNL     1     112.653 119.029 128.950  1.00  0.00     0.065 A 
ATOM      2  C   UNL     1     113.257 118.163 129.954  1.00  0.00     0.208 A 
ATOM      3  O   UNL     1     114.394 118.461 130.523  1.00  0.00    -0.463 OA
ATOM      4  C   UNL     1     114.879 119.704 130.420  1.00  0.00     0.147 A 
ATOM      5  C   UNL     1     114.344 120.524 129.372  1.00  0.00     0.066 A 
ATOM      6  C   UNL     1     113.688 119.816 128.389  1.00  0.00     0.200 A 
ATOM      7  O   UNL     1     113.816 120.205 127.204  1.00  0.00    -0.288 OA
ATOM      8  C   UNL     1     113.345 121.475 129.894  1.00  0.00     0.020 A 
ATOM      9  C   UNL     1     112.867 121.304 131.223  1.00  0.00     0.047 A 
ATOM     10  C   UNL     1     113.585 120.434 132.058  1.00  0.00     0.125 A 
ATOM     11  C   UNL     1     114.958 120.361 131.677  1.00  0.00     0.069 A 
ENDROOT
BRANCH   1  12
ATOM     12  C   UNL     1     111.169 119.469 129.012  1.00  0.00    -0.011 A 
ATOM     13  C   UNL     1     110.336 119.245 130.142  1.00  0.00     0.013 A 
ATOM     14  C   UNL     1     109.019 119.582 130.137  1.00  0.00     0.047 A 
ATOM     15  C   UNL     1     108.459 119.631 128.798  1.00  0.00     0.115 A 
ATOM     16  C   UNL     1     110.624 120.263 127.979  1.00  0.00     0.013 A 
ATOM     17  C   UNL     1     109.194 120.335 127.878  1.00  0.00     0.047 A 
BRANCH  15  18
ATOM     18  O   UNL     1     107.723 118.476 128.331  1.00  0.00    -0.508 OA
ATOM     19  H   UNL     1     107.105 118.595 127.459  1.00  0.00     0.293 HD
ENDBRANCH  15  18
ENDBRANCH   1  12
BRANCH  11  20
ATOM     20  C   UNL     1     115.592 121.755 131.765  1.00  0.00     0.188 C 
ATOM     21  C   UNL     1     117.066 121.978 131.481  1.00  0.00     0.179 C 
ATOM     22  O   UNL     1     115.378 122.379 133.016  1.00  0.00    -0.362 OA
ATOM     23  C   UNL     1     117.947 121.346 132.610  1.00  0.00     0.177 C 
ATOM     24  C   UNL     1     115.960 121.654 134.110  1.00  0.00     0.176 C 
ATOM     25  C   UNL     1     117.433 121.885 134.039  1.00  0.00     0.177 C 
BRANCH  21  26
ATOM     26  O   UNL     1     117.392 121.499 130.199  1.00  0.00    -0.387 OA
ATOM     27  H   UNL     1     116.518 121.355 129.680  1.00  0.00     0.211 HD
ENDBRANCH  21  26
BRANCH  23  28
ATOM     28  O   UNL     1     119.303 121.669 132.440  1.00  0.00    -0.387 OA
ATOM     29  H   UNL     1     119.325 122.397 131.786  1.00  0.00     0.211 HD
ENDBRANCH  23  28
BRANCH  24  30
ATOM     30  C   UNL     1     115.154 122.108 135.382  1.00  0.00     0.191 C 
BRANCH  30  31
ATOM     31  O   UNL     1     113.769 121.904 135.208  1.00  0.00    -0.394 OA
ATOM     32  H   UNL     1     113.717 121.671 134.254  1.00  0.00     0.210 HD
ENDBRANCH  30  31
ENDBRANCH  24  30
BRANCH  25  33
ATOM     33  O   UNL     1     117.668 123.281 134.203  1.00  0.00    -0.388 OA
ATOM     34  H   UNL     1     116.815 123.756 134.164  1.00  0.00     0.211 HD
ENDBRANCH  25  33
ENDBRANCH  11  20
BRANCH  10  35
ATOM     35  O   UNL     1     113.169 119.835 133.269  1.00  0.00    -0.507 OA
ATOM     36  H   UNL     1     112.470 119.105 133.386  1.00  0.00     0.293 HD
ENDBRANCH  10  35
TORSDOF 9
ENDMDL
MODEL 3
REMARK VINA RESULT:    -5.434      3.430      8.437
REMARK INTER + INTRA:          -8.352
REMARK INTER:                  -7.243
REMARK INTRA:                  -1.109
REMARK UNBOUND:                -1.012
REMARK SMILES O=c1c(-c2ccc(O)cc2)coc2c([C@H]3O[C@H](CO)[C@H](O)[C@H](O)[C@H]3O)c(O)ccc12
REMARK SMILES IDX 3 1 11 2 12 3 13 4 30 5 2 6 1 7 29 8 28 9 26 10 14 11 4 12
REMARK SMILES IDX 5 13 6 14 7 15 10 16 9 17 8 18 15 20 24 21 16 22 22 23 17 24
REMARK SMILES IDX 20 25 25 26 23 28 18 30 19 31 21 33 27 35
REMARK H PARENT 8 19 25 27 23 29 19 32 21 34 27 36
REMARK Flexibility Score: inf
ROOT
ATOM      1  C   UNL     1     111.807 120.287 128.964  1.00  0.00     0.065 A 
ATOM      2  C   UNL     1     111.951 120.269 130.415  1.00  0.00     0.208 A 
ATOM      3  O   UNL     1     111.021 119.781 131.191  1.00  0.00    -0.463 OA
ATOM      4  C   UNL     1     110.055 119.018 130.665  1.00  0.00     0.147 A 
ATOM      5  C   UNL     1     109.858 119.106 129.247  1.00  0.00     0.066 A 
ATOM      6  C   UNL     1     110.422 120.225 128.673  1.00  0.00     0.200 A 
ATOM      7  O   UNL     1     109.797 120.784 127.743  1.00  0.00    -0.288 OA
ATOM      8  C   UNL     1     110.474 117.962 128.550  1.00  0.00     0.020 A 
ATOM      9  C   UNL     1     111.353 117.111 129.276  1.00  0.00     0.047 A 
ATOM     10  C   UNL     1     111.350 117.225 130.674  1.00  0.00     0.125 A 
ATOM     11  C   UNL     1     110.088 117.686 131.157  1.00  0.00     0.069 A 
ENDROOT
BRANCH   1  12
ATOM     12  C   UNL     1     112.916 119.776 128.010  1.00  0.00    -0.011 A 
ATOM     13  C   UNL     1     112.683 119.463 126.643  1.00  0.00     0.013 A 
ATOM     14  C   UNL     1     113.662 118.951 125.851  1.00  0.00     0.047 A 
ATOM     15  C   UNL     1     114.689 118.258 126.608  1.00  0.00     0.115 A 
ATOM     16  C   UNL     1     114.260 119.746 128.441  1.00  0.00     0.013 A 
ATOM     17  C   UNL     1     115.181 118.939 127.693  1.00  0.00     0.047 A 
BRANCH  15  18
ATOM     18  O   UNL     1     114.603 116.816 126.700  1.00  0.00    -0.508 OA
ATOM     19  H   UNL     1     115.464 116.286 127.066  1.00  0.00     0.293 HD
ENDBRANCH  15  18
ENDBRANCH   1  12
BRANCH  11  20
ATOM     20  C   UNL     1     108.989 116.698 130.746  1.00  0.00     0.188 C 
ATOM     21  C   UNL     1     107.550 116.881 131.191  1.00  0.00     0.179 C 
ATOM     22  O   UNL     1     109.294 115.360 131.088  1.00  0.00    -0.362 OA
ATOM     23  C   UNL     1     107.411 116.622 132.728  1.00  0.00     0.177 C 
ATOM     24  C   UNL     1     109.439 115.164 132.503  1.00  0.00     0.176 C 
ATOM     25  C   UNL     1     108.063 115.191 133.080  1.00  0.00     0.177 C 
BRANCH  21  26
ATOM     26  O   UNL     1     107.078 118.148 130.804  1.00  0.00    -0.387 OA
ATOM     27  H   UNL     1     107.287 118.812 131.559  1.00  0.00     0.211 HD
ENDBRANCH  21  26
BRANCH  23  28
ATOM     28  O   UNL     1     106.064 116.643 133.129  1.00  0.00    -0.387 OA
ATOM     29  H   UNL     1     105.538 116.601 132.305  1.00  0.00     0.211 HD
ENDBRANCH  23  28
BRANCH  24  30
ATOM     30  C   UNL     1     110.327 113.875 132.651  1.00  0.00     0.191 C 
BRANCH  30  31
ATOM     31  O   UNL     1     111.442 113.921 131.788  1.00  0.00    -0.394 OA
ATOM     32  H   UNL     1     111.162 113.316 131.065  1.00  0.00     0.210 HD
ENDBRANCH  30  31
ENDBRANCH  24  30
BRANCH  25  33
ATOM     33  O   UNL     1     107.326 114.111 132.512  1.00  0.00    -0.388 OA
ATOM     34  H   UNL     1     106.504 113.981 133.023  1.00  0.00     0.211 HD
ENDBRANCH  25  33
ENDBRANCH  11  20
BRANCH  10  35
ATOM     35  O   UNL     1     112.319 116.768 131.595  1.00  0.00    -0.507 OA
ATOM     36  H   UNL     1     113.223 117.189 131.798  1.00  0.00     0.293 HD
ENDBRANCH  10  35
TORSDOF 9
ENDMDL
MODEL 4
REMARK VINA RESULT:    -5.341      1.884      3.889
REMARK INTER + INTRA:          -8.227
REMARK INTER:                  -6.987
REMARK INTRA:                  -1.240
REMARK UNBOUND:                -1.012
REMARK SMILES O=c1c(-c2ccc(O)cc2)coc2c([C@H]3O[C@H](CO)[C@H](O)[C@H](O)[C@H]3O)c(O)ccc12
REMARK SMILES IDX 3 1 11 2 12 3 13 4 30 5 2 6 1 7 29 8 28 9 26 10 14 11 4 12
REMARK SMILES IDX 5 13 6 14 7 15 10 16 9 17 8 18 15 20 24 21 16 22 22 23 17 24
REMARK SMILES IDX 20 25 25 26 23 28 18 30 19 31 21 33 27 35
REMARK H PARENT 8 19 25 27 23 29 19 32 21 34 27 36
REMARK Flexibility Score: inf
ROOT
ATOM      1  C   UNL     1     113.300 117.926 126.972  1.00  0.00     0.065 A 
ATOM      2  C   UNL     1     114.036 116.714 127.310  1.00  0.00     0.208 A 
ATOM      3  O   UNL     1     115.269 116.528 126.921  1.00  0.00    -0.463 OA
ATOM      4  C   UNL     1     115.980 117.564 126.464  1.00  0.00     0.147 A 
ATOM      5  C   UNL     1     115.246 118.724 126.048  1.00  0.00     0.066 A 
ATOM      6  C   UNL     1     113.908 118.484 125.820  1.00  0.00     0.200 A 
ATOM      7  O   UNL     1     113.361 119.081 124.864  1.00  0.00    -0.288 OA
ATOM      8  C   UNL     1     115.279 119.777 127.079  1.00  0.00     0.020 A 
ATOM      9  C   UNL     1     115.769 119.451 128.374  1.00  0.00     0.047 A 
ATOM     10  C   UNL     1     116.468 118.241 128.512  1.00  0.00     0.125 A 
ATOM     11  C   UNL     1     117.098 117.861 127.289  1.00  0.00     0.069 A 
ENDROOT
BRANCH   1  12
ATOM     12  C   UNL     1     112.524 118.753 128.027  1.00  0.00    -0.011 A 
ATOM     13  C   UNL     1     111.585 119.765 127.688  1.00  0.00     0.013 A 
ATOM     14  C   UNL     1     110.972 120.519 128.638  1.00  0.00     0.047 A 
ATOM     15  C   UNL     1     111.738 120.598 129.869  1.00  0.00     0.115 A 
ATOM     16  C   UNL     1     112.615 118.415 129.395  1.00  0.00     0.013 A 
ATOM     17  C   UNL     1     112.200 119.400 130.353  1.00  0.00     0.047 A 
BRANCH  15  18
ATOM     18  O   UNL     1     112.559 121.771 130.079  1.00  0.00    -0.508 OA
ATOM     19  H   UNL     1     112.060 122.716 130.199  1.00  0.00     0.293 HD
ENDBRANCH  15  18
ENDBRANCH   1  12
BRANCH  11  20
ATOM     20  C   UNL     1     118.089 118.951 126.861  1.00  0.00     0.188 C 
ATOM     21  C   UNL     1     118.849 118.863 125.550  1.00  0.00     0.179 C 
ATOM     22  O   UNL     1     119.089 119.198 127.830  1.00  0.00    -0.362 OA
ATOM     23  C   UNL     1     119.910 117.713 125.604  1.00  0.00     0.177 C 
ATOM     24  C   UNL     1     119.912 118.050 128.090  1.00  0.00     0.176 C 
ATOM     25  C   UNL     1     120.824 117.905 126.918  1.00  0.00     0.177 C 
BRANCH  21  26
ATOM     26  O   UNL     1     117.952 118.729 124.475  1.00  0.00    -0.387 OA
ATOM     27  H   UNL     1     118.326 118.023 123.832  1.00  0.00     0.211 HD
ENDBRANCH  21  26
BRANCH  23  28
ATOM     28  O   UNL     1     120.721 117.713 124.457  1.00  0.00    -0.387 OA
ATOM     29  H   UNL     1     120.884 118.655 124.244  1.00  0.00     0.211 HD
ENDBRANCH  23  28
BRANCH  24  30
ATOM     30  C   UNL     1     120.509 118.287 129.525  1.00  0.00     0.191 C 
BRANCH  30  31
ATOM     31  O   UNL     1     119.489 118.543 130.466  1.00  0.00    -0.394 OA
ATOM     32  H   UNL     1     118.747 118.004 130.111  1.00  0.00     0.210 HD
ENDBRANCH  30  31
ENDBRANCH  24  30
BRANCH  25  33
ATOM     33  O   UNL     1     121.633 119.076 126.843  1.00  0.00    -0.388 OA
ATOM     34  H   UNL     1     121.224 119.709 126.221  1.00  0.00     0.211 HD
ENDBRANCH  25  33
ENDBRANCH  11  20
BRANCH  10  35
ATOM     35  O   UNL     1     116.763 117.528 129.695  1.00  0.00    -0.507 OA
ATOM     36  H   UNL     1     117.066 117.913 130.587  1.00  0.00     0.293 HD
ENDBRANCH  10  35
TORSDOF 9
ENDMDL
MODEL 5
REMARK VINA RESULT:    -5.280      2.682      7.304
REMARK INTER + INTRA:          -8.144
REMARK INTER:                  -7.259
REMARK INTRA:                  -0.885
REMARK UNBOUND:                -1.012
REMARK SMILES O=c1c(-c2ccc(O)cc2)coc2c([C@H]3O[C@H](CO)[C@H](O)[C@H](O)[C@H]3O)c(O)ccc12
REMARK SMILES IDX 3 1 11 2 12 3 13 4 30 5 2 6 1 7 29 8 28 9 26 10 14 11 4 12
REMARK SMILES IDX 5 13 6 14 7 15 10 16 9 17 8 18 15 20 24 21 16 22 22 23 17 24
REMARK SMILES IDX 20 25 25 26 23 28 18 30 19 31 21 33 27 35
REMARK H PARENT 8 19 25 27 23 29 19 32 21 34 27 36
REMARK Flexibility Score: inf
ROOT
ATOM      1  C   UNL     1     115.392 119.101 127.778  1.00  0.00     0.065 A 
ATOM      2  C   UNL     1     115.464 117.764 128.354  1.00  0.00     0.208 A 
ATOM      3  O   UNL     1     114.809 117.448 129.439  1.00  0.00    -0.463 OA
ATOM      4  C   UNL     1     113.829 118.247 129.875  1.00  0.00     0.147 A 
ATOM      5  C   UNL     1     113.814 119.590 129.373  1.00  0.00     0.066 A 
ATOM      6  C   UNL     1     115.008 119.990 128.812  1.00  0.00     0.200 A 
ATOM      7  O   UNL     1     115.375 121.174 128.998  1.00  0.00    -0.288 OA
ATOM      8  C   UNL     1     112.813 119.751 128.303  1.00  0.00     0.020 A 
ATOM      9  C   UNL     1     112.211 118.587 127.750  1.00  0.00     0.047 A 
ATOM     10  C   UNL     1     112.376 117.382 128.450  1.00  0.00     0.125 A 
ATOM     11  C   UNL     1     112.559 117.612 129.847  1.00  0.00     0.069 A 
ENDROOT
BRANCH   1  12
ATOM     12  C   UNL     1     115.107 119.348 126.275  1.00  0.00    -0.011 A 
ATOM     13  C   UNL     1     114.516 118.374 125.425  1.00  0.00     0.013 A 
ATOM     14  C   UNL     1     114.343 118.598 124.095  1.00  0.00     0.047 A 
ATOM     15  C   UNL     1     115.272 119.581 123.568  1.00  0.00     0.115 A 
ATOM     16  C   UNL     1     115.291 120.634 125.723  1.00  0.00     0.013 A 
ATOM     17  C   UNL     1     115.379 120.740 124.295  1.00  0.00     0.047 A 
BRANCH  15  18
ATOM     18  O   UNL     1     116.458 119.096 122.894  1.00  0.00    -0.508 OA
ATOM     19  H   UNL     1     117.371 119.049 123.459  1.00  0.00     0.293 HD
ENDBRANCH  15  18
ENDBRANCH   1  12
BRANCH  11  20
ATOM     20  C   UNL     1     111.333 118.341 130.413  1.00  0.00     0.188 C 
ATOM     21  C   UNL     1     111.172 118.587 131.901  1.00  0.00     0.179 C 
ATOM     22  O   UNL     1     110.110 117.748 130.022  1.00  0.00    -0.362 OA
ATOM     23  C   UNL     1     110.904 117.242 132.657  1.00  0.00     0.177 C 
ATOM     24  C   UNL     1     109.969 116.397 130.488  1.00  0.00     0.176 C 
ATOM     25  C   UNL     1     109.674 116.480 131.949  1.00  0.00     0.177 C 
BRANCH  21  26
ATOM     26  O   UNL     1     112.287 119.284 132.402  1.00  0.00    -0.387 OA
ATOM     27  H   UNL     1     112.048 120.281 132.444  1.00  0.00     0.211 HD
ENDBRANCH  21  26
BRANCH  23  28
ATOM     28  O   UNL     1     110.608 117.469 134.011  1.00  0.00    -0.387 OA
ATOM     29  H   UNL     1     109.632 117.435 134.081  1.00  0.00     0.211 HD
ENDBRANCH  23  28
BRANCH  24  30
ATOM     30  C   UNL     1     108.930 115.731 129.514  1.00  0.00     0.191 C 
BRANCH  30  31
ATOM     31  O   UNL     1     107.758 115.348 130.200  1.00  0.00    -0.394 OA
ATOM     32  H   UNL     1     108.004 115.529 131.135  1.00  0.00     0.210 HD
ENDBRANCH  30  31
ENDBRANCH  24  30
BRANCH  25  33
ATOM     33  O   UNL     1     108.443 117.182 132.110  1.00  0.00    -0.388 OA
ATOM     34  H   UNL     1     108.633 118.107 132.360  1.00  0.00     0.211 HD
ENDBRANCH  25  33
ENDBRANCH  11  20
BRANCH  10  35
ATOM     35  O   UNL     1     112.185 116.062 127.984  1.00  0.00    -0.507 OA
ATOM     36  H   UNL     1     112.158 115.210 128.540  1.00  0.00     0.293 HD
ENDBRANCH  10  35
TORSDOF 9
ENDMDL
MODEL 6
REMARK VINA RESULT:    -5.208      1.623      2.166
REMARK INTER + INTRA:          -8.047
REMARK INTER:                  -6.789
REMARK INTRA:                  -1.258
REMARK UNBOUND:                -1.012
REMARK SMILES O=c1c(-c2ccc(O)cc2)coc2c([C@H]3O[C@H](CO)[C@H](O)[C@H](O)[C@H]3O)c(O)ccc12
REMARK SMILES IDX 3 1 11 2 12 3 13 4 30 5 2 6 1 7 29 8 28 9 26 10 14 11 4 12
REMARK SMILES IDX 5 13 6 14 7 15 10 16 9 17 8 18 15 20 24 21 16 22 22 23 17 24
REMARK SMILES IDX 20 25 25 26 23 28 18 30 19 31 21 33 27 35
REMARK H PARENT 8 19 25 27 23 29 19 32 21 34 27 36
REMARK Flexibility Score: inf
ROOT
ATOM      1  C   UNL     1     111.491 119.854 130.844  1.00  0.00     0.065 A 
ATOM      2  C   UNL     1     112.358 120.938 130.400  1.00  0.00     0.208 A 
ATOM      3  O   UNL     1     113.622 120.742 130.136  1.00  0.00    -0.463 OA
ATOM      4  C   UNL     1     114.078 119.494 129.977  1.00  0.00     0.147 A 
ATOM      5  C   UNL     1     113.262 118.434 130.495  1.00  0.00     0.066 A 
ATOM      6  C   UNL     1     112.318 118.852 131.408  1.00  0.00     0.200 A 
ATOM      7  O   UNL     1     112.080 118.106 132.387  1.00  0.00    -0.288 OA
ATOM      8  C   UNL     1     112.496 117.775 129.422  1.00  0.00     0.020 A 
ATOM      9  C   UNL     1     112.450 118.387 128.139  1.00  0.00     0.047 A 
ATOM     10  C   UNL     1     113.373 119.414 127.882  1.00  0.00     0.125 A 
ATOM     11  C   UNL     1     114.558 119.256 128.662  1.00  0.00     0.069 A 
ENDROOT
BRANCH   1  12
ATOM     12  C   UNL     1     110.109 119.574 130.201  1.00  0.00    -0.011 A 
ATOM     13  C   UNL     1     109.131 118.730 130.793  1.00  0.00     0.013 A 
ATOM     14  C   UNL     1     107.956 118.451 130.170  1.00  0.00     0.047 A 
ATOM     15  C   UNL     1     108.042 118.592 128.726  1.00  0.00     0.115 A 
ATOM     16  C   UNL     1     109.709 120.287 129.050  1.00  0.00     0.013 A 
ATOM     17  C   UNL     1     108.619 119.755 128.282  1.00  0.00     0.047 A 
BRANCH  15  18
ATOM     18  O   UNL     1     108.248 117.394 127.941  1.00  0.00    -0.508 OA
ATOM     19  H   UNL     1     107.513 116.614 128.017  1.00  0.00     0.293 HD
ENDBRANCH  15  18
ENDBRANCH   1  12
BRANCH  11  20
ATOM     20  C   UNL     1     115.218 117.911 128.327  1.00  0.00     0.188 C 
ATOM     21  C   UNL     1     116.478 117.447 129.035  1.00  0.00     0.179 C 
ATOM     22  O   UNL     1     115.516 117.771 126.952  1.00  0.00    -0.362 OA
ATOM     23  C   UNL     1     117.704 118.322 128.608  1.00  0.00     0.177 C 
ATOM     24  C   UNL     1     116.450 118.754 126.479  1.00  0.00     0.176 C 
ATOM     25  C   UNL     1     117.790 118.354 126.999  1.00  0.00     0.177 C 
BRANCH  21  26
ATOM     26  O   UNL     1     116.276 117.429 130.426  1.00  0.00    -0.387 OA
ATOM     27  H   UNL     1     115.503 116.785 130.629  1.00  0.00     0.211 HD
ENDBRANCH  21  26
BRANCH  23  28
ATOM     28  O   UNL     1     118.902 117.814 129.138  1.00  0.00    -0.387 OA
ATOM     29  H   UNL     1     119.520 117.740 128.383  1.00  0.00     0.211 HD
ENDBRANCH  23  28
BRANCH  24  30
ATOM     30  C   UNL     1     116.204 118.844 124.929  1.00  0.00     0.191 C 
BRANCH  30  31
ATOM     31  O   UNL     1     114.826 118.919 124.634  1.00  0.00    -0.394 OA
ATOM     32  H   UNL     1     114.776 119.754 124.117  1.00  0.00     0.210 HD
ENDBRANCH  30  31
ENDBRANCH  24  30
BRANCH  25  33
ATOM     33  O   UNL     1     118.111 117.076 126.453  1.00  0.00    -0.388 OA
ATOM     34  H   UNL     1     117.414 116.438 126.701  1.00  0.00     0.211 HD
ENDBRANCH  25  33
ENDBRANCH  11  20
BRANCH  10  35
ATOM     35  O   UNL     1     113.340 120.390 126.861  1.00  0.00    -0.507 OA
ATOM     36  H   UNL     1     112.542 120.654 126.288  1.00  0.00     0.293 HD
ENDBRANCH  10  35
TORSDOF 9
ENDMDL
MODEL 7
REMARK VINA RESULT:    -5.199      2.622      7.498
REMARK INTER + INTRA:          -8.034
REMARK INTER:                  -6.752
REMARK INTRA:                  -1.282
REMARK UNBOUND:                -1.012
REMARK SMILES O=c1c(-c2ccc(O)cc2)coc2c([C@H]3O[C@H](CO)[C@H](O)[C@H](O)[C@H]3O)c(O)ccc12
REMARK SMILES IDX 3 1 11 2 12 3 13 4 30 5 2 6 1 7 29 8 28 9 26 10 14 11 4 12
REMARK SMILES IDX 5 13 6 14 7 15 10 16 9 17 8 18 15 20 24 21 16 22 22 23 17 24
REMARK SMILES IDX 20 25 25 26 23 28 18 30 19 31 21 33 27 35
REMARK H PARENT 8 19 25 27 23 29 19 32 21 34 27 36
REMARK Flexibility Score: inf
ROOT
ATOM      1  C   UNL     1     115.032 121.288 130.349  1.00  0.00     0.065 A 
ATOM      2  C   UNL     1     114.061 121.283 131.435  1.00  0.00     0.208 A 
ATOM      3  O   UNL     1     112.780 121.168 131.211  1.00  0.00    -0.463 OA
ATOM      4  C   UNL     1     112.354 120.753 130.012  1.00  0.00     0.147 A 
ATOM      5  C   UNL     1     113.285 120.843 128.925  1.00  0.00     0.066 A 
ATOM      6  C   UNL     1     114.350 121.683 129.171  1.00  0.00     0.200 A 
ATOM      7  O   UNL     1     114.776 122.381 128.222  1.00  0.00    -0.288 OA
ATOM      8  C   UNL     1     113.889 119.531 128.628  1.00  0.00     0.020 A 
ATOM      9  C   UNL     1     113.697 118.465 129.550  1.00  0.00     0.047 A 
ATOM     10  C   UNL     1     112.705 118.632 130.529  1.00  0.00     0.125 A 
ATOM     11  C   UNL     1     111.672 119.509 130.080  1.00  0.00     0.069 A 
ENDROOT
BRANCH   1  12
ATOM     12  C   UNL     1     116.298 120.396 130.357  1.00  0.00    -0.011 A 
ATOM     13  C   UNL     1     117.355 120.533 129.416  1.00  0.00     0.013 A 
ATOM     14  C   UNL     1     118.419 119.689 129.408  1.00  0.00     0.047 A 
ATOM     15  C   UNL     1     118.114 118.398 130.000  1.00  0.00     0.115 A 
ATOM     16  C   UNL     1     116.519 119.493 131.420  1.00  0.00     0.013 A 
ATOM     17  C   UNL     1     117.477 118.444 131.215  1.00  0.00     0.047 A 
BRANCH  15  18
ATOM     18  O   UNL     1     117.788 117.306 129.109  1.00  0.00    -0.508 OA
ATOM     19  H   UNL     1     118.245 116.352 129.298  1.00  0.00     0.293 HD
ENDBRANCH  15  18
ENDBRANCH   1  12
BRANCH  11  20
ATOM     20  C   UNL     1     111.020 118.931 128.817  1.00  0.00     0.188 C 
ATOM     21  C   UNL     1     109.797 119.574 128.190  1.00  0.00     0.179 C 
ATOM     22  O   UNL     1     110.669 117.568 128.952  1.00  0.00    -0.362 OA
ATOM     23  C   UNL     1     108.542 119.379 129.105  1.00  0.00     0.177 C 
ATOM     24  C   UNL     1     109.703 117.339 129.989  1.00  0.00     0.176 C 
ATOM     25  C   UNL     1     108.390 117.814 129.461  1.00  0.00     0.177 C 
BRANCH  21  26
ATOM     26  O   UNL     1     110.054 120.925 127.894  1.00  0.00    -0.387 OA
ATOM     27  H   UNL     1     109.922 121.062 126.886  1.00  0.00     0.211 HD
ENDBRANCH  21  26
BRANCH  23  28
ATOM     28  O   UNL     1     107.374 119.837 128.473  1.00  0.00    -0.387 OA
ATOM     29  H   UNL     1     107.572 120.747 128.171  1.00  0.00     0.211 HD
ENDBRANCH  23  28
BRANCH  24  30
ATOM     30  C   UNL     1     109.886 115.832 130.398  1.00  0.00     0.191 C 
BRANCH  30  31
ATOM     31  O   UNL     1     110.742 115.705 131.511  1.00  0.00    -0.394 OA
ATOM     32  H   UNL     1     110.526 116.515 132.025  1.00  0.00     0.210 HD
ENDBRANCH  30  31
ENDBRANCH  24  30
BRANCH  25  33
ATOM     33  O   UNL     1     108.068 117.031 128.314  1.00  0.00    -0.388 OA
ATOM     34  H   UNL     1     107.419 116.346 128.566  1.00  0.00     0.211 HD
ENDBRANCH  25  33
ENDBRANCH  11  20
BRANCH  10  35
ATOM     35  O   UNL     1     112.530 117.913 131.733  1.00  0.00    -0.507 OA
ATOM     36  H   UNL     1     113.184 117.264 132.163  1.00  0.00     0.293 HD
ENDBRANCH  10  35
TORSDOF 9
ENDMDL
MODEL 8
REMARK VINA RESULT:    -4.983      3.060      7.432
REMARK INTER + INTRA:          -7.743
REMARK INTER:                  -6.482
REMARK INTRA:                  -1.261
REMARK UNBOUND:                -1.012
REMARK SMILES O=c1c(-c2ccc(O)cc2)coc2c([C@H]3O[C@H](CO)[C@H](O)[C@H](O)[C@H]3O)c(O)ccc12
REMARK SMILES IDX 3 1 11 2 12 3 13 4 30 5 2 6 1 7 29 8 28 9 26 10 14 11 4 12
REMARK SMILES IDX 5 13 6 14 7 15 10 16 9 17 8 18 15 20 24 21 16 22 22 23 17 24
REMARK SMILES IDX 20 25 25 26 23 28 18 30 19 31 21 33 27 35
REMARK H PARENT 8 19 25 27 23 29 19 32 21 34 27 36
REMARK Flexibility Score: inf
ROOT
ATOM      1  C   UNL     1     115.288 118.017 128.618  1.00  0.00     0.065 A 
ATOM      2  C   UNL     1     114.482 118.156 127.411  1.00  0.00     0.208 A 
ATOM      3  O   UNL     1     113.286 117.638 127.320  1.00  0.00    -0.463 OA
ATOM      4  C   UNL     1     112.657 117.230 128.429  1.00  0.00     0.147 A 
ATOM      5  C   UNL     1     113.468 117.009 129.591  1.00  0.00     0.066 A 
ATOM      6  C   UNL     1     114.813 116.881 129.317  1.00  0.00     0.200 A 
ATOM      7  O   UNL     1     115.469 116.047 129.984  1.00  0.00    -0.288 OA
ATOM      8  C   UNL     1     113.372 118.139 130.533  1.00  0.00     0.020 A 
ATOM      9  C   UNL     1     112.749 119.342 130.098  1.00  0.00     0.047 A 
ATOM     10  C   UNL     1     112.000 119.286 128.913  1.00  0.00     0.125 A 
ATOM     11  C   UNL     1     111.477 117.976 128.688  1.00  0.00     0.069 A 
ENDROOT
BRANCH   1  12
ATOM     12  C   UNL     1     115.987 119.221 129.297  1.00  0.00    -0.011 A 
ATOM     13  C   UNL     1     116.915 119.082 130.364  1.00  0.00     0.013 A 
ATOM     14  C   UNL     1     117.459 120.163 130.984  1.00  0.00     0.047 A 
ATOM     15  C   UNL     1     116.629 121.349 130.869  1.00  0.00     0.115 A 
ATOM     16  C   UNL     1     115.835 120.520 128.763  1.00  0.00     0.013 A 
ATOM     17  C   UNL     1     116.175 121.630 129.605  1.00  0.00     0.047 A 
BRANCH  15  18
ATOM     18  O   UNL     1     115.768 121.681 131.984  1.00  0.00    -0.508 OA
ATOM     19  H   UNL     1     115.075 122.493 131.857  1.00  0.00     0.293 HD
ENDBRANCH  15  18
ENDBRANCH   1  12
BRANCH  11  20
ATOM     20  C   UNL     1     110.569 117.577 129.859  1.00  0.00     0.188 C 
ATOM     21  C   UNL     1     109.721 116.320 129.813  1.00  0.00     0.179 C 
ATOM     22  O   UNL     1     109.662 118.599 130.226  1.00  0.00    -0.362 OA
ATOM     23  C   UNL     1     108.560 116.475 128.775  1.00  0.00     0.177 C 
ATOM     24  C   UNL     1     108.752 118.945 129.171  1.00  0.00     0.176 C 
ATOM     25  C   UNL     1     107.756 117.836 129.087  1.00  0.00     0.177 C 
BRANCH  21  26
ATOM     26  O   UNL     1     110.530 115.196 129.566  1.00  0.00    -0.387 OA
ATOM     27  H   UNL     1     110.923 114.882 130.461  1.00  0.00     0.211 HD
ENDBRANCH  21  26
BRANCH  23  28
ATOM     28  O   UNL     1     107.680 115.381 128.826  1.00  0.00    -0.387 OA
ATOM     29  H   UNL     1     106.986 115.563 128.160  1.00  0.00     0.211 HD
ENDBRANCH  23  28
BRANCH  24  30
ATOM     30  C   UNL     1     108.275 120.406 129.500  1.00  0.00     0.191 C 
BRANCH  30  31
ATOM     31  O   UNL     1     109.036 121.363 128.796  1.00  0.00    -0.394 OA
ATOM     32  H   UNL     1     108.724 121.229 127.874  1.00  0.00     0.210 HD
ENDBRANCH  30  31
ENDBRANCH  24  30
BRANCH  25  33
ATOM     33  O   UNL     1     107.060 117.776 130.330  1.00  0.00    -0.388 OA
ATOM     34  H   UNL     1     106.294 117.176 130.239  1.00  0.00     0.211 HD
ENDBRANCH  25  33
ENDBRANCH  11  20
BRANCH  10  35
ATOM     35  O   UNL     1     111.568 120.354 128.095  1.00  0.00    -0.507 OA
ATOM     36  H   UNL     1     110.938 120.304 127.298  1.00  0.00     0.293 HD
ENDBRANCH  10  35
TORSDOF 9
ENDMDL
MODEL 9
REMARK VINA RESULT:    -4.941      1.932      7.546
REMARK INTER + INTRA:          -7.686
REMARK INTER:                  -6.355
REMARK INTRA:                  -1.331
REMARK UNBOUND:                -1.012
REMARK SMILES O=c1c(-c2ccc(O)cc2)coc2c([C@H]3O[C@H](CO)[C@H](O)[C@H](O)[C@H]3O)c(O)ccc12
REMARK SMILES IDX 3 1 11 2 12 3 13 4 30 5 2 6 1 7 29 8 28 9 26 10 14 11 4 12
REMARK SMILES IDX 5 13 6 14 7 15 10 16 9 17 8 18 15 20 24 21 16 22 22 23 17 24
REMARK SMILES IDX 20 25 25 26 23 28 18 30 19 31 21 33 27 35
REMARK H PARENT 8 19 25 27 23 29 19 32 21 34 27 36
REMARK Flexibility Score: inf
ROOT
ATOM      1  C   UNL     1     115.804 119.992 127.946  1.00  0.00     0.065 A 
ATOM      2  C   UNL     1     115.379 120.542 129.227  1.00  0.00     0.208 A 
ATOM      3  O   UNL     1     114.117 120.732 129.508  1.00  0.00    -0.463 OA
ATOM      4  C   UNL     1     113.178 120.151 128.753  1.00  0.00     0.147 A 
ATOM      5  C   UNL     1     113.581 119.690 127.456  1.00  0.00     0.066 A 
ATOM      6  C   UNL     1     114.766 120.235 127.013  1.00  0.00     0.200 A 
ATOM      7  O   UNL     1     114.864 120.513 125.795  1.00  0.00    -0.288 OA
ATOM      8  C   UNL     1     113.802 118.232 127.451  1.00  0.00     0.020 A 
ATOM      9  C   UNL     1     113.847 117.543 128.694  1.00  0.00     0.047 A 
ATOM     10  C   UNL     1     113.384 118.229 129.828  1.00  0.00     0.125 A 
ATOM     11  C   UNL     1     112.405 119.208 129.481  1.00  0.00     0.069 A 
ENDROOT
BRANCH   1  12
ATOM     12  C   UNL     1     116.809 118.818 127.835  1.00  0.00    -0.011 A 
ATOM     13  C   UNL     1     117.393 118.406 126.606  1.00  0.00     0.013 A 
ATOM     14  C   UNL     1     118.218 117.328 126.532  1.00  0.00     0.047 A 
ATOM     15  C   UNL     1     117.990 116.376 127.605  1.00  0.00     0.115 A 
ATOM     16  C   UNL     1     117.307 118.202 129.003  1.00  0.00     0.013 A 
ATOM     17  C   UNL     1     117.924 116.913 128.866  1.00  0.00     0.047 A 
BRANCH  15  18
ATOM     18  O   UNL     1     117.164 115.222 127.320  1.00  0.00    -0.508 OA
ATOM     19  H   UNL     1     116.401 115.327 126.570  1.00  0.00     0.293 HD
ENDBRANCH  15  18
ENDBRANCH   1  12
BRANCH  11  20
ATOM     20  C   UNL     1     111.210 118.522 128.803  1.00  0.00     0.188 C 
ATOM     21  C   UNL     1     109.965 119.297 128.416  1.00  0.00     0.179 C 
ATOM     22  O   UNL     1     110.721 117.417 129.537  1.00  0.00    -0.362 OA
ATOM     23  C   UNL     1     109.174 119.743 129.691  1.00  0.00     0.177 C 
ATOM     24  C   UNL     1     110.233 117.780 130.838  1.00  0.00     0.176 C 
ATOM     25  C   UNL     1     108.919 118.456 130.627  1.00  0.00     0.177 C 
BRANCH  21  26
ATOM     26  O   UNL     1     110.303 120.374 127.577  1.00  0.00    -0.387 OA
ATOM     27  H   UNL     1     110.701 121.121 128.159  1.00  0.00     0.211 HD
ENDBRANCH  21  26
BRANCH  23  28
ATOM     28  O   UNL     1     107.945 120.332 129.348  1.00  0.00    -0.387 OA
ATOM     29  H   UNL     1     108.050 120.659 128.432  1.00  0.00     0.211 HD
ENDBRANCH  23  28
BRANCH  24  30
ATOM     30  C   UNL     1     110.310 116.461 131.691  1.00  0.00     0.191 C 
BRANCH  30  31
ATOM     31  O   UNL     1     111.529 115.785 131.477  1.00  0.00    -0.394 OA
ATOM     32  H   UNL     1     112.129 116.524 131.230  1.00  0.00     0.210 HD
ENDBRANCH  30  31
ENDBRANCH  24  30
BRANCH  25  33
ATOM     33  O   UNL     1     108.034 117.517 130.020  1.00  0.00    -0.388 OA
ATOM     34  H   UNL     1     107.157 117.931 129.908  1.00  0.00     0.211 HD
ENDBRANCH  25  33
ENDBRANCH  11  20
BRANCH  10  35
ATOM     35  O   UNL     1     113.614 117.931 131.190  1.00  0.00    -0.507 OA
ATOM     36  H   UNL     1     113.906 118.576 131.920  1.00  0.00     0.293 HD
ENDBRANCH  10  35
TORSDOF 9
ENDMDL
