MODEL 1
REMARK VINA RESULT:    -4.770      0.000      0.000
REMARK INTER + INTRA:         -10.779
REMARK INTER:                  -8.675
REMARK INTRA:                  -2.104
REMARK UNBOUND:                -2.104
REMARK SMILES CCCCCCCCCCCCCCCC(=O)[O-]
REMARK SMILES IDX 9 1 10 2 11 3 12 4 13 5 14 6 15 7 16 8 17 9 18 10 8 11 7 12
REMARK SMILES IDX 6 13 5 14 4 15 3 16 2 17 1 18
REMARK H PARENT
REMARK Flexibility Score: inf
ROOT
ATOM      1  C   UNL     1      60.638  28.282  25.011  1.00  0.00     0.000 C 
ENDROOT
BRANCH   1   2
ATOM      2  C   UNL     1      60.736  27.013  25.868  1.00  0.00     0.000 C 
BRANCH   2   3
ATOM      3  C   UNL     1      61.760  27.139  27.009  1.00  0.00     0.000 C 
BRANCH   3   4
ATOM      4  C   UNL     1      61.131  27.507  28.369  1.00  0.00     0.000 C 
BRANCH   4   5
ATOM      5  C   UNL     1      61.370  28.983  28.737  1.00  0.00     0.000 C 
BRANCH   5   6
ATOM      6  C   UNL     1      62.867  29.343  28.818  1.00  0.00     0.006 C 
BRANCH   6   7
ATOM      7  C   UNL     1      63.145  30.851  28.719  1.00  0.00     0.053 C 
BRANCH   7   8
ATOM      8  C   UNL     1      64.606  31.165  28.654  1.00  0.00     0.041 C 
ATOM      9  O   UNL     1      65.044  32.250  29.121  1.00  0.00    -0.550 OA
ATOM     10  O   UNL     1      65.489  30.260  28.078  1.00  0.00    -0.550 OA
ENDBRANCH   7   8
ENDBRANCH   6   7
ENDBRANCH   5   6
ENDBRANCH   4   5
ENDBRANCH   3   4
ENDBRANCH   2   3
ENDBRANCH   1   2
BRANCH   1  11
ATOM     11  C   UNL     1      62.029  28.758  24.566  1.00  0.00     0.000 C 
BRANCH  11  12
ATOM     12  C   UNL     1      62.413  30.113  25.179  1.00  0.00    -0.000 C 
BRANCH  12  13
ATOM     13  C   UNL     1      63.895  30.465  24.958  1.00  0.00    -0.000 C 
BRANCH  13  14
ATOM     14  C   UNL     1      64.558  29.577  23.893  1.00  0.00    -0.000 C 
BRANCH  14  15
ATOM     15  C   UNL     1      65.716  28.741  24.462  1.00  0.00    -0.000 C 
BRANCH  15  16
ATOM     16  C   UNL     1      65.669  27.270  24.011  1.00  0.00    -0.000 C 
BRANCH  16  17
ATOM     17  C   UNL     1      64.845  26.363  24.948  1.00  0.00    -0.003 C 
ATOM     18  C   UNL     1      63.733  25.618  24.210  1.00  0.00     0.004 C 
ENDBRANCH  16  17
ENDBRANCH  15  16
ENDBRANCH  14  15
ENDBRANCH  13  14
ENDBRANCH  12  13
ENDBRANCH  11  12
ENDBRANCH   1  11
TORSDOF 14
ENDMDL
MODEL 2
REMARK VINA RESULT:    -4.683      2.468      5.717
REMARK INTER + INTRA:         -10.621
REMARK INTER:                  -8.192
REMARK INTRA:                  -2.429
REMARK UNBOUND:                -2.104
REMARK SMILES CCCCCCCCCCCCCCCC(=O)[O-]
REMARK SMILES IDX 9 1 10 2 11 3 12 4 13 5 14 6 15 7 16 8 17 9 18 10 8 11 7 12
REMARK SMILES IDX 6 13 5 14 4 15 3 16 2 17 1 18
REMARK H PARENT
REMARK Flexibility Score: inf
ROOT
ATOM      1  C   UNL     1      62.119  29.087  24.503  1.00  0.00     0.000 C 
ENDROOT
BRANCH   1   2
ATOM      2  C   UNL     1      62.621  30.258  25.359  1.00  0.00     0.000 C 
BRANCH   2   3
ATOM      3  C   UNL     1      64.134  30.499  25.215  1.00  0.00     0.000 C 
BRANCH   3   4
ATOM      4  C   UNL     1      65.000  29.363  25.796  1.00  0.00     0.000 C 
BRANCH   4   5
ATOM      5  C   UNL     1      66.219  29.051  24.910  1.00  0.00     0.000 C 
BRANCH   5   6
ATOM      6  C   UNL     1      65.838  28.802  23.437  1.00  0.00     0.006 C 
BRANCH   6   7
ATOM      7  C   UNL     1      66.043  27.347  22.984  1.00  0.00     0.053 C 
BRANCH   7   8
ATOM      8  C   UNL     1      65.033  26.413  23.572  1.00  0.00     0.041 C 
ATOM      9  O   UNL     1      65.317  25.731  24.592  1.00  0.00    -0.550 OA
ATOM     10  O   UNL     1      63.774  26.294  22.995  1.00  0.00    -0.550 OA
ENDBRANCH   7   8
ENDBRANCH   6   7
ENDBRANCH   5   6
ENDBRANCH   4   5
ENDBRANCH   3   4
ENDBRANCH   2   3
ENDBRANCH   1   2
BRANCH   1  11
ATOM     11  C   UNL     1      61.317  28.087  25.350  1.00  0.00     0.000 C 
BRANCH  11  12
ATOM     12  C   UNL     1      62.217  27.100  26.107  1.00  0.00    -0.000 C 
BRANCH  12  13
ATOM     13  C   UNL     1      62.249  27.370  27.622  1.00  0.00    -0.000 C 
BRANCH  13  14
ATOM     14  C   UNL     1      61.100  28.281  28.082  1.00  0.00    -0.000 C 
BRANCH  14  15
ATOM     15  C   UNL     1      61.551  29.317  29.125  1.00  0.00    -0.000 C 
BRANCH  15  16
ATOM     16  C   UNL     1      63.033  29.704  28.980  1.00  0.00    -0.000 C 
BRANCH  16  17
ATOM     17  C   UNL     1      63.266  31.225  28.871  1.00  0.00    -0.003 C 
ATOM     18  C   UNL     1      64.748  31.594  28.931  1.00  0.00     0.004 C 
ENDBRANCH  16  17
ENDBRANCH  15  16
ENDBRANCH  14  15
ENDBRANCH  13  14
ENDBRANCH  12  13
ENDBRANCH  11  12
ENDBRANCH   1  11
TORSDOF 14
ENDMDL
MODEL 3
REMARK VINA RESULT:    -4.629      2.575      5.287
REMARK INTER + INTRA:         -10.522
REMARK INTER:                  -8.166
REMARK INTRA:                  -2.356
REMARK UNBOUND:                -2.104
REMARK SMILES CCCCCCCCCCCCCCCC(=O)[O-]
REMARK SMILES IDX 9 1 10 2 11 3 12 4 13 5 14 6 15 7 16 8 17 9 18 10 8 11 7 12
REMARK SMILES IDX 6 13 5 14 4 15 3 16 2 17 1 18
REMARK H PARENT
REMARK Flexibility Score: inf
ROOT
ATOM      1  C   UNL     1      63.032  29.520  23.974  1.00  0.00     0.000 C 
ENDROOT
BRANCH   1   2
ATOM      2  C   UNL     1      61.890  28.899  24.789  1.00  0.00     0.000 C 
BRANCH   2   3
ATOM      3  C   UNL     1      61.938  27.361  24.810  1.00  0.00     0.000 C 
BRANCH   3   4
ATOM      4  C   UNL     1      62.832  26.784  25.927  1.00  0.00     0.000 C 
BRANCH   4   5
ATOM      5  C   UNL     1      64.228  26.393  25.408  1.00  0.00     0.000 C 
BRANCH   5   6
ATOM      6  C   UNL     1      64.222  26.000  23.917  1.00  0.00     0.006 C 
BRANCH   6   7
ATOM      7  C   UNL     1      65.617  25.680  23.358  1.00  0.00     0.053 C 
BRANCH   7   8
ATOM      8  C   UNL     1      66.124  26.739  22.431  1.00  0.00     0.041 C 
ATOM      9  O   UNL     1      66.216  27.932  22.821  1.00  0.00    -0.550 OA
ATOM     10  O   UNL     1      66.495  26.410  21.133  1.00  0.00    -0.550 OA
ENDBRANCH   7   8
ENDBRANCH   6   7
ENDBRANCH   5   6
ENDBRANCH   4   5
ENDBRANCH   3   4
ENDBRANCH   2   3
ENDBRANCH   1   2
BRANCH   1  11
ATOM     11  C   UNL     1      63.764  30.602  24.782  1.00  0.00     0.000 C 
BRANCH  11  12
ATOM     12  C   UNL     1      65.006  30.059  25.506  1.00  0.00    -0.000 C 
BRANCH  12  13
ATOM     13  C   UNL     1      64.754  29.801  27.002  1.00  0.00    -0.000 C 
BRANCH  13  14
ATOM     14  C   UNL     1      64.208  31.039  27.729  1.00  0.00    -0.000 C 
BRANCH  14  15
ATOM     15  C   UNL     1      62.926  30.739  28.524  1.00  0.00    -0.000 C 
BRANCH  15  16
ATOM     16  C   UNL     1      62.632  29.233  28.636  1.00  0.00    -0.000 C 
BRANCH  16  17
ATOM     17  C   UNL     1      61.134  28.885  28.517  1.00  0.00    -0.003 C 
ATOM     18  C   UNL     1      60.830  27.454  28.957  1.00  0.00     0.004 C 
ENDBRANCH  16  17
ENDBRANCH  15  16
ENDBRANCH  14  15
ENDBRANCH  13  14
ENDBRANCH  12  13
ENDBRANCH  11  12
ENDBRANCH   1  11
TORSDOF 14
ENDMDL
MODEL 4
REMARK VINA RESULT:    -4.604     12.971     14.793
REMARK INTER + INTRA:         -10.477
REMARK INTER:                  -8.331
REMARK INTRA:                  -2.146
REMARK UNBOUND:                -2.104
REMARK SMILES CCCCCCCCCCCCCCCC(=O)[O-]
REMARK SMILES IDX 9 1 10 2 11 3 12 4 13 5 14 6 15 7 16 8 17 9 18 10 8 11 7 12
REMARK SMILES IDX 6 13 5 14 4 15 3 16 2 17 1 18
REMARK H PARENT
REMARK Flexibility Score: inf
ROOT
ATOM      1  C   UNL     1      60.845  28.526  13.419  1.00  0.00     0.000 C 
ENDROOT
BRANCH   1   2
ATOM      2  C   UNL     1      62.232  28.540  12.763  1.00  0.00     0.000 C 
BRANCH   2   3
ATOM      3  C   UNL     1      63.198  29.538  13.425  1.00  0.00     0.000 C 
BRANCH   3   4
ATOM      4  C   UNL     1      63.996  30.389  12.415  1.00  0.00     0.000 C 
BRANCH   4   5
ATOM      5  C   UNL     1      63.993  31.883  12.786  1.00  0.00     0.000 C 
BRANCH   5   6
ATOM      6  C   UNL     1      62.575  32.431  13.044  1.00  0.00     0.006 C 
BRANCH   6   7
ATOM      7  C   UNL     1      62.420  33.126  14.406  1.00  0.00     0.053 C 
BRANCH   7   8
ATOM      8  C   UNL     1      61.035  33.011  14.958  1.00  0.00     0.041 C 
ATOM      9  O   UNL     1      60.385  34.045  15.264  1.00  0.00    -0.550 OA
ATOM     10  O   UNL     1      60.458  31.759  15.137  1.00  0.00    -0.550 OA
ENDBRANCH   7   8
ENDBRANCH   6   7
ENDBRANCH   5   6
ENDBRANCH   4   5
ENDBRANCH   3   4
ENDBRANCH   2   3
ENDBRANCH   1   2
BRANCH   1  11
ATOM     11  C   UNL     1      59.749  28.888  12.406  1.00  0.00     0.000 C 
BRANCH  11  12
ATOM     12  C   UNL     1      60.017  30.225  11.699  1.00  0.00    -0.000 C 
BRANCH  12  13
ATOM     13  C   UNL     1      60.014  30.095  10.165  1.00  0.00    -0.000 C 
BRANCH  13  14
ATOM     14  C   UNL     1      60.013  28.631   9.699  1.00  0.00    -0.000 C 
BRANCH  14  15
ATOM     15  C   UNL     1      61.373  28.193   9.131  1.00  0.00    -0.000 C 
BRANCH  15  16
ATOM     16  C   UNL     1      62.345  29.370   8.934  1.00  0.00    -0.000 C 
BRANCH  16  17
ATOM     17  C   UNL     1      63.828  28.980   9.099  1.00  0.00    -0.003 C 
ATOM     18  C   UNL     1      64.770  30.162   8.878  1.00  0.00     0.004 C 
ENDBRANCH  16  17
ENDBRANCH  15  16
ENDBRANCH  14  15
ENDBRANCH  13  14
ENDBRANCH  12  13
ENDBRANCH  11  12
ENDBRANCH   1  11
TORSDOF 14
ENDMDL
MODEL 5
REMARK VINA RESULT:    -4.601      2.535      4.330
REMARK INTER + INTRA:         -10.471
REMARK INTER:                  -8.312
REMARK INTRA:                  -2.158
REMARK UNBOUND:                -2.104
REMARK SMILES CCCCCCCCCCCCCCCC(=O)[O-]
REMARK SMILES IDX 9 1 10 2 11 3 12 4 13 5 14 6 15 7 16 8 17 9 18 10 8 11 7 12
REMARK SMILES IDX 6 13 5 14 4 15 3 16 2 17 1 18
REMARK H PARENT
REMARK Flexibility Score: inf
ROOT
ATOM      1  C   UNL     1      64.536  29.937  24.059  1.00  0.00     0.000 C 
ENDROOT
BRANCH   1   2
ATOM      2  C   UNL     1      63.582  30.528  25.106  1.00  0.00     0.000 C 
BRANCH   2   3
ATOM      3  C   UNL     1      64.039  30.261  26.551  1.00  0.00     0.000 C 
BRANCH   3   4
ATOM      4  C   UNL     1      62.884  30.254  27.573  1.00  0.00     0.000 C 
BRANCH   4   5
ATOM      5  C   UNL     1      62.588  28.840  28.104  1.00  0.00     0.000 C 
BRANCH   5   6
ATOM      6  C   UNL     1      61.126  28.409  27.872  1.00  0.00     0.006 C 
BRANCH   6   7
ATOM      7  C   UNL     1      60.986  27.117  27.050  1.00  0.00     0.053 C 
BRANCH   7   8
ATOM      8  C   UNL     1      60.375  27.354  25.705  1.00  0.00     0.041 C 
ATOM      9  O   UNL     1      59.533  26.543  25.239  1.00  0.00    -0.550 OA
ATOM     10  O   UNL     1      60.737  28.471  24.962  1.00  0.00    -0.550 OA
ENDBRANCH   7   8
ENDBRANCH   6   7
ENDBRANCH   5   6
ENDBRANCH   4   5
ENDBRANCH   3   4
ENDBRANCH   2   3
ENDBRANCH   1   2
BRANCH   1  11
ATOM     11  C   UNL     1      65.954  29.782  24.627  1.00  0.00     0.000 C 
BRANCH  11  12
ATOM     12  C   UNL     1      66.746  28.660  23.939  1.00  0.00    -0.000 C 
BRANCH  12  13
ATOM     13  C   UNL     1      66.196  28.317  22.543  1.00  0.00    -0.000 C 
BRANCH  13  14
ATOM     14  C   UNL     1      66.409  26.841  22.173  1.00  0.00    -0.000 C 
BRANCH  14  15
ATOM     15  C   UNL     1      65.678  25.883  23.128  1.00  0.00    -0.000 C 
BRANCH  15  16
ATOM     16  C   UNL     1      64.146  26.003  23.037  1.00  0.00    -0.000 C 
BRANCH  16  17
ATOM     17  C   UNL     1      63.450  26.071  24.412  1.00  0.00    -0.003 C 
ATOM     18  C   UNL     1      64.416  26.437  25.538  1.00  0.00     0.004 C 
ENDBRANCH  16  17
ENDBRANCH  15  16
ENDBRANCH  14  15
ENDBRANCH  13  14
ENDBRANCH  12  13
ENDBRANCH  11  12
ENDBRANCH   1  11
TORSDOF 14
ENDMDL
MODEL 6
REMARK VINA RESULT:    -4.547     13.015     14.852
REMARK INTER + INTRA:         -10.373
REMARK INTER:                  -8.185
REMARK INTRA:                  -2.188
REMARK UNBOUND:                -2.104
REMARK SMILES CCCCCCCCCCCCCCCC(=O)[O-]
REMARK SMILES IDX 9 1 10 2 11 3 12 4 13 5 14 6 15 7 16 8 17 9 18 10 8 11 7 12
REMARK SMILES IDX 6 13 5 14 4 15 3 16 2 17 1 18
REMARK H PARENT
REMARK Flexibility Score: inf
ROOT
ATOM      1  C   UNL     1      60.294  29.267   9.383  1.00  0.00     0.000 C 
ENDROOT
BRANCH   1   2
ATOM      2  C   UNL     1      60.319  29.695  10.856  1.00  0.00     0.000 C 
BRANCH   2   3
ATOM      3  C   UNL     1      59.492  28.766  11.763  1.00  0.00     0.000 C 
BRANCH   3   4
ATOM      4  C   UNL     1      60.237  28.324  13.040  1.00  0.00     0.000 C 
BRANCH   4   5
ATOM      5  C   UNL     1      61.401  29.269  13.388  1.00  0.00     0.000 C 
BRANCH   5   6
ATOM      6  C   UNL     1      61.252  29.911  14.782  1.00  0.00     0.006 C 
BRANCH   6   7
ATOM      7  C   UNL     1      61.254  31.448  14.757  1.00  0.00     0.053 C 
BRANCH   7   8
ATOM      8  C   UNL     1      60.269  32.010  13.781  1.00  0.00     0.041 C 
ATOM      9  O   UNL     1      59.037  31.801  13.932  1.00  0.00    -0.550 OA
ATOM     10  O   UNL     1      60.711  32.766  12.702  1.00  0.00    -0.550 OA
ENDBRANCH   7   8
ENDBRANCH   6   7
ENDBRANCH   5   6
ENDBRANCH   4   5
ENDBRANCH   3   4
ENDBRANCH   2   3
ENDBRANCH   1   2
BRANCH   1  11
ATOM     11  C   UNL     1      61.602  28.564   8.989  1.00  0.00     0.000 C 
BRANCH  11  12
ATOM     12  C   UNL     1      62.733  28.813   9.998  1.00  0.00    -0.000 C 
BRANCH  12  13
ATOM     13  C   UNL     1      63.989  29.416   9.343  1.00  0.00    -0.000 C 
BRANCH  13  14
ATOM     14  C   UNL     1      64.632  30.514  10.203  1.00  0.00    -0.000 C 
BRANCH  14  15
ATOM     15  C   UNL     1      63.632  31.164  11.173  1.00  0.00    -0.000 C 
BRANCH  15  16
ATOM     16  C   UNL     1      64.271  31.553  12.518  1.00  0.00    -0.000 C 
BRANCH  16  17
ATOM     17  C   UNL     1      64.470  33.073  12.691  1.00  0.00    -0.003 C 
ATOM     18  C   UNL     1      64.187  33.540  14.118  1.00  0.00     0.004 C 
ENDBRANCH  16  17
ENDBRANCH  15  16
ENDBRANCH  14  15
ENDBRANCH  13  14
ENDBRANCH  12  13
ENDBRANCH  11  12
ENDBRANCH   1  11
TORSDOF 14
ENDMDL
MODEL 7
REMARK VINA RESULT:    -4.541     13.332     15.538
REMARK INTER + INTRA:         -10.362
REMARK INTER:                  -8.428
REMARK INTRA:                  -1.934
REMARK UNBOUND:                -2.104
REMARK SMILES CCCCCCCCCCCCCCCC(=O)[O-]
REMARK SMILES IDX 9 1 10 2 11 3 12 4 13 5 14 6 15 7 16 8 17 9 18 10 8 11 7 12
REMARK SMILES IDX 6 13 5 14 4 15 3 16 2 17 1 18
REMARK H PARENT
REMARK Flexibility Score: inf
ROOT
ATOM      1  C   UNL     1      60.001  29.762  11.129  1.00  0.00     0.000 C 
ENDROOT
BRANCH   1   2
ATOM      2  C   UNL     1      60.104  29.200   9.705  1.00  0.00     0.000 C 
BRANCH   2   3
ATOM      3  C   UNL     1      61.325  28.283   9.511  1.00  0.00     0.000 C 
BRANCH   3   4
ATOM      4  C   UNL     1      62.566  29.014   8.958  1.00  0.00     0.000 C 
BRANCH   4   5
ATOM      5  C   UNL     1      63.660  29.189  10.027  1.00  0.00     0.000 C 
BRANCH   5   6
ATOM      6  C   UNL     1      63.752  30.634  10.555  1.00  0.00     0.006 C 
BRANCH   6   7
ATOM      7  C   UNL     1      64.744  31.514   9.777  1.00  0.00     0.053 C 
BRANCH   7   8
ATOM      8  C   UNL     1      65.376  32.566  10.633  1.00  0.00     0.041 C 
ATOM      9  O   UNL     1      66.486  33.063  10.311  1.00  0.00    -0.550 OA
ATOM     10  O   UNL     1      64.739  32.998  11.790  1.00  0.00    -0.550 OA
ENDBRANCH   7   8
ENDBRANCH   6   7
ENDBRANCH   5   6
ENDBRANCH   4   5
ENDBRANCH   3   4
ENDBRANCH   2   3
ENDBRANCH   1   2
BRANCH   1  11
ATOM     11  C   UNL     1      59.394  28.728  12.090  1.00  0.00     0.000 C 
BRANCH  11  12
ATOM     12  C   UNL     1      60.405  28.227  13.132  1.00  0.00    -0.000 C 
BRANCH  12  13
ATOM     13  C   UNL     1      61.687  29.078  13.171  1.00  0.00    -0.000 C 
BRANCH  13  14
ATOM     14  C   UNL     1      61.731  30.019  14.385  1.00  0.00    -0.000 C 
BRANCH  14  15
ATOM     15  C   UNL     1      62.498  31.320  14.095  1.00  0.00    -0.000 C 
BRANCH  15  16
ATOM     16  C   UNL     1      61.682  32.320  13.258  1.00  0.00    -0.000 C 
BRANCH  16  17
ATOM     17  C   UNL     1      60.397  32.809  13.959  1.00  0.00    -0.003 C 
ATOM     18  C   UNL     1      60.682  33.858  15.033  1.00  0.00     0.004 C 
ENDBRANCH  16  17
ENDBRANCH  15  16
ENDBRANCH  14  15
ENDBRANCH  13  14
ENDBRANCH  12  13
ENDBRANCH  11  12
ENDBRANCH   1  11
TORSDOF 14
ENDMDL
MODEL 8
REMARK VINA RESULT:    -4.513      2.806      5.909
REMARK INTER + INTRA:         -10.311
REMARK INTER:                  -8.199
REMARK INTRA:                  -2.112
REMARK UNBOUND:                -2.104
REMARK SMILES CCCCCCCCCCCCCCCC(=O)[O-]
REMARK SMILES IDX 9 1 10 2 11 3 12 4 13 5 14 6 15 7 16 8 17 9 18 10 8 11 7 12
REMARK SMILES IDX 6 13 5 14 4 15 3 16 2 17 1 18
REMARK H PARENT
REMARK Flexibility Score: inf
ROOT
ATOM      1  C   UNL     1      63.501  30.500  26.224  1.00  0.00     0.000 C 
ENDROOT
BRANCH   1   2
ATOM      2  C   UNL     1      64.381  30.351  24.976  1.00  0.00     0.000 C 
BRANCH   2   3
ATOM      3  C   UNL     1      64.410  28.912  24.431  1.00  0.00     0.000 C 
BRANCH   3   4
ATOM      4  C   UNL     1      65.224  27.936  25.306  1.00  0.00     0.000 C 
BRANCH   4   5
ATOM      5  C   UNL     1      64.887  26.465  25.001  1.00  0.00     0.000 C 
BRANCH   5   6
ATOM      6  C   UNL     1      64.578  26.220  23.511  1.00  0.00     0.006 C 
BRANCH   6   7
ATOM      7  C   UNL     1      65.729  25.548  22.744  1.00  0.00     0.053 C 
BRANCH   7   8
ATOM      8  C   UNL     1      66.359  26.458  21.737  1.00  0.00     0.041 C 
ATOM      9  O   UNL     1      66.520  26.074  20.549  1.00  0.00    -0.550 OA
ATOM     10  O   UNL     1      66.770  27.732  22.110  1.00  0.00    -0.550 OA
ENDBRANCH   7   8
ENDBRANCH   6   7
ENDBRANCH   5   6
ENDBRANCH   4   5
ENDBRANCH   3   4
ENDBRANCH   2   3
ENDBRANCH   1   2
BRANCH   1  11
ATOM     11  C   UNL     1      64.353  30.784  27.471  1.00  0.00     0.000 C 
BRANCH  11  12
ATOM     12  C   UNL     1      63.626  30.424  28.775  1.00  0.00    -0.000 C 
BRANCH  12  13
ATOM     13  C   UNL     1      62.186  29.936  28.536  1.00  0.00    -0.000 C 
BRANCH  13  14
ATOM     14  C   UNL     1      61.935  28.537  29.121  1.00  0.00    -0.000 C 
BRANCH  14  15
ATOM     15  C   UNL     1      62.280  27.413  28.131  1.00  0.00    -0.000 C 
BRANCH  15  16
ATOM     16  C   UNL     1      61.106  27.052  27.204  1.00  0.00    -0.000 C 
BRANCH  16  17
ATOM     17  C   UNL     1      61.460  27.119  25.703  1.00  0.00    -0.003 C 
ATOM     18  C   UNL     1      60.763  28.277  24.991  1.00  0.00     0.004 C 
ENDBRANCH  16  17
ENDBRANCH  15  16
ENDBRANCH  14  15
ENDBRANCH  13  14
ENDBRANCH  12  13
ENDBRANCH  11  12
ENDBRANCH   1  11
TORSDOF 14
ENDMDL
MODEL 9
REMARK VINA RESULT:    -4.506      2.646      5.073
REMARK INTER + INTRA:         -10.298
REMARK INTER:                  -8.128
REMARK INTRA:                  -2.170
REMARK UNBOUND:                -2.104
REMARK SMILES CCCCCCCCCCCCCCCC(=O)[O-]
REMARK SMILES IDX 9 1 10 2 11 3 12 4 13 5 14 6 15 7 16 8 17 9 18 10 8 11 7 12
REMARK SMILES IDX 6 13 5 14 4 15 3 16 2 17 1 18
REMARK H PARENT
REMARK Flexibility Score: inf
ROOT
ATOM      1  C   UNL     1      61.980  29.238  28.106  1.00  0.00     0.000 C 
ENDROOT
BRANCH   1   2
ATOM      2  C   UNL     1      61.977  27.703  28.092  1.00  0.00     0.000 C 
BRANCH   2   3
ATOM      3  C   UNL     1      61.273  27.118  26.855  1.00  0.00     0.000 C 
BRANCH   3   4
ATOM      4  C   UNL     1      62.000  27.417  25.529  1.00  0.00     0.000 C 
BRANCH   4   5
ATOM      5  C   UNL     1      63.258  26.548  25.348  1.00  0.00     0.000 C 
BRANCH   5   6
ATOM      6  C   UNL     1      63.854  26.649  23.930  1.00  0.00     0.006 C 
BRANCH   6   7
ATOM      7  C   UNL     1      65.242  26.000  23.796  1.00  0.00     0.053 C 
BRANCH   7   8
ATOM      8  C   UNL     1      66.015  26.529  22.630  1.00  0.00     0.041 C 
ATOM      9  O   UNL     1      66.446  27.712  22.637  1.00  0.00    -0.550 OA
ATOM     10  O   UNL     1      66.262  25.715  21.531  1.00  0.00    -0.550 OA
ENDBRANCH   7   8
ENDBRANCH   6   7
ENDBRANCH   5   6
ENDBRANCH   4   5
ENDBRANCH   3   4
ENDBRANCH   2   3
ENDBRANCH   1   2
BRANCH   1  11
ATOM     11  C   UNL     1      63.035  29.780  29.082  1.00  0.00     0.000 C 
BRANCH  11  12
ATOM     12  C   UNL     1      63.368  31.258  28.829  1.00  0.00    -0.000 C 
BRANCH  12  13
ATOM     13  C   UNL     1      64.871  31.560  28.973  1.00  0.00    -0.000 C 
BRANCH  13  14
ATOM     14  C   UNL     1      65.751  30.363  28.580  1.00  0.00    -0.000 C 
BRANCH  14  15
ATOM     15  C   UNL     1      66.217  30.430  27.117  1.00  0.00    -0.000 C 
BRANCH  15  16
ATOM     16  C   UNL     1      65.506  29.405  26.216  1.00  0.00    -0.000 C 
BRANCH  16  17
ATOM     17  C   UNL     1      64.902  30.020  24.937  1.00  0.00    -0.003 C 
ATOM     18  C   UNL     1      63.612  30.791  25.214  1.00  0.00     0.004 C 
ENDBRANCH  16  17
ENDBRANCH  15  16
ENDBRANCH  14  15
ENDBRANCH  13  14
ENDBRANCH  12  13
ENDBRANCH  11  12
ENDBRANCH   1  11
TORSDOF 14
ENDMDL
