MODEL 1
REMARK VINA RESULT:    -3.658      0.000      0.000
REMARK INTER + INTRA:          -5.186
REMARK INTER:                  -4.941
REMARK INTRA:                  -0.245
REMARK UNBOUND:                -0.245
REMARK SMILES CCCCCCCC(=O)[O-]
REMARK SMILES IDX 5 1 6 2 7 3 8 4 9 5 10 6 4 7 3 8 2 9 1 10
REMARK H PARENT
REMARK Flexibility Score: inf
ROOT
ATOM      1  C   UNL     1      -0.196   3.571   6.589  1.00  0.00     0.000 C 
ENDROOT
BRANCH   1   2
ATOM      2  C   UNL     1      -0.144   3.061   5.141  1.00  0.00     0.006 C 
BRANCH   2   3
ATOM      3  C   UNL     1       0.711   3.955   4.232  1.00  0.00     0.053 C 
BRANCH   3   4
ATOM      4  C   UNL     1       0.121   4.021   2.859  1.00  0.00     0.041 C 
ATOM      5  O   UNL     1      -0.718   3.157   2.489  1.00  0.00    -0.550 OA
ATOM      6  O   UNL     1       0.459   5.062   2.006  1.00  0.00    -0.550 OA
ENDBRANCH   3   4
ENDBRANCH   2   3
ENDBRANCH   1   2
BRANCH   1   7
ATOM      7  C   UNL     1      -0.538   2.459   7.596  1.00  0.00     0.000 C 
BRANCH   7   8
ATOM      8  C   UNL     1      -0.562   1.065   6.936  1.00  0.00    -0.000 C 
BRANCH   8   9
ATOM      9  C   UNL     1      -1.259  -0.009   7.790  1.00  0.00    -0.003 C 
ATOM     10  C   UNL     1      -2.029   0.575   8.973  1.00  0.00     0.004 C 
ENDBRANCH   8   9
ENDBRANCH   7   8
ENDBRANCH   1   7
TORSDOF 6
ENDMDL
MODEL 2
REMARK VINA RESULT:    -3.638      9.036     10.154
REMARK INTER + INTRA:          -5.159
REMARK INTER:                  -4.911
REMARK INTRA:                  -0.248
REMARK UNBOUND:                -0.245
REMARK SMILES CCCCCCCC(=O)[O-]
REMARK SMILES IDX 5 1 6 2 7 3 8 4 9 5 10 6 4 7 3 8 2 9 1 10
REMARK H PARENT
REMARK Flexibility Score: inf
ROOT
ATOM      1  C   UNL     1       1.317   6.350  -2.483  1.00  0.00     0.000 C 
ENDROOT
BRANCH   1   2
ATOM      2  C   UNL     1       2.248   7.028  -3.499  1.00  0.00     0.006 C 
BRANCH   2   3
ATOM      3  C   UNL     1       3.603   7.414  -2.889  1.00  0.00     0.053 C 
BRANCH   3   4
ATOM      4  C   UNL     1       4.550   6.257  -2.947  1.00  0.00     0.041 C 
ATOM      5  O   UNL     1       5.114   5.954  -4.032  1.00  0.00    -0.550 OA
ATOM      6  O   UNL     1       4.847   5.544  -1.794  1.00  0.00    -0.550 OA
ENDBRANCH   3   4
ENDBRANCH   2   3
ENDBRANCH   1   2
BRANCH   1   7
ATOM      7  C   UNL     1       0.885   7.297  -1.351  1.00  0.00     0.000 C 
BRANCH   7   8
ATOM      8  C   UNL     1       0.086   8.507  -1.878  1.00  0.00    -0.000 C 
BRANCH   8   9
ATOM      9  C   UNL     1      -1.403   8.479  -1.492  1.00  0.00    -0.003 C 
ATOM     10  C   UNL     1      -2.073   9.848  -1.596  1.00  0.00     0.004 C 
ENDBRANCH   8   9
ENDBRANCH   7   8
ENDBRANCH   1   7
TORSDOF 6
ENDMDL
MODEL 3
REMARK VINA RESULT:    -3.502      1.674      2.134
REMARK INTER + INTRA:          -4.976
REMARK INTER:                  -4.706
REMARK INTRA:                  -0.269
REMARK UNBOUND:                -0.245
REMARK SMILES CCCCCCCC(=O)[O-]
REMARK SMILES IDX 5 1 6 2 7 3 8 4 9 5 10 6 4 7 3 8 2 9 1 10
REMARK H PARENT
REMARK Flexibility Score: inf
ROOT
ATOM      1  C   UNL     1      -0.296   3.192   6.670  1.00  0.00     0.000 C 
ENDROOT
BRANCH   1   2
ATOM      2  C   UNL     1      -0.120   2.994   5.157  1.00  0.00     0.006 C 
BRANCH   2   3
ATOM      3  C   UNL     1      -0.168   4.317   4.382  1.00  0.00     0.053 C 
BRANCH   3   4
ATOM      4  C   UNL     1      -0.186   4.058   2.908  1.00  0.00     0.041 C 
ATOM      5  O   UNL     1      -0.790   3.053   2.450  1.00  0.00    -0.550 OA
ATOM      6  O   UNL     1       0.423   4.953   2.038  1.00  0.00    -0.550 OA
ENDBRANCH   3   4
ENDBRANCH   2   3
ENDBRANCH   1   2
BRANCH   1   7
ATOM      7  C   UNL     1      -0.634   4.647   7.042  1.00  0.00     0.000 C 
BRANCH   7   8
ATOM      8  C   UNL     1      -1.745   4.732   8.109  1.00  0.00    -0.000 C 
BRANCH   8   9
ATOM      9  C   UNL     1      -1.906   3.444   8.935  1.00  0.00    -0.003 C 
ATOM     10  C   UNL     1      -3.302   3.293   9.539  1.00  0.00     0.004 C 
ENDBRANCH   8   9
ENDBRANCH   7   8
ENDBRANCH   1   7
TORSDOF 6
ENDMDL
MODEL 4
REMARK VINA RESULT:    -3.455      4.527      8.024
REMARK INTER + INTRA:          -4.912
REMARK INTER:                  -4.664
REMARK INTRA:                  -0.248
REMARK UNBOUND:                -0.245
REMARK SMILES CCCCCCCC(=O)[O-]
REMARK SMILES IDX 5 1 6 2 7 3 8 4 9 5 10 6 4 7 3 8 2 9 1 10
REMARK H PARENT
REMARK Flexibility Score: inf
ROOT
ATOM      1  C   UNL     1       0.601   7.645   0.749  1.00  0.00     0.000 C 
ENDROOT
BRANCH   1   2
ATOM      2  C   UNL     1       1.146   6.828   1.930  1.00  0.00     0.006 C 
BRANCH   2   3
ATOM      3  C   UNL     1       0.044   6.063   2.675  1.00  0.00     0.053 C 
BRANCH   3   4
ATOM      4  C   UNL     1       0.328   4.594   2.661  1.00  0.00     0.041 C 
ATOM      5  O   UNL     1      -0.605   3.771   2.466  1.00  0.00    -0.550 OA
ATOM      6  O   UNL     1       1.629   4.136   2.816  1.00  0.00    -0.550 OA
ENDBRANCH   3   4
ENDBRANCH   2   3
ENDBRANCH   1   2
BRANCH   1   7
ATOM      7  C   UNL     1       0.909   6.997  -0.612  1.00  0.00     0.000 C 
BRANCH   7   8
ATOM      8  C   UNL     1       0.165   7.694  -1.770  1.00  0.00    -0.000 C 
BRANCH   8   9
ATOM      9  C   UNL     1      -0.546   8.993  -1.353  1.00  0.00    -0.003 C 
ATOM     10  C   UNL     1      -2.062   8.926  -1.524  1.00  0.00     0.004 C 
ENDBRANCH   8   9
ENDBRANCH   7   8
ENDBRANCH   1   7
TORSDOF 6
ENDMDL
MODEL 5
REMARK VINA RESULT:    -3.403      8.349     10.388
REMARK INTER + INTRA:          -4.842
REMARK INTER:                  -4.321
REMARK INTRA:                  -0.521
REMARK UNBOUND:                -0.245
REMARK SMILES CCCCCCCC(=O)[O-]
REMARK SMILES IDX 5 1 6 2 7 3 8 4 9 5 10 6 4 7 3 8 2 9 1 10
REMARK H PARENT
REMARK Flexibility Score: inf
ROOT
ATOM      1  C   UNL     1       1.877   8.809  -2.958  1.00  0.00     0.000 C 
ENDROOT
BRANCH   1   2
ATOM      2  C   UNL     1       0.528   9.359  -2.469  1.00  0.00     0.006 C 
BRANCH   2   3
ATOM      3  C   UNL     1      -0.304   8.304  -1.729  1.00  0.00     0.053 C 
BRANCH   3   4
ATOM      4  C   UNL     1       0.423   7.826  -0.511  1.00  0.00     0.041 C 
ATOM      5  O   UNL     1       0.611   8.605   0.460  1.00  0.00    -0.550 OA
ATOM      6  O   UNL     1       0.849   6.507  -0.430  1.00  0.00    -0.550 OA
ENDBRANCH   3   4
ENDBRANCH   2   3
ENDBRANCH   1   2
BRANCH   1   7
ATOM      7  C   UNL     1       1.720   7.771  -4.082  1.00  0.00     0.000 C 
BRANCH   7   8
ATOM      8  C   UNL     1       2.272   6.388  -3.677  1.00  0.00    -0.000 C 
BRANCH   8   9
ATOM      9  C   UNL     1       3.526   6.460  -2.789  1.00  0.00    -0.003 C 
ATOM     10  C   UNL     1       4.827   6.325  -3.580  1.00  0.00     0.004 C 
ENDBRANCH   8   9
ENDBRANCH   7   8
ENDBRANCH   1   7
TORSDOF 6
ENDMDL
MODEL 6
REMARK VINA RESULT:    -3.399      8.601     10.219
REMARK INTER + INTRA:          -4.837
REMARK INTER:                  -4.600
REMARK INTRA:                  -0.237
REMARK UNBOUND:                -0.245
REMARK SMILES CCCCCCCC(=O)[O-]
REMARK SMILES IDX 5 1 6 2 7 3 8 4 9 5 10 6 4 7 3 8 2 9 1 10
REMARK H PARENT
REMARK Flexibility Score: inf
ROOT
ATOM      1  C   UNL     1       1.422   8.549  -3.579  1.00  0.00     0.000 C 
ENDROOT
BRANCH   1   2
ATOM      2  C   UNL     1       1.494   7.044  -3.278  1.00  0.00     0.006 C 
BRANCH   2   3
ATOM      3  C   UNL     1       2.598   6.337  -4.073  1.00  0.00     0.053 C 
BRANCH   3   4
ATOM      4  C   UNL     1       3.876   6.322  -3.294  1.00  0.00     0.041 C 
ATOM      5  O   UNL     1       3.861   6.526  -2.052  1.00  0.00    -0.550 OA
ATOM      6  O   UNL     1       5.075   6.036  -3.932  1.00  0.00    -0.550 OA
ENDBRANCH   3   4
ENDBRANCH   2   3
ENDBRANCH   1   2
BRANCH   1   7
ATOM      7  C   UNL     1       0.518   9.308  -2.593  1.00  0.00     0.000 C 
BRANCH   7   8
ATOM      8  C   UNL     1      -0.416   8.360  -1.812  1.00  0.00    -0.000 C 
BRANCH   8   9
ATOM      9  C   UNL     1      -1.225   9.062  -0.708  1.00  0.00    -0.003 C 
ATOM     10  C   UNL     1      -0.553   8.988   0.663  1.00  0.00     0.004 C 
ENDBRANCH   8   9
ENDBRANCH   7   8
ENDBRANCH   1   7
TORSDOF 6
ENDMDL
MODEL 7
REMARK VINA RESULT:    -3.374      4.600      6.180
REMARK INTER + INTRA:          -4.802
REMARK INTER:                  -4.493
REMARK INTRA:                  -0.309
REMARK UNBOUND:                -0.245
REMARK SMILES CCCCCCCC(=O)[O-]
REMARK SMILES IDX 5 1 6 2 7 3 8 4 9 5 10 6 4 7 3 8 2 9 1 10
REMARK H PARENT
REMARK Flexibility Score: inf
ROOT
ATOM      1  C   UNL     1       0.516   7.981   2.217  1.00  0.00     0.000 C 
ENDROOT
BRANCH   1   2
ATOM      2  C   UNL     1       0.239   8.070   0.709  1.00  0.00     0.006 C 
BRANCH   2   3
ATOM      3  C   UNL     1       1.133   7.129  -0.110  1.00  0.00     0.053 C 
BRANCH   3   4
ATOM      4  C   UNL     1       0.703   7.117  -1.543  1.00  0.00     0.041 C 
ATOM      5  O   UNL     1       0.931   6.109  -2.263  1.00  0.00    -0.550 OA
ATOM      6  O   UNL     1       0.009   8.197  -2.070  1.00  0.00    -0.550 OA
ENDBRANCH   3   4
ENDBRANCH   2   3
ENDBRANCH   1   2
BRANCH   1   7
ATOM      7  C   UNL     1      -0.594   7.238   2.981  1.00  0.00     0.000 C 
BRANCH   7   8
ATOM      8  C   UNL     1      -0.076   5.949   3.652  1.00  0.00    -0.000 C 
BRANCH   8   9
ATOM      9  C   UNL     1       0.186   4.801   2.663  1.00  0.00    -0.003 C 
ATOM     10  C   UNL     1      -0.772   3.624   2.844  1.00  0.00     0.004 C 
ENDBRANCH   8   9
ENDBRANCH   7   8
ENDBRANCH   1   7
TORSDOF 6
ENDMDL
MODEL 8
REMARK VINA RESULT:    -3.348      9.735     11.162
REMARK INTER + INTRA:          -4.768
REMARK INTER:                  -4.325
REMARK INTRA:                  -0.443
REMARK UNBOUND:                -0.245
REMARK SMILES CCCCCCCC(=O)[O-]
REMARK SMILES IDX 5 1 6 2 7 3 8 4 9 5 10 6 4 7 3 8 2 9 1 10
REMARK H PARENT
REMARK Flexibility Score: inf
ROOT
ATOM      1  C   UNL     1       4.108   6.310  -3.788  1.00  0.00     0.000 C 
ENDROOT
BRANCH   1   2
ATOM      2  C   UNL     1       2.573   6.308  -3.844  1.00  0.00     0.006 C 
BRANCH   2   3
ATOM      3  C   UNL     1       1.971   7.687  -3.543  1.00  0.00     0.053 C 
BRANCH   3   4
ATOM      4  C   UNL     1       0.913   7.577  -2.491  1.00  0.00     0.041 C 
ATOM      5  O   UNL     1       0.151   8.552  -2.256  1.00  0.00    -0.550 OA
ATOM      6  O   UNL     1       0.737   6.383  -1.805  1.00  0.00    -0.550 OA
ENDBRANCH   3   4
ENDBRANCH   2   3
ENDBRANCH   1   2
BRANCH   1   7
ATOM      7  C   UNL     1       4.648   6.164  -2.355  1.00  0.00     0.000 C 
BRANCH   7   8
ATOM      8  C   UNL     1       5.669   7.266  -2.003  1.00  0.00    -0.000 C 
BRANCH   8   9
ATOM      9  C   UNL     1       6.153   8.070  -3.222  1.00  0.00    -0.003 C 
ATOM     10  C   UNL     1       5.824   9.559  -3.125  1.00  0.00     0.004 C 
ENDBRANCH   8   9
ENDBRANCH   7   8
ENDBRANCH   1   7
TORSDOF 6
ENDMDL
MODEL 9
REMARK VINA RESULT:    -3.324      8.580      9.996
REMARK INTER + INTRA:          -4.735
REMARK INTER:                  -4.488
REMARK INTRA:                  -0.247
REMARK UNBOUND:                -0.245
REMARK SMILES CCCCCCCC(=O)[O-]
REMARK SMILES IDX 5 1 6 2 7 3 8 4 9 5 10 6 4 7 3 8 2 9 1 10
REMARK H PARENT
REMARK Flexibility Score: inf
ROOT
ATOM      1  C   UNL     1       4.064   6.645  -2.189  1.00  0.00     0.000 C 
ENDROOT
BRANCH   1   2
ATOM      2  C   UNL     1       5.088   5.593  -1.737  1.00  0.00     0.006 C 
BRANCH   2   3
ATOM      3  C   UNL     1       5.934   6.068  -0.549  1.00  0.00     0.053 C 
BRANCH   3   4
ATOM      4  C   UNL     1       5.767   5.142   0.615  1.00  0.00     0.041 C 
ATOM      5  O   UNL     1       4.812   5.304   1.419  1.00  0.00    -0.550 OA
ATOM      6  O   UNL     1       6.636   4.073   0.783  1.00  0.00    -0.550 OA
ENDBRANCH   3   4
ENDBRANCH   2   3
ENDBRANCH   1   2
BRANCH   1   7
ATOM      7  C   UNL     1       3.565   6.407  -3.625  1.00  0.00     0.000 C 
BRANCH   7   8
ATOM      8  C   UNL     1       2.058   6.703  -3.773  1.00  0.00    -0.000 C 
BRANCH   8   9
ATOM      9  C   UNL     1       1.252   6.460  -2.485  1.00  0.00    -0.003 C 
ATOM     10  C   UNL     1       0.394   7.658  -2.082  1.00  0.00     0.004 C 
ENDBRANCH   8   9
ENDBRANCH   7   8
ENDBRANCH   1   7
TORSDOF 6
ENDMDL
