MODEL 1
REMARK VINA RESULT:    -6.982      0.000      0.000
REMARK INTER + INTRA:          -8.123
REMARK INTER:                  -8.207
REMARK INTRA:                   0.084
REMARK UNBOUND:                 0.084
REMARK SMILES O=c1c(O)c(-c2ccc(O)c(O)c2)oc2cc(O)ccc12
REMARK SMILES IDX 5 1 3 2 2 3 1 4 21 5 15 6 14 7 16 8 17 9 19 10 20 11 6 12
REMARK SMILES IDX 7 13 8 14 9 15 13 16 11 17 10 18 12 20 4 22 18 24
REMARK H PARENT 10 19 12 21 4 23 18 25
REMARK Flexibility Score: inf
ROOT
ATOM      1  C   UNL     1     -16.304  14.751  -8.214  1.00  0.00     0.180 A 
ATOM      2  C   UNL     1     -15.071  15.397  -8.440  1.00  0.00     0.208 A 
ATOM      3  C   UNL     1     -14.577  16.272  -7.461  1.00  0.00     0.235 A 
ATOM      4  O   UNL     1     -13.471  16.854  -7.634  1.00  0.00    -0.285 OA
ATOM      5  C   UNL     1     -15.326  16.500  -6.296  1.00  0.00     0.069 A 
ATOM      6  C   UNL     1     -16.562  15.833  -6.155  1.00  0.00     0.142 A 
ATOM      7  O   UNL     1     -16.991  15.005  -7.103  1.00  0.00    -0.452 OA
ATOM      8  C   UNL     1     -17.344  16.040  -5.014  1.00  0.00     0.094 A 
ATOM      9  C   UNL     1     -16.905  16.905  -4.006  1.00  0.00     0.119 A 
ATOM     10  C   UNL     1     -15.677  17.568  -4.141  1.00  0.00     0.047 A 
ATOM     11  C   UNL     1     -14.890  17.368  -5.279  1.00  0.00     0.020 A 
ENDROOT
BRANCH   1  12
ATOM     12  C   UNL     1     -16.883  13.800  -9.190  1.00  0.00     0.025 A 
ATOM     13  C   UNL     1     -18.264  13.813  -9.430  1.00  0.00     0.016 A 
ATOM     14  C   UNL     1     -18.834  12.912 -10.331  1.00  0.00     0.051 A 
ATOM     15  C   UNL     1     -18.040  11.971 -10.997  1.00  0.00     0.157 A 
ATOM     16  C   UNL     1     -16.087  12.841  -9.839  1.00  0.00     0.062 A 
ATOM     17  C   UNL     1     -16.649  11.931 -10.742  1.00  0.00     0.158 A 
BRANCH  15  18
ATOM     18  O   UNL     1     -18.670  11.102 -11.891  1.00  0.00    -0.504 OA
ATOM     19  H   UNL     1     -18.202  10.347 -12.369  1.00  0.00     0.293 HD
ENDBRANCH  15  18
BRANCH  17  20
ATOM     20  O   UNL     1     -15.798  11.008 -11.354  1.00  0.00    -0.504 OA
ATOM     21  H   UNL     1     -15.079  10.493 -10.866  1.00  0.00     0.293 HD
ENDBRANCH  17  20
ENDBRANCH   1  12
BRANCH   2  22
ATOM     22  O   UNL     1     -14.371  15.189  -9.630  1.00  0.00    -0.502 OA
ATOM     23  H   UNL     1     -13.579  14.560  -9.690  1.00  0.00     0.293 HD
ENDBRANCH   2  22
BRANCH   9  24
ATOM     24  O   UNL     1     -17.696  17.099  -2.875  1.00  0.00    -0.508 OA
ATOM     25  H   UNL     1     -17.899  16.340  -2.235  1.00  0.00     0.293 HD
ENDBRANCH   9  24
TORSDOF 5
ENDMDL
MODEL 2
REMARK VINA RESULT:    -6.629      2.146      3.932
REMARK INTER + INTRA:          -7.708
REMARK INTER:                  -7.438
REMARK INTRA:                  -0.270
REMARK UNBOUND:                 0.084
REMARK SMILES O=c1c(O)c(-c2ccc(O)c(O)c2)oc2cc(O)ccc12
REMARK SMILES IDX 5 1 3 2 2 3 1 4 21 5 15 6 14 7 16 8 17 9 19 10 20 11 6 12
REMARK SMILES IDX 7 13 8 14 9 15 13 16 11 17 10 18 12 20 4 22 18 24
REMARK H PARENT 10 19 12 21 4 23 18 25
REMARK Flexibility Score: inf
ROOT
ATOM      1  C   UNL     1     -17.687  13.580  -8.145  1.00  0.00     0.180 A 
ATOM      2  C   UNL     1     -17.980  14.214  -6.920  1.00  0.00     0.208 A 
ATOM      3  C   UNL     1     -17.133  15.238  -6.468  1.00  0.00     0.235 A 
ATOM      4  O   UNL     1     -17.381  15.828  -5.382  1.00  0.00    -0.285 OA
ATOM      5  C   UNL     1     -16.009  15.590  -7.231  1.00  0.00     0.069 A 
ATOM      6  C   UNL     1     -15.770  14.891  -8.433  1.00  0.00     0.142 A 
ATOM      7  O   UNL     1     -16.602  13.933  -8.830  1.00  0.00    -0.452 OA
ATOM      8  C   UNL     1     -14.655  15.206  -9.217  1.00  0.00     0.094 A 
ATOM      9  C   UNL     1     -13.772  16.214  -8.815  1.00  0.00     0.119 A 
ATOM     10  C   UNL     1     -14.006  16.911  -7.622  1.00  0.00     0.047 A 
ATOM     11  C   UNL     1     -15.118  16.603  -6.832  1.00  0.00     0.020 A 
ENDROOT
BRANCH   1  12
ATOM     12  C   UNL     1     -18.541  12.505  -8.698  1.00  0.00     0.025 A 
ATOM     13  C   UNL     1     -19.464  12.807  -9.708  1.00  0.00     0.016 A 
ATOM     14  C   UNL     1     -20.293  11.813 -10.230  1.00  0.00     0.051 A 
ATOM     15  C   UNL     1     -20.229  10.502  -9.743  1.00  0.00     0.157 A 
ATOM     16  C   UNL     1     -18.490  11.195  -8.190  1.00  0.00     0.062 A 
ATOM     17  C   UNL     1     -19.320  10.191  -8.704  1.00  0.00     0.158 A 
BRANCH  15  18
ATOM     18  O   UNL     1     -21.080   9.552 -10.312  1.00  0.00    -0.504 OA
ATOM     19  H   UNL     1     -20.768   8.800 -10.908  1.00  0.00     0.293 HD
ENDBRANCH  15  18
BRANCH  17  20
ATOM     20  O   UNL     1     -19.214   8.912  -8.155  1.00  0.00    -0.504 OA
ATOM     21  H   UNL     1     -19.587   8.652  -7.253  1.00  0.00     0.293 HD
ENDBRANCH  17  20
ENDBRANCH   1  12
BRANCH   2  22
ATOM     22  O   UNL     1     -19.079  13.809  -6.159  1.00  0.00    -0.502 OA
ATOM     23  H   UNL     1     -18.977  13.372  -5.250  1.00  0.00     0.293 HD
ENDBRANCH   2  22
BRANCH   9  24
ATOM     24  O   UNL     1     -12.666  16.514  -9.608  1.00  0.00    -0.508 OA
ATOM     25  H   UNL     1     -12.712  17.219 -10.335  1.00  0.00     0.293 HD
ENDBRANCH   9  24
TORSDOF 5
ENDMDL
MODEL 3
REMARK VINA RESULT:    -6.592      1.844      7.172
REMARK INTER + INTRA:          -7.664
REMARK INTER:                  -7.401
REMARK INTRA:                  -0.263
REMARK UNBOUND:                 0.084
REMARK SMILES O=c1c(O)c(-c2ccc(O)c(O)c2)oc2cc(O)ccc12
REMARK SMILES IDX 5 1 3 2 2 3 1 4 21 5 15 6 14 7 16 8 17 9 19 10 20 11 6 12
REMARK SMILES IDX 7 13 8 14 9 15 13 16 11 17 10 18 12 20 4 22 18 24
REMARK H PARENT 10 19 12 21 4 23 18 25
REMARK Flexibility Score: inf
ROOT
ATOM      1  C   UNL     1     -16.816  14.918  -7.174  1.00  0.00     0.180 A 
ATOM      2  C   UNL     1     -18.161  14.494  -7.136  1.00  0.00     0.208 A 
ATOM      3  C   UNL     1     -18.603  13.564  -8.089  1.00  0.00     0.235 A 
ATOM      4  O   UNL     1     -19.798  13.159  -8.069  1.00  0.00    -0.285 OA
ATOM      5  C   UNL     1     -17.709  13.096  -9.065  1.00  0.00     0.069 A 
ATOM      6  C   UNL     1     -16.386  13.588  -9.051  1.00  0.00     0.142 A 
ATOM      7  O   UNL     1     -16.004  14.462  -8.126  1.00  0.00    -0.452 OA
ATOM      8  C   UNL     1     -15.467  13.154 -10.013  1.00  0.00     0.094 A 
ATOM      9  C   UNL     1     -15.853  12.231 -10.991  1.00  0.00     0.119 A 
ATOM     10  C   UNL     1     -17.165  11.739 -11.007  1.00  0.00     0.047 A 
ATOM     11  C   UNL     1     -18.091  12.168 -10.051  1.00  0.00     0.020 A 
ENDROOT
BRANCH   1  12
ATOM     12  C   UNL     1     -16.268  15.882  -6.194  1.00  0.00     0.025 A 
ATOM     13  C   UNL     1     -15.496  15.414  -5.122  1.00  0.00     0.016 A 
ATOM     14  C   UNL     1     -14.985  16.303  -4.175  1.00  0.00     0.051 A 
ATOM     15  C   UNL     1     -15.250  17.675  -4.269  1.00  0.00     0.157 A 
ATOM     16  C   UNL     1     -16.554  17.256  -6.278  1.00  0.00     0.062 A 
ATOM     17  C   UNL     1     -16.051  18.156  -5.331  1.00  0.00     0.158 A 
BRANCH  15  18
ATOM     18  O   UNL     1     -14.704  18.512  -3.294  1.00  0.00    -0.504 OA
ATOM     19  H   UNL     1     -13.723  18.541  -3.060  1.00  0.00     0.293 HD
ENDBRANCH  15  18
BRANCH  17  20
ATOM     20  O   UNL     1     -16.373  19.507  -5.479  1.00  0.00    -0.504 OA
ATOM     21  H   UNL     1     -17.256  19.910  -5.201  1.00  0.00     0.293 HD
ENDBRANCH  17  20
ENDBRANCH   1  12
BRANCH   2  22
ATOM     22  O   UNL     1     -19.039  15.013  -6.183  1.00  0.00    -0.502 OA
ATOM     23  H   UNL     1     -20.045  14.907  -6.259  1.00  0.00     0.293 HD
ENDBRANCH   2  22
BRANCH   9  24
ATOM     24  O   UNL     1     -14.925  11.810 -11.941  1.00  0.00    -0.508 OA
ATOM     25  H   UNL     1     -14.591  12.433 -12.667  1.00  0.00     0.293 HD
ENDBRANCH   9  24
TORSDOF 5
ENDMDL
MODEL 4
REMARK VINA RESULT:    -6.367      1.885      2.329
REMARK INTER + INTRA:          -7.400
REMARK INTER:                  -7.085
REMARK INTRA:                  -0.315
REMARK UNBOUND:                 0.084
REMARK SMILES O=c1c(O)c(-c2ccc(O)c(O)c2)oc2cc(O)ccc12
REMARK SMILES IDX 5 1 3 2 2 3 1 4 21 5 15 6 14 7 16 8 17 9 19 10 20 11 6 12
REMARK SMILES IDX 7 13 8 14 9 15 13 16 11 17 10 18 12 20 4 22 18 24
REMARK H PARENT 10 19 12 21 4 23 18 25
REMARK Flexibility Score: inf
ROOT
ATOM      1  C   UNL     1     -15.953  14.612  -8.618  1.00  0.00     0.180 A 
ATOM      2  C   UNL     1     -15.269  15.779  -9.018  1.00  0.00     0.208 A 
ATOM      3  C   UNL     1     -14.465  16.446  -8.081  1.00  0.00     0.235 A 
ATOM      4  O   UNL     1     -13.834  17.486  -8.417  1.00  0.00    -0.285 OA
ATOM      5  C   UNL     1     -14.378  15.953  -6.770  1.00  0.00     0.069 A 
ATOM      6  C   UNL     1     -15.113  14.793  -6.441  1.00  0.00     0.142 A 
ATOM      7  O   UNL     1     -15.856  14.186  -7.361  1.00  0.00    -0.452 OA
ATOM      8  C   UNL     1     -15.060  14.275  -5.143  1.00  0.00     0.094 A 
ATOM      9  C   UNL     1     -14.280  14.901  -4.165  1.00  0.00     0.119 A 
ATOM     10  C   UNL     1     -13.548  16.052  -4.487  1.00  0.00     0.047 A 
ATOM     11  C   UNL     1     -13.595  16.578  -5.782  1.00  0.00     0.020 A 
ENDROOT
BRANCH   1  12
ATOM     12  C   UNL     1     -16.805  13.842  -9.552  1.00  0.00     0.025 A 
ATOM     13  C   UNL     1     -16.224  12.861 -10.367  1.00  0.00     0.016 A 
ATOM     14  C   UNL     1     -17.005  12.135 -11.268  1.00  0.00     0.051 A 
ATOM     15  C   UNL     1     -18.377  12.387 -11.386  1.00  0.00     0.157 A 
ATOM     16  C   UNL     1     -18.178  14.112  -9.683  1.00  0.00     0.062 A 
ATOM     17  C   UNL     1     -18.970  13.393 -10.587  1.00  0.00     0.158 A 
BRANCH  15  18
ATOM     18  O   UNL     1     -19.104  11.622 -12.301  1.00  0.00    -0.504 OA
ATOM     19  H   UNL     1     -19.873  11.979 -12.849  1.00  0.00     0.293 HD
ENDBRANCH  15  18
BRANCH  17  20
ATOM     20  O   UNL     1     -20.327  13.713 -10.663  1.00  0.00    -0.504 OA
ATOM     21  H   UNL     1     -21.053  13.215 -10.170  1.00  0.00     0.293 HD
ENDBRANCH  17  20
ENDBRANCH   1  12
BRANCH   2  22
ATOM     22  O   UNL     1     -15.413  16.274 -10.316  1.00  0.00    -0.502 OA
ATOM     23  H   UNL     1     -14.621  16.566 -10.876  1.00  0.00     0.293 HD
ENDBRANCH   2  22
BRANCH   9  24
ATOM     24  O   UNL     1     -14.239  14.371  -2.877  1.00  0.00    -0.508 OA
ATOM     25  H   UNL     1     -14.766  13.542  -2.629  1.00  0.00     0.293 HD
ENDBRANCH   9  24
TORSDOF 5
ENDMDL
MODEL 5
REMARK VINA RESULT:    -6.358      2.076      6.998
REMARK INTER + INTRA:          -7.389
REMARK INTER:                  -7.086
REMARK INTRA:                  -0.304
REMARK UNBOUND:                 0.084
REMARK SMILES O=c1c(O)c(-c2ccc(O)c(O)c2)oc2cc(O)ccc12
REMARK SMILES IDX 5 1 3 2 2 3 1 4 21 5 15 6 14 7 16 8 17 9 19 10 20 11 6 12
REMARK SMILES IDX 7 13 8 14 9 15 13 16 11 17 10 18 12 20 4 22 18 24
REMARK H PARENT 10 19 12 21 4 23 18 25
REMARK Flexibility Score: inf
ROOT
ATOM      1  C   UNL     1     -16.829  14.226  -7.158  1.00  0.00     0.180 A 
ATOM      2  C   UNL     1     -17.693  13.431  -6.377  1.00  0.00     0.208 A 
ATOM      3  C   UNL     1     -18.698  12.692  -7.021  1.00  0.00     0.235 A 
ATOM      4  O   UNL     1     -19.477  11.964  -6.346  1.00  0.00    -0.285 OA
ATOM      5  C   UNL     1     -18.832  12.778  -8.416  1.00  0.00     0.069 A 
ATOM      6  C   UNL     1     -17.943  13.615  -9.123  1.00  0.00     0.142 A 
ATOM      7  O   UNL     1     -16.999  14.292  -8.476  1.00  0.00    -0.452 OA
ATOM      8  C   UNL     1     -18.050  13.736 -10.513  1.00  0.00     0.094 A 
ATOM      9  C   UNL     1     -19.036  13.027 -11.208  1.00  0.00     0.119 A 
ATOM     10  C   UNL     1     -19.920  12.194 -10.510  1.00  0.00     0.047 A 
ATOM     11  C   UNL     1     -19.821  12.068  -9.120  1.00  0.00     0.020 A 
ENDROOT
BRANCH   1  12
ATOM     12  C   UNL     1     -15.733  15.019  -6.556  1.00  0.00     0.025 A 
ATOM     13  C   UNL     1     -14.446  14.471  -6.479  1.00  0.00     0.016 A 
ATOM     14  C   UNL     1     -13.402  15.194  -5.898  1.00  0.00     0.051 A 
ATOM     15  C   UNL     1     -13.627  16.470  -5.368  1.00  0.00     0.157 A 
ATOM     16  C   UNL     1     -15.967  16.291  -6.005  1.00  0.00     0.062 A 
ATOM     17  C   UNL     1     -14.928  17.023  -5.416  1.00  0.00     0.158 A 
BRANCH  15  18
ATOM     18  O   UNL     1     -12.540  17.144  -4.807  1.00  0.00    -0.504 OA
ATOM     19  H   UNL     1     -12.576  18.096  -4.476  1.00  0.00     0.293 HD
ENDBRANCH  15  18
BRANCH  17  20
ATOM     20  O   UNL     1     -15.232  18.280  -4.891  1.00  0.00    -0.504 OA
ATOM     21  H   UNL     1     -14.542  18.925  -4.534  1.00  0.00     0.293 HD
ENDBRANCH  17  20
ENDBRANCH   1  12
BRANCH   2  22
ATOM     22  O   UNL     1     -17.567  13.403  -4.987  1.00  0.00    -0.502 OA
ATOM     23  H   UNL     1     -17.872  12.613  -4.431  1.00  0.00     0.293 HD
ENDBRANCH   2  22
BRANCH   9  24
ATOM     24  O   UNL     1     -19.128  13.159 -12.592  1.00  0.00    -0.508 OA
ATOM     25  H   UNL     1     -19.887  12.737 -13.115  1.00  0.00     0.293 HD
ENDBRANCH   9  24
TORSDOF 5
ENDMDL
MODEL 6
REMARK VINA RESULT:    -6.352      1.927      3.096
REMARK INTER + INTRA:          -7.382
REMARK INTER:                  -7.073
REMARK INTRA:                  -0.309
REMARK UNBOUND:                 0.084
REMARK SMILES O=c1c(O)c(-c2ccc(O)c(O)c2)oc2cc(O)ccc12
REMARK SMILES IDX 5 1 3 2 2 3 1 4 21 5 15 6 14 7 16 8 17 9 19 10 20 11 6 12
REMARK SMILES IDX 7 13 8 14 9 15 13 16 11 17 10 18 12 20 4 22 18 24
REMARK H PARENT 10 19 12 21 4 23 18 25
REMARK Flexibility Score: inf
ROOT
ATOM      1  C   UNL     1     -17.417  14.208  -8.097  1.00  0.00     0.180 A 
ATOM      2  C   UNL     1     -18.209  15.148  -7.404  1.00  0.00     0.208 A 
ATOM      3  C   UNL     1     -17.609  15.934  -6.409  1.00  0.00     0.235 A 
ATOM      4  O   UNL     1     -18.293  16.790  -5.783  1.00  0.00    -0.285 OA
ATOM      5  C   UNL     1     -16.249  15.754  -6.112  1.00  0.00     0.069 A 
ATOM      6  C   UNL     1     -15.531  14.776  -6.833  1.00  0.00     0.142 A 
ATOM      7  O   UNL     1     -16.135  14.057  -7.775  1.00  0.00    -0.452 OA
ATOM      8  C   UNL     1     -14.176  14.558  -6.561  1.00  0.00     0.094 A 
ATOM      9  C   UNL     1     -13.526  15.309  -5.575  1.00  0.00     0.119 A 
ATOM     10  C   UNL     1     -14.235  16.282  -4.858  1.00  0.00     0.047 A 
ATOM     11  C   UNL     1     -15.590  16.505  -5.123  1.00  0.00     0.020 A 
ENDROOT
BRANCH   1  12
ATOM     12  C   UNL     1     -17.971  13.354  -9.172  1.00  0.00     0.025 A 
ATOM     13  C   UNL     1     -18.060  13.859 -10.477  1.00  0.00     0.016 A 
ATOM     14  C   UNL     1     -18.597  13.078 -11.503  1.00  0.00     0.051 A 
ATOM     15  C   UNL     1     -19.070  11.786 -11.243  1.00  0.00     0.157 A 
ATOM     16  C   UNL     1     -18.466  12.067  -8.904  1.00  0.00     0.062 A 
ATOM     17  C   UNL     1     -19.010  11.277  -9.924  1.00  0.00     0.158 A 
BRANCH  15  18
ATOM     18  O   UNL     1     -19.588  11.055 -12.313  1.00  0.00    -0.504 OA
ATOM     19  H   UNL     1     -20.129  11.459 -13.064  1.00  0.00     0.293 HD
ENDBRANCH  15  18
BRANCH  17  20
ATOM     20  O   UNL     1     -19.480  10.006  -9.586  1.00  0.00    -0.504 OA
ATOM     21  H   UNL     1     -20.385   9.650  -9.854  1.00  0.00     0.293 HD
ENDBRANCH  17  20
ENDBRANCH   1  12
BRANCH   2  22
ATOM     22  O   UNL     1     -19.571  15.271  -7.688  1.00  0.00    -0.502 OA
ATOM     23  H   UNL     1     -20.250  14.577  -7.397  1.00  0.00     0.293 HD
ENDBRANCH   2  22
BRANCH   9  24
ATOM     24  O   UNL     1     -12.176  15.080  -5.317  1.00  0.00    -0.508 OA
ATOM     25  H   UNL     1     -11.617  14.484  -5.917  1.00  0.00     0.293 HD
ENDBRANCH   9  24
TORSDOF 5
ENDMDL
MODEL 7
REMARK VINA RESULT:    -6.135      2.176      6.542
REMARK INTER + INTRA:          -7.127
REMARK INTER:                  -6.815
REMARK INTRA:                  -0.312
REMARK UNBOUND:                 0.084
REMARK SMILES O=c1c(O)c(-c2ccc(O)c(O)c2)oc2cc(O)ccc12
REMARK SMILES IDX 5 1 3 2 2 3 1 4 21 5 15 6 14 7 16 8 17 9 19 10 20 11 6 12
REMARK SMILES IDX 7 13 8 14 9 15 13 16 11 17 10 18 12 20 4 22 18 24
REMARK H PARENT 10 19 12 21 4 23 18 25
REMARK Flexibility Score: inf
ROOT
ATOM      1  C   UNL     1     -16.348  14.111  -7.777  1.00  0.00     0.180 A 
ATOM      2  C   UNL     1     -15.910  13.913  -9.103  1.00  0.00     0.208 A 
ATOM      3  C   UNL     1     -16.643  13.053  -9.935  1.00  0.00     0.235 A 
ATOM      4  O   UNL     1     -16.278  12.868 -11.129  1.00  0.00    -0.285 OA
ATOM      5  C   UNL     1     -17.775  12.398  -9.426  1.00  0.00     0.069 A 
ATOM      6  C   UNL     1     -18.134  12.630  -8.081  1.00  0.00     0.142 A 
ATOM      7  O   UNL     1     -17.418  13.459  -7.328  1.00  0.00    -0.452 OA
ATOM      8  C   UNL     1     -19.250  11.989  -7.533  1.00  0.00     0.094 A 
ATOM      9  C   UNL     1     -20.016  11.116  -8.314  1.00  0.00     0.119 A 
ATOM     10  C   UNL     1     -19.664  10.884  -9.651  1.00  0.00     0.047 A 
ATOM     11  C   UNL     1     -18.549  11.520 -10.206  1.00  0.00     0.020 A 
ENDROOT
BRANCH   1  12
ATOM     12  C   UNL     1     -15.641  15.016  -6.843  1.00  0.00     0.025 A 
ATOM     13  C   UNL     1     -14.565  14.527  -6.089  1.00  0.00     0.016 A 
ATOM     14  C   UNL     1     -13.896  15.357  -5.188  1.00  0.00     0.051 A 
ATOM     15  C   UNL     1     -14.298  16.686  -5.009  1.00  0.00     0.157 A 
ATOM     16  C   UNL     1     -16.061  16.343  -6.648  1.00  0.00     0.062 A 
ATOM     17  C   UNL     1     -15.400  17.183  -5.744  1.00  0.00     0.158 A 
BRANCH  15  18
ATOM     18  O   UNL     1     -13.583  17.466  -4.098  1.00  0.00    -0.504 OA
ATOM     19  H   UNL     1     -12.960  17.089  -3.399  1.00  0.00     0.293 HD
ENDBRANCH  15  18
BRANCH  17  20
ATOM     20  O   UNL     1     -15.870  18.490  -5.604  1.00  0.00    -0.504 OA
ATOM     21  H   UNL     1     -16.844  18.750  -5.668  1.00  0.00     0.293 HD
ENDBRANCH  17  20
ENDBRANCH   1  12
BRANCH   2  22
ATOM     22  O   UNL     1     -14.752  14.540  -9.567  1.00  0.00    -0.502 OA
ATOM     23  H   UNL     1     -14.761  15.479  -9.949  1.00  0.00     0.293 HD
ENDBRANCH   2  22
BRANCH   9  24
ATOM     24  O   UNL     1     -21.124  10.486  -7.752  1.00  0.00    -0.508 OA
ATOM     25  H   UNL     1     -22.058  10.865  -7.858  1.00  0.00     0.293 HD
ENDBRANCH   9  24
TORSDOF 5
ENDMDL
MODEL 8
REMARK VINA RESULT:    -6.108      1.828      3.137
REMARK INTER + INTRA:          -7.095
REMARK INTER:                  -7.014
REMARK INTRA:                  -0.081
REMARK UNBOUND:                 0.084
REMARK SMILES O=c1c(O)c(-c2ccc(O)c(O)c2)oc2cc(O)ccc12
REMARK SMILES IDX 5 1 3 2 2 3 1 4 21 5 15 6 14 7 16 8 17 9 19 10 20 11 6 12
REMARK SMILES IDX 7 13 8 14 9 15 13 16 11 17 10 18 12 20 4 22 18 24
REMARK H PARENT 10 19 12 21 4 23 18 25
REMARK Flexibility Score: inf
ROOT
ATOM      1  C   UNL     1     -16.887  14.466  -7.053  1.00  0.00     0.180 A 
ATOM      2  C   UNL     1     -17.248  14.011  -5.768  1.00  0.00     0.208 A 
ATOM      3  C   UNL     1     -17.428  14.952  -4.743  1.00  0.00     0.235 A 
ATOM      4  O   UNL     1     -17.762  14.570  -3.587  1.00  0.00    -0.285 OA
ATOM      5  C   UNL     1     -17.225  16.314  -5.012  1.00  0.00     0.069 A 
ATOM      6  C   UNL     1     -16.841  16.688  -6.318  1.00  0.00     0.142 A 
ATOM      7  O   UNL     1     -16.689  15.766  -7.263  1.00  0.00    -0.452 OA
ATOM      8  C   UNL     1     -16.619  18.034  -6.625  1.00  0.00     0.094 A 
ATOM      9  C   UNL     1     -16.778  19.017  -5.641  1.00  0.00     0.119 A 
ATOM     10  C   UNL     1     -17.161  18.650  -4.344  1.00  0.00     0.047 A 
ATOM     11  C   UNL     1     -17.383  17.307  -4.028  1.00  0.00     0.020 A 
ENDROOT
BRANCH   1  12
ATOM     12  C   UNL     1     -16.697  13.539  -8.191  1.00  0.00     0.025 A 
ATOM     13  C   UNL     1     -15.507  13.588  -8.930  1.00  0.00     0.016 A 
ATOM     14  C   UNL     1     -15.314  12.735 -10.019  1.00  0.00     0.051 A 
ATOM     15  C   UNL     1     -16.312  11.831 -10.402  1.00  0.00     0.157 A 
ATOM     16  C   UNL     1     -17.709  12.648  -8.587  1.00  0.00     0.062 A 
ATOM     17  C   UNL     1     -17.528  11.792  -9.680  1.00  0.00     0.158 A 
BRANCH  15  18
ATOM     18  O   UNL     1     -16.055  11.002 -11.495  1.00  0.00    -0.504 OA
ATOM     19  H   UNL     1     -16.492  10.103 -11.637  1.00  0.00     0.293 HD
ENDBRANCH  15  18
BRANCH  17  20
ATOM     20  O   UNL     1     -18.575  10.931 -10.015  1.00  0.00    -0.504 OA
ATOM     21  H   UNL     1     -18.445  10.005 -10.395  1.00  0.00     0.293 HD
ENDBRANCH  17  20
ENDBRANCH   1  12
BRANCH   2  22
ATOM     22  O   UNL     1     -17.396  12.645  -5.517  1.00  0.00    -0.502 OA
ATOM     23  H   UNL     1     -18.115  12.087  -5.963  1.00  0.00     0.293 HD
ENDBRANCH   2  22
BRANCH   9  24
ATOM     24  O   UNL     1     -16.553  20.354  -5.964  1.00  0.00    -0.508 OA
ATOM     25  H   UNL     1     -15.905  20.925  -5.434  1.00  0.00     0.293 HD
ENDBRANCH   9  24
TORSDOF 5
ENDMDL
MODEL 9
REMARK VINA RESULT:    -6.081      1.763      2.913
REMARK INTER + INTRA:          -7.063
REMARK INTER:                  -7.121
REMARK INTRA:                   0.058
REMARK UNBOUND:                 0.084
REMARK SMILES O=c1c(O)c(-c2ccc(O)c(O)c2)oc2cc(O)ccc12
REMARK SMILES IDX 5 1 3 2 2 3 1 4 21 5 15 6 14 7 16 8 17 9 19 10 20 11 6 12
REMARK SMILES IDX 7 13 8 14 9 15 13 16 11 17 10 18 12 20 4 22 18 24
REMARK H PARENT 10 19 12 21 4 23 18 25
REMARK Flexibility Score: inf
ROOT
ATOM      1  C   UNL     1     -16.793  14.841  -7.399  1.00  0.00     0.180 A 
ATOM      2  C   UNL     1     -18.057  15.426  -7.175  1.00  0.00     0.208 A 
ATOM      3  C   UNL     1     -18.173  16.434  -6.206  1.00  0.00     0.235 A 
ATOM      4  O   UNL     1     -19.290  16.982  -5.996  1.00  0.00    -0.285 OA
ATOM      5  C   UNL     1     -17.041  16.820  -5.471  1.00  0.00     0.069 A 
ATOM      6  C   UNL     1     -15.817  16.168  -5.736  1.00  0.00     0.142 A 
ATOM      7  O   UNL     1     -15.747  15.224  -6.669  1.00  0.00    -0.452 OA
ATOM      8  C   UNL     1     -14.668  16.517  -5.019  1.00  0.00     0.094 A 
ATOM      9  C   UNL     1     -14.725  17.511  -4.036  1.00  0.00     0.119 A 
ATOM     10  C   UNL     1     -15.938  18.161  -3.770  1.00  0.00     0.047 A 
ATOM     11  C   UNL     1     -17.092  17.818  -4.482  1.00  0.00     0.020 A 
ENDROOT
BRANCH   1  12
ATOM     12  C   UNL     1     -16.584  13.785  -8.415  1.00  0.00     0.025 A 
ATOM     13  C   UNL     1     -15.536  13.912  -9.337  1.00  0.00     0.016 A 
ATOM     14  C   UNL     1     -15.333  12.938 -10.316  1.00  0.00     0.051 A 
ATOM     15  C   UNL     1     -16.182  11.829 -10.406  1.00  0.00     0.157 A 
ATOM     16  C   UNL     1     -17.452  12.684  -8.517  1.00  0.00     0.062 A 
ATOM     17  C   UNL     1     -17.260  11.704  -9.498  1.00  0.00     0.158 A 
BRANCH  15  18
ATOM     18  O   UNL     1     -15.921  10.887 -11.404  1.00  0.00    -0.504 OA
ATOM     19  H   UNL     1     -16.545  10.131 -11.644  1.00  0.00     0.293 HD
ENDBRANCH  15  18
BRANCH  17  20
ATOM     20  O   UNL     1     -18.159  10.636  -9.539  1.00  0.00    -0.504 OA
ATOM     21  H   UNL     1     -18.845  10.504 -10.267  1.00  0.00     0.293 HD
ENDBRANCH  17  20
ENDBRANCH   1  12
BRANCH   2  22
ATOM     22  O   UNL     1     -19.175  14.989  -7.888  1.00  0.00    -0.502 OA
ATOM     23  H   UNL     1     -19.304  15.194  -8.872  1.00  0.00     0.293 HD
ENDBRANCH   2  22
BRANCH   9  24
ATOM     24  O   UNL     1     -13.571  17.845  -3.331  1.00  0.00    -0.508 OA
ATOM     25  H   UNL     1     -12.708  17.328  -3.452  1.00  0.00     0.293 HD
ENDBRANCH   9  24
TORSDOF 5
ENDMDL
