MODEL 1
REMARK VINA RESULT:    -3.376      0.000      0.000
REMARK INTER + INTRA:          -3.777
REMARK INTER:                  -3.771
REMARK INTRA:                  -0.006
REMARK UNBOUND:                -0.006
REMARK SMILES CCCC(=O)[O-]
REMARK SMILES IDX 3 1 4 2 5 3 6 4 2 5 1 6
REMARK H PARENT
REMARK Flexibility Score: inf
ROOT
ATOM      1  C   UNL     1     -11.606  11.199   7.270  1.00  0.00     0.052 C 
ENDROOT
BRANCH   1   2
ATOM      2  C   UNL     1     -12.855  11.243   8.094  1.00  0.00     0.041 C 
ATOM      3  O   UNL     1     -13.278  12.338   8.549  1.00  0.00    -0.550 OA
ATOM      4  O   UNL     1     -13.535  10.068   8.389  1.00  0.00    -0.550 OA
ENDBRANCH   1   2
BRANCH   1   5
ATOM      5  C   UNL     1     -11.904  10.860   5.804  1.00  0.00     0.003 C 
ATOM      6  C   UNL     1     -10.933  11.539   4.840  1.00  0.00     0.004 C 
ENDBRANCH   1   5
TORSDOF 2
ENDMDL
MODEL 2
REMARK VINA RESULT:    -3.326      1.683      2.117
REMARK INTER + INTRA:          -3.720
REMARK INTER:                  -3.709
REMARK INTRA:                  -0.011
REMARK UNBOUND:                -0.006
REMARK SMILES CCCC(=O)[O-]
REMARK SMILES IDX 3 1 4 2 5 3 6 4 2 5 1 6
REMARK H PARENT
REMARK Flexibility Score: inf
ROOT
ATOM      1  C   UNL     1     -12.738   9.620   6.174  1.00  0.00     0.052 C 
ENDROOT
BRANCH   1   2
ATOM      2  C   UNL     1     -13.216   8.978   7.441  1.00  0.00     0.041 C 
ATOM      3  O   UNL     1     -12.633   9.215   8.531  1.00  0.00    -0.550 OA
ATOM      4  O   UNL     1     -14.285   8.092   7.411  1.00  0.00    -0.550 OA
ENDBRANCH   1   2
BRANCH   1   5
ATOM      5  C   UNL     1     -11.885  10.863   6.455  1.00  0.00     0.003 C 
ATOM      6  C   UNL     1     -11.193  11.390   5.199  1.00  0.00     0.004 C 
ENDBRANCH   1   5
TORSDOF 2
ENDMDL
MODEL 3
REMARK VINA RESULT:    -3.268      1.622      2.084
REMARK INTER + INTRA:          -3.656
REMARK INTER:                  -3.647
REMARK INTRA:                  -0.009
REMARK UNBOUND:                -0.006
REMARK SMILES CCCC(=O)[O-]
REMARK SMILES IDX 3 1 4 2 5 3 6 4 2 5 1 6
REMARK H PARENT
REMARK Flexibility Score: inf
ROOT
ATOM      1  C   UNL     1     -11.594  11.226   6.205  1.00  0.00     0.052 C 
ENDROOT
BRANCH   1   2
ATOM      2  C   UNL     1     -12.349  10.018   6.665  1.00  0.00     0.041 C 
ATOM      3  O   UNL     1     -13.033   9.347   5.848  1.00  0.00    -0.550 OA
ATOM      4  O   UNL     1     -12.324   9.651   8.005  1.00  0.00    -0.550 OA
ENDBRANCH   1   2
BRANCH   1   5
ATOM      5  C   UNL     1     -11.123  11.082   4.752  1.00  0.00     0.003 C 
ATOM      6  C   UNL     1     -10.212  12.230   4.319  1.00  0.00     0.004 C 
ENDBRANCH   1   5
TORSDOF 2
ENDMDL
MODEL 4
REMARK VINA RESULT:    -3.249      1.923      2.873
REMARK INTER + INTRA:          -3.635
REMARK INTER:                  -3.599
REMARK INTRA:                  -0.037
REMARK UNBOUND:                -0.006
REMARK SMILES CCCC(=O)[O-]
REMARK SMILES IDX 3 1 4 2 5 3 6 4 2 5 1 6
REMARK H PARENT
REMARK Flexibility Score: inf
ROOT
ATOM      1  C   UNL     1     -11.835  10.929   6.684  1.00  0.00     0.052 C 
ENDROOT
BRANCH   1   2
ATOM      2  C   UNL     1     -12.626   9.659   6.628  1.00  0.00     0.041 C 
ATOM      3  O   UNL     1     -13.177   9.300   5.554  1.00  0.00    -0.550 OA
ATOM      4  O   UNL     1     -12.783   8.887   7.773  1.00  0.00    -0.550 OA
ENDBRANCH   1   2
BRANCH   1   5
ATOM      5  C   UNL     1     -11.769  11.495   8.108  1.00  0.00     0.003 C 
ATOM      6  C   UNL     1     -13.009  12.311   8.468  1.00  0.00     0.004 C 
ENDBRANCH   1   5
TORSDOF 2
ENDMDL
MODEL 5
REMARK VINA RESULT:    -3.217      8.471      8.794
REMARK INTER + INTRA:          -3.599
REMARK INTER:                  -3.589
REMARK INTRA:                  -0.010
REMARK UNBOUND:                -0.006
REMARK SMILES CCCC(=O)[O-]
REMARK SMILES IDX 3 1 4 2 5 3 6 4 2 5 1 6
REMARK H PARENT
REMARK Flexibility Score: inf
ROOT
ATOM      1  C   UNL     1      -4.439   8.843   7.014  1.00  0.00     0.052 C 
ENDROOT
BRANCH   1   2
ATOM      2  C   UNL     1      -3.750  10.074   7.515  1.00  0.00     0.041 C 
ATOM      3  O   UNL     1      -3.259  10.100   8.674  1.00  0.00    -0.550 OA
ATOM      4  O   UNL     1      -3.681  11.207   6.714  1.00  0.00    -0.550 OA
ENDBRANCH   1   2
BRANCH   1   5
ATOM      5  C   UNL     1      -5.176   8.106   8.139  1.00  0.00     0.003 C 
ATOM      6  C   UNL     1      -5.764   6.774   7.676  1.00  0.00     0.004 C 
ENDBRANCH   1   5
TORSDOF 2
ENDMDL
MODEL 6
REMARK VINA RESULT:    -3.215      4.023      4.806
REMARK INTER + INTRA:          -3.597
REMARK INTER:                  -3.591
REMARK INTRA:                  -0.005
REMARK UNBOUND:                -0.006
REMARK SMILES CCCC(=O)[O-]
REMARK SMILES IDX 3 1 4 2 5 3 6 4 2 5 1 6
REMARK H PARENT
REMARK Flexibility Score: inf
ROOT
ATOM      1  C   UNL     1     -10.756  11.830   4.444  1.00  0.00     0.052 C 
ENDROOT
BRANCH   1   2
ATOM      2  C   UNL     1     -10.335  11.131   3.187  1.00  0.00     0.041 C 
ATOM      3  O   UNL     1      -9.133  10.797   3.018  1.00  0.00    -0.550 OA
ATOM      4  O   UNL     1     -11.266  10.879   2.187  1.00  0.00    -0.550 OA
ENDBRANCH   1   2
BRANCH   1   5
ATOM      5  C   UNL     1     -11.520  10.891   5.386  1.00  0.00     0.003 C 
ATOM      6  C   UNL     1     -11.448  11.344   6.844  1.00  0.00     0.004 C 
ENDBRANCH   1   5
TORSDOF 2
ENDMDL
MODEL 7
REMARK VINA RESULT:    -3.122      8.604      9.099
REMARK INTER + INTRA:          -3.493
REMARK INTER:                  -3.460
REMARK INTRA:                  -0.034
REMARK UNBOUND:                -0.006
REMARK SMILES CCCC(=O)[O-]
REMARK SMILES IDX 3 1 4 2 5 3 6 4 2 5 1 6
REMARK H PARENT
REMARK Flexibility Score: inf
ROOT
ATOM      1  C   UNL     1      -5.549   7.301   7.952  1.00  0.00     0.052 C 
ENDROOT
BRANCH   1   2
ATOM      2  C   UNL     1      -4.989   5.950   7.629  1.00  0.00     0.041 C 
ATOM      3  O   UNL     1      -5.754   4.956   7.518  1.00  0.00    -0.550 OA
ATOM      4  O   UNL     1      -3.618   5.783   7.485  1.00  0.00    -0.550 OA
ENDBRANCH   1   2
BRANCH   1   5
ATOM      5  C   UNL     1      -4.653   8.428   7.423  1.00  0.00     0.003 C 
ATOM      6  C   UNL     1      -4.209   9.386   8.528  1.00  0.00     0.004 C 
ENDBRANCH   1   5
TORSDOF 2
ENDMDL
MODEL 8
REMARK VINA RESULT:    -3.118      8.630      9.086
REMARK INTER + INTRA:          -3.489
REMARK INTER:                  -3.453
REMARK INTRA:                  -0.036
REMARK UNBOUND:                -0.006
REMARK SMILES CCCC(=O)[O-]
REMARK SMILES IDX 3 1 4 2 5 3 6 4 2 5 1 6
REMARK H PARENT
REMARK Flexibility Score: inf
ROOT
ATOM      1  C   UNL     1      -5.598   7.189   7.785  1.00  0.00     0.052 C 
ENDROOT
BRANCH   1   2
ATOM      2  C   UNL     1      -4.941   5.851   7.645  1.00  0.00     0.041 C 
ATOM      3  O   UNL     1      -3.697   5.769   7.471  1.00  0.00    -0.550 OA
ATOM      4  O   UNL     1      -5.709   4.693   7.674  1.00  0.00    -0.550 OA
ENDBRANCH   1   2
BRANCH   1   5
ATOM      5  C   UNL     1      -4.642   8.331   7.417  1.00  0.00     0.003 C 
ATOM      6  C   UNL     1      -4.364   9.261   8.597  1.00  0.00     0.004 C 
ENDBRANCH   1   5
TORSDOF 2
ENDMDL
MODEL 9
REMARK VINA RESULT:    -3.090      4.409      5.533
REMARK INTER + INTRA:          -3.457
REMARK INTER:                  -3.426
REMARK INTRA:                  -0.031
REMARK UNBOUND:                -0.006
REMARK SMILES CCCC(=O)[O-]
REMARK SMILES IDX 3 1 4 2 5 3 6 4 2 5 1 6
REMARK H PARENT
REMARK Flexibility Score: inf
ROOT
ATOM      1  C   UNL     1     -10.752  12.435   2.924  1.00  0.00     0.052 C 
ENDROOT
BRANCH   1   2
ATOM      2  C   UNL     1      -9.688  13.480   3.053  1.00  0.00     0.041 C 
ATOM      3  O   UNL     1      -8.686  13.279   3.788  1.00  0.00    -0.550 OA
ATOM      4  O   UNL     1      -9.819  14.692   2.387  1.00  0.00    -0.550 OA
ENDBRANCH   1   2
BRANCH   1   5
ATOM      5  C   UNL     1     -10.489  11.240   3.849  1.00  0.00     0.003 C 
ATOM      6  C   UNL     1     -11.268  11.335   5.159  1.00  0.00     0.004 C 
ENDBRANCH   1   5
TORSDOF 2
ENDMDL
