MODEL 1
REMARK VINA RESULT:    -4.394      0.000      0.000
REMARK INTER + INTRA:          -5.184
REMARK INTER:                  -5.165
REMARK INTRA:                  -0.019
REMARK UNBOUND:                -0.019
REMARK SMILES CCCCC(=O)[O-]
REMARK SMILES IDX 4 1 5 2 6 3 7 4 3 5 2 6 1 7
REMARK H PARENT
REMARK Flexibility Score: inf
ROOT
ATOM      1  C   UNL     1      -1.917  -1.030  -1.696  1.00  0.00     0.053 C 
ENDROOT
BRANCH   1   2
ATOM      2  C   UNL     1      -2.859  -1.956  -0.992  1.00  0.00     0.041 C 
ATOM      3  O   UNL     1      -3.861  -1.498  -0.382  1.00  0.00    -0.550 OA
ATOM      4  O   UNL     1      -2.656  -3.329  -1.049  1.00  0.00    -0.550 OA
ENDBRANCH   1   2
BRANCH   1   5
ATOM      5  C   UNL     1      -0.548  -1.035  -1.009  1.00  0.00     0.006 C 
BRANCH   5   6
ATOM      6  C   UNL     1       0.004   0.389  -0.874  1.00  0.00    -0.003 C 
ATOM      7  C   UNL     1       1.403   0.497  -1.475  1.00  0.00     0.004 C 
ENDBRANCH   5   6
ENDBRANCH   1   5
TORSDOF 3
ENDMDL
MODEL 2
REMARK VINA RESULT:    -4.332      4.189      5.248
REMARK INTER + INTRA:          -5.110
REMARK INTER:                  -5.093
REMARK INTRA:                  -0.017
REMARK UNBOUND:                -0.019
REMARK SMILES CCCCC(=O)[O-]
REMARK SMILES IDX 4 1 5 2 6 3 7 4 3 5 2 6 1 7
REMARK H PARENT
REMARK Flexibility Score: inf
ROOT
ATOM      1  C   UNL     1       1.597   0.713  -1.679  1.00  0.00     0.053 C 
ENDROOT
BRANCH   1   2
ATOM      2  C   UNL     1       2.573   1.640  -1.026  1.00  0.00     0.041 C 
ATOM      3  O   UNL     1       2.397   2.886  -1.079  1.00  0.00    -0.550 OA
ATOM      4  O   UNL     1       3.652   1.127  -0.317  1.00  0.00    -0.550 OA
ENDBRANCH   1   2
BRANCH   1   5
ATOM      5  C   UNL     1       0.293   0.657  -0.878  1.00  0.00     0.006 C 
BRANCH   5   6
ATOM      6  C   UNL     1      -0.301  -0.757  -0.893  1.00  0.00    -0.003 C 
ATOM      7  C   UNL     1      -1.646  -0.782  -1.613  1.00  0.00     0.004 C 
ENDBRANCH   5   6
ENDBRANCH   1   5
TORSDOF 3
ENDMDL
MODEL 3
REMARK VINA RESULT:    -4.251      3.396      4.619
REMARK INTER + INTRA:          -5.016
REMARK INTER:                  -4.968
REMARK INTRA:                  -0.048
REMARK UNBOUND:                -0.019
REMARK SMILES CCCCC(=O)[O-]
REMARK SMILES IDX 4 1 5 2 6 3 7 4 3 5 2 6 1 7
REMARK H PARENT
REMARK Flexibility Score: inf
ROOT
ATOM      1  C   UNL     1       0.030   0.761  -0.803  1.00  0.00     0.053 C 
ENDROOT
BRANCH   1   2
ATOM      2  C   UNL     1       1.418   0.765  -1.362  1.00  0.00     0.041 C 
ATOM      3  O   UNL     1       1.823  -0.201  -2.061  1.00  0.00    -0.550 OA
ATOM      4  O   UNL     1       2.249   1.858  -1.151  1.00  0.00    -0.550 OA
ENDBRANCH   1   2
BRANCH   1   5
ATOM      5  C   UNL     1      -0.555  -0.655  -0.835  1.00  0.00     0.006 C 
BRANCH   5   6
ATOM      6  C   UNL     1      -1.800  -0.714  -1.730  1.00  0.00    -0.003 C 
ATOM      7  C   UNL     1      -2.715  -1.865  -1.325  1.00  0.00     0.004 C 
ENDBRANCH   5   6
ENDBRANCH   1   5
TORSDOF 3
ENDMDL
MODEL 4
REMARK VINA RESULT:    -4.203      1.354      1.822
REMARK INTER + INTRA:          -4.960
REMARK INTER:                  -4.912
REMARK INTRA:                  -0.048
REMARK UNBOUND:                -0.019
REMARK SMILES CCCCC(=O)[O-]
REMARK SMILES IDX 4 1 5 2 6 3 7 4 3 5 2 6 1 7
REMARK H PARENT
REMARK Flexibility Score: inf
ROOT
ATOM      1  C   UNL     1      -0.372  -1.091  -0.745  1.00  0.00     0.053 C 
ENDROOT
BRANCH   1   2
ATOM      2  C   UNL     1      -1.694  -1.152  -1.443  1.00  0.00     0.041 C 
ATOM      3  O   UNL     1      -1.951  -0.355  -2.384  1.00  0.00    -0.550 OA
ATOM      4  O   UNL     1      -2.625  -2.119  -1.087  1.00  0.00    -0.550 OA
ENDBRANCH   1   2
BRANCH   1   5
ATOM      5  C   UNL     1       0.201   0.328  -0.806  1.00  0.00     0.006 C 
BRANCH   5   6
ATOM      6  C   UNL     1       1.478   0.369  -1.654  1.00  0.00    -0.003 C 
ATOM      7  C   UNL     1       2.368   1.542  -1.254  1.00  0.00     0.004 C 
ENDBRANCH   5   6
ENDBRANCH   1   5
TORSDOF 3
ENDMDL
MODEL 5
REMARK VINA RESULT:    -3.932      1.893      2.924
REMARK INTER + INTRA:          -4.640
REMARK INTER:                  -4.603
REMARK INTRA:                  -0.037
REMARK UNBOUND:                -0.019
REMARK SMILES CCCCC(=O)[O-]
REMARK SMILES IDX 4 1 5 2 6 3 7 4 3 5 2 6 1 7
REMARK H PARENT
REMARK Flexibility Score: inf
ROOT
ATOM      1  C   UNL     1       0.188   0.675  -0.982  1.00  0.00     0.053 C 
ENDROOT
BRANCH   1   2
ATOM      2  C   UNL     1      -0.583  -0.600  -1.123  1.00  0.00     0.041 C 
ATOM      3  O   UNL     1      -0.053  -1.698  -0.810  1.00  0.00    -0.550 OA
ATOM      4  O   UNL     1      -1.902  -0.570  -1.556  1.00  0.00    -0.550 OA
ENDBRANCH   1   2
BRANCH   1   5
ATOM      5  C   UNL     1       1.523   0.579  -1.726  1.00  0.00     0.006 C 
BRANCH   5   6
ATOM      6  C   UNL     1       2.670   1.132  -0.871  1.00  0.00    -0.003 C 
ATOM      7  C   UNL     1       2.767   2.650  -0.994  1.00  0.00     0.004 C 
ENDBRANCH   5   6
ENDBRANCH   1   5
TORSDOF 3
ENDMDL
MODEL 6
REMARK VINA RESULT:    -3.922      1.490      1.983
REMARK INTER + INTRA:          -4.629
REMARK INTER:                  -4.581
REMARK INTRA:                  -0.048
REMARK UNBOUND:                -0.019
REMARK SMILES CCCCC(=O)[O-]
REMARK SMILES IDX 4 1 5 2 6 3 7 4 3 5 2 6 1 7
REMARK H PARENT
REMARK Flexibility Score: inf
ROOT
ATOM      1  C   UNL     1      -0.729   0.205  -1.243  1.00  0.00     0.053 C 
ENDROOT
BRANCH   1   2
ATOM      2  C   UNL     1      -1.174  -1.221  -1.167  1.00  0.00     0.041 C 
ATOM      3  O   UNL     1      -2.358  -1.532  -1.462  1.00  0.00    -0.550 OA
ATOM      4  O   UNL     1      -0.269  -2.215  -0.815  1.00  0.00    -0.550 OA
ENDBRANCH   1   2
BRANCH   1   5
ATOM      5  C   UNL     1       0.677   0.359  -0.652  1.00  0.00     0.006 C 
BRANCH   5   6
ATOM      6  C   UNL     1       1.698   0.692  -1.746  1.00  0.00    -0.003 C 
ATOM      7  C   UNL     1       2.666   1.778  -1.284  1.00  0.00     0.004 C 
ENDBRANCH   5   6
ENDBRANCH   1   5
TORSDOF 3
ENDMDL
MODEL 7
REMARK VINA RESULT:    -3.190      4.856      6.247
REMARK INTER + INTRA:          -3.768
REMARK INTER:                  -3.673
REMARK INTRA:                  -0.095
REMARK UNBOUND:                -0.019
REMARK SMILES CCCCC(=O)[O-]
REMARK SMILES IDX 4 1 5 2 6 3 7 4 3 5 2 6 1 7
REMARK H PARENT
REMARK Flexibility Score: inf
ROOT
ATOM      1  C   UNL     1       2.931   2.496  -1.308  1.00  0.00     0.053 C 
ENDROOT
BRANCH   1   2
ATOM      2  C   UNL     1       2.563   3.657  -0.439  1.00  0.00     0.041 C 
ATOM      3  O   UNL     1       3.461   4.390   0.053  1.00  0.00    -0.550 OA
ATOM      4  O   UNL     1       1.227   3.958  -0.211  1.00  0.00    -0.550 OA
ENDBRANCH   1   2
BRANCH   1   5
ATOM      5  C   UNL     1       2.426   1.186  -0.694  1.00  0.00     0.006 C 
BRANCH   5   6
ATOM      6  C   UNL     1       1.372   0.528  -1.593  1.00  0.00    -0.003 C 
ATOM      7  C   UNL     1       0.031   0.411  -0.873  1.00  0.00     0.004 C 
ENDBRANCH   5   6
ENDBRANCH   1   5
TORSDOF 3
ENDMDL
MODEL 8
REMARK VINA RESULT:    -3.144      1.638      2.191
REMARK INTER + INTRA:          -3.714
REMARK INTER:                  -3.667
REMARK INTRA:                  -0.047
REMARK UNBOUND:                -0.019
REMARK SMILES CCCCC(=O)[O-]
REMARK SMILES IDX 4 1 5 2 6 3 7 4 3 5 2 6 1 7
REMARK H PARENT
REMARK Flexibility Score: inf
ROOT
ATOM      1  C   UNL     1      -2.994  -2.756  -1.464  1.00  0.00     0.053 C 
ENDROOT
BRANCH   1   2
ATOM      2  C   UNL     1      -2.713  -3.939  -0.592  1.00  0.00     0.041 C 
ATOM      3  O   UNL     1      -3.661  -4.574  -0.059  1.00  0.00    -0.550 OA
ATOM      4  O   UNL     1      -1.405  -4.370  -0.406  1.00  0.00    -0.550 OA
ENDBRANCH   1   2
BRANCH   1   5
ATOM      5  C   UNL     1      -2.565  -1.462  -0.764  1.00  0.00     0.006 C 
BRANCH   5   6
ATOM      6  C   UNL     1      -1.558  -0.683  -1.619  1.00  0.00    -0.003 C 
ATOM      7  C   UNL     1      -0.396  -0.172  -0.772  1.00  0.00     0.004 C 
ENDBRANCH   5   6
ENDBRANCH   1   5
TORSDOF 3
ENDMDL
MODEL 9
REMARK VINA RESULT:    -2.920     12.737     13.685
REMARK INTER + INTRA:          -3.451
REMARK INTER:                  -3.423
REMARK INTRA:                  -0.027
REMARK UNBOUND:                -0.019
REMARK SMILES CCCCC(=O)[O-]
REMARK SMILES IDX 4 1 5 2 6 3 7 4 3 5 2 6 1 7
REMARK H PARENT
REMARK Flexibility Score: inf
ROOT
ATOM      1  C   UNL     1      -9.824  -6.777   8.685  1.00  0.00     0.053 C 
ENDROOT
BRANCH   1   2
ATOM      2  C   UNL     1      -8.925  -7.846   9.221  1.00  0.00     0.041 C 
ATOM      3  O   UNL     1      -9.049  -9.035   8.825  1.00  0.00    -0.550 OA
ATOM      4  O   UNL     1      -7.918  -7.521  10.121  1.00  0.00    -0.550 OA
ENDBRANCH   1   2
BRANCH   1   5
ATOM      5  C   UNL     1      -9.006  -5.555   8.255  1.00  0.00     0.006 C 
BRANCH   5   6
ATOM      6  C   UNL     1      -9.781  -4.257   8.513  1.00  0.00    -0.003 C 
ATOM      7  C   UNL     1      -9.078  -3.060   7.878  1.00  0.00     0.004 C 
ENDBRANCH   5   6
ENDBRANCH   1   5
TORSDOF 3
ENDMDL
