MODEL 1
REMARK VINA RESULT:     3.723      0.000      0.000
REMARK INTER + INTRA:           7.349
REMARK INTER:                   6.988
REMARK INTRA:                   0.361
REMARK UNBOUND:                 0.361
REMARK SMILES O=C([O-])CCCCCCCCCCCCCCC(=O)[O-]
REMARK SMILES IDX 10 1 9 2 8 3 7 4 6 5 5 6 4 7 2 8 1 9 3 10 11 11 12 12 13 13
REMARK SMILES IDX 14 14 15 15 16 16 17 17 18 18 19 19 20 20
REMARK H PARENT
REMARK Flexibility Score: inf
ROOT
ATOM      1  C   UNL     1      21.564  22.050  46.264  1.00  0.00     0.000 C 
ENDROOT
BRANCH   1   2
ATOM      2  C   UNL     1      20.981  22.218  47.679  1.00  0.00     0.000 C 
BRANCH   2   3
ATOM      3  C   UNL     1      19.553  22.790  47.727  1.00  0.00     0.000 C 
BRANCH   3   4
ATOM      4  C   UNL     1      19.518  24.277  48.118  1.00  0.00     0.000 C 
BRANCH   4   5
ATOM      5  C   UNL     1      18.350  25.033  47.468  1.00  0.00     0.000 C 
BRANCH   5   6
ATOM      6  C   UNL     1      17.398  24.100  46.698  1.00  0.00     0.006 C 
BRANCH   6   7
ATOM      7  C   UNL     1      16.958  24.700  45.357  1.00  0.00     0.053 C 
BRANCH   7   8
ATOM      8  C   UNL     1      18.059  24.659  44.341  1.00  0.00     0.041 C 
ATOM      9  O   UNL     1      17.789  24.694  43.112  1.00  0.00    -0.550 OA
ATOM     10  O   UNL     1      19.381  24.554  44.754  1.00  0.00    -0.550 OA
ENDBRANCH   7   8
ENDBRANCH   6   7
ENDBRANCH   5   6
ENDBRANCH   4   5
ENDBRANCH   3   4
ENDBRANCH   2   3
ENDBRANCH   1   2
BRANCH   1  11
ATOM     11  C   UNL     1      22.546  23.168  45.883  1.00  0.00     0.000 C 
BRANCH  11  12
ATOM     12  C   UNL     1      23.958  22.856  46.400  1.00  0.00     0.000 C 
BRANCH  12  13
ATOM     13  C   UNL     1      25.033  23.772  45.790  1.00  0.00     0.000 C 
BRANCH  13  14
ATOM     14  C   UNL     1      26.446  23.173  45.891  1.00  0.00     0.000 C 
BRANCH  14  15
ATOM     15  C   UNL     1      27.549  24.222  45.670  1.00  0.00     0.000 C 
BRANCH  15  16
ATOM     16  C   UNL     1      28.855  23.873  46.405  1.00  0.00     0.006 C 
BRANCH  16  17
ATOM     17  C   UNL     1      29.945  23.379  45.444  1.00  0.00     0.053 C 
BRANCH  17  18
ATOM     18  C   UNL     1      29.653  22.005  44.926  1.00  0.00     0.041 C 
ATOM     19  O   UNL     1      28.611  21.399  45.291  1.00  0.00    -0.550 OA
ATOM     20  O   UNL     1      30.545  21.381  44.063  1.00  0.00    -0.550 OA
ENDBRANCH  17  18
ENDBRANCH  16  17
ENDBRANCH  15  16
ENDBRANCH  14  15
ENDBRANCH  13  14
ENDBRANCH  12  13
ENDBRANCH  11  12
ENDBRANCH   1  11
TORSDOF 15
ENDMDL
MODEL 2
REMARK VINA RESULT:     4.819      0.594      9.599
REMARK INTER + INTRA:           9.407
REMARK INTER:                   9.559
REMARK INTRA:                  -0.152
REMARK UNBOUND:                 0.361
REMARK SMILES O=C([O-])CCCCCCCCCCCCCCC(=O)[O-]
REMARK SMILES IDX 10 1 9 2 8 3 7 4 6 5 5 6 4 7 2 8 1 9 3 10 11 11 12 12 13 13
REMARK SMILES IDX 14 14 15 15 16 16 17 17 18 18 19 19 20 20
REMARK H PARENT
REMARK Flexibility Score: inf
ROOT
ATOM      1  C   UNL     1      23.035  23.229  46.691  1.00  0.00     0.000 C 
ENDROOT
BRANCH   1   2
ATOM      2  C   UNL     1      24.215  22.716  45.845  1.00  0.00     0.000 C 
BRANCH   2   3
ATOM      3  C   UNL     1      25.411  23.681  45.750  1.00  0.00     0.000 C 
BRANCH   3   4
ATOM      4  C   UNL     1      26.655  23.164  46.492  1.00  0.00     0.000 C 
BRANCH   4   5
ATOM      5  C   UNL     1      27.784  24.204  46.552  1.00  0.00     0.000 C 
BRANCH   5   6
ATOM      6  C   UNL     1      29.167  23.590  46.275  1.00  0.00     0.006 C 
BRANCH   6   7
ATOM      7  C   UNL     1      29.337  23.184  44.805  1.00  0.00     0.053 C 
BRANCH   7   8
ATOM      8  C   UNL     1      29.623  21.720  44.662  1.00  0.00     0.041 C 
ATOM      9  O   UNL     1      28.804  20.868  45.096  1.00  0.00    -0.550 OA
ATOM     10  O   UNL     1      30.808  21.299  44.074  1.00  0.00    -0.550 OA
ENDBRANCH   7   8
ENDBRANCH   6   7
ENDBRANCH   5   6
ENDBRANCH   4   5
ENDBRANCH   3   4
ENDBRANCH   2   3
ENDBRANCH   1   2
BRANCH   1  11
ATOM     11  C   UNL     1      21.708  22.534  46.353  1.00  0.00     0.000 C 
BRANCH  11  12
ATOM     12  C   UNL     1      20.922  22.203  47.631  1.00  0.00     0.000 C 
BRANCH  12  13
ATOM     13  C   UNL     1      19.473  22.716  47.589  1.00  0.00     0.000 C 
BRANCH  13  14
ATOM     14  C   UNL     1      19.342  24.158  48.108  1.00  0.00     0.000 C 
BRANCH  14  15
ATOM     15  C   UNL     1      18.812  25.125  47.036  1.00  0.00     0.000 C 
BRANCH  15  16
ATOM     16  C   UNL     1      17.314  24.922  46.743  1.00  0.00     0.006 C 
BRANCH  16  17
ATOM     17  C   UNL     1      17.081  24.091  45.474  1.00  0.00     0.053 C 
BRANCH  17  18
ATOM     18  C   UNL     1      17.788  24.672  44.288  1.00  0.00     0.041 C 
ATOM     19  O   UNL     1      17.137  24.997  43.260  1.00  0.00    -0.550 OA
ATOM     20  O   UNL     1      19.168  24.827  44.307  1.00  0.00    -0.550 OA
ENDBRANCH  17  18
ENDBRANCH  16  17
ENDBRANCH  15  16
ENDBRANCH  14  15
ENDBRANCH  13  14
ENDBRANCH  12  13
ENDBRANCH  11  12
ENDBRANCH   1  11
TORSDOF 15
ENDMDL
MODEL 3
REMARK VINA RESULT:     5.755     12.641     16.779
REMARK INTER + INTRA:          11.164
REMARK INTER:                  11.524
REMARK INTRA:                  -0.360
REMARK UNBOUND:                 0.361
REMARK SMILES O=C([O-])CCCCCCCCCCCCCCC(=O)[O-]
REMARK SMILES IDX 10 1 9 2 8 3 7 4 6 5 5 6 4 7 2 8 1 9 3 10 11 11 12 12 13 13
REMARK SMILES IDX 14 14 15 15 16 16 17 17 18 18 19 19 20 20
REMARK H PARENT
REMARK Flexibility Score: inf
ROOT
ATOM      1  C   UNL     1      30.777  24.210  33.224  1.00  0.00     0.000 C 
ENDROOT
BRANCH   1   2
ATOM      2  C   UNL     1      32.078  24.955  33.579  1.00  0.00     0.000 C 
BRANCH   2   3
ATOM      3  C   UNL     1      32.625  24.664  34.988  1.00  0.00     0.000 C 
BRANCH   3   4
ATOM      4  C   UNL     1      31.767  23.651  35.765  1.00  0.00     0.000 C 
BRANCH   4   5
ATOM      5  C   UNL     1      32.425  23.203  37.079  1.00  0.00     0.000 C 
BRANCH   5   6
ATOM      6  C   UNL     1      31.462  22.409  37.979  1.00  0.00     0.006 C 
BRANCH   6   7
ATOM      7  C   UNL     1      30.801  21.242  37.234  1.00  0.00     0.053 C 
BRANCH   7   8
ATOM      8  C   UNL     1      31.313  19.917  37.709  1.00  0.00     0.041 C 
ATOM      9  O   UNL     1      32.448  19.830  38.245  1.00  0.00    -0.550 OA
ATOM     10  O   UNL     1      30.545  18.773  37.534  1.00  0.00    -0.550 OA
ENDBRANCH   7   8
ENDBRANCH   6   7
ENDBRANCH   5   6
ENDBRANCH   4   5
ENDBRANCH   3   4
ENDBRANCH   2   3
ENDBRANCH   1   2
BRANCH   1  11
ATOM     11  C   UNL     1      30.364  24.392  31.755  1.00  0.00     0.000 C 
BRANCH  11  12
ATOM     12  C   UNL     1      31.351  23.679  30.817  1.00  0.00     0.000 C 
BRANCH  12  13
ATOM     13  C   UNL     1      31.888  24.598  29.708  1.00  0.00     0.000 C 
BRANCH  13  14
ATOM     14  C   UNL     1      32.577  23.817  28.576  1.00  0.00     0.000 C 
BRANCH  14  15
ATOM     15  C   UNL     1      33.845  24.519  28.061  1.00  0.00     0.000 C 
BRANCH  15  16
ATOM     16  C   UNL     1      35.015  24.436  29.057  1.00  0.00     0.006 C 
BRANCH  16  17
ATOM     17  C   UNL     1      34.692  25.124  30.390  1.00  0.00     0.053 C 
BRANCH  17  18
ATOM     18  C   UNL     1      35.822  25.012  31.365  1.00  0.00     0.041 C 
ATOM     19  O   UNL     1      37.014  25.083  30.965  1.00  0.00    -0.550 OA
ATOM     20  O   UNL     1      35.560  24.798  32.713  1.00  0.00    -0.550 OA
ENDBRANCH  17  18
ENDBRANCH  16  17
ENDBRANCH  15  16
ENDBRANCH  14  15
ENDBRANCH  13  14
ENDBRANCH  12  13
ENDBRANCH  11  12
ENDBRANCH   1  11
TORSDOF 15
ENDMDL
