MODEL 1
REMARK VINA RESULT:    -3.475      0.000      0.000
REMARK INTER + INTRA:          -4.125
REMARK INTER:                  -4.085
REMARK INTRA:                  -0.041
REMARK UNBOUND:                -0.041
REMARK SMILES O=C([O-])CCC(=O)[O-]
REMARK SMILES IDX 4 1 2 2 1 3 3 4 5 5 6 6 7 7 8 8
REMARK H PARENT
REMARK Flexibility Score: inf
ROOT
ATOM      1  C   UNL     1       7.423   8.259  -2.564  1.00  0.00     0.059 C 
ENDROOT
BRANCH   1   2
ATOM      2  C   UNL     1       8.668   8.592  -1.802  1.00  0.00     0.042 C 
ATOM      3  O   UNL     1       8.595   8.953  -0.597  1.00  0.00    -0.550 OA
ATOM      4  O   UNL     1       9.902   8.551  -2.435  1.00  0.00    -0.550 OA
ENDBRANCH   1   2
BRANCH   1   5
ATOM      5  C   UNL     1       6.954   6.843  -2.229  1.00  0.00     0.059 C 
BRANCH   5   6
ATOM      6  C   UNL     1       5.748   6.887  -1.344  1.00  0.00     0.042 C 
ATOM      7  O   UNL     1       4.726   6.208  -1.631  1.00  0.00    -0.550 OA
ATOM      8  O   UNL     1       5.769   7.640  -0.177  1.00  0.00    -0.550 OA
ENDBRANCH   5   6
ENDBRANCH   1   5
TORSDOF 3
ENDMDL
MODEL 2
REMARK VINA RESULT:    -3.466      0.055      3.887
REMARK INTER + INTRA:          -4.114
REMARK INTER:                  -4.080
REMARK INTRA:                  -0.034
REMARK UNBOUND:                -0.041
REMARK SMILES O=C([O-])CCC(=O)[O-]
REMARK SMILES IDX 4 1 2 2 1 3 3 4 5 5 6 6 7 7 8 8
REMARK H PARENT
REMARK Flexibility Score: inf
ROOT
ATOM      1  C   UNL     1       6.993   6.821  -2.248  1.00  0.00     0.059 C 
ENDROOT
BRANCH   1   2
ATOM      2  C   UNL     1       5.779   6.832  -1.373  1.00  0.00     0.042 C 
ATOM      3  O   UNL     1       4.763   6.158  -1.691  1.00  0.00    -0.550 OA
ATOM      4  O   UNL     1       5.750   7.624  -0.233  1.00  0.00    -0.550 OA
ENDBRANCH   1   2
BRANCH   1   5
ATOM      5  C   UNL     1       7.417   8.250  -2.592  1.00  0.00     0.059 C 
BRANCH   5   6
ATOM      6  C   UNL     1       8.644   8.630  -1.825  1.00  0.00     0.042 C 
ATOM      7  O   UNL     1       8.555   8.970  -0.615  1.00  0.00    -0.550 OA
ATOM      8  O   UNL     1       9.891   8.563  -2.431  1.00  0.00    -0.550 OA
ENDBRANCH   5   6
ENDBRANCH   1   5
TORSDOF 3
ENDMDL
MODEL 3
REMARK VINA RESULT:    -3.394     11.486     12.468
REMARK INTER + INTRA:          -4.030
REMARK INTER:                  -3.957
REMARK INTRA:                  -0.073
REMARK UNBOUND:                -0.041
REMARK SMILES O=C([O-])CCC(=O)[O-]
REMARK SMILES IDX 4 1 2 2 1 3 3 4 5 5 6 6 7 7 8 8
REMARK H PARENT
REMARK Flexibility Score: inf
ROOT
ATOM      1  C   UNL     1       8.693  -4.051  -4.358  1.00  0.00     0.059 C 
ENDROOT
BRANCH   1   2
ATOM      2  C   UNL     1       9.449  -5.022  -5.210  1.00  0.00     0.042 C 
ATOM      3  O   UNL     1       9.558  -4.825  -6.449  1.00  0.00    -0.550 OA
ATOM      4  O   UNL     1       9.991  -6.168  -4.644  1.00  0.00    -0.550 OA
ENDBRANCH   1   2
BRANCH   1   5
ATOM      5  C   UNL     1       9.307  -3.977  -2.959  1.00  0.00     0.059 C 
BRANCH   5   6
ATOM      6  C   UNL     1       9.810  -2.595  -2.681  1.00  0.00     0.042 C 
ATOM      7  O   UNL     1       9.912  -1.758  -3.616  1.00  0.00    -0.550 OA
ATOM      8  O   UNL     1      10.121  -2.217  -1.382  1.00  0.00    -0.550 OA
ENDBRANCH   5   6
ENDBRANCH   1   5
TORSDOF 3
ENDMDL
MODEL 4
REMARK VINA RESULT:    -2.937     21.847     22.521
REMARK INTER + INTRA:          -3.493
REMARK INTER:                  -3.453
REMARK INTRA:                  -0.040
REMARK UNBOUND:                -0.041
REMARK SMILES O=C([O-])CCC(=O)[O-]
REMARK SMILES IDX 4 1 2 2 1 3 3 4 5 5 6 6 7 7 8 8
REMARK H PARENT
REMARK Flexibility Score: inf
ROOT
ATOM      1  C   UNL     1      -8.074  -4.705   9.992  1.00  0.00     0.059 C 
ENDROOT
BRANCH   1   2
ATOM      2  C   UNL     1      -7.118  -5.821   9.710  1.00  0.00     0.042 C 
ATOM      3  O   UNL     1      -5.933  -5.568   9.365  1.00  0.00    -0.550 OA
ATOM      4  O   UNL     1      -7.548  -7.139   9.780  1.00  0.00    -0.550 OA
ENDBRANCH   1   2
BRANCH   1   5
ATOM      5  C   UNL     1      -9.002  -4.481   8.798  1.00  0.00     0.059 C 
BRANCH   5   6
ATOM      6  C   UNL     1      -9.103  -3.022   8.479  1.00  0.00     0.042 C 
ATOM      7  O   UNL     1      -9.346  -2.647   7.301  1.00  0.00    -0.550 OA
ATOM      8  O   UNL     1      -8.977  -2.079   9.490  1.00  0.00    -0.550 OA
ENDBRANCH   5   6
ENDBRANCH   1   5
TORSDOF 3
ENDMDL
MODEL 5
REMARK VINA RESULT:    -2.862     12.755     13.703
REMARK INTER + INTRA:          -3.404
REMARK INTER:                  -3.365
REMARK INTRA:                  -0.039
REMARK UNBOUND:                -0.041
REMARK SMILES O=C([O-])CCC(=O)[O-]
REMARK SMILES IDX 4 1 2 2 1 3 3 4 5 5 6 6 7 7 8 8
REMARK H PARENT
REMARK Flexibility Score: inf
ROOT
ATOM      1  C   UNL     1       9.701  -5.634  -5.698  1.00  0.00     0.059 C 
ENDROOT
BRANCH   1   2
ATOM      2  C   UNL     1       9.840  -5.649  -7.188  1.00  0.00     0.042 C 
ATOM      3  O   UNL     1       9.666  -4.592  -7.850  1.00  0.00    -0.550 OA
ATOM      4  O   UNL     1      10.115  -6.838  -7.849  1.00  0.00    -0.550 OA
ENDBRANCH   1   2
BRANCH   1   5
ATOM      5  C   UNL     1       8.780  -4.495  -5.258  1.00  0.00     0.059 C 
BRANCH   5   6
ATOM      6  C   UNL     1       9.098  -4.077  -3.857  1.00  0.00     0.042 C 
ATOM      7  O   UNL     1       8.768  -4.811  -2.887  1.00  0.00    -0.550 OA
ATOM      8  O   UNL     1       9.800  -2.903  -3.623  1.00  0.00    -0.550 OA
ENDBRANCH   5   6
ENDBRANCH   1   5
TORSDOF 3
ENDMDL
MODEL 6
REMARK VINA RESULT:    -2.839     15.938     17.676
REMARK INTER + INTRA:          -3.378
REMARK INTER:                  -3.255
REMARK INTRA:                  -0.123
REMARK UNBOUND:                -0.041
REMARK SMILES O=C([O-])CCC(=O)[O-]
REMARK SMILES IDX 4 1 2 2 1 3 3 4 5 5 6 6 7 7 8 8
REMARK H PARENT
REMARK Flexibility Score: inf
ROOT
ATOM      1  C   UNL     1      -7.191   5.873   8.139  1.00  0.00     0.059 C 
ENDROOT
BRANCH   1   2
ATOM      2  C   UNL     1      -7.649   4.744   9.007  1.00  0.00     0.042 C 
ATOM      3  O   UNL     1      -8.865   4.413   9.028  1.00  0.00    -0.550 OA
ATOM      4  O   UNL     1      -6.743   4.087   9.829  1.00  0.00    -0.550 OA
ENDBRANCH   1   2
BRANCH   1   5
ATOM      5  C   UNL     1      -6.618   7.005   8.993  1.00  0.00     0.059 C 
BRANCH   5   6
ATOM      6  C   UNL     1      -5.168   7.210   8.684  1.00  0.00     0.042 C 
ATOM      7  O   UNL     1      -4.362   6.244   8.757  1.00  0.00    -0.550 OA
ATOM      8  O   UNL     1      -4.715   8.455   8.270  1.00  0.00    -0.550 OA
ENDBRANCH   5   6
ENDBRANCH   1   5
TORSDOF 3
ENDMDL
MODEL 7
REMARK VINA RESULT:    -2.832     15.942     17.306
REMARK INTER + INTRA:          -3.369
REMARK INTER:                  -3.246
REMARK INTRA:                  -0.123
REMARK UNBOUND:                -0.041
REMARK SMILES O=C([O-])CCC(=O)[O-]
REMARK SMILES IDX 4 1 2 2 1 3 3 4 5 5 6 6 7 7 8 8
REMARK H PARENT
REMARK Flexibility Score: inf
ROOT
ATOM      1  C   UNL     1      -6.622   7.028   8.974  1.00  0.00     0.059 C 
ENDROOT
BRANCH   1   2
ATOM      2  C   UNL     1      -5.171   7.238   8.676  1.00  0.00     0.042 C 
ATOM      3  O   UNL     1      -4.348   6.298   8.838  1.00  0.00    -0.550 OA
ATOM      4  O   UNL     1      -4.719   8.485   8.265  1.00  0.00    -0.550 OA
ENDBRANCH   1   2
BRANCH   1   5
ATOM      5  C   UNL     1      -7.179   5.877   8.136  1.00  0.00     0.059 C 
BRANCH   5   6
ATOM      6  C   UNL     1      -7.643   4.762   9.021  1.00  0.00     0.042 C 
ATOM      7  O   UNL     1      -8.849   4.398   9.001  1.00  0.00    -0.550 OA
ATOM      8  O   UNL     1      -6.735   4.094   9.831  1.00  0.00    -0.550 OA
ENDBRANCH   5   6
ENDBRANCH   1   5
TORSDOF 3
ENDMDL
