MODEL 1
REMARK VINA RESULT:    -4.094      0.000      0.000
REMARK INTER + INTRA:          -5.378
REMARK INTER:                  -5.051
REMARK INTRA:                  -0.327
REMARK UNBOUND:                -0.327
REMARK SMILES C=CC[C@@H](C)C(=O)CC
REMARK SMILES IDX 4 1 5 2 6 3 7 4 8 5 9 6 3 7 2 8 1 9
REMARK H PARENT
REMARK Flexibility Score: inf
ROOT
ATOM      1  C   UNL     1      21.421  28.086  36.673  1.00  0.00     0.057 C 
ATOM      2  C   UNL     1      21.085  26.717  37.282  1.00  0.00     0.016 C 
ENDROOT
BRANCH   1   3
ATOM      3  C   UNL     1      20.154  28.767  36.202  1.00  0.00     0.135 C 
ATOM      4  O   UNL     1      19.352  28.146  35.517  1.00  0.00    -0.299 OA
BRANCH   3   5
ATOM      5  C   UNL     1      19.861  30.200  36.556  1.00  0.00     0.072 C 
ATOM      6  C   UNL     1      18.672  30.289  37.506  1.00  0.00     0.012 C 
ENDBRANCH   3   5
ENDBRANCH   1   3
BRANCH   1   7
ATOM      7  C   UNL     1      22.162  28.992  37.679  1.00  0.00     0.038 C 
BRANCH   7   8
ATOM      8  C   UNL     1      22.219  28.390  39.059  1.00  0.00    -0.034 C 
ATOM      9  C   UNL     1      23.324  28.451  39.808  1.00  0.00     0.004 C 
ENDBRANCH   7   8
ENDBRANCH   1   7
TORSDOF 4
ENDMDL
MODEL 2
REMARK VINA RESULT:    -4.062      9.801     11.311
REMARK INTER + INTRA:          -5.339
REMARK INTER:                  -5.127
REMARK INTRA:                  -0.212
REMARK UNBOUND:                -0.327
REMARK SMILES C=CC[C@@H](C)C(=O)CC
REMARK SMILES IDX 4 1 5 2 6 3 7 4 8 5 9 6 3 7 2 8 1 9
REMARK H PARENT
REMARK Flexibility Score: inf
ROOT
ATOM      1  C   UNL     1      21.468  23.961  28.432  1.00  0.00     0.057 C 
ATOM      2  C   UNL     1      21.364  22.515  28.938  1.00  0.00     0.016 C 
ENDROOT
BRANCH   1   3
ATOM      3  C   UNL     1      22.923  24.358  28.299  1.00  0.00     0.135 C 
ATOM      4  O   UNL     1      23.236  25.264  27.537  1.00  0.00    -0.299 OA
BRANCH   3   5
ATOM      5  C   UNL     1      23.998  23.657  29.084  1.00  0.00     0.072 C 
ATOM      6  C   UNL     1      24.197  24.322  30.441  1.00  0.00     0.012 C 
ENDBRANCH   3   5
ENDBRANCH   1   3
BRANCH   1   7
ATOM      7  C   UNL     1      20.748  24.145  27.079  1.00  0.00     0.038 C 
BRANCH   7   8
ATOM      8  C   UNL     1      20.204  22.849  26.537  1.00  0.00    -0.034 C 
ATOM      9  C   UNL     1      18.973  22.761  26.025  1.00  0.00     0.004 C 
ENDBRANCH   7   8
ENDBRANCH   1   7
TORSDOF 4
ENDMDL
MODEL 3
REMARK VINA RESULT:    -3.870      1.952      4.230
REMARK INTER + INTRA:          -5.102
REMARK INTER:                  -4.663
REMARK INTRA:                  -0.439
REMARK UNBOUND:                -0.327
REMARK SMILES C=CC[C@@H](C)C(=O)CC
REMARK SMILES IDX 4 1 5 2 6 3 7 4 8 5 9 6 3 7 2 8 1 9
REMARK H PARENT
REMARK Flexibility Score: inf
ROOT
ATOM      1  C   UNL     1      20.223  29.893  36.778  1.00  0.00     0.057 C 
ATOM      2  C   UNL     1      20.941  31.198  36.401  1.00  0.00     0.016 C 
ENDROOT
BRANCH   1   3
ATOM      3  C   UNL     1      21.092  29.077  37.711  1.00  0.00     0.135 C 
ATOM      4  O   UNL     1      21.381  29.523  38.813  1.00  0.00    -0.299 OA
BRANCH   3   5
ATOM      5  C   UNL     1      21.613  27.724  37.308  1.00  0.00     0.072 C 
ATOM      6  C   UNL     1      20.464  26.782  36.965  1.00  0.00     0.012 C 
ENDBRANCH   3   5
ENDBRANCH   1   3
BRANCH   1   7
ATOM      7  C   UNL     1      18.854  30.164  37.437  1.00  0.00     0.038 C 
BRANCH   7   8
ATOM      8  C   UNL     1      17.707  29.643  36.612  1.00  0.00    -0.034 C 
ATOM      9  C   UNL     1      17.893  29.131  35.392  1.00  0.00     0.004 C 
ENDBRANCH   7   8
ENDBRANCH   1   7
TORSDOF 4
ENDMDL
MODEL 4
REMARK VINA RESULT:    -3.839      1.826      2.837
REMARK INTER + INTRA:          -5.064
REMARK INTER:                  -4.892
REMARK INTRA:                  -0.173
REMARK UNBOUND:                -0.327
REMARK SMILES C=CC[C@@H](C)C(=O)CC
REMARK SMILES IDX 4 1 5 2 6 3 7 4 8 5 9 6 3 7 2 8 1 9
REMARK H PARENT
REMARK Flexibility Score: inf
ROOT
ATOM      1  C   UNL     1      22.156  28.979  38.704  1.00  0.00     0.057 C 
ATOM      2  C   UNL     1      22.086  30.504  38.541  1.00  0.00     0.016 C 
ENDROOT
BRANCH   1   3
ATOM      3  C   UNL     1      22.044  28.310  37.351  1.00  0.00     0.135 C 
ATOM      4  O   UNL     1      22.827  28.611  36.460  1.00  0.00    -0.299 OA
BRANCH   3   5
ATOM      5  C   UNL     1      20.983  27.279  37.076  1.00  0.00     0.072 C 
ATOM      6  C   UNL     1      19.779  27.912  36.388  1.00  0.00     0.012 C 
ENDBRANCH   3   5
ENDBRANCH   1   3
BRANCH   1   7
ATOM      7  C   UNL     1      23.460  28.538  39.402  1.00  0.00     0.038 C 
BRANCH   7   8
ATOM      8  C   UNL     1      23.210  27.942  40.763  1.00  0.00    -0.034 C 
ATOM      9  C   UNL     1      24.212  27.559  41.559  1.00  0.00     0.004 C 
ENDBRANCH   7   8
ENDBRANCH   1   7
TORSDOF 4
ENDMDL
MODEL 5
REMARK VINA RESULT:    -3.827      2.146      2.984
REMARK INTER + INTRA:          -5.049
REMARK INTER:                  -4.641
REMARK INTRA:                  -0.408
REMARK UNBOUND:                -0.327
REMARK SMILES C=CC[C@@H](C)C(=O)CC
REMARK SMILES IDX 4 1 5 2 6 3 7 4 8 5 9 6 3 7 2 8 1 9
REMARK H PARENT
REMARK Flexibility Score: inf
ROOT
ATOM      1  C   UNL     1      20.983  29.888  38.034  1.00  0.00     0.057 C 
ATOM      2  C   UNL     1      22.011  31.008  38.253  1.00  0.00     0.016 C 
ENDROOT
BRANCH   1   3
ATOM      3  C   UNL     1      19.601  30.482  37.867  1.00  0.00     0.135 C 
ATOM      4  O   UNL     1      19.136  31.191  38.749  1.00  0.00    -0.299 OA
BRANCH   3   5
ATOM      5  C   UNL     1      18.781  30.213  36.634  1.00  0.00     0.072 C 
ATOM      6  C   UNL     1      17.583  29.330  36.964  1.00  0.00     0.012 C 
ENDBRANCH   3   5
ENDBRANCH   1   3
BRANCH   1   7
ATOM      7  C   UNL     1      21.335  29.023  36.805  1.00  0.00     0.038 C 
BRANCH   7   8
ATOM      8  C   UNL     1      21.479  27.564  37.153  1.00  0.00    -0.034 C 
ATOM      9  C   UNL     1      20.462  26.706  37.025  1.00  0.00     0.004 C 
ENDBRANCH   7   8
ENDBRANCH   1   7
TORSDOF 4
ENDMDL
MODEL 6
REMARK VINA RESULT:    -3.722      1.734      4.062
REMARK INTER + INTRA:          -4.919
REMARK INTER:                  -4.738
REMARK INTRA:                  -0.181
REMARK UNBOUND:                -0.327
REMARK SMILES C=CC[C@@H](C)C(=O)CC
REMARK SMILES IDX 4 1 5 2 6 3 7 4 8 5 9 6 3 7 2 8 1 9
REMARK H PARENT
REMARK Flexibility Score: inf
ROOT
ATOM      1  C   UNL     1      21.092  28.414  37.495  1.00  0.00     0.057 C 
ATOM      2  C   UNL     1      21.102  26.908  37.197  1.00  0.00     0.016 C 
ENDROOT
BRANCH   1   3
ATOM      3  C   UNL     1      22.512  28.925  37.618  1.00  0.00     0.135 C 
ATOM      4  O   UNL     1      23.260  28.874  36.651  1.00  0.00    -0.299 OA
BRANCH   3   5
ATOM      5  C   UNL     1      23.026  29.493  38.914  1.00  0.00     0.072 C 
ATOM      6  C   UNL     1      23.875  28.466  39.655  1.00  0.00     0.012 C 
ENDBRANCH   3   5
ENDBRANCH   1   3
BRANCH   1   7
ATOM      7  C   UNL     1      20.342  29.207  36.404  1.00  0.00     0.038 C 
BRANCH   7   8
ATOM      8  C   UNL     1      19.128  28.475  35.895  1.00  0.00    -0.034 C 
ATOM      9  C   UNL     1      18.045  29.125  35.458  1.00  0.00     0.004 C 
ENDBRANCH   7   8
ENDBRANCH   1   7
TORSDOF 4
ENDMDL
MODEL 7
REMARK VINA RESULT:    -3.670      1.549      3.991
REMARK INTER + INTRA:          -4.856
REMARK INTER:                  -4.644
REMARK INTRA:                  -0.212
REMARK UNBOUND:                -0.327
REMARK SMILES C=CC[C@@H](C)C(=O)CC
REMARK SMILES IDX 4 1 5 2 6 3 7 4 8 5 9 6 3 7 2 8 1 9
REMARK H PARENT
REMARK Flexibility Score: inf
ROOT
ATOM      1  C   UNL     1      19.809  30.253  36.391  1.00  0.00     0.057 C 
ATOM      2  C   UNL     1      21.093  31.077  36.220  1.00  0.00     0.016 C 
ENDROOT
BRANCH   1   3
ATOM      3  C   UNL     1      20.108  28.783  36.193  1.00  0.00     0.135 C 
ATOM      4  O   UNL     1      19.353  28.097  35.517  1.00  0.00    -0.299 OA
BRANCH   3   5
ATOM      5  C   UNL     1      21.320  28.143  36.816  1.00  0.00     0.072 C 
ATOM      6  C   UNL     1      21.019  26.707  37.232  1.00  0.00     0.012 C 
ENDBRANCH   3   5
ENDBRANCH   1   3
BRANCH   1   7
ATOM      7  C   UNL     1      19.168  30.476  37.778  1.00  0.00     0.038 C 
BRANCH   7   8
ATOM      8  C   UNL     1      17.867  31.232  37.694  1.00  0.00    -0.034 C 
ATOM      9  C   UNL     1      17.805  32.551  37.892  1.00  0.00     0.004 C 
ENDBRANCH   7   8
ENDBRANCH   1   7
TORSDOF 4
ENDMDL
MODEL 8
REMARK VINA RESULT:    -3.633      2.113      3.265
REMARK INTER + INTRA:          -4.810
REMARK INTER:                  -4.598
REMARK INTRA:                  -0.211
REMARK UNBOUND:                -0.327
REMARK SMILES C=CC[C@@H](C)C(=O)CC
REMARK SMILES IDX 4 1 5 2 6 3 7 4 8 5 9 6 3 7 2 8 1 9
REMARK H PARENT
REMARK Flexibility Score: inf
ROOT
ATOM      1  C   UNL     1      23.106  28.954  38.720  1.00  0.00     0.057 C 
ATOM      2  C   UNL     1      22.967  28.268  40.087  1.00  0.00     0.016 C 
ENDROOT
BRANCH   1   3
ATOM      3  C   UNL     1      21.770  28.964  38.009  1.00  0.00     0.135 C 
ATOM      4  O   UNL     1      20.867  29.677  38.427  1.00  0.00    -0.299 OA
BRANCH   3   5
ATOM      5  C   UNL     1      21.526  28.107  36.796  1.00  0.00     0.072 C 
ATOM      6  C   UNL     1      20.955  26.751  37.198  1.00  0.00     0.012 C 
ENDBRANCH   3   5
ENDBRANCH   1   3
BRANCH   1   7
ATOM      7  C   UNL     1      23.638  30.396  38.857  1.00  0.00     0.038 C 
BRANCH   7   8
ATOM      8  C   UNL     1      25.123  30.486  38.614  1.00  0.00    -0.034 C 
ATOM      9  C   UNL     1      25.996  30.586  39.621  1.00  0.00     0.004 C 
ENDBRANCH   7   8
ENDBRANCH   1   7
TORSDOF 4
ENDMDL
