MODEL 1
REMARK VINA RESULT:    -6.636      0.000      0.000
REMARK INTER + INTRA:          -6.636
REMARK INTER:                  -6.636
REMARK INTRA:                   0.000
REMARK UNBOUND:                 0.000
REMARK SMILES C=C1CCC[C@@]2(C)CC(=O)C(=C(C)C)C[C@H]12
REMARK SMILES IDX 13 1 12 2 11 3 15 4 16 5 2 6 1 7 3 8 4 9 5 10 6 11 8 12 9 13
REMARK SMILES IDX 10 14 7 15 14 16
REMARK H PARENT
REMARK Flexibility Score: inf
ROOT
ATOM      1  C   UNL     1     -15.157 -15.963  33.095  1.00  0.00     0.039 C 
ATOM      2  C   UNL     1     -13.694 -15.606  33.230  1.00  0.00    -0.070 C 
ATOM      3  C   UNL     1     -12.772 -16.036  32.318  1.00  0.00    -0.006 C 
ATOM      4  C   UNL     1     -13.184 -16.874  31.115  1.00  0.00     0.047 C 
ATOM      5  C   UNL     1     -12.273 -16.646  29.884  1.00  0.00     0.025 C 
ATOM      6  C   UNL     1     -12.615 -17.491  28.656  1.00  0.00    -0.073 C 
ATOM      7  C   UNL     1     -13.619 -18.387  28.614  1.00  0.00     0.008 C 
ATOM      8  C   UNL     1     -11.779 -17.246  27.423  1.00  0.00     0.031 C 
ATOM      9  C   UNL     1     -10.289 -17.362  27.756  1.00  0.00     0.005 C 
ATOM     10  C   UNL     1      -9.906 -16.487  28.961  1.00  0.00     0.008 C 
ATOM     11  C   UNL     1     -10.757 -16.789  30.232  1.00  0.00    -0.018 C 
ATOM     12  C   UNL     1     -10.397 -15.741  31.314  1.00  0.00     0.088 C 
ATOM     13  C   UNL     1     -11.307 -15.822  32.505  1.00  0.00     0.159 C 
ATOM     14  O   UNL     1     -10.803 -15.720  33.656  1.00  0.00    -0.295 OA
ATOM     15  C   UNL     1     -10.417 -18.210  30.759  1.00  0.00     0.012 C 
ATOM     16  C   UNL     1     -13.311 -14.724  34.395  1.00  0.00     0.039 C 
ENDROOT
TORSDOF 0
ENDMDL
MODEL 2
REMARK VINA RESULT:    -6.411      1.533      2.023
REMARK INTER + INTRA:          -6.411
REMARK INTER:                  -6.411
REMARK INTRA:                   0.000
REMARK UNBOUND:                 0.000
REMARK SMILES C=C1CCC[C@@]2(C)CC(=O)C(=C(C)C)C[C@H]12
REMARK SMILES IDX 13 1 12 2 11 3 15 4 16 5 2 6 1 7 3 8 4 9 5 10 6 11 8 12 9 13
REMARK SMILES IDX 10 14 7 15 14 16
REMARK H PARENT
REMARK Flexibility Score: inf
ROOT
ATOM      1  C   UNL     1     -14.903 -14.392  31.771  1.00  0.00     0.039 C 
ATOM      2  C   UNL     1     -13.750 -15.330  32.050  1.00  0.00    -0.070 C 
ATOM      3  C   UNL     1     -13.159 -16.045  31.046  1.00  0.00    -0.006 C 
ATOM      4  C   UNL     1     -13.621 -15.907  29.602  1.00  0.00     0.047 C 
ATOM      5  C   UNL     1     -12.480 -16.138  28.582  1.00  0.00     0.025 C 
ATOM      6  C   UNL     1     -12.894 -16.052  27.112  1.00  0.00    -0.073 C 
ATOM      7  C   UNL     1     -14.151 -15.806  26.697  1.00  0.00     0.008 C 
ATOM      8  C   UNL     1     -11.788 -16.215  26.096  1.00  0.00     0.031 C 
ATOM      9  C   UNL     1     -11.010 -17.507  26.358  1.00  0.00     0.005 C 
ATOM     10  C   UNL     1     -10.541 -17.601  27.820  1.00  0.00     0.008 C 
ATOM     11  C   UNL     1     -11.707 -17.469  28.846  1.00  0.00    -0.018 C 
ATOM     12  C   UNL     1     -11.095 -17.411  30.267  1.00  0.00     0.088 C 
ATOM     13  C   UNL     1     -12.121 -17.083  31.313  1.00  0.00     0.159 C 
ATOM     14  O   UNL     1     -12.090 -17.712  32.405  1.00  0.00    -0.295 OA
ATOM     15  C   UNL     1     -12.638 -18.708  28.737  1.00  0.00     0.012 C 
ATOM     16  C   UNL     1     -13.264 -15.410  33.478  1.00  0.00     0.039 C 
ENDROOT
TORSDOF 0
ENDMDL
MODEL 3
REMARK VINA RESULT:    -5.133      2.804      4.757
REMARK INTER + INTRA:          -5.133
REMARK INTER:                  -5.133
REMARK INTRA:                   0.000
REMARK UNBOUND:                 0.000
REMARK SMILES C=C1CCC[C@@]2(C)CC(=O)C(=C(C)C)C[C@H]12
REMARK SMILES IDX 13 1 12 2 11 3 15 4 16 5 2 6 1 7 3 8 4 9 5 10 6 11 8 12 9 13
REMARK SMILES IDX 10 14 7 15 14 16
REMARK H PARENT
REMARK Flexibility Score: inf
ROOT
ATOM      1  C   UNL     1     -14.737 -13.583  28.308  1.00  0.00     0.039 C 
ATOM      2  C   UNL     1     -14.132 -14.730  27.531  1.00  0.00    -0.070 C 
ATOM      3  C   UNL     1     -13.401 -15.702  28.155  1.00  0.00    -0.006 C 
ATOM      4  C   UNL     1     -13.186 -15.681  29.662  1.00  0.00     0.047 C 
ATOM      5  C   UNL     1     -13.036 -17.098  30.267  1.00  0.00     0.025 C 
ATOM      6  C   UNL     1     -12.776 -17.138  31.774  1.00  0.00    -0.073 C 
ATOM      7  C   UNL     1     -12.669 -16.042  32.549  1.00  0.00     0.008 C 
ATOM      8  C   UNL     1     -12.685 -18.510  32.400  1.00  0.00     0.031 C 
ATOM      9  C   UNL     1     -11.657 -19.367  31.657  1.00  0.00     0.005 C 
ATOM     10  C   UNL     1     -11.919 -19.382  30.141  1.00  0.00     0.008 C 
ATOM     11  C   UNL     1     -11.969 -17.956  29.515  1.00  0.00    -0.018 C 
ATOM     12  C   UNL     1     -12.401 -18.094  28.034  1.00  0.00     0.088 C 
ATOM     13  C   UNL     1     -12.674 -16.762  27.397  1.00  0.00     0.159 C 
ATOM     14  O   UNL     1     -12.263 -16.561  26.222  1.00  0.00    -0.295 OA
ATOM     15  C   UNL     1     -10.558 -17.309  29.580  1.00  0.00     0.012 C 
ATOM     16  C   UNL     1     -14.406 -14.770  26.046  1.00  0.00     0.039 C 
ENDROOT
TORSDOF 0
ENDMDL
MODEL 4
REMARK VINA RESULT:    -4.903      1.990      4.972
REMARK INTER + INTRA:          -4.903
REMARK INTER:                  -4.903
REMARK INTRA:                   0.000
REMARK UNBOUND:                 0.000
REMARK SMILES C=C1CCC[C@@]2(C)CC(=O)C(=C(C)C)C[C@H]12
REMARK SMILES IDX 13 1 12 2 11 3 15 4 16 5 2 6 1 7 3 8 4 9 5 10 6 11 8 12 9 13
REMARK SMILES IDX 10 14 7 15 14 16
REMARK H PARENT
REMARK Flexibility Score: inf
ROOT
ATOM      1  C   UNL     1     -13.601 -15.854  26.273  1.00  0.00     0.039 C 
ATOM      2  C   UNL     1     -12.420 -16.547  26.914  1.00  0.00    -0.070 C 
ATOM      3  C   UNL     1     -12.185 -16.451  28.257  1.00  0.00    -0.006 C 
ATOM      4  C   UNL     1     -13.117 -15.662  29.166  1.00  0.00     0.047 C 
ATOM      5  C   UNL     1     -13.174 -16.231  30.605  1.00  0.00     0.025 C 
ATOM      6  C   UNL     1     -14.065 -15.454  31.576  1.00  0.00    -0.073 C 
ATOM      7  C   UNL     1     -14.755 -14.346  31.244  1.00  0.00     0.008 C 
ATOM      8  C   UNL     1     -14.186 -16.021  32.971  1.00  0.00     0.031 C 
ATOM      9  C   UNL     1     -12.798 -16.243  33.578  1.00  0.00     0.005 C 
ATOM     10  C   UNL     1     -11.893 -17.061  32.641  1.00  0.00     0.008 C 
ATOM     11  C   UNL     1     -11.754 -16.433  31.222  1.00  0.00    -0.018 C 
ATOM     12  C   UNL     1     -10.965 -17.424  30.330  1.00  0.00     0.088 C 
ATOM     13  C   UNL     1     -10.950 -17.001  28.890  1.00  0.00     0.159 C 
ATOM     14  O   UNL     1      -9.875 -17.110  28.241  1.00  0.00    -0.295 OA
ATOM     15  C   UNL     1     -10.971 -15.094  31.320  1.00  0.00     0.012 C 
ATOM     16  C   UNL     1     -11.539 -17.375  26.008  1.00  0.00     0.039 C 
ENDROOT
TORSDOF 0
ENDMDL
MODEL 5
REMARK VINA RESULT:    -4.845      2.561      3.632
REMARK INTER + INTRA:          -4.845
REMARK INTER:                  -4.845
REMARK INTRA:                   0.000
REMARK UNBOUND:                 0.000
REMARK SMILES C=C1CCC[C@@]2(C)CC(=O)C(=C(C)C)C[C@H]12
REMARK SMILES IDX 13 1 12 2 11 3 15 4 16 5 2 6 1 7 3 8 4 9 5 10 6 11 8 12 9 13
REMARK SMILES IDX 10 14 7 15 14 16
REMARK H PARENT
REMARK Flexibility Score: inf
ROOT
ATOM      1  C   UNL     1     -15.044 -13.621  27.876  1.00  0.00     0.039 C 
ATOM      2  C   UNL     1     -15.124 -13.772  29.378  1.00  0.00    -0.070 C 
ATOM      3  C   UNL     1     -14.352 -14.684  30.041  1.00  0.00    -0.006 C 
ATOM      4  C   UNL     1     -13.362 -15.568  29.296  1.00  0.00     0.047 C 
ATOM      5  C   UNL     1     -12.129 -15.944  30.155  1.00  0.00     0.025 C 
ATOM      6  C   UNL     1     -11.117 -16.866  29.473  1.00  0.00    -0.073 C 
ATOM      7  C   UNL     1     -11.259 -17.344  28.222  1.00  0.00     0.008 C 
ATOM      8  C   UNL     1      -9.877 -17.201  30.267  1.00  0.00     0.031 C 
ATOM      9  C   UNL     1     -10.258 -17.751  31.644  1.00  0.00     0.005 C 
ATOM     10  C   UNL     1     -11.242 -16.821  32.374  1.00  0.00     0.008 C 
ATOM     11  C   UNL     1     -12.530 -16.524  31.549  1.00  0.00    -0.018 C 
ATOM     12  C   UNL     1     -13.355 -15.456  32.309  1.00  0.00     0.088 C 
ATOM     13  C   UNL     1     -14.516 -14.955  31.500  1.00  0.00     0.159 C 
ATOM     14  O   UNL     1     -15.623 -14.784  32.076  1.00  0.00    -0.295 OA
ATOM     15  C   UNL     1     -13.372 -17.823  31.413  1.00  0.00     0.012 C 
ATOM     16  C   UNL     1     -16.068 -12.845  30.109  1.00  0.00     0.039 C 
ENDROOT
TORSDOF 0
ENDMDL
MODEL 6
REMARK VINA RESULT:    -4.166      2.008      3.604
REMARK INTER + INTRA:          -4.166
REMARK INTER:                  -4.166
REMARK INTRA:                   0.000
REMARK UNBOUND:                 0.000
REMARK SMILES C=C1CCC[C@@]2(C)CC(=O)C(=C(C)C)C[C@H]12
REMARK SMILES IDX 13 1 12 2 11 3 15 4 16 5 2 6 1 7 3 8 4 9 5 10 6 11 8 12 9 13
REMARK SMILES IDX 10 14 7 15 14 16
REMARK H PARENT
REMARK Flexibility Score: inf
ROOT
ATOM      1  C   UNL     1     -13.039 -13.251  36.751  1.00  0.00     0.039 C 
ATOM      2  C   UNL     1     -11.826 -13.890  36.112  1.00  0.00    -0.070 C 
ATOM      3  C   UNL     1     -11.925 -14.577  34.934  1.00  0.00    -0.006 C 
ATOM      4  C   UNL     1     -13.256 -14.705  34.206  1.00  0.00     0.047 C 
ATOM      5  C   UNL     1     -13.092 -14.810  32.670  1.00  0.00     0.025 C 
ATOM      6  C   UNL     1     -14.394 -14.982  31.887  1.00  0.00    -0.073 C 
ATOM      7  C   UNL     1     -15.612 -15.052  32.457  1.00  0.00     0.008 C 
ATOM      8  C   UNL     1     -14.268 -15.027  30.382  1.00  0.00     0.031 C 
ATOM      9  C   UNL     1     -13.247 -16.089  29.965  1.00  0.00     0.005 C 
ATOM     10  C   UNL     1     -11.910 -15.915  30.705  1.00  0.00     0.008 C 
ATOM     11  C   UNL     1     -12.065 -15.911  32.256  1.00  0.00    -0.018 C 
ATOM     12  C   UNL     1     -10.689 -15.564  32.877  1.00  0.00     0.088 C 
ATOM     13  C   UNL     1     -10.778 -15.339  34.359  1.00  0.00     0.159 C 
ATOM     14  O   UNL     1      -9.875 -15.817  35.096  1.00  0.00    -0.295 OA
ATOM     15  C   UNL     1     -12.505 -17.321  32.737  1.00  0.00     0.012 C 
ATOM     16  C   UNL     1     -10.503 -13.702  36.816  1.00  0.00     0.039 C 
ENDROOT
TORSDOF 0
ENDMDL
MODEL 7
REMARK VINA RESULT:    -4.024      2.200      3.419
REMARK INTER + INTRA:          -4.024
REMARK INTER:                  -4.024
REMARK INTRA:                   0.000
REMARK UNBOUND:                 0.000
REMARK SMILES C=C1CCC[C@@]2(C)CC(=O)C(=C(C)C)C[C@H]12
REMARK SMILES IDX 13 1 12 2 11 3 15 4 16 5 2 6 1 7 3 8 4 9 5 10 6 11 8 12 9 13
REMARK SMILES IDX 10 14 7 15 14 16
REMARK H PARENT
REMARK Flexibility Score: inf
ROOT
ATOM      1  C   UNL     1     -11.579 -15.544  33.309  1.00  0.00     0.039 C 
ATOM      2  C   UNL     1     -11.066 -16.572  32.325  1.00  0.00    -0.070 C 
ATOM      3  C   UNL     1     -11.638 -16.721  31.093  1.00  0.00    -0.006 C 
ATOM      4  C   UNL     1     -12.799 -15.841  30.651  1.00  0.00     0.047 C 
ATOM      5  C   UNL     1     -12.823 -15.604  29.121  1.00  0.00     0.025 C 
ATOM      6  C   UNL     1     -13.993 -14.759  28.612  1.00  0.00    -0.073 C 
ATOM      7  C   UNL     1     -14.955 -14.251  29.404  1.00  0.00     0.008 C 
ATOM      8  C   UNL     1     -14.008 -14.463  27.131  1.00  0.00     0.031 C 
ATOM      9  C   UNL     1     -13.895 -15.761  26.327  1.00  0.00     0.005 C 
ATOM     10  C   UNL     1     -12.700 -16.612  26.787  1.00  0.00     0.008 C 
ATOM     11  C   UNL     1     -12.729 -16.936  28.311  1.00  0.00    -0.018 C 
ATOM     12  C   UNL     1     -11.403 -17.646  28.680  1.00  0.00     0.088 C 
ATOM     13  C   UNL     1     -11.248 -17.821  30.163  1.00  0.00     0.159 C 
ATOM     14  O   UNL     1     -10.798 -18.915  30.596  1.00  0.00    -0.295 OA
ATOM     15  C   UNL     1     -13.922 -17.884  28.618  1.00  0.00     0.012 C 
ATOM     16  C   UNL     1      -9.875 -17.396  32.756  1.00  0.00     0.039 C 
ENDROOT
TORSDOF 0
ENDMDL
MODEL 8
REMARK VINA RESULT:    -3.745      2.283      6.474
REMARK INTER + INTRA:          -3.745
REMARK INTER:                  -3.745
REMARK INTRA:                   0.000
REMARK UNBOUND:                 0.000
REMARK SMILES C=C1CCC[C@@]2(C)CC(=O)C(=C(C)C)C[C@H]12
REMARK SMILES IDX 13 1 12 2 11 3 15 4 16 5 2 6 1 7 3 8 4 9 5 10 6 11 8 12 9 13
REMARK SMILES IDX 10 14 7 15 14 16
REMARK H PARENT
REMARK Flexibility Score: inf
ROOT
ATOM      1  C   UNL     1      -9.995 -16.947  31.677  1.00  0.00     0.039 C 
ATOM      2  C   UNL     1     -11.438 -16.496  31.656  1.00  0.00    -0.070 C 
ATOM      3  C   UNL     1     -11.992 -15.844  32.722  1.00  0.00    -0.006 C 
ATOM      4  C   UNL     1     -11.171 -15.525  33.964  1.00  0.00     0.047 C 
ATOM      5  C   UNL     1     -11.643 -14.235  34.680  1.00  0.00     0.025 C 
ATOM      6  C   UNL     1     -10.881 -13.884  35.958  1.00  0.00    -0.073 C 
ATOM      7  C   UNL     1      -9.875 -14.624  36.462  1.00  0.00     0.008 C 
ATOM      8  C   UNL     1     -11.282 -12.600  36.644  1.00  0.00     0.031 C 
ATOM      9  C   UNL     1     -12.791 -12.579  36.898  1.00  0.00     0.005 C 
ATOM     10  C   UNL     1     -13.587 -12.885  35.618  1.00  0.00     0.008 C 
ATOM     11  C   UNL     1     -13.181 -14.235  34.953  1.00  0.00    -0.018 C 
ATOM     12  C   UNL     1     -13.923 -14.348  33.598  1.00  0.00     0.088 C 
ATOM     13  C   UNL     1     -13.447 -15.519  32.788  1.00  0.00     0.159 C 
ATOM     14  O   UNL     1     -14.302 -16.220  32.182  1.00  0.00    -0.295 OA
ATOM     15  C   UNL     1     -13.604 -15.415  35.871  1.00  0.00     0.012 C 
ATOM     16  C   UNL     1     -12.222 -16.767  30.393  1.00  0.00     0.039 C 
ENDROOT
TORSDOF 0
ENDMDL
