MODEL 1
REMARK VINA RESULT:    14.768      0.000      0.000
REMARK INTER + INTRA:          17.467
REMARK INTER:                  17.790
REMARK INTRA:                  -0.323
REMARK UNBOUND:                -0.323
REMARK SMILES O=c1c(O)c(-c2ccc(O)c(O)c2)oc2cc(O)cc(O)c12
REMARK SMILES IDX 5 1 3 2 2 3 1 4 22 5 20 6 19 7 17 8 16 9 15 10 14 11 6 12
REMARK SMILES IDX 7 13 8 14 9 15 13 16 11 17 10 18 12 20 4 22 21 24 18 26
REMARK H PARENT 10 19 12 21 4 23 21 25 18 27
REMARK Flexibility Score: inf
ROOT
ATOM      1  C   UNL     1     133.694 128.853 127.980  1.00  0.00     0.180 A 
ATOM      2  C   UNL     1     132.674 127.997 127.528  1.00  0.00     0.208 A 
ATOM      3  C   UNL     1     131.716 128.494 126.630  1.00  0.00     0.238 A 
ATOM      4  O   UNL     1     130.837 127.710 126.188  1.00  0.00    -0.285 OA
ATOM      5  C   UNL     1     131.780 129.844 126.208  1.00  0.00     0.111 A 
ATOM      6  C   UNL     1     130.839 130.465 125.333  1.00  0.00     0.134 A 
ATOM      7  C   UNL     1     131.073 131.769 124.879  1.00  0.00     0.093 A 
ATOM      8  C   UNL     1     132.181 132.497 125.320  1.00  0.00     0.123 A 
ATOM      9  C   UNL     1     133.074 131.920 126.221  1.00  0.00     0.094 A 
ATOM     10  C   UNL     1     132.886 130.609 126.664  1.00  0.00     0.146 A 
ATOM     11  O   UNL     1     133.765 130.094 127.514  1.00  0.00    -0.452 OA
ENDROOT
BRANCH   1  12
ATOM     12  C   UNL     1     134.726 128.408 128.945  1.00  0.00     0.025 A 
ATOM     13  C   UNL     1     134.487 128.543 130.322  1.00  0.00     0.016 A 
ATOM     14  C   UNL     1     135.437 128.110 131.251  1.00  0.00     0.051 A 
ATOM     15  C   UNL     1     136.631 127.525 130.820  1.00  0.00     0.157 A 
ATOM     16  C   UNL     1     135.918 127.800 128.514  1.00  0.00     0.062 A 
ATOM     17  C   UNL     1     136.873 127.364 129.446  1.00  0.00     0.158 A 
BRANCH  15  18
ATOM     18  O   UNL     1     137.562 127.106 131.771  1.00  0.00    -0.504 OA
ATOM     19  H   UNL     1     137.911 126.155 131.799  1.00  0.00     0.293 HD
ENDBRANCH  15  18
BRANCH  17  20
ATOM     20  O   UNL     1     138.055 126.767 129.010  1.00  0.00    -0.504 OA
ATOM     21  H   UNL     1     138.891 126.763 129.584  1.00  0.00     0.293 HD
ENDBRANCH  17  20
ENDBRANCH   1  12
BRANCH   2  22
ATOM     22  O   UNL     1     132.643 126.662 127.941  1.00  0.00    -0.502 OA
ATOM     23  H   UNL     1     133.337 126.269 128.566  1.00  0.00     0.293 HD
ENDBRANCH   2  22
BRANCH   6  24
ATOM     24  O   UNL     1     129.653 129.859 124.906  1.00  0.00    -0.507 OA
ATOM     25  H   UNL     1     129.531 128.867 124.771  1.00  0.00     0.293 HD
ENDBRANCH   6  24
BRANCH   8  26
ATOM     26  O   UNL     1     132.399 133.798 124.875  1.00  0.00    -0.508 OA
ATOM     27  H   UNL     1     132.410 134.583 125.516  1.00  0.00     0.293 HD
ENDBRANCH   8  26
TORSDOF 6
ENDMDL
MODEL 2
REMARK VINA RESULT:    15.054      2.094      7.448
REMARK INTER + INTRA:          17.811
REMARK INTER:                  17.831
REMARK INTRA:                  -0.019
REMARK UNBOUND:                -0.323
REMARK SMILES O=c1c(O)c(-c2ccc(O)c(O)c2)oc2cc(O)cc(O)c12
REMARK SMILES IDX 5 1 3 2 2 3 1 4 22 5 20 6 19 7 17 8 16 9 15 10 14 11 6 12
REMARK SMILES IDX 7 13 8 14 9 15 13 16 11 17 10 18 12 20 4 22 21 24 18 26
REMARK H PARENT 10 19 12 21 4 23 21 25 18 27
REMARK Flexibility Score: inf
ROOT
ATOM      1  C   UNL     1     135.661 128.256 129.397  1.00  0.00     0.180 A 
ATOM      2  C   UNL     1     135.488 127.830 130.725  1.00  0.00     0.208 A 
ATOM      3  C   UNL     1     136.623 127.610 131.522  1.00  0.00     0.238 A 
ATOM      4  O   UNL     1     136.461 127.280 132.726  1.00  0.00    -0.285 OA
ATOM      5  C   UNL     1     137.915 127.804 130.978  1.00  0.00     0.111 A 
ATOM      6  C   UNL     1     139.134 127.573 131.682  1.00  0.00     0.134 A 
ATOM      7  C   UNL     1     140.353 127.923 131.087  1.00  0.00     0.093 A 
ATOM      8  C   UNL     1     140.400 128.435 129.788  1.00  0.00     0.123 A 
ATOM      9  C   UNL     1     139.218 128.609 129.071  1.00  0.00     0.094 A 
ATOM     10  C   UNL     1     137.986 128.302 129.650  1.00  0.00     0.146 A 
ATOM     11  O   UNL     1     136.883 128.493 128.936  1.00  0.00    -0.452 OA
ENDROOT
BRANCH   1  12
ATOM     12  C   UNL     1     134.514 128.484 128.487  1.00  0.00     0.025 A 
ATOM     13  C   UNL     1     133.553 127.475 128.320  1.00  0.00     0.016 A 
ATOM     14  C   UNL     1     132.452 127.677 127.483  1.00  0.00     0.051 A 
ATOM     15  C   UNL     1     132.287 128.893 126.815  1.00  0.00     0.157 A 
ATOM     16  C   UNL     1     134.335 129.715 127.830  1.00  0.00     0.062 A 
ATOM     17  C   UNL     1     133.229 129.920 126.991  1.00  0.00     0.158 A 
BRANCH  15  18
ATOM     18  O   UNL     1     131.180 129.065 125.984  1.00  0.00    -0.504 OA
ATOM     19  H   UNL     1     130.781 128.298 125.454  1.00  0.00     0.293 HD
ENDBRANCH  15  18
BRANCH  17  20
ATOM     20  O   UNL     1     133.062 131.140 126.338  1.00  0.00    -0.504 OA
ATOM     21  H   UNL     1     132.233 131.707 126.476  1.00  0.00     0.293 HD
ENDBRANCH  17  20
ENDBRANCH   1  12
BRANCH   2  22
ATOM     22  O   UNL     1     134.202 127.665 131.249  1.00  0.00    -0.502 OA
ATOM     23  H   UNL     1     133.751 128.374 131.815  1.00  0.00     0.293 HD
ENDBRANCH   2  22
BRANCH   6  24
ATOM     24  O   UNL     1     139.205 126.980 132.947  1.00  0.00    -0.507 OA
ATOM     25  H   UNL     1     138.646 127.253 133.741  1.00  0.00     0.293 HD
ENDBRANCH   6  24
BRANCH   8  26
ATOM     26  O   UNL     1     141.617 128.766 129.198  1.00  0.00    -0.508 OA
ATOM     27  H   UNL     1     142.457 128.892 129.751  1.00  0.00     0.293 HD
ENDBRANCH   8  26
TORSDOF 6
ENDMDL
MODEL 3
REMARK VINA RESULT:    16.062      2.071      7.702
REMARK INTER + INTRA:          19.026
REMARK INTER:                  19.089
REMARK INTRA:                  -0.063
REMARK UNBOUND:                -0.323
REMARK SMILES O=c1c(O)c(-c2ccc(O)c(O)c2)oc2cc(O)cc(O)c12
REMARK SMILES IDX 5 1 3 2 2 3 1 4 22 5 20 6 19 7 17 8 16 9 15 10 14 11 6 12
REMARK SMILES IDX 7 13 8 14 9 15 13 16 11 17 10 18 12 20 4 22 21 24 18 26
REMARK H PARENT 10 19 12 21 4 23 21 25 18 27
REMARK Flexibility Score: inf
ROOT
ATOM      1  C   UNL     1     135.916 128.369 128.901  1.00  0.00     0.180 A 
ATOM      2  C   UNL     1     137.098 128.625 128.186  1.00  0.00     0.208 A 
ATOM      3  C   UNL     1     138.330 128.539 128.853  1.00  0.00     0.238 A 
ATOM      4  O   UNL     1     139.388 128.717 128.196  1.00  0.00    -0.285 OA
ATOM      5  C   UNL     1     138.364 128.213 130.231  1.00  0.00     0.111 A 
ATOM      6  C   UNL     1     139.552 128.138 131.017  1.00  0.00     0.134 A 
ATOM      7  C   UNL     1     139.479 127.679 132.339  1.00  0.00     0.093 A 
ATOM      8  C   UNL     1     138.251 127.355 132.921  1.00  0.00     0.123 A 
ATOM      9  C   UNL     1     137.079 127.482 132.179  1.00  0.00     0.094 A 
ATOM     10  C   UNL     1     137.124 127.903 130.849  1.00  0.00     0.146 A 
ATOM     11  O   UNL     1     135.985 128.001 130.175  1.00  0.00    -0.452 OA
ENDROOT
BRANCH   1  12
ATOM     12  C   UNL     1     134.578 128.464 128.273  1.00  0.00     0.025 A 
ATOM     13  C   UNL     1     133.675 127.398 128.405  1.00  0.00     0.016 A 
ATOM     14  C   UNL     1     132.400 127.476 127.837  1.00  0.00     0.051 A 
ATOM     15  C   UNL     1     132.004 128.623 127.144  1.00  0.00     0.157 A 
ATOM     16  C   UNL     1     134.171 129.626 127.592  1.00  0.00     0.062 A 
ATOM     17  C   UNL     1     132.890 129.706 127.024  1.00  0.00     0.158 A 
BRANCH  15  18
ATOM     18  O   UNL     1     130.726 128.670 126.586  1.00  0.00    -0.504 OA
ATOM     19  H   UNL     1     130.523 129.207 125.752  1.00  0.00     0.293 HD
ENDBRANCH  15  18
BRANCH  17  20
ATOM     20  O   UNL     1     132.496 130.859 126.346  1.00  0.00    -0.504 OA
ATOM     21  H   UNL     1     132.205 130.830 125.375  1.00  0.00     0.293 HD
ENDBRANCH  17  20
ENDBRANCH   1  12
BRANCH   2  22
ATOM     22  O   UNL     1     137.044 128.924 126.821  1.00  0.00    -0.502 OA
ATOM     23  H   UNL     1     136.518 128.362 126.162  1.00  0.00     0.293 HD
ENDBRANCH   2  22
BRANCH   6  24
ATOM     24  O   UNL     1     140.816 128.525 130.561  1.00  0.00    -0.507 OA
ATOM     25  H   UNL     1     141.011 129.385 130.071  1.00  0.00     0.293 HD
ENDBRANCH   6  24
BRANCH   8  26
ATOM     26  O   UNL     1     138.186 126.914 134.241  1.00  0.00    -0.508 OA
ATOM     27  H   UNL     1     138.488 125.984 134.504  1.00  0.00     0.293 HD
ENDBRANCH   8  26
TORSDOF 6
ENDMDL
MODEL 4
REMARK VINA RESULT:    16.613      3.721      8.649
REMARK INTER + INTRA:          19.689
REMARK INTER:                  19.436
REMARK INTRA:                   0.253
REMARK UNBOUND:                -0.323
REMARK SMILES O=c1c(O)c(-c2ccc(O)c(O)c2)oc2cc(O)cc(O)c12
REMARK SMILES IDX 5 1 3 2 2 3 1 4 22 5 20 6 19 7 17 8 16 9 15 10 14 11 6 12
REMARK SMILES IDX 7 13 8 14 9 15 13 16 11 17 10 18 12 20 4 22 21 24 18 26
REMARK H PARENT 10 19 12 21 4 23 21 25 18 27
REMARK Flexibility Score: inf
ROOT
ATOM      1  C   UNL     1     138.433 128.036 129.778  1.00  0.00     0.180 A 
ATOM      2  C   UNL     1     138.875 128.006 131.112  1.00  0.00     0.208 A 
ATOM      3  C   UNL     1     140.253 128.074 131.374  1.00  0.00     0.238 A 
ATOM      4  O   UNL     1     140.641 128.101 132.571  1.00  0.00    -0.285 OA
ATOM      5  C   UNL     1     141.171 128.154 130.299  1.00  0.00     0.111 A 
ATOM      6  C   UNL     1     142.590 128.186 130.446  1.00  0.00     0.134 A 
ATOM      7  C   UNL     1     143.397 128.398 129.321  1.00  0.00     0.093 A 
ATOM      8  C   UNL     1     142.839 128.513 128.046  1.00  0.00     0.123 A 
ATOM      9  C   UNL     1     141.457 128.424 127.885  1.00  0.00     0.094 A 
ATOM     10  C   UNL     1     140.625 128.248 128.992  1.00  0.00     0.146 A 
ATOM     11  O   UNL     1     139.314 128.178 128.796  1.00  0.00    -0.452 OA
ENDROOT
BRANCH   1  12
ATOM     12  C   UNL     1     136.998 127.944 129.422  1.00  0.00     0.025 A 
ATOM     13  C   UNL     1     136.617 127.258 128.259  1.00  0.00     0.016 A 
ATOM     14  C   UNL     1     135.268 127.141 127.915  1.00  0.00     0.051 A 
ATOM     15  C   UNL     1     134.280 127.693 128.735  1.00  0.00     0.157 A 
ATOM     16  C   UNL     1     136.001 128.481 130.257  1.00  0.00     0.062 A 
ATOM     17  C   UNL     1     134.645 128.362 129.914  1.00  0.00     0.158 A 
BRANCH  15  18
ATOM     18  O   UNL     1     132.941 127.562 128.364  1.00  0.00    -0.504 OA
ATOM     19  H   UNL     1     132.292 126.987 128.887  1.00  0.00     0.293 HD
ENDBRANCH  15  18
BRANCH  17  20
ATOM     20  O   UNL     1     133.663 128.902 130.743  1.00  0.00    -0.504 OA
ATOM     21  H   UNL     1     132.966 129.547 130.390  1.00  0.00     0.293 HD
ENDBRANCH  17  20
ENDBRANCH   1  12
BRANCH   2  22
ATOM     22  O   UNL     1     137.950 127.948 132.159  1.00  0.00    -0.502 OA
ATOM     23  H   UNL     1     137.674 128.768 132.686  1.00  0.00     0.293 HD
ENDBRANCH   2  22
BRANCH   6  24
ATOM     24  O   UNL     1     143.254 127.990 131.661  1.00  0.00    -0.507 OA
ATOM     25  H   UNL     1     144.248 128.090 131.796  1.00  0.00     0.293 HD
ENDBRANCH   6  24
BRANCH   8  26
ATOM     26  O   UNL     1     143.649 128.709 126.930  1.00  0.00    -0.508 OA
ATOM     27  H   UNL     1     143.408 128.321 126.026  1.00  0.00     0.293 HD
ENDBRANCH   8  26
TORSDOF 6
ENDMDL
