MODEL 1
REMARK VINA RESULT:    -2.296      0.000      0.000
REMARK INTER + INTRA:          -2.590
REMARK INTER:                  -2.431
REMARK INTRA:                  -0.159
REMARK UNBOUND:                -0.159
REMARK SMILES CC1=CC=C(C(C)C)CC1
REMARK SMILES IDX 1 1 2 2 3 3 4 4 5 5 9 6 10 7 6 8 7 9 8 10
REMARK H PARENT
REMARK Flexibility Score: inf
ROOT
ATOM      1  C   UNL     1     169.357 157.119 140.209  1.00  0.00     0.039 C 
ATOM      2  C   UNL     1     167.922 157.094 139.770  1.00  0.00    -0.073 C 
ATOM      3  C   UNL     1     167.326 155.924 139.499  1.00  0.00    -0.001 C 
ATOM      4  C   UNL     1     165.918 155.875 139.062  1.00  0.00    -0.001 C 
ATOM      5  C   UNL     1     165.265 156.997 138.706  1.00  0.00    -0.067 C 
ATOM      6  C   UNL     1     166.025 158.307 138.651  1.00  0.00     0.035 C 
ATOM      7  C   UNL     1     167.115 158.371 139.731  1.00  0.00     0.035 C 
ENDROOT
BRANCH   5   8
ATOM      8  C   UNL     1     163.810 156.961 138.274  1.00  0.00     0.009 C 
ATOM      9  C   UNL     1     163.338 158.340 137.802  1.00  0.00     0.012 C 
ATOM     10  C   UNL     1     162.907 156.418 139.389  1.00  0.00     0.012 C 
ENDBRANCH   5   8
TORSDOF 1
ENDMDL
MODEL 2
REMARK VINA RESULT:    -2.219     16.426     18.037
REMARK INTER + INTRA:          -2.508
REMARK INTER:                  -2.349
REMARK INTRA:                  -0.159
REMARK UNBOUND:                -0.159
REMARK SMILES CC1=CC=C(C(C)C)CC1
REMARK SMILES IDX 1 1 2 2 3 3 4 4 5 5 9 6 10 7 6 8 7 9 8 10
REMARK H PARENT
REMARK Flexibility Score: inf
ROOT
ATOM      1  C   UNL     1     162.640 174.202 140.296  1.00  0.00     0.039 C 
ATOM      2  C   UNL     1     164.049 174.421 139.825  1.00  0.00    -0.073 C 
ATOM      3  C   UNL     1     164.497 175.667 139.611  1.00  0.00    -0.001 C 
ATOM      4  C   UNL     1     165.875 175.905 139.143  1.00  0.00    -0.001 C 
ATOM      5  C   UNL     1     166.642 174.889 138.704  1.00  0.00    -0.067 C 
ATOM      6  C   UNL     1     166.038 173.505 138.589  1.00  0.00     0.035 C 
ATOM      7  C   UNL     1     164.997 173.251 139.689  1.00  0.00     0.035 C 
ENDROOT
BRANCH   5   8
ATOM      8  C   UNL     1     168.068 175.121 138.240  1.00  0.00     0.009 C 
ATOM      9  C   UNL     1     168.662 173.853 137.617  1.00  0.00     0.012 C 
ATOM     10  C   UNL     1     168.952 175.643 139.380  1.00  0.00     0.012 C 
ENDBRANCH   5   8
TORSDOF 1
ENDMDL
MODEL 3
REMARK VINA RESULT:    -2.190      0.961      4.208
REMARK INTER + INTRA:          -2.477
REMARK INTER:                  -2.333
REMARK INTRA:                  -0.145
REMARK UNBOUND:                -0.159
REMARK SMILES CC1=CC=C(C(C)C)CC1
REMARK SMILES IDX 1 1 2 2 3 3 4 4 5 5 9 6 10 7 6 8 7 9 8 10
REMARK H PARENT
REMARK Flexibility Score: inf
ROOT
ATOM      1  C   UNL     1     162.931 158.933 137.178  1.00  0.00     0.039 C 
ATOM      2  C   UNL     1     164.059 158.179 137.820  1.00  0.00    -0.073 C 
ATOM      3  C   UNL     1     163.896 156.892 138.159  1.00  0.00    -0.001 C 
ATOM      4  C   UNL     1     164.988 156.132 138.795  1.00  0.00    -0.001 C 
ATOM      5  C   UNL     1     166.087 156.757 139.258  1.00  0.00    -0.067 C 
ATOM      6  C   UNL     1     166.146 158.271 139.221  1.00  0.00     0.035 C 
ATOM      7  C   UNL     1     165.411 158.832 137.994  1.00  0.00     0.035 C 
ENDROOT
BRANCH   5   8
ATOM      8  C   UNL     1     167.226 155.983 139.896  1.00  0.00     0.009 C 
ATOM      9  C   UNL     1     167.040 155.875 141.414  1.00  0.00     0.012 C 
ATOM     10  C   UNL     1     168.588 156.597 139.547  1.00  0.00     0.012 C 
ENDBRANCH   5   8
TORSDOF 1
ENDMDL
MODEL 4
REMARK VINA RESULT:    -2.176      1.634      3.195
REMARK INTER + INTRA:          -2.463
REMARK INTER:                  -2.323
REMARK INTRA:                  -0.140
REMARK UNBOUND:                -0.159
REMARK SMILES CC1=CC=C(C(C)C)CC1
REMARK SMILES IDX 1 1 2 2 3 3 4 4 5 5 9 6 10 7 6 8 7 9 8 10
REMARK H PARENT
REMARK Flexibility Score: inf
ROOT
ATOM      1  C   UNL     1     166.328 155.876 139.121  1.00  0.00     0.039 C 
ATOM      2  C   UNL     1     165.137 156.783 139.019  1.00  0.00    -0.073 C 
ATOM      3  C   UNL     1     163.958 156.399 139.530  1.00  0.00    -0.001 C 
ATOM      4  C   UNL     1     162.772 157.272 139.437  1.00  0.00    -0.001 C 
ATOM      5  C   UNL     1     162.776 158.364 138.648  1.00  0.00    -0.067 C 
ATOM      6  C   UNL     1     163.978 158.630 137.765  1.00  0.00     0.035 C 
ATOM      7  C   UNL     1     165.282 158.169 138.434  1.00  0.00     0.035 C 
ENDROOT
BRANCH   5   8
ATOM      8  C   UNL     1     161.569 159.279 138.561  1.00  0.00     0.009 C 
ATOM      9  C   UNL     1     160.356 158.665 139.268  1.00  0.00     0.012 C 
ATOM     10  C   UNL     1     161.240 159.636 137.106  1.00  0.00     0.012 C 
ENDBRANCH   5   8
TORSDOF 1
ENDMDL
MODEL 5
REMARK VINA RESULT:    -2.133      7.795      9.447
REMARK INTER + INTRA:          -2.417
REMARK INTER:                  -2.254
REMARK INTRA:                  -0.163
REMARK UNBOUND:                -0.159
REMARK SMILES CC1=CC=C(C(C)C)CC1
REMARK SMILES IDX 1 1 2 2 3 3 4 4 5 5 9 6 10 7 6 8 7 9 8 10
REMARK H PARENT
REMARK Flexibility Score: inf
ROOT
ATOM      1  C   UNL     1     157.361 156.001 137.344  1.00  0.00     0.039 C 
ATOM      2  C   UNL     1     157.313 156.319 138.810  1.00  0.00    -0.073 C 
ATOM      3  C   UNL     1     156.291 155.876 139.557  1.00  0.00    -0.001 C 
ATOM      4  C   UNL     1     156.219 156.181 140.998  1.00  0.00    -0.001 C 
ATOM      5  C   UNL     1     157.041 157.091 141.555  1.00  0.00    -0.067 C 
ATOM      6  C   UNL     1     157.974 157.886 140.663  1.00  0.00     0.035 C 
ATOM      7  C   UNL     1     158.460 157.050 139.470  1.00  0.00     0.035 C 
ENDROOT
BRANCH   5   8
ATOM      8  C   UNL     1     156.989 157.397 143.041  1.00  0.00     0.009 C 
ATOM      9  C   UNL     1     158.144 158.315 143.458  1.00  0.00     0.012 C 
ATOM     10  C   UNL     1     156.973 156.112 143.879  1.00  0.00     0.012 C 
ENDBRANCH   5   8
TORSDOF 1
ENDMDL
MODEL 6
REMARK VINA RESULT:    -2.122      1.683      3.341
REMARK INTER + INTRA:          -2.406
REMARK INTER:                  -2.260
REMARK INTRA:                  -0.145
REMARK UNBOUND:                -0.159
REMARK SMILES CC1=CC=C(C(C)C)CC1
REMARK SMILES IDX 1 1 2 2 3 3 4 4 5 5 9 6 10 7 6 8 7 9 8 10
REMARK H PARENT
REMARK Flexibility Score: inf
ROOT
ATOM      1  C   UNL     1     166.339 155.875 139.168  1.00  0.00     0.039 C 
ATOM      2  C   UNL     1     165.115 156.707 138.924  1.00  0.00    -0.073 C 
ATOM      3  C   UNL     1     165.239 157.973 138.499  1.00  0.00    -0.001 C 
ATOM      4  C   UNL     1     164.050 158.812 138.258  1.00  0.00    -0.001 C 
ATOM      5  C   UNL     1     162.830 158.417 138.669  1.00  0.00    -0.067 C 
ATOM      6  C   UNL     1     162.702 157.146 139.485  1.00  0.00     0.035 C 
ATOM      7  C   UNL     1     163.739 156.096 139.058  1.00  0.00     0.035 C 
ENDROOT
BRANCH   5   8
ATOM      8  C   UNL     1     161.597 159.262 138.409  1.00  0.00     0.009 C 
ATOM      9  C   UNL     1     161.879 160.747 138.667  1.00  0.00     0.012 C 
ATOM     10  C   UNL     1     160.398 158.775 139.233  1.00  0.00     0.012 C 
ENDBRANCH   5   8
TORSDOF 1
ENDMDL
MODEL 7
REMARK VINA RESULT:    -2.058     16.098     17.756
REMARK INTER + INTRA:          -2.338
REMARK INTER:                  -2.184
REMARK INTRA:                  -0.153
REMARK UNBOUND:                -0.159
REMARK SMILES CC1=CC=C(C(C)C)CC1
REMARK SMILES IDX 1 1 2 2 3 3 4 4 5 5 9 6 10 7 6 8 7 9 8 10
REMARK H PARENT
REMARK Flexibility Score: inf
ROOT
ATOM      1  C   UNL     1     164.942 176.120 139.470  1.00  0.00     0.039 C 
ATOM      2  C   UNL     1     166.232 175.373 139.294  1.00  0.00    -0.073 C 
ATOM      3  C   UNL     1     167.393 175.952 139.633  1.00  0.00    -0.001 C 
ATOM      4  C   UNL     1     168.672 175.238 139.464  1.00  0.00    -0.001 C 
ATOM      5  C   UNL     1     168.737 174.090 138.762  1.00  0.00    -0.067 C 
ATOM      6  C   UNL     1     167.497 173.591 138.049  1.00  0.00     0.035 C 
ATOM      7  C   UNL     1     166.221 173.933 138.832  1.00  0.00     0.035 C 
ENDROOT
BRANCH   5   8
ATOM      8  C   UNL     1     170.045 173.338 138.600  1.00  0.00     0.009 C 
ATOM      9  C   UNL     1     170.035 172.478 137.331  1.00  0.00     0.012 C 
ATOM     10  C   UNL     1     170.364 172.492 139.839  1.00  0.00     0.012 C 
ENDBRANCH   5   8
TORSDOF 1
ENDMDL
MODEL 8
REMARK VINA RESULT:    -2.058     18.592     19.972
REMARK INTER + INTRA:          -2.338
REMARK INTER:                  -2.182
REMARK INTRA:                  -0.156
REMARK UNBOUND:                -0.159
REMARK SMILES CC1=CC=C(C(C)C)CC1
REMARK SMILES IDX 1 1 2 2 3 3 4 4 5 5 9 6 10 7 6 8 7 9 8 10
REMARK H PARENT
REMARK Flexibility Score: inf
ROOT
ATOM      1  C   UNL     1     174.623 174.803 143.410  1.00  0.00     0.039 C 
ATOM      2  C   UNL     1     174.622 174.753 141.910  1.00  0.00    -0.073 C 
ATOM      3  C   UNL     1     175.352 175.634 141.210  1.00  0.00    -0.001 C 
ATOM      4  C   UNL     1     175.362 175.607 139.736  1.00  0.00    -0.001 C 
ATOM      5  C   UNL     1     174.476 174.859 139.051  1.00  0.00    -0.067 C 
ATOM      6  C   UNL     1     173.389 174.125 139.810  1.00  0.00     0.035 C 
ATOM      7  C   UNL     1     173.883 173.651 141.185  1.00  0.00     0.035 C 
ENDROOT
BRANCH   5   8
ATOM      8  C   UNL     1     174.491 174.809 137.535  1.00  0.00     0.009 C 
ATOM      9  C   UNL     1     175.297 173.608 137.028  1.00  0.00     0.012 C 
ATOM     10  C   UNL     1     175.015 176.120 136.935  1.00  0.00     0.012 C 
ENDBRANCH   5   8
TORSDOF 1
ENDMDL
MODEL 9
REMARK VINA RESULT:    -1.865     15.860     17.459
REMARK INTER + INTRA:          -2.133
REMARK INTER:                  -1.992
REMARK INTRA:                  -0.142
REMARK UNBOUND:                -0.159
REMARK SMILES CC1=CC=C(C(C)C)CC1
REMARK SMILES IDX 1 1 2 2 3 3 4 4 5 5 9 6 10 7 6 8 7 9 8 10
REMARK H PARENT
REMARK Flexibility Score: inf
ROOT
ATOM      1  C   UNL     1     165.437 176.120 139.321  1.00  0.00     0.039 C 
ATOM      2  C   UNL     1     166.657 175.297 139.028  1.00  0.00    -0.073 C 
ATOM      3  C   UNL     1     166.527 174.013 138.662  1.00  0.00    -0.001 C 
ATOM      4  C   UNL     1     167.713 173.185 138.374  1.00  0.00    -0.001 C 
ATOM      5  C   UNL     1     168.950 173.615 138.686  1.00  0.00    -0.067 C 
ATOM      6  C   UNL     1     169.109 174.919 139.442  1.00  0.00     0.035 C 
ATOM      7  C   UNL     1     168.028 175.935 139.045  1.00  0.00     0.035 C 
ENDROOT
BRANCH   5   8
ATOM      8  C   UNL     1     170.178 172.779 138.376  1.00  0.00     0.009 C 
ATOM      9  C   UNL     1     170.288 172.490 136.875  1.00  0.00     0.012 C 
ATOM     10  C   UNL     1     170.193 171.479 139.192  1.00  0.00     0.012 C 
ENDBRANCH   5   8
TORSDOF 1
ENDMDL
