MODEL 1
REMARK VINA RESULT:    -3.247      0.000      0.000
REMARK INTER + INTRA:          -3.342
REMARK INTER:                  -3.342
REMARK INTRA:                   0.000
REMARK UNBOUND:                 0.000
REMARK SMILES CC1(C)[C@@H]2CC[C@@](C)(C2)[C@H]1O
REMARK SMILES IDX 1 1 2 2 4 3 5 4 6 5 7 6 9 7 10 8 8 9 3 10 11 11
REMARK H PARENT 11 12
REMARK Flexibility Score: inf
ROOT
ATOM      1  C   UNL     1     110.776 110.738 118.622  1.00  0.00     0.014 C 
ATOM      2  C   UNL     1     110.475 112.079 117.907  1.00  0.00    -0.006 C 
ATOM      3  C   UNL     1     109.136 112.748 118.376  1.00  0.00    -0.002 C 
ATOM      4  C   UNL     1     107.968 111.739 118.367  1.00  0.00     0.005 C 
ATOM      5  C   UNL     1     107.754 111.478 116.867  1.00  0.00     0.010 C 
ATOM      6  C   UNL     1     108.764 112.442 116.202  1.00  0.00    -0.006 C 
ATOM      7  C   UNL     1     108.754 113.601 117.178  1.00  0.00     0.013 C 
ATOM      8  C   UNL     1     110.198 111.855 116.380  1.00  0.00     0.126 C 
ATOM      9  C   UNL     1     108.382 112.815 114.764  1.00  0.00     0.014 C 
ATOM     10  C   UNL     1     111.668 113.028 118.197  1.00  0.00     0.014 C 
ENDROOT
BRANCH   8  11
ATOM     11  O   UNL     1     111.159 112.457 115.541  1.00  0.00    -0.392 OA
ATOM     12  H   UNL     1     110.946 113.418 115.443  1.00  0.00     0.211 HD
ENDBRANCH   8  11
TORSDOF 1
ENDMDL
MODEL 2
REMARK VINA RESULT:    -3.231     14.266     16.546
REMARK INTER + INTRA:          -3.326
REMARK INTER:                  -3.326
REMARK INTRA:                   0.000
REMARK UNBOUND:                 0.000
REMARK SMILES CC1(C)[C@@H]2CC[C@@](C)(C2)[C@H]1O
REMARK SMILES IDX 1 1 2 2 4 3 5 4 6 5 7 6 9 7 10 8 8 9 3 10 11 11
REMARK H PARENT 11 12
REMARK Flexibility Score: inf
ROOT
ATOM      1  C   UNL     1     121.996 122.188 119.023  1.00  0.00     0.014 C 
ATOM      2  C   UNL     1     122.407 120.909 118.251  1.00  0.00    -0.006 C 
ATOM      3  C   UNL     1     123.736 120.264 118.778  1.00  0.00    -0.002 C 
ATOM      4  C   UNL     1     124.856 121.316 118.922  1.00  0.00     0.005 C 
ATOM      5  C   UNL     1     125.169 121.683 117.461  1.00  0.00     0.010 C 
ATOM      6  C   UNL     1     124.253 120.726 116.662  1.00  0.00    -0.006 C 
ATOM      7  C   UNL     1     124.242 119.506 117.562  1.00  0.00     0.013 C 
ATOM      8  C   UNL     1     122.786 121.244 116.767  1.00  0.00     0.126 C 
ATOM      9  C   UNL     1     124.756 120.463 115.237  1.00  0.00     0.014 C 
ATOM     10  C   UNL     1     121.239 119.897 118.389  1.00  0.00     0.014 C 
ENDROOT
BRANCH   8  11
ATOM     11  O   UNL     1     121.916 120.661 115.821  1.00  0.00    -0.392 OA
ATOM     12  H   UNL     1     121.224 121.322 115.568  1.00  0.00     0.211 HD
ENDBRANCH   8  11
TORSDOF 1
ENDMDL
MODEL 3
REMARK VINA RESULT:    -3.224     10.934     12.061
REMARK INTER + INTRA:          -3.318
REMARK INTER:                  -3.318
REMARK INTRA:                   0.000
REMARK UNBOUND:                 0.000
REMARK SMILES CC1(C)[C@@H]2CC[C@@](C)(C2)[C@H]1O
REMARK SMILES IDX 1 1 2 2 4 3 5 4 6 5 7 6 9 7 10 8 8 9 3 10 11 11
REMARK H PARENT 11 12
REMARK Flexibility Score: inf
ROOT
ATOM      1  C   UNL     1     110.879 122.571 118.806  1.00  0.00     0.014 C 
ATOM      2  C   UNL     1     112.191 122.867 118.036  1.00  0.00    -0.006 C 
ATOM      3  C   UNL     1     112.898 124.190 118.496  1.00  0.00    -0.002 C 
ATOM      4  C   UNL     1     111.905 125.370 118.554  1.00  0.00     0.005 C 
ATOM      5  C   UNL     1     111.578 125.614 117.071  1.00  0.00     0.010 C 
ATOM      6  C   UNL     1     112.498 124.603 116.346  1.00  0.00    -0.006 C 
ATOM      7  C   UNL     1     113.701 124.582 117.267  1.00  0.00     0.013 C 
ATOM      8  C   UNL     1     111.900 123.174 116.526  1.00  0.00     0.126 C 
ATOM      9  C   UNL     1     112.810 125.006 114.899  1.00  0.00     0.014 C 
ATOM     10  C   UNL     1     113.136 121.658 118.262  1.00  0.00     0.014 C 
ENDROOT
BRANCH   8  11
ATOM     11  O   UNL     1     112.451 122.220 115.644  1.00  0.00    -0.392 OA
ATOM     12  H   UNL     1     112.800 121.458 116.170  1.00  0.00     0.211 HD
ENDBRANCH   8  11
TORSDOF 1
ENDMDL
MODEL 4
REMARK VINA RESULT:    -3.164     10.060     11.286
REMARK INTER + INTRA:          -3.257
REMARK INTER:                  -3.257
REMARK INTRA:                   0.000
REMARK UNBOUND:                 0.000
REMARK SMILES CC1(C)[C@@H]2CC[C@@](C)(C2)[C@H]1O
REMARK SMILES IDX 1 1 2 2 4 3 5 4 6 5 7 6 9 7 10 8 8 9 3 10 11 11
REMARK H PARENT 11 12
REMARK Flexibility Score: inf
ROOT
ATOM      1  C   UNL     1     121.537 111.553 119.041  1.00  0.00     0.014 C 
ATOM      2  C   UNL     1     120.366 111.039 118.165  1.00  0.00    -0.006 C 
ATOM      3  C   UNL     1     119.677 109.753 118.739  1.00  0.00    -0.002 C 
ATOM      4  C   UNL     1     120.717 108.677 119.118  1.00  0.00     0.005 C 
ATOM      5  C   UNL     1     121.263 108.233 117.751  1.00  0.00     0.010 C 
ATOM      6  C   UNL     1     120.400 109.044 116.756  1.00  0.00    -0.006 C 
ATOM      7  C   UNL     1     119.080 109.114 117.496  1.00  0.00     0.013 C 
ATOM      8  C   UNL     1     120.884 110.526 116.776  1.00  0.00     0.126 C 
ATOM      9  C   UNL     1     120.319 108.400 115.366  1.00  0.00     0.014 C 
ATOM     10  C   UNL     1     119.332 112.191 118.063  1.00  0.00     0.014 C 
ENDROOT
BRANCH   8  11
ATOM     11  O   UNL     1     120.411 111.287 115.686  1.00  0.00    -0.392 OA
ATOM     12  H   UNL     1     119.458 111.508 115.835  1.00  0.00     0.211 HD
ENDBRANCH   8  11
TORSDOF 1
ENDMDL
MODEL 5
REMARK VINA RESULT:    -2.950     11.958     13.333
REMARK INTER + INTRA:          -3.036
REMARK INTER:                  -3.036
REMARK INTRA:                   0.000
REMARK UNBOUND:                 0.000
REMARK SMILES CC1(C)[C@@H]2CC[C@@](C)(C2)[C@H]1O
REMARK SMILES IDX 1 1 2 2 4 3 5 4 6 5 7 6 9 7 10 8 8 9 3 10 11 11
REMARK H PARENT 11 12
REMARK Flexibility Score: inf
ROOT
ATOM      1  C   UNL     1     108.309 126.593 116.904  1.00  0.00     0.014 C 
ATOM      2  C   UNL     1     109.073 125.376 116.325  1.00  0.00    -0.006 C 
ATOM      3  C   UNL     1     109.692 124.448 117.429  1.00  0.00    -0.002 C 
ATOM      4  C   UNL     1     110.480 125.264 118.475  1.00  0.00     0.005 C 
ATOM      5  C   UNL     1     111.696 125.761 117.676  1.00  0.00     0.010 C 
ATOM      6  C   UNL     1     111.499 125.089 116.297  1.00  0.00    -0.006 C 
ATOM      7  C   UNL     1     110.843 123.782 116.695  1.00  0.00     0.013 C 
ATOM      8  C   UNL     1     110.353 125.833 115.544  1.00  0.00     0.126 C 
ATOM      9  C   UNL     1     112.807 124.933 115.511  1.00  0.00     0.014 C 
ATOM     10  C   UNL     1     108.065 124.570 115.465  1.00  0.00     0.014 C 
ENDROOT
BRANCH   8  11
ATOM     11  O   UNL     1     110.303 125.537 114.165  1.00  0.00    -0.392 OA
ATOM     12  H   UNL     1     111.064 125.981 113.712  1.00  0.00     0.211 HD
ENDBRANCH   8  11
TORSDOF 1
ENDMDL
MODEL 6
REMARK VINA RESULT:    -2.929      1.408      3.123
REMARK INTER + INTRA:          -3.015
REMARK INTER:                  -3.015
REMARK INTRA:                   0.000
REMARK UNBOUND:                 0.000
REMARK SMILES CC1(C)[C@@H]2CC[C@@](C)(C2)[C@H]1O
REMARK SMILES IDX 1 1 2 2 4 3 5 4 6 5 7 6 9 7 10 8 8 9 3 10 11 11
REMARK H PARENT 11 12
REMARK Flexibility Score: inf
ROOT
ATOM      1  C   UNL     1     109.384 113.571 118.205  1.00  0.00     0.014 C 
ATOM      2  C   UNL     1     109.542 112.388 117.216  1.00  0.00    -0.006 C 
ATOM      3  C   UNL     1     109.297 110.987 117.875  1.00  0.00    -0.002 C 
ATOM      4  C   UNL     1     110.090 110.835 119.191  1.00  0.00     0.005 C 
ATOM      5  C   UNL     1     111.548 110.772 118.705  1.00  0.00     0.010 C 
ATOM      6  C   UNL     1     111.399 110.802 117.166  1.00  0.00    -0.006 C 
ATOM      7  C   UNL     1     110.094 110.054 116.980  1.00  0.00     0.013 C 
ATOM      8  C   UNL     1     111.028 112.253 116.733  1.00  0.00     0.126 C 
ATOM      9  C   UNL     1     112.598 110.185 116.434  1.00  0.00     0.014 C 
ATOM     10  C   UNL     1     108.526 112.616 116.066  1.00  0.00     0.014 C 
ENDROOT
BRANCH   8  11
ATOM     11  O   UNL     1     111.192 112.486 115.351  1.00  0.00    -0.392 OA
ATOM     12  H   UNL     1     110.629 113.255 115.084  1.00  0.00     0.211 HD
ENDBRANCH   8  11
TORSDOF 1
ENDMDL
MODEL 7
REMARK VINA RESULT:    -2.900     11.225     12.234
REMARK INTER + INTRA:          -2.985
REMARK INTER:                  -2.985
REMARK INTRA:                   0.000
REMARK UNBOUND:                 0.000
REMARK SMILES CC1(C)[C@@H]2CC[C@@](C)(C2)[C@H]1O
REMARK SMILES IDX 1 1 2 2 4 3 5 4 6 5 7 6 9 7 10 8 8 9 3 10 11 11
REMARK H PARENT 11 12
REMARK Flexibility Score: inf
ROOT
ATOM      1  C   UNL     1     112.728 122.035 117.787  1.00  0.00     0.014 C 
ATOM      2  C   UNL     1     112.719 123.584 117.725  1.00  0.00    -0.006 C 
ATOM      3  C   UNL     1     111.553 124.233 118.548  1.00  0.00    -0.002 C 
ATOM      4  C   UNL     1     110.197 123.569 118.227  1.00  0.00     0.005 C 
ATOM      5  C   UNL     1     109.932 124.016 116.779  1.00  0.00     0.010 C 
ATOM      6  C   UNL     1     111.124 124.957 116.486  1.00  0.00    -0.006 C 
ATOM      7  C   UNL     1     111.360 125.571 117.852  1.00  0.00     0.013 C 
ATOM      8  C   UNL     1     112.400 124.087 116.274  1.00  0.00     0.126 C 
ATOM      9  C   UNL     1     110.829 125.972 115.374  1.00  0.00     0.014 C 
ATOM     10  C   UNL     1     114.086 124.071 118.273  1.00  0.00     0.014 C 
ENDROOT
BRANCH   8  11
ATOM     11  O   UNL     1     113.467 124.791 115.678  1.00  0.00    -0.392 OA
ATOM     12  H   UNL     1     113.755 125.518 116.286  1.00  0.00     0.211 HD
ENDBRANCH   8  11
TORSDOF 1
ENDMDL
MODEL 8
REMARK VINA RESULT:    -2.896     15.536     17.383
REMARK INTER + INTRA:          -2.981
REMARK INTER:                  -2.981
REMARK INTRA:                   0.000
REMARK UNBOUND:                 0.000
REMARK SMILES CC1(C)[C@@H]2CC[C@@](C)(C2)[C@H]1O
REMARK SMILES IDX 1 1 2 2 4 3 5 4 6 5 7 6 9 7 10 8 8 9 3 10 11 11
REMARK H PARENT 11 12
REMARK Flexibility Score: inf
ROOT
ATOM      1  C   UNL     1     122.046 122.154 119.325  1.00  0.00     0.014 C 
ATOM      2  C   UNL     1     122.573 121.846 117.901  1.00  0.00    -0.006 C 
ATOM      3  C   UNL     1     123.353 120.488 117.806  1.00  0.00    -0.002 C 
ATOM      4  C   UNL     1     124.409 120.365 118.924  1.00  0.00     0.005 C 
ATOM      5  C   UNL     1     125.451 121.425 118.529  1.00  0.00     0.010 C 
ATOM      6  C   UNL     1     124.905 121.957 117.183  1.00  0.00    -0.006 C 
ATOM      7  C   UNL     1     124.262 120.710 116.609  1.00  0.00     0.013 C 
ATOM      8  C   UNL     1     123.678 122.874 117.475  1.00  0.00     0.126 C 
ATOM      9  C   UNL     1     125.993 122.579 116.297  1.00  0.00     0.014 C 
ATOM     10  C   UNL     1     121.344 121.816 116.955  1.00  0.00     0.014 C 
ENDROOT
BRANCH   8  11
ATOM     11  O   UNL     1     123.303 123.677 116.377  1.00  0.00    -0.392 OA
ATOM     12  H   UNL     1     122.455 123.332 115.999  1.00  0.00     0.211 HD
ENDBRANCH   8  11
TORSDOF 1
ENDMDL
MODEL 9
REMARK VINA RESULT:    -2.867     12.133     13.368
REMARK INTER + INTRA:          -2.951
REMARK INTER:                  -2.951
REMARK INTRA:                   0.000
REMARK UNBOUND:                 0.000
REMARK SMILES CC1(C)[C@@H]2CC[C@@](C)(C2)[C@H]1O
REMARK SMILES IDX 1 1 2 2 4 3 5 4 6 5 7 6 9 7 10 8 8 9 3 10 11 11
REMARK H PARENT 11 12
REMARK Flexibility Score: inf
ROOT
ATOM      1  C   UNL     1     111.018 126.579 119.160  1.00  0.00     0.014 C 
ATOM      2  C   UNL     1     110.648 125.675 117.957  1.00  0.00    -0.006 C 
ATOM      3  C   UNL     1     111.170 124.203 118.101  1.00  0.00    -0.002 C 
ATOM      4  C   UNL     1     112.661 124.169 118.496  1.00  0.00     0.005 C 
ATOM      5  C   UNL     1     113.362 124.695 117.232  1.00  0.00     0.010 C 
ATOM      6  C   UNL     1     112.189 124.875 116.239  1.00  0.00    -0.006 C 
ATOM      7  C   UNL     1     111.271 123.744 116.656  1.00  0.00     0.013 C 
ATOM      8  C   UNL     1     111.382 126.144 116.653  1.00  0.00     0.126 C 
ATOM      9  C   UNL     1     112.632 124.830 114.771  1.00  0.00     0.014 C 
ATOM     10  C   UNL     1     109.101 125.677 117.843  1.00  0.00     0.014 C 
ENDROOT
BRANCH   8  11
ATOM     11  O   UNL     1     110.503 126.603 115.649  1.00  0.00    -0.392 OA
ATOM     12  H   UNL     1     110.858 127.446 115.270  1.00  0.00     0.211 HD
ENDBRANCH   8  11
TORSDOF 1
ENDMDL
