MODEL 1
REMARK VINA RESULT:    -6.075      0.000      0.000
REMARK INTER + INTRA:          -7.215
REMARK INTER:                  -7.140
REMARK INTRA:                  -0.075
REMARK UNBOUND:                -0.075
REMARK SMILES O=c1c(O)c(-c2ccc(O)cc2)oc2cc(O)cc(O)c12
REMARK SMILES IDX 5 1 3 2 2 3 1 4 21 5 19 6 18 7 16 8 15 9 14 10 13 11 6 12
REMARK SMILES IDX 7 13 8 14 9 15 12 16 11 17 10 18 4 20 20 22 17 24
REMARK H PARENT 10 19 4 21 20 23 17 25
REMARK Flexibility Score: inf
ROOT
ATOM      1  C   UNL     1      52.600  14.640  25.785  1.00  0.00     0.180 A 
ATOM      2  C   UNL     1      51.643  14.077  26.648  1.00  0.00     0.208 A 
ATOM      3  C   UNL     1      50.295  14.068  26.256  1.00  0.00     0.238 A 
ATOM      4  O   UNL     1      49.451  13.514  27.008  1.00  0.00    -0.285 OA
ATOM      5  C   UNL     1      49.918  14.635  25.015  1.00  0.00     0.111 A 
ATOM      6  C   UNL     1      48.576  14.716  24.535  1.00  0.00     0.134 A 
ATOM      7  C   UNL     1      48.334  15.180  23.237  1.00  0.00     0.093 A 
ATOM      8  C   UNL     1      49.376  15.626  22.425  1.00  0.00     0.123 A 
ATOM      9  C   UNL     1      50.685  15.606  22.906  1.00  0.00     0.094 A 
ATOM     10  C   UNL     1      50.962  15.116  24.184  1.00  0.00     0.146 A 
ATOM     11  O   UNL     1      52.223  15.105  24.600  1.00  0.00    -0.452 OA
ENDROOT
BRANCH   1  12
ATOM     12  C   UNL     1      54.036  14.709  26.140  1.00  0.00     0.021 A 
ATOM     13  C   UNL     1      54.714  15.939  26.216  1.00  0.00     0.016 A 
ATOM     14  C   UNL     1      56.076  15.977  26.528  1.00  0.00     0.047 A 
ATOM     15  C   UNL     1      56.781  14.788  26.754  1.00  0.00     0.115 A 
ATOM     16  C   UNL     1      54.754  13.520  26.347  1.00  0.00     0.016 A 
ATOM     17  C   UNL     1      56.116  13.561  26.660  1.00  0.00     0.047 A 
BRANCH  15  18
ATOM     18  O   UNL     1      58.138  14.813  27.068  1.00  0.00    -0.508 OA
ATOM     19  H   UNL     1      58.507  14.306  27.864  1.00  0.00     0.293 HD
ENDBRANCH  15  18
ENDBRANCH   1  12
BRANCH   2  20
ATOM     20  O   UNL     1      52.039  13.502  27.859  1.00  0.00    -0.502 OA
ATOM     21  H   UNL     1      52.914  13.002  27.965  1.00  0.00     0.293 HD
ENDBRANCH   2  20
BRANCH   6  22
ATOM     22  O   UNL     1      47.453  14.382  25.298  1.00  0.00    -0.507 OA
ATOM     23  H   UNL     1      47.342  14.589  26.279  1.00  0.00     0.293 HD
ENDBRANCH   6  22
BRANCH   8  24
ATOM     24  O   UNL     1      49.096  16.095  21.143  1.00  0.00    -0.508 OA
ATOM     25  H   UNL     1      49.273  17.058  20.882  1.00  0.00     0.293 HD
ENDBRANCH   8  24
TORSDOF 5
ENDMDL
MODEL 2
REMARK VINA RESULT:    -6.062      1.611      3.593
REMARK INTER + INTRA:          -7.200
REMARK INTER:                  -6.984
REMARK INTRA:                  -0.216
REMARK UNBOUND:                -0.075
REMARK SMILES O=c1c(O)c(-c2ccc(O)cc2)oc2cc(O)cc(O)c12
REMARK SMILES IDX 5 1 3 2 2 3 1 4 21 5 19 6 18 7 16 8 15 9 14 10 13 11 6 12
REMARK SMILES IDX 7 13 8 14 9 15 12 16 11 17 10 18 4 20 20 22 17 24
REMARK H PARENT 10 19 4 21 20 23 17 25
REMARK Flexibility Score: inf
ROOT
ATOM      1  C   UNL     1      52.450  14.395  26.215  1.00  0.00     0.180 A 
ATOM      2  C   UNL     1      51.764  14.389  24.988  1.00  0.00     0.208 A 
ATOM      3  C   UNL     1      50.372  14.201  24.987  1.00  0.00     0.238 A 
ATOM      4  O   UNL     1      49.756  14.251  23.891  1.00  0.00    -0.285 OA
ATOM      5  C   UNL     1      49.687  14.005  26.210  1.00  0.00     0.111 A 
ATOM      6  C   UNL     1      48.284  13.765  26.324  1.00  0.00     0.134 A 
ATOM      7  C   UNL     1      47.693  13.716  27.592  1.00  0.00     0.093 A 
ATOM      8  C   UNL     1      48.461  13.832  28.751  1.00  0.00     0.123 A 
ATOM      9  C   UNL     1      49.841  14.007  28.651  1.00  0.00     0.094 A 
ATOM     10  C   UNL     1      50.455  14.096  27.400  1.00  0.00     0.146 A 
ATOM     11  O   UNL     1      51.770  14.273  27.349  1.00  0.00    -0.452 OA
ENDROOT
BRANCH   1  12
ATOM     12  C   UNL     1      53.919  14.562  26.295  1.00  0.00     0.021 A 
ATOM     13  C   UNL     1      54.763  13.485  26.623  1.00  0.00     0.016 A 
ATOM     14  C   UNL     1      56.145  13.673  26.716  1.00  0.00     0.047 A 
ATOM     15  C   UNL     1      56.700  14.941  26.498  1.00  0.00     0.115 A 
ATOM     16  C   UNL     1      54.481  15.834  26.098  1.00  0.00     0.016 A 
ATOM     17  C   UNL     1      55.864  16.020  26.191  1.00  0.00     0.047 A 
BRANCH  15  18
ATOM     18  O   UNL     1      58.076  15.140  26.586  1.00  0.00    -0.508 OA
ATOM     19  H   UNL     1      58.547  15.189  27.483  1.00  0.00     0.293 HD
ENDBRANCH  15  18
ENDBRANCH   1  12
BRANCH   2  20
ATOM     20  O   UNL     1      52.456  14.607  23.794  1.00  0.00    -0.502 OA
ATOM     21  H   UNL     1      53.409  14.950  23.770  1.00  0.00     0.293 HD
ENDBRANCH   2  20
BRANCH   6  22
ATOM     22  O   UNL     1      47.439  13.544  25.233  1.00  0.00    -0.507 OA
ATOM     23  H   UNL     1      46.432  13.514  25.283  1.00  0.00     0.293 HD
ENDBRANCH   6  22
BRANCH   8  24
ATOM     24  O   UNL     1      47.841  13.763  29.996  1.00  0.00    -0.508 OA
ATOM     25  H   UNL     1      46.831  13.726  30.084  1.00  0.00     0.293 HD
ENDBRANCH   8  24
TORSDOF 5
ENDMDL
MODEL 3
REMARK VINA RESULT:    -5.689      1.253      3.053
REMARK INTER + INTRA:          -6.762
REMARK INTER:                  -6.684
REMARK INTRA:                  -0.078
REMARK UNBOUND:                -0.075
REMARK SMILES O=c1c(O)c(-c2ccc(O)cc2)oc2cc(O)cc(O)c12
REMARK SMILES IDX 5 1 3 2 2 3 1 4 21 5 19 6 18 7 16 8 15 9 14 10 13 11 6 12
REMARK SMILES IDX 7 13 8 14 9 15 12 16 11 17 10 18 4 20 20 22 17 24
REMARK H PARENT 10 19 4 21 20 23 17 25
REMARK Flexibility Score: inf
ROOT
ATOM      1  C   UNL     1      52.781  14.788  25.726  1.00  0.00     0.180 A 
ATOM      2  C   UNL     1      52.329  15.128  24.439  1.00  0.00     0.208 A 
ATOM      3  C   UNL     1      50.961  15.006  24.145  1.00  0.00     0.238 A 
ATOM      4  O   UNL     1      50.554  15.363  23.008  1.00  0.00    -0.285 OA
ATOM      5  C   UNL     1      50.066  14.533  25.134  1.00  0.00     0.111 A 
ATOM      6  C   UNL     1      48.667  14.332  24.932  1.00  0.00     0.134 A 
ATOM      7  C   UNL     1      47.856  13.985  26.019  1.00  0.00     0.093 A 
ATOM      8  C   UNL     1      48.401  13.766  27.284  1.00  0.00     0.123 A 
ATOM      9  C   UNL     1      49.776  13.901  27.478  1.00  0.00     0.094 A 
ATOM     10  C   UNL     1      50.606  14.282  26.422  1.00  0.00     0.146 A 
ATOM     11  O   UNL     1      51.907  14.409  26.652  1.00  0.00    -0.452 OA
ENDROOT
BRANCH   1  12
ATOM     12  C   UNL     1      54.210  14.866  26.104  1.00  0.00     0.021 A 
ATOM     13  C   UNL     1      54.917  16.081  26.054  1.00  0.00     0.016 A 
ATOM     14  C   UNL     1      56.274  16.125  26.392  1.00  0.00     0.047 A 
ATOM     15  C   UNL     1      56.943  14.954  26.770  1.00  0.00     0.115 A 
ATOM     16  C   UNL     1      54.895  13.693  26.464  1.00  0.00     0.016 A 
ATOM     17  C   UNL     1      56.251  13.739  26.803  1.00  0.00     0.047 A 
BRANCH  15  18
ATOM     18  O   UNL     1      58.294  14.986  27.110  1.00  0.00    -0.508 OA
ATOM     19  H   UNL     1      58.812  14.135  27.300  1.00  0.00     0.293 HD
ENDBRANCH  15  18
ENDBRANCH   1  12
BRANCH   2  20
ATOM     20  O   UNL     1      53.225  15.614  23.484  1.00  0.00    -0.502 OA
ATOM     21  H   UNL     1      53.780  16.449  23.633  1.00  0.00     0.293 HD
ENDBRANCH   2  20
BRANCH   6  22
ATOM     22  O   UNL     1      48.035  14.436  23.690  1.00  0.00    -0.507 OA
ATOM     23  H   UNL     1      48.514  14.518  22.806  1.00  0.00     0.293 HD
ENDBRANCH   6  22
BRANCH   8  24
ATOM     24  O   UNL     1      47.565  13.406  28.339  1.00  0.00    -0.508 OA
ATOM     25  H   UNL     1      47.620  12.489  28.769  1.00  0.00     0.293 HD
ENDBRANCH   8  24
TORSDOF 5
ENDMDL
MODEL 4
REMARK VINA RESULT:    -5.562      2.367      2.852
REMARK INTER + INTRA:          -6.613
REMARK INTER:                  -6.395
REMARK INTRA:                  -0.218
REMARK UNBOUND:                -0.075
REMARK SMILES O=c1c(O)c(-c2ccc(O)cc2)oc2cc(O)cc(O)c12
REMARK SMILES IDX 5 1 3 2 2 3 1 4 21 5 19 6 18 7 16 8 15 9 14 10 13 11 6 12
REMARK SMILES IDX 7 13 8 14 9 15 12 16 11 17 10 18 4 20 20 22 17 24
REMARK H PARENT 10 19 4 21 20 23 17 25
REMARK Flexibility Score: inf
ROOT
ATOM      1  C   UNL     1      50.514  13.672  26.623  1.00  0.00     0.180 A 
ATOM      2  C   UNL     1      49.272  13.845  27.257  1.00  0.00     0.208 A 
ATOM      3  C   UNL     1      48.238  14.496  26.565  1.00  0.00     0.238 A 
ATOM      4  O   UNL     1      47.112  14.599  27.118  1.00  0.00    -0.285 OA
ATOM      5  C   UNL     1      48.464  14.979  25.254  1.00  0.00     0.111 A 
ATOM      6  C   UNL     1      47.501  15.688  24.474  1.00  0.00     0.134 A 
ATOM      7  C   UNL     1      47.789  16.005  23.141  1.00  0.00     0.093 A 
ATOM      8  C   UNL     1      49.028  15.697  22.579  1.00  0.00     0.123 A 
ATOM      9  C   UNL     1      49.998  15.056  23.351  1.00  0.00     0.094 A 
ATOM     10  C   UNL     1      49.727  14.696  24.672  1.00  0.00     0.146 A 
ATOM     11  O   UNL     1      50.674  14.079  25.369  1.00  0.00    -0.452 OA
ENDROOT
BRANCH   1  12
ATOM     12  C   UNL     1      51.659  13.019  27.297  1.00  0.00     0.021 A 
ATOM     13  C   UNL     1      52.768  13.761  27.743  1.00  0.00     0.016 A 
ATOM     14  C   UNL     1      53.849  13.118  28.356  1.00  0.00     0.047 A 
ATOM     15  C   UNL     1      53.841  11.727  28.517  1.00  0.00     0.115 A 
ATOM     16  C   UNL     1      51.669  11.622  27.444  1.00  0.00     0.016 A 
ATOM     17  C   UNL     1      52.750  10.982  28.057  1.00  0.00     0.047 A 
BRANCH  15  18
ATOM     18  O   UNL     1      54.911  11.076  29.127  1.00  0.00    -0.508 OA
ATOM     19  H   UNL     1      55.871  11.333  28.927  1.00  0.00     0.293 HD
ENDBRANCH  15  18
ENDBRANCH   1  12
BRANCH   2  20
ATOM     20  O   UNL     1      49.063  13.340  28.544  1.00  0.00    -0.502 OA
ATOM     21  H   UNL     1      48.456  12.550  28.727  1.00  0.00     0.293 HD
ENDBRANCH   2  20
BRANCH   6  22
ATOM     22  O   UNL     1      46.267  16.125  24.966  1.00  0.00    -0.507 OA
ATOM     23  H   UNL     1      45.558  15.522  25.355  1.00  0.00     0.293 HD
ENDBRANCH   6  22
BRANCH   8  24
ATOM     24  O   UNL     1      49.286  16.040  21.254  1.00  0.00    -0.508 OA
ATOM     25  H   UNL     1      49.300  15.342  20.519  1.00  0.00     0.293 HD
ENDBRANCH   8  24
TORSDOF 5
ENDMDL
MODEL 5
REMARK VINA RESULT:    -5.375      2.436      3.954
REMARK INTER + INTRA:          -6.393
REMARK INTER:                  -6.219
REMARK INTRA:                  -0.174
REMARK UNBOUND:                -0.075
REMARK SMILES O=c1c(O)c(-c2ccc(O)cc2)oc2cc(O)cc(O)c12
REMARK SMILES IDX 5 1 3 2 2 3 1 4 21 5 19 6 18 7 16 8 15 9 14 10 13 11 6 12
REMARK SMILES IDX 7 13 8 14 9 15 12 16 11 17 10 18 4 20 20 22 17 24
REMARK H PARENT 10 19 4 21 20 23 17 25
REMARK Flexibility Score: inf
ROOT
ATOM      1  C   UNL     1      51.952  13.108  26.083  1.00  0.00     0.180 A 
ATOM      2  C   UNL     1      52.766  13.568  25.032  1.00  0.00     0.208 A 
ATOM      3  C   UNL     1      52.220  14.446  24.082  1.00  0.00     0.238 A 
ATOM      4  O   UNL     1      52.968  14.896  23.176  1.00  0.00    -0.285 OA
ATOM      5  C   UNL     1      50.865  14.841  24.186  1.00  0.00     0.111 A 
ATOM      6  C   UNL     1      50.197  15.695  23.257  1.00  0.00     0.134 A 
ATOM      7  C   UNL     1      48.892  16.125  23.529  1.00  0.00     0.093 A 
ATOM      8  C   UNL     1      48.208  15.680  24.660  1.00  0.00     0.123 A 
ATOM      9  C   UNL     1      48.831  14.798  25.543  1.00  0.00     0.094 A 
ATOM     10  C   UNL     1      50.145  14.380  25.318  1.00  0.00     0.146 A 
ATOM     11  O   UNL     1      50.704  13.548  26.188  1.00  0.00    -0.452 OA
ENDROOT
BRANCH   1  12
ATOM     12  C   UNL     1      52.449  12.162  27.107  1.00  0.00     0.021 A 
ATOM     13  C   UNL     1      53.410  12.549  28.059  1.00  0.00     0.016 A 
ATOM     14  C   UNL     1      53.882  11.630  29.001  1.00  0.00     0.047 A 
ATOM     15  C   UNL     1      53.413  10.311  28.995  1.00  0.00     0.115 A 
ATOM     16  C   UNL     1      51.999  10.831  27.095  1.00  0.00     0.016 A 
ATOM     17  C   UNL     1      52.473   9.914  28.038  1.00  0.00     0.047 A 
BRANCH  15  18
ATOM     18  O   UNL     1      53.875   9.387  29.929  1.00  0.00    -0.508 OA
ATOM     19  H   UNL     1      53.463   9.316  30.853  1.00  0.00     0.293 HD
ENDBRANCH  15  18
ENDBRANCH   1  12
BRANCH   2  20
ATOM     20  O   UNL     1      54.108  13.183  24.961  1.00  0.00    -0.502 OA
ATOM     21  H   UNL     1      54.748  13.564  24.275  1.00  0.00     0.293 HD
ENDBRANCH   2  20
BRANCH   6  22
ATOM     22  O   UNL     1      50.756  16.125  22.050  1.00  0.00    -0.507 OA
ATOM     23  H   UNL     1      51.379  16.912  21.953  1.00  0.00     0.293 HD
ENDBRANCH   6  22
BRANCH   8  24
ATOM     24  O   UNL     1      46.905  16.116  24.891  1.00  0.00    -0.508 OA
ATOM     25  H   UNL     1      46.520  16.160  25.827  1.00  0.00     0.293 HD
ENDBRANCH   8  24
TORSDOF 5
ENDMDL
MODEL 6
REMARK VINA RESULT:    -5.248      2.090      6.726
REMARK INTER + INTRA:          -6.243
REMARK INTER:                  -6.729
REMARK INTRA:                   0.486
REMARK UNBOUND:                -0.075
REMARK SMILES O=c1c(O)c(-c2ccc(O)cc2)oc2cc(O)cc(O)c12
REMARK SMILES IDX 5 1 3 2 2 3 1 4 21 5 19 6 18 7 16 8 15 9 14 10 13 11 6 12
REMARK SMILES IDX 7 13 8 14 9 15 12 16 11 17 10 18 4 20 20 22 17 24
REMARK H PARENT 10 19 4 21 20 23 17 25
REMARK Flexibility Score: inf
ROOT
ATOM      1  C   UNL     1      51.120  14.350  26.518  1.00  0.00     0.180 A 
ATOM      2  C   UNL     1      51.209  14.562  25.131  1.00  0.00     0.208 A 
ATOM      3  C   UNL     1      52.456  14.880  24.569  1.00  0.00     0.238 A 
ATOM      4  O   UNL     1      52.540  15.014  23.320  1.00  0.00    -0.285 OA
ATOM      5  C   UNL     1      53.594  14.997  25.402  1.00  0.00     0.111 A 
ATOM      6  C   UNL     1      54.899  15.354  24.946  1.00  0.00     0.134 A 
ATOM      7  C   UNL     1      55.978  15.313  25.838  1.00  0.00     0.093 A 
ATOM      8  C   UNL     1      55.790  14.993  27.182  1.00  0.00     0.123 A 
ATOM      9  C   UNL     1      54.508  14.700  27.651  1.00  0.00     0.094 A 
ATOM     10  C   UNL     1      53.418  14.698  26.778  1.00  0.00     0.146 A 
ATOM     11  O   UNL     1      52.218  14.404  27.263  1.00  0.00    -0.452 OA
ENDROOT
BRANCH   1  12
ATOM     12  C   UNL     1      49.836  14.037  27.185  1.00  0.00     0.021 A 
ATOM     13  C   UNL     1      48.682  13.721  26.444  1.00  0.00     0.016 A 
ATOM     14  C   UNL     1      47.475  13.453  27.097  1.00  0.00     0.047 A 
ATOM     15  C   UNL     1      47.401  13.510  28.494  1.00  0.00     0.115 A 
ATOM     16  C   UNL     1      49.748  14.113  28.585  1.00  0.00     0.016 A 
ATOM     17  C   UNL     1      48.540  13.844  29.235  1.00  0.00     0.047 A 
BRANCH  15  18
ATOM     18  O   UNL     1      46.205  13.244  29.155  1.00  0.00    -0.508 OA
ATOM     19  H   UNL     1      45.411  13.872  29.088  1.00  0.00     0.293 HD
ENDBRANCH  15  18
ENDBRANCH   1  12
BRANCH   2  20
ATOM     20  O   UNL     1      50.078  14.419  24.323  1.00  0.00    -0.502 OA
ATOM     21  H   UNL     1      49.475  15.198  24.086  1.00  0.00     0.293 HD
ENDBRANCH   2  20
BRANCH   6  22
ATOM     22  O   UNL     1      55.182  15.778  23.644  1.00  0.00    -0.507 OA
ATOM     23  H   UNL     1      56.000  16.304  23.376  1.00  0.00     0.293 HD
ENDBRANCH   6  22
BRANCH   8  24
ATOM     24  O   UNL     1      56.884  14.976  28.044  1.00  0.00    -0.508 OA
ATOM     25  H   UNL     1      57.769  14.568  27.769  1.00  0.00     0.293 HD
ENDBRANCH   8  24
TORSDOF 5
ENDMDL
MODEL 7
REMARK VINA RESULT:    -5.224      2.270      6.574
REMARK INTER + INTRA:          -6.215
REMARK INTER:                  -6.511
REMARK INTRA:                   0.297
REMARK UNBOUND:                -0.075
REMARK SMILES O=c1c(O)c(-c2ccc(O)cc2)oc2cc(O)cc(O)c12
REMARK SMILES IDX 5 1 3 2 2 3 1 4 21 5 19 6 18 7 16 8 15 9 14 10 13 11 6 12
REMARK SMILES IDX 7 13 8 14 9 15 12 16 11 17 10 18 4 20 20 22 17 24
REMARK H PARENT 10 19 4 21 20 23 17 25
REMARK Flexibility Score: inf
ROOT
ATOM      1  C   UNL     1      52.038  14.167  25.417  1.00  0.00     0.180 A 
ATOM      2  C   UNL     1      53.105  14.906  25.957  1.00  0.00     0.208 A 
ATOM      3  C   UNL     1      53.811  14.381  27.052  1.00  0.00     0.238 A 
ATOM      4  O   UNL     1      54.799  15.022  27.497  1.00  0.00    -0.285 OA
ATOM      5  C   UNL     1      53.432  13.134  27.602  1.00  0.00     0.111 A 
ATOM      6  C   UNL     1      54.050  12.526  28.736  1.00  0.00     0.134 A 
ATOM      7  C   UNL     1      53.680  11.230  29.114  1.00  0.00     0.093 A 
ATOM      8  C   UNL     1      52.668  10.545  28.441  1.00  0.00     0.123 A 
ATOM      9  C   UNL     1      52.016  11.153  27.368  1.00  0.00     0.094 A 
ATOM     10  C   UNL     1      52.388  12.431  26.945  1.00  0.00     0.146 A 
ATOM     11  O   UNL     1      51.749  12.970  25.914  1.00  0.00    -0.452 OA
ENDROOT
BRANCH   1  12
ATOM     12  C   UNL     1      51.232  14.665  24.279  1.00  0.00     0.021 A 
ATOM     13  C   UNL     1      51.795  15.486  23.285  1.00  0.00     0.016 A 
ATOM     14  C   UNL     1      51.007  15.965  22.233  1.00  0.00     0.047 A 
ATOM     15  C   UNL     1      49.646  15.642  22.170  1.00  0.00     0.115 A 
ATOM     16  C   UNL     1      49.861  14.364  24.220  1.00  0.00     0.016 A 
ATOM     17  C   UNL     1      49.076  14.844  23.167  1.00  0.00     0.047 A 
BRANCH  15  18
ATOM     18  O   UNL     1      48.851  16.112  21.127  1.00  0.00    -0.508 OA
ATOM     19  H   UNL     1      48.613  15.524  20.336  1.00  0.00     0.293 HD
ENDBRANCH  15  18
ENDBRANCH   1  12
BRANCH   2  20
ATOM     20  O   UNL     1      53.478  16.125  25.385  1.00  0.00    -0.502 OA
ATOM     21  H   UNL     1      54.444  16.421  25.315  1.00  0.00     0.293 HD
ENDBRANCH   2  20
BRANCH   6  22
ATOM     22  O   UNL     1      55.008  13.158  29.535  1.00  0.00    -0.507 OA
ATOM     23  H   UNL     1      54.824  13.565  30.439  1.00  0.00     0.293 HD
ENDBRANCH   6  22
BRANCH   8  24
ATOM     24  O   UNL     1      52.314   9.263  28.854  1.00  0.00    -0.508 OA
ATOM     25  H   UNL     1      51.372   8.909  28.733  1.00  0.00     0.293 HD
ENDBRANCH   8  24
TORSDOF 5
ENDMDL
MODEL 8
REMARK VINA RESULT:    -5.098      1.284      1.828
REMARK INTER + INTRA:          -6.067
REMARK INTER:                  -5.973
REMARK INTRA:                  -0.095
REMARK UNBOUND:                -0.075
REMARK SMILES O=c1c(O)c(-c2ccc(O)cc2)oc2cc(O)cc(O)c12
REMARK SMILES IDX 5 1 3 2 2 3 1 4 21 5 19 6 18 7 16 8 15 9 14 10 13 11 6 12
REMARK SMILES IDX 7 13 8 14 9 15 12 16 11 17 10 18 4 20 20 22 17 24
REMARK H PARENT 10 19 4 21 20 23 17 25
REMARK Flexibility Score: inf
ROOT
ATOM      1  C   UNL     1      52.698  14.247  26.435  1.00  0.00     0.180 A 
ATOM      2  C   UNL     1      52.081  13.790  27.612  1.00  0.00     0.208 A 
ATOM      3  C   UNL     1      50.694  13.572  27.613  1.00  0.00     0.238 A 
ATOM      4  O   UNL     1      50.155  13.111  28.654  1.00  0.00    -0.285 OA
ATOM      5  C   UNL     1      49.939  13.828  26.443  1.00  0.00     0.111 A 
ATOM      6  C   UNL     1      48.523  13.680  26.343  1.00  0.00     0.134 A 
ATOM      7  C   UNL     1      47.898  13.835  25.100  1.00  0.00     0.093 A 
ATOM      8  C   UNL     1      48.627  14.198  23.968  1.00  0.00     0.123 A 
ATOM      9  C   UNL     1      50.004  14.403  24.067  1.00  0.00     0.094 A 
ATOM     10  C   UNL     1      50.660  14.220  25.286  1.00  0.00     0.146 A 
ATOM     11  O   UNL     1      51.973  14.415  25.335  1.00  0.00    -0.452 OA
ENDROOT
BRANCH   1  12
ATOM     12  C   UNL     1      54.151  14.523  26.364  1.00  0.00     0.021 A 
ATOM     13  C   UNL     1      55.102  13.508  26.575  1.00  0.00     0.016 A 
ATOM     14  C   UNL     1      56.469  13.799  26.528  1.00  0.00     0.047 A 
ATOM     15  C   UNL     1      56.902  15.108  26.283  1.00  0.00     0.115 A 
ATOM     16  C   UNL     1      54.594  15.837  26.139  1.00  0.00     0.016 A 
ATOM     17  C   UNL     1      55.961  16.125  26.091  1.00  0.00     0.047 A 
BRANCH  15  18
ATOM     18  O   UNL     1      58.261  15.409  26.232  1.00  0.00    -0.508 OA
ATOM     19  H   UNL     1      58.619  16.300  26.557  1.00  0.00     0.293 HD
ENDBRANCH  15  18
ENDBRANCH   1  12
BRANCH   2  20
ATOM     20  O   UNL     1      52.847  13.521  28.750  1.00  0.00    -0.502 OA
ATOM     21  H   UNL     1      53.664  14.066  28.998  1.00  0.00     0.293 HD
ENDBRANCH   2  20
BRANCH   6  22
ATOM     22  O   UNL     1      47.688  13.409  27.432  1.00  0.00    -0.507 OA
ATOM     23  H   UNL     1      46.686  13.527  27.430  1.00  0.00     0.293 HD
ENDBRANCH   6  22
BRANCH   8  24
ATOM     24  O   UNL     1      47.970  14.359  22.750  1.00  0.00    -0.508 OA
ATOM     25  H   UNL     1      47.121  13.849  22.535  1.00  0.00     0.293 HD
ENDBRANCH   8  24
TORSDOF 5
ENDMDL
MODEL 9
REMARK VINA RESULT:    -5.074      1.853      7.068
REMARK INTER + INTRA:          -6.039
REMARK INTER:                  -6.287
REMARK INTRA:                   0.248
REMARK UNBOUND:                -0.075
REMARK SMILES O=c1c(O)c(-c2ccc(O)cc2)oc2cc(O)cc(O)c12
REMARK SMILES IDX 5 1 3 2 2 3 1 4 21 5 19 6 18 7 16 8 15 9 14 10 13 11 6 12
REMARK SMILES IDX 7 13 8 14 9 15 12 16 11 17 10 18 4 20 20 22 17 24
REMARK H PARENT 10 19 4 21 20 23 17 25
REMARK Flexibility Score: inf
ROOT
ATOM      1  C   UNL     1      52.506  15.007  24.744  1.00  0.00     0.180 A 
ATOM      2  C   UNL     1      53.609  15.547  24.059  1.00  0.00     0.208 A 
ATOM      3  C   UNL     1      54.829  15.691  24.740  1.00  0.00     0.238 A 
ATOM      4  O   UNL     1      55.826  16.125  24.107  1.00  0.00    -0.285 OA
ATOM      5  C   UNL     1      54.927  15.307  26.099  1.00  0.00     0.111 A 
ATOM      6  C   UNL     1      56.102  15.446  26.897  1.00  0.00     0.134 A 
ATOM      7  C   UNL     1      56.124  14.913  28.192  1.00  0.00     0.093 A 
ATOM      8  C   UNL     1      54.995  14.306  28.740  1.00  0.00     0.123 A 
ATOM      9  C   UNL     1      53.822  14.218  27.989  1.00  0.00     0.094 A 
ATOM     10  C   UNL     1      53.780  14.709  26.682  1.00  0.00     0.146 A 
ATOM     11  O   UNL     1      52.648  14.596  25.999  1.00  0.00    -0.452 OA
ENDROOT
BRANCH   1  12
ATOM     12  C   UNL     1      51.182  14.848  24.101  1.00  0.00     0.021 A 
ATOM     13  C   UNL     1      50.735  15.743  23.112  1.00  0.00     0.016 A 
ATOM     14  C   UNL     1      49.469  15.587  22.537  1.00  0.00     0.047 A 
ATOM     15  C   UNL     1      48.630  14.545  22.953  1.00  0.00     0.115 A 
ATOM     16  C   UNL     1      50.326  13.819  24.527  1.00  0.00     0.016 A 
ATOM     17  C   UNL     1      49.061  13.665  23.951  1.00  0.00     0.047 A 
BRANCH  15  18
ATOM     18  O   UNL     1      47.368  14.379  22.387  1.00  0.00    -0.508 OA
ATOM     19  H   UNL     1      47.180  13.636  21.723  1.00  0.00     0.293 HD
ENDBRANCH  15  18
ENDBRANCH   1  12
BRANCH   2  20
ATOM     20  O   UNL     1      53.497  15.899  22.711  1.00  0.00    -0.502 OA
ATOM     21  H   UNL     1      53.546  16.859  22.392  1.00  0.00     0.293 HD
ENDBRANCH   2  20
BRANCH   6  22
ATOM     22  O   UNL     1      57.255  16.116  26.479  1.00  0.00    -0.507 OA
ATOM     23  H   UNL     1      57.413  17.107  26.582  1.00  0.00     0.293 HD
ENDBRANCH   6  22
BRANCH   8  24
ATOM     24  O   UNL     1      55.048  13.800  30.037  1.00  0.00    -0.508 OA
ATOM     25  H   UNL     1      55.369  12.857  30.226  1.00  0.00     0.293 HD
ENDBRANCH   8  24
TORSDOF 5
ENDMDL
