MODEL 1
REMARK VINA RESULT:    -5.287      0.000      0.000
REMARK INTER + INTRA:          -6.110
REMARK INTER:                  -6.059
REMARK INTRA:                  -0.051
REMARK UNBOUND:                -0.051
REMARK SMILES O=C([O-])c1cc(O)c(O)c(O)c1
REMARK SMILES IDX 4 1 5 2 12 3 6 4 10 5 8 6 2 7 1 8 3 9 7 10 11 12 9 14
REMARK H PARENT 7 11 11 13 9 15
REMARK Flexibility Score: inf
ROOT
ATOM      1  C   UNL     1      99.518 101.715 105.449  1.00  0.00     0.005 A 
ATOM      2  C   UNL     1     100.621 101.108 104.824  1.00  0.00     0.060 A 
ATOM      3  C   UNL     1      99.030 101.171 106.650  1.00  0.00     0.060 A 
ATOM      4  C   UNL     1     101.227  99.977 105.389  1.00  0.00     0.162 A 
ATOM      5  C   UNL     1      99.633 100.040 107.219  1.00  0.00     0.162 A 
ATOM      6  C   UNL     1     100.735  99.441 106.585  1.00  0.00     0.200 A 
ENDROOT
BRANCH   1   7
ATOM      7  C   UNL     1      98.883 102.908 104.848  1.00  0.00     0.072 C 
ATOM      8  O   UNL     1      98.331 103.776 105.576  1.00  0.00    -0.545 OA
ATOM      9  O   UNL     1      98.888 103.090 103.469  1.00  0.00    -0.545 OA
ENDBRANCH   1   7
BRANCH   4  10
ATOM     10  O   UNL     1     102.320  99.379 104.765  1.00  0.00    -0.504 OA
ATOM     11  H   UNL     1     102.530  99.545 103.788  1.00  0.00     0.293 HD
ENDBRANCH   4  10
BRANCH   5  12
ATOM     12  O   UNL     1      99.140  99.510 108.410  1.00  0.00    -0.504 OA
ATOM     13  H   UNL     1      98.959 100.095 109.218  1.00  0.00     0.293 HD
ENDBRANCH   5  12
BRANCH   6  14
ATOM     14  O   UNL     1     101.351  98.315 107.132  1.00  0.00    -0.502 OA
ATOM     15  H   UNL     1     100.821  97.509 107.442  1.00  0.00     0.293 HD
ENDBRANCH   6  14
TORSDOF 4
ENDMDL
MODEL 2
REMARK VINA RESULT:    -5.286      0.038      2.422
REMARK INTER + INTRA:          -6.109
REMARK INTER:                  -6.058
REMARK INTRA:                  -0.051
REMARK UNBOUND:                -0.051
REMARK SMILES O=C([O-])c1cc(O)c(O)c(O)c1
REMARK SMILES IDX 4 1 5 2 12 3 6 4 10 5 8 6 2 7 1 8 3 9 7 10 11 12 9 14
REMARK H PARENT 7 11 11 13 9 15
REMARK Flexibility Score: inf
ROOT
ATOM      1  C   UNL     1      99.540 101.699 105.447  1.00  0.00     0.005 A 
ATOM      2  C   UNL     1      99.044 101.152 106.643  1.00  0.00     0.060 A 
ATOM      3  C   UNL     1     100.656 101.101 104.835  1.00  0.00     0.060 A 
ATOM      4  C   UNL     1      99.652 100.028 107.218  1.00  0.00     0.162 A 
ATOM      5  C   UNL     1     101.266  99.976 105.405  1.00  0.00     0.162 A 
ATOM      6  C   UNL     1     100.763  99.438 106.602  1.00  0.00     0.200 A 
ENDROOT
BRANCH   1   7
ATOM      7  C   UNL     1      98.894 102.886 104.845  1.00  0.00     0.072 C 
ATOM      8  O   UNL     1      98.313 103.737 105.570  1.00  0.00    -0.545 OA
ATOM      9  O   UNL     1      98.920 103.081 103.468  1.00  0.00    -0.545 OA
ENDBRANCH   1   7
BRANCH   4  10
ATOM     10  O   UNL     1      99.156  99.489 108.404  1.00  0.00    -0.504 OA
ATOM     11  H   UNL     1      99.144  98.490 108.569  1.00  0.00     0.293 HD
ENDBRANCH   4  10
BRANCH   5  12
ATOM     12  O   UNL     1     102.372  99.393 104.789  1.00  0.00    -0.504 OA
ATOM     13  H   UNL     1     102.319  98.476 104.359  1.00  0.00     0.293 HD
ENDBRANCH   5  12
BRANCH   6  14
ATOM     14  O   UNL     1     101.353  98.320 107.189  1.00  0.00    -0.502 OA
ATOM     15  H   UNL     1     102.261  97.975 106.900  1.00  0.00     0.293 HD
ENDBRANCH   6  14
TORSDOF 4
ENDMDL
MODEL 3
REMARK VINA RESULT:    -5.216     16.459     17.405
REMARK INTER + INTRA:          -6.029
REMARK INTER:                  -5.981
REMARK INTRA:                  -0.048
REMARK UNBOUND:                -0.051
REMARK SMILES O=C([O-])c1cc(O)c(O)c(O)c1
REMARK SMILES IDX 4 1 5 2 12 3 6 4 10 5 8 6 2 7 1 8 3 9 7 10 11 12 9 14
REMARK H PARENT 7 11 11 13 9 15
REMARK Flexibility Score: inf
ROOT
ATOM      1  C   UNL     1     113.085 111.488 105.713  1.00  0.00     0.005 A 
ATOM      2  C   UNL     1     111.981 112.140 105.138  1.00  0.00     0.060 A 
ATOM      3  C   UNL     1     113.466 111.818 107.026  1.00  0.00     0.060 A 
ATOM      4  C   UNL     1     111.269 113.107 105.861  1.00  0.00     0.162 A 
ATOM      5  C   UNL     1     112.756 112.783 107.753  1.00  0.00     0.162 A 
ATOM      6  C   UNL     1     111.654 113.430 107.169  1.00  0.00     0.200 A 
ENDROOT
BRANCH   1   7
ATOM      7  C   UNL     1     113.833 110.469 104.944  1.00  0.00     0.072 C 
ATOM      8  O   UNL     1     114.235 110.715 103.775  1.00  0.00    -0.545 OA
ATOM      9  O   UNL     1     114.104 109.224 105.501  1.00  0.00    -0.545 OA
ENDBRANCH   1   7
BRANCH   4  10
ATOM     10  O   UNL     1     110.175 113.751 105.287  1.00  0.00    -0.504 OA
ATOM     11  H   UNL     1     109.232 113.400 105.402  1.00  0.00     0.293 HD
ENDBRANCH   4  10
BRANCH   5  12
ATOM     12  O   UNL     1     113.143 113.102 109.054  1.00  0.00    -0.504 OA
ATOM     13  H   UNL     1     113.708 112.471 109.610  1.00  0.00     0.293 HD
ENDBRANCH   5  12
BRANCH   6  14
ATOM     14  O   UNL     1     110.932 114.394 107.872  1.00  0.00    -0.502 OA
ATOM     15  H   UNL     1     109.973 114.624 107.641  1.00  0.00     0.293 HD
ENDBRANCH   6  14
TORSDOF 4
ENDMDL
MODEL 4
REMARK VINA RESULT:    -5.213     16.412     17.414
REMARK INTER + INTRA:          -6.025
REMARK INTER:                  -5.977
REMARK INTRA:                  -0.048
REMARK UNBOUND:                -0.051
REMARK SMILES O=C([O-])c1cc(O)c(O)c(O)c1
REMARK SMILES IDX 4 1 5 2 12 3 6 4 10 5 8 6 2 7 1 8 3 9 7 10 11 12 9 14
REMARK H PARENT 7 11 11 13 9 15
REMARK Flexibility Score: inf
ROOT
ATOM      1  C   UNL     1     113.054 111.477 105.727  1.00  0.00     0.005 A 
ATOM      2  C   UNL     1     113.454 111.822 107.029  1.00  0.00     0.060 A 
ATOM      3  C   UNL     1     111.938 112.120 105.163  1.00  0.00     0.060 A 
ATOM      4  C   UNL     1     112.753 112.794 107.755  1.00  0.00     0.162 A 
ATOM      5  C   UNL     1     111.234 113.093 105.885  1.00  0.00     0.162 A 
ATOM      6  C   UNL     1     111.643 113.431 107.186  1.00  0.00     0.200 A 
ENDROOT
BRANCH   1   7
ATOM      7  C   UNL     1     113.798 110.449 104.965  1.00  0.00     0.072 C 
ATOM      8  O   UNL     1     114.201 110.685 103.795  1.00  0.00    -0.545 OA
ATOM      9  O   UNL     1     114.065 109.207 105.532  1.00  0.00    -0.545 OA
ENDBRANCH   1   7
BRANCH   4  10
ATOM     10  O   UNL     1     113.154 113.134 109.047  1.00  0.00    -0.504 OA
ATOM     11  H   UNL     1     114.114 113.023 109.350  1.00  0.00     0.293 HD
ENDBRANCH   4  10
BRANCH   5  12
ATOM     12  O   UNL     1     110.130 113.724 105.315  1.00  0.00    -0.504 OA
ATOM     13  H   UNL     1     110.019 114.731 105.345  1.00  0.00     0.293 HD
ENDBRANCH   5  12
BRANCH   6  14
ATOM     14  O   UNL     1     110.958 114.396 107.925  1.00  0.00    -0.502 OA
ATOM     15  H   UNL     1     109.998 114.649 107.721  1.00  0.00     0.293 HD
ENDBRANCH   6  14
TORSDOF 4
ENDMDL
MODEL 5
REMARK VINA RESULT:    -5.159      2.240      5.063
REMARK INTER + INTRA:          -5.963
REMARK INTER:                  -5.912
REMARK INTRA:                  -0.051
REMARK UNBOUND:                -0.051
REMARK SMILES O=C([O-])c1cc(O)c(O)c(O)c1
REMARK SMILES IDX 4 1 5 2 12 3 6 4 10 5 8 6 2 7 1 8 3 9 7 10 11 12 9 14
REMARK H PARENT 7 11 11 13 9 15
REMARK Flexibility Score: inf
ROOT
ATOM      1  C   UNL     1     102.295  98.258 106.339  1.00  0.00     0.005 A 
ATOM      2  C   UNL     1     101.764  98.046 107.623  1.00  0.00     0.060 A 
ATOM      3  C   UNL     1     101.654  99.164 105.477  1.00  0.00     0.060 A 
ATOM      4  C   UNL     1     100.612  98.726 108.038  1.00  0.00     0.162 A 
ATOM      5  C   UNL     1     100.501  99.848 105.888  1.00  0.00     0.162 A 
ATOM      6  C   UNL     1      99.978  99.628 107.173  1.00  0.00     0.200 A 
ENDROOT
BRANCH   1   7
ATOM      7  C   UNL     1     103.512  97.536 105.906  1.00  0.00     0.072 C 
ATOM      8  O   UNL     1     103.784  96.399 106.376  1.00  0.00    -0.545 OA
ATOM      9  O   UNL     1     104.373  98.103 104.972  1.00  0.00    -0.545 OA
ENDBRANCH   1   7
BRANCH   4  10
ATOM     10  O   UNL     1     100.089  98.512 109.313  1.00  0.00    -0.504 OA
ATOM     11  H   UNL     1     100.102  97.596 109.744  1.00  0.00     0.293 HD
ENDBRANCH   4  10
BRANCH   5  12
ATOM     12  O   UNL     1      99.874 100.744 105.024  1.00  0.00    -0.504 OA
ATOM     13  H   UNL     1      99.104 101.328 105.330  1.00  0.00     0.293 HD
ENDBRANCH   5  12
BRANCH   6  14
ATOM     14  O   UNL     1      98.833 100.296 107.606  1.00  0.00    -0.502 OA
ATOM     15  H   UNL     1      97.979  99.804 107.842  1.00  0.00     0.293 HD
ENDBRANCH   6  14
TORSDOF 4
ENDMDL
MODEL 6
REMARK VINA RESULT:    -5.130      2.283      4.754
REMARK INTER + INTRA:          -5.930
REMARK INTER:                  -5.879
REMARK INTRA:                  -0.051
REMARK UNBOUND:                -0.051
REMARK SMILES O=C([O-])c1cc(O)c(O)c(O)c1
REMARK SMILES IDX 4 1 5 2 12 3 6 4 10 5 8 6 2 7 1 8 3 9 7 10 11 12 9 14
REMARK H PARENT 7 11 11 13 9 15
REMARK Flexibility Score: inf
ROOT
ATOM      1  C   UNL     1     102.261  98.205 106.327  1.00  0.00     0.005 A 
ATOM      2  C   UNL     1     101.572  99.048 105.439  1.00  0.00     0.060 A 
ATOM      3  C   UNL     1     101.774  98.049 107.637  1.00  0.00     0.060 A 
ATOM      4  C   UNL     1     100.416  99.725 105.852  1.00  0.00     0.162 A 
ATOM      5  C   UNL     1     100.618  98.723 108.054  1.00  0.00     0.162 A 
ATOM      6  C   UNL     1      99.937  99.565 107.158  1.00  0.00     0.200 A 
ENDROOT
BRANCH   1   7
ATOM      7  C   UNL     1     103.481  97.493 105.886  1.00  0.00     0.072 C 
ATOM      8  O   UNL     1     104.185  97.950 104.946  1.00  0.00    -0.545 OA
ATOM      9  O   UNL     1     103.869  96.309 106.504  1.00  0.00    -0.545 OA
ENDBRANCH   1   7
BRANCH   4  10
ATOM     10  O   UNL     1      99.737 100.561 104.967  1.00  0.00    -0.504 OA
ATOM     11  H   UNL     1      99.519 101.521 105.206  1.00  0.00     0.293 HD
ENDBRANCH   4  10
BRANCH   5  12
ATOM     12  O   UNL     1     100.144  98.560 109.355  1.00  0.00    -0.504 OA
ATOM     13  H   UNL     1     100.103  99.335 110.006  1.00  0.00     0.293 HD
ENDBRANCH   5  12
BRANCH   6  14
ATOM     14  O   UNL     1      98.785 100.246 107.549  1.00  0.00    -0.502 OA
ATOM     15  H   UNL     1      98.737 101.259 107.564  1.00  0.00     0.293 HD
ENDBRANCH   6  14
TORSDOF 4
ENDMDL
MODEL 7
REMARK VINA RESULT:    -5.116     16.420     17.112
REMARK INTER + INTRA:          -5.914
REMARK INTER:                  -5.863
REMARK INTRA:                  -0.051
REMARK UNBOUND:                -0.051
REMARK SMILES O=C([O-])c1cc(O)c(O)c(O)c1
REMARK SMILES IDX 4 1 5 2 12 3 6 4 10 5 8 6 2 7 1 8 3 9 7 10 11 12 9 14
REMARK H PARENT 7 11 11 13 9 15
REMARK Flexibility Score: inf
ROOT
ATOM      1  C   UNL     1     110.137 114.209 106.370  1.00  0.00     0.005 A 
ATOM      2  C   UNL     1     110.608 114.404 107.680  1.00  0.00     0.060 A 
ATOM      3  C   UNL     1     110.825 113.324 105.521  1.00  0.00     0.060 A 
ATOM      4  C   UNL     1     111.747 113.725 108.134  1.00  0.00     0.162 A 
ATOM      5  C   UNL     1     111.964 112.643 105.972  1.00  0.00     0.162 A 
ATOM      6  C   UNL     1     112.427 112.845 107.283  1.00  0.00     0.200 A 
ENDROOT
BRANCH   1   7
ATOM      7  C   UNL     1     108.934 114.929 105.895  1.00  0.00     0.072 C 
ATOM      8  O   UNL     1     108.587 116.017 106.427  1.00  0.00    -0.545 OA
ATOM      9  O   UNL     1     108.170 114.413 104.854  1.00  0.00    -0.545 OA
ENDBRANCH   1   7
BRANCH   4  10
ATOM     10  O   UNL     1     112.211 113.921 109.434  1.00  0.00    -0.504 OA
ATOM     11  H   UNL     1     112.019 114.776 109.943  1.00  0.00     0.293 HD
ENDBRANCH   4  10
BRANCH   5  12
ATOM     12  O   UNL     1     112.638 111.768 105.122  1.00  0.00    -0.504 OA
ATOM     13  H   UNL     1     113.412 111.201 105.447  1.00  0.00     0.293 HD
ENDBRANCH   5  12
BRANCH   6  14
ATOM     14  O   UNL     1     113.558 112.179 107.755  1.00  0.00    -0.502 OA
ATOM     15  H   UNL     1     113.892 111.319 107.334  1.00  0.00     0.293 HD
ENDBRANCH   6  14
TORSDOF 4
ENDMDL
MODEL 8
REMARK VINA RESULT:    -5.112     16.402     17.032
REMARK INTER + INTRA:          -5.910
REMARK INTER:                  -5.860
REMARK INTRA:                  -0.049
REMARK UNBOUND:                -0.051
REMARK SMILES O=C([O-])c1cc(O)c(O)c(O)c1
REMARK SMILES IDX 4 1 5 2 12 3 6 4 10 5 8 6 2 7 1 8 3 9 7 10 11 12 9 14
REMARK H PARENT 7 11 11 13 9 15
REMARK Flexibility Score: inf
ROOT
ATOM      1  C   UNL     1     110.285 114.068 106.528  1.00  0.00     0.005 A 
ATOM      2  C   UNL     1     110.924 113.225 105.602  1.00  0.00     0.060 A 
ATOM      3  C   UNL     1     110.863 114.250 107.797  1.00  0.00     0.060 A 
ATOM      4  C   UNL     1     112.119 112.575 105.938  1.00  0.00     0.162 A 
ATOM      5  C   UNL     1     112.059 113.603 108.136  1.00  0.00     0.162 A 
ATOM      6  C   UNL     1     112.689 112.762 107.204  1.00  0.00     0.200 A 
ENDROOT
BRANCH   1   7
ATOM      7  C   UNL     1     109.023 114.751 106.168  1.00  0.00     0.072 C 
ATOM      8  O   UNL     1     108.803 115.933 106.546  1.00  0.00    -0.545 OA
ATOM      9  O   UNL     1     108.060 114.097 105.406  1.00  0.00    -0.545 OA
ENDBRANCH   1   7
BRANCH   4  10
ATOM     10  O   UNL     1     112.749 111.740 105.016  1.00  0.00    -0.504 OA
ATOM     11  H   UNL     1     113.737 111.826 104.812  1.00  0.00     0.293 HD
ENDBRANCH   4  10
BRANCH   5  12
ATOM     12  O   UNL     1     112.622 113.792 109.398  1.00  0.00    -0.504 OA
ATOM     13  H   UNL     1     112.701 114.713 109.812  1.00  0.00     0.293 HD
ENDBRANCH   5  12
BRANCH   6  14
ATOM     14  O   UNL     1     113.879 112.107 107.518  1.00  0.00    -0.502 OA
ATOM     15  H   UNL     1     114.027 111.661 108.416  1.00  0.00     0.293 HD
ENDBRANCH   6  14
TORSDOF 4
ENDMDL
MODEL 9
REMARK VINA RESULT:    -4.962      2.007      2.798
REMARK INTER + INTRA:          -5.738
REMARK INTER:                  -5.689
REMARK INTRA:                  -0.049
REMARK UNBOUND:                -0.051
REMARK SMILES O=C([O-])c1cc(O)c(O)c(O)c1
REMARK SMILES IDX 4 1 5 2 12 3 6 4 10 5 8 6 2 7 1 8 3 9 7 10 11 12 9 14
REMARK H PARENT 7 11 11 13 9 15
REMARK Flexibility Score: inf
ROOT
ATOM      1  C   UNL     1      99.413 101.954 106.140  1.00  0.00     0.005 A 
ATOM      2  C   UNL     1      99.003 100.768 106.772  1.00  0.00     0.060 A 
ATOM      3  C   UNL     1     100.494 102.675 106.676  1.00  0.00     0.060 A 
ATOM      4  C   UNL     1      99.663 100.308 107.920  1.00  0.00     0.162 A 
ATOM      5  C   UNL     1     101.157 102.219 107.824  1.00  0.00     0.162 A 
ATOM      6  C   UNL     1     100.739 101.032 108.448  1.00  0.00     0.200 A 
ENDROOT
BRANCH   1   7
ATOM      7  C   UNL     1      98.712 102.434 104.928  1.00  0.00     0.072 C 
ATOM      8  O   UNL     1      98.477 103.662 104.767  1.00  0.00    -0.545 OA
ATOM      9  O   UNL     1      98.302 101.536 103.949  1.00  0.00    -0.545 OA
ENDBRANCH   1   7
BRANCH   4  10
ATOM     10  O   UNL     1      99.253  99.131 108.544  1.00  0.00    -0.504 OA
ATOM     11  H   UNL     1      98.282  98.841 108.545  1.00  0.00     0.293 HD
ENDBRANCH   4  10
BRANCH   5  12
ATOM     12  O   UNL     1     102.228 102.942 108.346  1.00  0.00    -0.504 OA
ATOM     13  H   UNL     1     102.658 103.702 107.831  1.00  0.00     0.293 HD
ENDBRANCH   5  12
BRANCH   6  14
ATOM     14  O   UNL     1     101.383 100.558 109.591  1.00  0.00    -0.502 OA
ATOM     15  H   UNL     1     101.533  99.569 109.754  1.00  0.00     0.293 HD
ENDBRANCH   6  14
TORSDOF 4
ENDMDL
