MODEL 1
REMARK VINA RESULT:    -5.108      0.000      0.000
REMARK INTER + INTRA:          -5.108
REMARK INTER:                  -5.108
REMARK INTRA:                   0.000
REMARK UNBOUND:                 0.000
REMARK SMILES O=c1ccc2ccccc2o1
REMARK SMILES IDX 7 1 8 2 9 3 10 4 5 5 6 6 4 7 3 8 2 9 1 10 11 11
REMARK H PARENT
REMARK Flexibility Score: inf
ROOT
ATOM      1  C   UNL     1     -12.883 -48.160  -5.604  1.00  0.00     0.001 A 
ATOM      2  C   UNL     1     -13.981 -49.025  -5.592  1.00  0.00     0.004 A 
ATOM      3  C   UNL     1     -14.707 -49.226  -4.414  1.00  0.00     0.048 A 
ATOM      4  C   UNL     1     -14.336 -48.560  -3.241  1.00  0.00     0.138 A 
ATOM      5  C   UNL     1     -13.225 -47.685  -3.252  1.00  0.00     0.018 A 
ATOM      6  C   UNL     1     -12.502 -47.489  -4.437  1.00  0.00     0.012 A 
ATOM      7  C   UNL     1     -12.878 -47.034  -2.064  1.00  0.00     0.019 A 
ATOM      8  C   UNL     1     -13.630 -47.264  -0.913  1.00  0.00     0.094 A 
ATOM      9  C   UNL     1     -14.716 -48.144  -0.976  1.00  0.00     0.336 A 
ATOM     10  O   UNL     1     -15.407 -48.364   0.053  1.00  0.00    -0.246 OA
ATOM     11  O   UNL     1     -15.026 -48.750  -2.119  1.00  0.00    -0.423 OA
ENDROOT
TORSDOF 0
ENDMDL
MODEL 2
REMARK VINA RESULT:    -5.079      2.980      4.199
REMARK INTER + INTRA:          -5.079
REMARK INTER:                  -5.079
REMARK INTRA:                   0.000
REMARK UNBOUND:                 0.000
REMARK SMILES O=c1ccc2ccccc2o1
REMARK SMILES IDX 7 1 8 2 9 3 10 4 5 5 6 6 4 7 3 8 2 9 1 10 11 11
REMARK H PARENT
REMARK Flexibility Score: inf
ROOT
ATOM      1  C   UNL     1     -14.025 -49.268  -3.517  1.00  0.00     0.001 A 
ATOM      2  C   UNL     1     -14.385 -49.349  -4.866  1.00  0.00     0.004 A 
ATOM      3  C   UNL     1     -13.868 -48.435  -5.789  1.00  0.00     0.048 A 
ATOM      4  C   UNL     1     -12.987 -47.435  -5.366  1.00  0.00     0.138 A 
ATOM      5  C   UNL     1     -12.622 -47.351  -4.002  1.00  0.00     0.018 A 
ATOM      6  C   UNL     1     -13.145 -48.271  -3.082  1.00  0.00     0.012 A 
ATOM      7  C   UNL     1     -11.741 -46.340  -3.608  1.00  0.00     0.019 A 
ATOM      8  C   UNL     1     -11.250 -45.451  -4.563  1.00  0.00     0.094 A 
ATOM      9  C   UNL     1     -11.654 -45.593  -5.895  1.00  0.00     0.336 A 
ATOM     10  O   UNL     1     -11.221 -44.799  -6.771  1.00  0.00    -0.246 OA
ATOM     11  O   UNL     1     -12.494 -46.564  -6.244  1.00  0.00    -0.423 OA
ENDROOT
TORSDOF 0
ENDMDL
MODEL 3
REMARK VINA RESULT:    -5.076      2.057      4.406
REMARK INTER + INTRA:          -5.076
REMARK INTER:                  -5.076
REMARK INTRA:                   0.000
REMARK UNBOUND:                 0.000
REMARK SMILES O=c1ccc2ccccc2o1
REMARK SMILES IDX 7 1 8 2 9 3 10 4 5 5 6 6 4 7 3 8 2 9 1 10 11 11
REMARK H PARENT
REMARK Flexibility Score: inf
ROOT
ATOM      1  C   UNL     1     -14.244 -48.296  -0.876  1.00  0.00     0.001 A 
ATOM      2  C   UNL     1     -13.365 -47.211  -0.947  1.00  0.00     0.004 A 
ATOM      3  C   UNL     1     -12.814 -46.829  -2.175  1.00  0.00     0.048 A 
ATOM      4  C   UNL     1     -13.143 -47.534  -3.338  1.00  0.00     0.138 A 
ATOM      5  C   UNL     1     -14.031 -48.631  -3.267  1.00  0.00     0.018 A 
ATOM      6  C   UNL     1     -14.579 -49.007  -2.032  1.00  0.00     0.012 A 
ATOM      7  C   UNL     1     -14.340 -49.316  -4.446  1.00  0.00     0.019 A 
ATOM      8  C   UNL     1     -13.768 -48.901  -5.648  1.00  0.00     0.094 A 
ATOM      9  C   UNL     1     -12.896 -47.807  -5.643  1.00  0.00     0.336 A 
ATOM     10  O   UNL     1     -12.370 -47.417  -6.718  1.00  0.00    -0.246 OA
ATOM     11  O   UNL     1     -12.619 -47.172  -4.507  1.00  0.00    -0.423 OA
ENDROOT
TORSDOF 0
ENDMDL
MODEL 4
REMARK VINA RESULT:    -5.053      2.092      3.118
REMARK INTER + INTRA:          -5.053
REMARK INTER:                  -5.053
REMARK INTRA:                   0.000
REMARK UNBOUND:                 0.000
REMARK SMILES O=c1ccc2ccccc2o1
REMARK SMILES IDX 7 1 8 2 9 3 10 4 5 5 6 6 4 7 3 8 2 9 1 10 11 11
REMARK H PARENT
REMARK Flexibility Score: inf
ROOT
ATOM      1  C   UNL     1     -13.828 -49.180  -3.100  1.00  0.00     0.001 A 
ATOM      2  C   UNL     1     -13.406 -49.423  -1.789  1.00  0.00     0.004 A 
ATOM      3  C   UNL     1     -13.911 -48.656  -0.733  1.00  0.00     0.048 A 
ATOM      4  C   UNL     1     -14.842 -47.643  -0.987  1.00  0.00     0.138 A 
ATOM      5  C   UNL     1     -15.269 -47.397  -2.312  1.00  0.00     0.018 A 
ATOM      6  C   UNL     1     -14.758 -48.170  -3.365  1.00  0.00     0.012 A 
ATOM      7  C   UNL     1     -16.199 -46.377  -2.535  1.00  0.00     0.019 A 
ATOM      8  C   UNL     1     -16.675 -45.638  -1.452  1.00  0.00     0.094 A 
ATOM      9  C   UNL     1     -16.208 -45.937  -0.168  1.00  0.00     0.336 A 
ATOM     10  O   UNL     1     -16.627 -45.280   0.821  1.00  0.00    -0.246 OA
ATOM     11  O   UNL     1     -15.323 -46.913   0.017  1.00  0.00    -0.423 OA
ENDROOT
TORSDOF 0
ENDMDL
MODEL 5
REMARK VINA RESULT:    -5.017      1.834      2.482
REMARK INTER + INTRA:          -5.017
REMARK INTER:                  -5.017
REMARK INTRA:                   0.000
REMARK UNBOUND:                 0.000
REMARK SMILES O=c1ccc2ccccc2o1
REMARK SMILES IDX 7 1 8 2 9 3 10 4 5 5 6 6 4 7 3 8 2 9 1 10 11 11
REMARK H PARENT
REMARK Flexibility Score: inf
ROOT
ATOM      1  C   UNL     1     -13.718 -48.900  -5.610  1.00  0.00     0.001 A 
ATOM      2  C   UNL     1     -14.365 -49.352  -4.456  1.00  0.00     0.004 A 
ATOM      3  C   UNL     1     -14.115 -48.740  -3.223  1.00  0.00     0.048 A 
ATOM      4  C   UNL     1     -13.215 -47.672  -3.141  1.00  0.00     0.138 A 
ATOM      5  C   UNL     1     -12.559 -47.215  -4.308  1.00  0.00     0.018 A 
ATOM      6  C   UNL     1     -12.816 -47.833  -5.540  1.00  0.00     0.012 A 
ATOM      7  C   UNL     1     -11.665 -46.146  -4.195  1.00  0.00     0.019 A 
ATOM      8  C   UNL     1     -11.446 -45.567  -2.946  1.00  0.00     0.094 A 
ATOM      9  C   UNL     1     -12.129 -46.072  -1.834  1.00  0.00     0.336 A 
ATOM     10  O   UNL     1     -11.944 -45.561  -0.698  1.00  0.00    -0.246 OA
ATOM     11  O   UNL     1     -12.976 -47.090  -1.968  1.00  0.00    -0.423 OA
ENDROOT
TORSDOF 0
ENDMDL
MODEL 6
REMARK VINA RESULT:    -4.972      2.417      3.275
REMARK INTER + INTRA:          -4.972
REMARK INTER:                  -4.972
REMARK INTRA:                   0.000
REMARK UNBOUND:                 0.000
REMARK SMILES O=c1ccc2ccccc2o1
REMARK SMILES IDX 7 1 8 2 9 3 10 4 5 5 6 6 4 7 3 8 2 9 1 10 11 11
REMARK H PARENT
REMARK Flexibility Score: inf
ROOT
ATOM      1  C   UNL     1     -14.742 -49.352  -4.113  1.00  0.00     0.001 A 
ATOM      2  C   UNL     1     -13.975 -49.183  -5.269  1.00  0.00     0.004 A 
ATOM      3  C   UNL     1     -12.944 -48.237  -5.299  1.00  0.00     0.048 A 
ATOM      4  C   UNL     1     -12.679 -47.456  -4.169  1.00  0.00     0.138 A 
ATOM      5  C   UNL     1     -13.455 -47.625  -3.000  1.00  0.00     0.018 A 
ATOM      6  C   UNL     1     -14.486 -48.576  -2.978  1.00  0.00     0.012 A 
ATOM      7  C   UNL     1     -13.167 -46.830  -1.886  1.00  0.00     0.019 A 
ATOM      8  C   UNL     1     -12.131 -45.900  -1.961  1.00  0.00     0.094 A 
ATOM      9  C   UNL     1     -11.405 -45.786  -3.151  1.00  0.00     0.336 A 
ATOM     10  O   UNL     1     -10.466 -44.951  -3.237  1.00  0.00    -0.246 OA
ATOM     11  O   UNL     1     -11.699 -46.555  -4.196  1.00  0.00    -0.423 OA
ENDROOT
TORSDOF 0
ENDMDL
MODEL 7
REMARK VINA RESULT:    -4.953      1.352      2.200
REMARK INTER + INTRA:          -4.953
REMARK INTER:                  -4.953
REMARK INTRA:                   0.000
REMARK UNBOUND:                 0.000
REMARK SMILES O=c1ccc2ccccc2o1
REMARK SMILES IDX 7 1 8 2 9 3 10 4 5 5 6 6 4 7 3 8 2 9 1 10 11 11
REMARK H PARENT
REMARK Flexibility Score: inf
ROOT
ATOM      1  C   UNL     1     -13.646 -49.037  -5.594  1.00  0.00     0.001 A 
ATOM      2  C   UNL     1     -12.725 -47.985  -5.572  1.00  0.00     0.004 A 
ATOM      3  C   UNL     1     -12.664 -47.125  -4.471  1.00  0.00     0.048 A 
ATOM      4  C   UNL     1     -13.527 -47.315  -3.386  1.00  0.00     0.138 A 
ATOM      5  C   UNL     1     -14.459 -48.378  -3.407  1.00  0.00     0.018 A 
ATOM      6  C   UNL     1     -14.514 -49.236  -4.515  1.00  0.00     0.012 A 
ATOM      7  C   UNL     1     -15.308 -48.542  -2.309  1.00  0.00     0.019 A 
ATOM      8  C   UNL     1     -15.212 -47.660  -1.233  1.00  0.00     0.094 A 
ATOM      9  C   UNL     1     -14.267 -46.631  -1.281  1.00  0.00     0.336 A 
ATOM     10  O   UNL     1     -14.166 -45.825  -0.318  1.00  0.00    -0.246 OA
ATOM     11  O   UNL     1     -13.470 -46.496  -2.338  1.00  0.00    -0.423 OA
ENDROOT
TORSDOF 0
ENDMDL
MODEL 8
REMARK VINA RESULT:    -4.941      2.614      3.807
REMARK INTER + INTRA:          -4.941
REMARK INTER:                  -4.941
REMARK INTRA:                   0.000
REMARK UNBOUND:                 0.000
REMARK SMILES O=c1ccc2ccccc2o1
REMARK SMILES IDX 7 1 8 2 9 3 10 4 5 5 6 6 4 7 3 8 2 9 1 10 11 11
REMARK H PARENT
REMARK Flexibility Score: inf
ROOT
ATOM      1  C   UNL     1     -14.149 -49.140  -1.143  1.00  0.00     0.001 A 
ATOM      2  C   UNL     1     -13.477 -49.396  -2.343  1.00  0.00     0.004 A 
ATOM      3  C   UNL     1     -13.724 -48.605  -3.470  1.00  0.00     0.048 A 
ATOM      4  C   UNL     1     -14.644 -47.554  -3.400  1.00  0.00     0.138 A 
ATOM      5  C   UNL     1     -15.324 -47.295  -2.188  1.00  0.00     0.018 A 
ATOM      6  C   UNL     1     -15.071 -48.092  -1.062  1.00  0.00     0.012 A 
ATOM      7  C   UNL     1     -16.238 -46.238  -2.148  1.00  0.00     0.019 A 
ATOM      8  C   UNL     1     -16.452 -45.476  -3.296  1.00  0.00     0.094 A 
ATOM      9  C   UNL     1     -15.745 -45.790  -4.461  1.00  0.00     0.336 A 
ATOM     10  O   UNL     1     -15.925 -45.113  -5.507  1.00  0.00    -0.246 OA
ATOM     11  O   UNL     1     -14.879 -46.801  -4.472  1.00  0.00    -0.423 OA
ENDROOT
TORSDOF 0
ENDMDL
MODEL 9
REMARK VINA RESULT:    -4.930      2.316      3.257
REMARK INTER + INTRA:          -4.930
REMARK INTER:                  -4.930
REMARK INTRA:                   0.000
REMARK UNBOUND:                 0.000
REMARK SMILES O=c1ccc2ccccc2o1
REMARK SMILES IDX 7 1 8 2 9 3 10 4 5 5 6 6 4 7 3 8 2 9 1 10 11 11
REMARK H PARENT
REMARK Flexibility Score: inf
ROOT
ATOM      1  C   UNL     1     -13.344 -49.364  -1.480  1.00  0.00     0.001 A 
ATOM      2  C   UNL     1     -13.770 -49.379  -2.812  1.00  0.00     0.004 A 
ATOM      3  C   UNL     1     -14.750 -48.481  -3.248  1.00  0.00     0.048 A 
ATOM      4  C   UNL     1     -15.308 -47.564  -2.351  1.00  0.00     0.138 A 
ATOM      5  C   UNL     1     -14.878 -47.549  -1.004  1.00  0.00     0.018 A 
ATOM      6  C   UNL     1     -13.895 -48.452  -0.574  1.00  0.00     0.012 A 
ATOM      7  C   UNL     1     -15.455 -46.622  -0.131  1.00  0.00     0.019 A 
ATOM      8  C   UNL     1     -16.429 -45.746  -0.609  1.00  0.00     0.094 A 
ATOM      9  C   UNL     1     -16.805 -45.818  -1.954  1.00  0.00     0.336 A 
ATOM     10  O   UNL     1     -17.683 -45.036  -2.404  1.00  0.00    -0.246 OA
ATOM     11  O   UNL     1     -16.241 -46.710  -2.765  1.00  0.00    -0.423 OA
ENDROOT
TORSDOF 0
ENDMDL
