MODEL 1
REMARK VINA RESULT:    -3.842      0.000      0.000
REMARK INTER + INTRA:          -9.207
REMARK INTER:                  -6.986
REMARK INTRA:                  -2.222
REMARK UNBOUND:                -2.222
REMARK SMILES CCCCCCCCCCCCCC[C@H](C)C(=O)[O-]
REMARK SMILES IDX 9 1 10 2 11 3 12 4 13 5 14 6 15 7 16 8 17 9 18 10 19 11 8 12
REMARK SMILES IDX 7 13 6 14 5 15 4 16 3 17 2 18 1 19
REMARK H PARENT
REMARK Flexibility Score: inf
ROOT
ATOM      1  C   UNL     1      30.509  35.116  23.368  1.00  0.00     0.000 C 
ENDROOT
BRANCH   1   2
ATOM      2  C   UNL     1      29.023  35.059  23.753  1.00  0.00     0.000 C 
BRANCH   2   3
ATOM      3  C   UNL     1      28.433  33.675  23.460  1.00  0.00     0.000 C 
BRANCH   3   4
ATOM      4  C   UNL     1      29.375  32.850  22.574  1.00  0.00     0.000 C 
BRANCH   4   5
ATOM      5  C   UNL     1      28.798  32.687  21.161  1.00  0.00     0.001 C 
BRANCH   5   6
ATOM      6  C   UNL     1      27.347  33.192  21.040  1.00  0.00     0.009 C 
BRANCH   6   7
ATOM      7  C   UNL     1      27.099  34.198  19.891  1.00  0.00     0.032 C 
ATOM      8  C   UNL     1      27.018  35.648  20.386  1.00  0.00     0.014 C 
BRANCH   7   9
ATOM      9  C   UNL     1      25.830  33.834  19.167  1.00  0.00     0.044 C 
ATOM     10  O   UNL     1      25.471  34.475  18.143  1.00  0.00    -0.550 OA
ATOM     11  O   UNL     1      25.039  32.792  19.635  1.00  0.00    -0.550 OA
ENDBRANCH   7   9
ENDBRANCH   6   7
ENDBRANCH   5   6
ENDBRANCH   4   5
ENDBRANCH   3   4
ENDBRANCH   2   3
ENDBRANCH   1   2
BRANCH   1  12
ATOM     12  C   UNL     1      30.840  36.310  22.457  1.00  0.00     0.000 C 
BRANCH  12  13
ATOM     13  C   UNL     1      30.704  35.970  20.964  1.00  0.00    -0.000 C 
BRANCH  13  14
ATOM     14  C   UNL     1      31.755  34.938  20.539  1.00  0.00    -0.000 C 
BRANCH  14  15
ATOM     15  C   UNL     1      31.362  34.267  19.214  1.00  0.00    -0.000 C 
BRANCH  15  16
ATOM     16  C   UNL     1      32.190  33.005  18.921  1.00  0.00    -0.000 C 
BRANCH  16  17
ATOM     17  C   UNL     1      33.327  32.795  19.932  1.00  0.00    -0.000 C 
BRANCH  17  18
ATOM     18  C   UNL     1      34.448  31.941  19.326  1.00  0.00    -0.003 C 
ATOM     19  C   UNL     1      34.074  31.451  17.930  1.00  0.00     0.004 C 
ENDBRANCH  17  18
ENDBRANCH  16  17
ENDBRANCH  15  16
ENDBRANCH  14  15
ENDBRANCH  13  14
ENDBRANCH  12  13
ENDBRANCH   1  12
TORSDOF 14
ENDMDL
MODEL 2
REMARK VINA RESULT:    -3.835      3.516      5.957
REMARK INTER + INTRA:          -9.195
REMARK INTER:                  -7.098
REMARK INTRA:                  -2.097
REMARK UNBOUND:                -2.222
REMARK SMILES CCCCCCCCCCCCCC[C@H](C)C(=O)[O-]
REMARK SMILES IDX 9 1 10 2 11 3 12 4 13 5 14 6 15 7 16 8 17 9 18 10 19 11 8 12
REMARK SMILES IDX 7 13 6 14 5 15 4 16 3 17 2 18 1 19
REMARK H PARENT
REMARK Flexibility Score: inf
ROOT
ATOM      1  C   UNL     1      28.409  33.029  20.870  1.00  0.00     0.000 C 
ENDROOT
BRANCH   1   2
ATOM      2  C   UNL     1      29.508  33.188  19.809  1.00  0.00     0.000 C 
BRANCH   2   3
ATOM      3  C   UNL     1      30.096  34.604  19.835  1.00  0.00     0.000 C 
BRANCH   3   4
ATOM      4  C   UNL     1      31.518  34.621  19.259  1.00  0.00     0.000 C 
BRANCH   4   5
ATOM      5  C   UNL     1      31.796  33.351  18.443  1.00  0.00     0.001 C 
BRANCH   5   6
ATOM      6  C   UNL     1      33.253  33.256  17.952  1.00  0.00     0.009 C 
BRANCH   6   7
ATOM      7  C   UNL     1      33.462  33.592  16.456  1.00  0.00     0.032 C 
ATOM      8  C   UNL     1      32.213  34.206  15.811  1.00  0.00     0.014 C 
BRANCH   7   9
ATOM      9  C   UNL     1      33.862  32.347  15.710  1.00  0.00     0.044 C 
ATOM     10  O   UNL     1      34.374  31.371  16.321  1.00  0.00    -0.550 OA
ATOM     11  O   UNL     1      33.678  32.274  14.335  1.00  0.00    -0.550 OA
ENDBRANCH   7   9
ENDBRANCH   6   7
ENDBRANCH   5   6
ENDBRANCH   4   5
ENDBRANCH   3   4
ENDBRANCH   2   3
ENDBRANCH   1   2
BRANCH   1  12
ATOM     12  C   UNL     1      28.373  34.200  21.866  1.00  0.00     0.000 C 
BRANCH  12  13
ATOM     13  C   UNL     1      28.385  33.732  23.330  1.00  0.00    -0.000 C 
BRANCH  13  14
ATOM     14  C   UNL     1      28.627  34.911  24.280  1.00  0.00    -0.000 C 
BRANCH  14  15
ATOM     15  C   UNL     1      29.751  35.817  23.757  1.00  0.00    -0.000 C 
BRANCH  15  16
ATOM     16  C   UNL     1      31.146  35.345  24.197  1.00  0.00    -0.000 C 
BRANCH  16  17
ATOM     17  C   UNL     1      32.031  34.926  23.014  1.00  0.00    -0.000 C 
BRANCH  17  18
ATOM     18  C   UNL     1      31.999  33.406  22.816  1.00  0.00    -0.003 C 
ATOM     19  C   UNL     1      33.242  32.920  22.076  1.00  0.00     0.004 C 
ENDBRANCH  17  18
ENDBRANCH  16  17
ENDBRANCH  15  16
ENDBRANCH  14  15
ENDBRANCH  13  14
ENDBRANCH  12  13
ENDBRANCH   1  12
TORSDOF 14
ENDMDL
MODEL 3
REMARK VINA RESULT:    -3.716      3.405      6.465
REMARK INTER + INTRA:          -8.979
REMARK INTER:                  -6.948
REMARK INTRA:                  -2.031
REMARK UNBOUND:                -2.222
REMARK SMILES CCCCCCCCCCCCCC[C@H](C)C(=O)[O-]
REMARK SMILES IDX 9 1 10 2 11 3 12 4 13 5 14 6 15 7 16 8 17 9 18 10 19 11 8 12
REMARK SMILES IDX 7 13 6 14 5 15 4 16 3 17 2 18 1 19
REMARK H PARENT
REMARK Flexibility Score: inf
ROOT
ATOM      1  C   UNL     1      31.020  33.648  23.025  1.00  0.00     0.000 C 
ENDROOT
BRANCH   1   2
ATOM      2  C   UNL     1      31.963  33.489  21.822  1.00  0.00     0.000 C 
BRANCH   2   3
ATOM      3  C   UNL     1      31.745  34.614  20.802  1.00  0.00     0.000 C 
BRANCH   3   4
ATOM      4  C   UNL     1      30.681  34.223  19.769  1.00  0.00     0.000 C 
BRANCH   4   5
ATOM      5  C   UNL     1      31.233  33.190  18.776  1.00  0.00     0.001 C 
BRANCH   5   6
ATOM      6  C   UNL     1      32.335  33.761  17.863  1.00  0.00     0.009 C 
BRANCH   6   7
ATOM      7  C   UNL     1      33.661  32.964  17.863  1.00  0.00     0.032 C 
ATOM      8  C   UNL     1      33.572  31.674  18.688  1.00  0.00     0.014 C 
BRANCH   7   9
ATOM      9  C   UNL     1      34.772  33.832  18.390  1.00  0.00     0.044 C 
ATOM     10  O   UNL     1      34.960  33.948  19.631  1.00  0.00    -0.550 OA
ATOM     11  O   UNL     1      35.592  34.522  17.506  1.00  0.00    -0.550 OA
ENDBRANCH   7   9
ENDBRANCH   6   7
ENDBRANCH   5   6
ENDBRANCH   4   5
ENDBRANCH   3   4
ENDBRANCH   2   3
ENDBRANCH   1   2
BRANCH   1  12
ATOM     12  C   UNL     1      29.789  32.731  22.938  1.00  0.00     0.000 C 
BRANCH  12  13
ATOM     13  C   UNL     1      28.487  33.451  23.322  1.00  0.00    -0.000 C 
BRANCH  13  14
ATOM     14  C   UNL     1      28.752  34.927  23.644  1.00  0.00    -0.000 C 
BRANCH  14  15
ATOM     15  C   UNL     1      27.831  35.843  22.823  1.00  0.00    -0.000 C 
BRANCH  15  16
ATOM     16  C   UNL     1      28.096  35.747  21.311  1.00  0.00    -0.000 C 
BRANCH  16  17
ATOM     17  C   UNL     1      26.844  35.349  20.515  1.00  0.00    -0.000 C 
BRANCH  17  18
ATOM     18  C   UNL     1      26.944  33.899  20.026  1.00  0.00    -0.003 C 
ATOM     19  C   UNL     1      25.590  33.199  20.095  1.00  0.00     0.004 C 
ENDBRANCH  17  18
ENDBRANCH  16  17
ENDBRANCH  15  16
ENDBRANCH  14  15
ENDBRANCH  13  14
ENDBRANCH  12  13
ENDBRANCH   1  12
TORSDOF 14
ENDMDL
MODEL 4
REMARK VINA RESULT:    -3.703      3.306      6.262
REMARK INTER + INTRA:          -8.955
REMARK INTER:                  -6.753
REMARK INTRA:                  -2.202
REMARK UNBOUND:                -2.222
REMARK SMILES CCCCCCCCCCCCCC[C@H](C)C(=O)[O-]
REMARK SMILES IDX 9 1 10 2 11 3 12 4 13 5 14 6 15 7 16 8 17 9 18 10 19 11 8 12
REMARK SMILES IDX 7 13 6 14 5 15 4 16 3 17 2 18 1 19
REMARK H PARENT
REMARK Flexibility Score: inf
ROOT
ATOM      1  C   UNL     1      32.070  34.541  21.077  1.00  0.00     0.000 C 
ENDROOT
BRANCH   1   2
ATOM      2  C   UNL     1      33.549  34.855  20.804  1.00  0.00     0.000 C 
BRANCH   2   3
ATOM      3  C   UNL     1      34.456  33.747  21.354  1.00  0.00     0.000 C 
BRANCH   3   4
ATOM      4  C   UNL     1      33.964  32.363  20.913  1.00  0.00     0.000 C 
BRANCH   4   5
ATOM      5  C   UNL     1      34.581  31.964  19.564  1.00  0.00     0.001 C 
BRANCH   5   6
ATOM      6  C   UNL     1      33.538  31.849  18.435  1.00  0.00     0.009 C 
BRANCH   6   7
ATOM      7  C   UNL     1      33.634  32.940  17.343  1.00  0.00     0.032 C 
ATOM      8  C   UNL     1      32.383  33.826  17.286  1.00  0.00     0.014 C 
BRANCH   7   9
ATOM      9  C   UNL     1      33.864  32.294  16.003  1.00  0.00     0.044 C 
ATOM     10  O   UNL     1      33.687  32.946  14.939  1.00  0.00    -0.550 OA
ATOM     11  O   UNL     1      34.264  30.965  15.934  1.00  0.00    -0.550 OA
ENDBRANCH   7   9
ENDBRANCH   6   7
ENDBRANCH   5   6
ENDBRANCH   4   5
ENDBRANCH   3   4
ENDBRANCH   2   3
ENDBRANCH   1   2
BRANCH   1  12
ATOM     12  C   UNL     1      31.495  35.365  22.241  1.00  0.00     0.000 C 
BRANCH  12  13
ATOM     13  C   UNL     1      30.929  34.484  23.365  1.00  0.00    -0.000 C 
BRANCH  13  14
ATOM     14  C   UNL     1      30.975  33.001  22.976  1.00  0.00    -0.000 C 
BRANCH  14  15
ATOM     15  C   UNL     1      29.582  32.361  23.083  1.00  0.00    -0.000 C 
BRANCH  15  16
ATOM     16  C   UNL     1      28.483  33.224  22.441  1.00  0.00    -0.000 C 
BRANCH  16  17
ATOM     17  C   UNL     1      28.443  33.089  20.912  1.00  0.00    -0.000 C 
BRANCH  17  18
ATOM     18  C   UNL     1      27.935  34.381  20.261  1.00  0.00    -0.003 C 
ATOM     19  C   UNL     1      27.877  35.523  21.273  1.00  0.00     0.004 C 
ENDBRANCH  17  18
ENDBRANCH  16  17
ENDBRANCH  15  16
ENDBRANCH  14  15
ENDBRANCH  13  14
ENDBRANCH  12  13
ENDBRANCH   1  12
TORSDOF 14
ENDMDL
MODEL 5
REMARK VINA RESULT:    -3.697      3.110      5.911
REMARK INTER + INTRA:          -8.944
REMARK INTER:                  -6.862
REMARK INTRA:                  -2.081
REMARK UNBOUND:                -2.222
REMARK SMILES CCCCCCCCCCCCCC[C@H](C)C(=O)[O-]
REMARK SMILES IDX 9 1 10 2 11 3 12 4 13 5 14 6 15 7 16 8 17 9 18 10 19 11 8 12
REMARK SMILES IDX 7 13 6 14 5 15 4 16 3 17 2 18 1 19
REMARK H PARENT
REMARK Flexibility Score: inf
ROOT
ATOM      1  C   UNL     1      30.766  36.092  22.485  1.00  0.00     0.000 C 
ENDROOT
BRANCH   1   2
ATOM      2  C   UNL     1      32.187  36.601  22.772  1.00  0.00     0.000 C 
BRANCH   2   3
ATOM      3  C   UNL     1      33.053  35.495  23.386  1.00  0.00     0.000 C 
BRANCH   3   4
ATOM      4  C   UNL     1      34.054  34.945  22.361  1.00  0.00     0.000 C 
BRANCH   4   5
ATOM      5  C   UNL     1      33.911  33.423  22.216  1.00  0.00     0.001 C 
BRANCH   5   6
ATOM      6  C   UNL     1      32.845  33.014  21.180  1.00  0.00     0.009 C 
BRANCH   6   7
ATOM      7  C   UNL     1      32.869  33.825  19.863  1.00  0.00     0.032 C 
ATOM      8  C   UNL     1      31.462  34.180  19.365  1.00  0.00     0.014 C 
BRANCH   7   9
ATOM      9  C   UNL     1      33.604  33.047  18.805  1.00  0.00     0.044 C 
ATOM     10  O   UNL     1      34.173  33.643  17.850  1.00  0.00    -0.550 OA
ATOM     11  O   UNL     1      33.649  31.659  18.869  1.00  0.00    -0.550 OA
ENDBRANCH   7   9
ENDBRANCH   6   7
ENDBRANCH   5   6
ENDBRANCH   4   5
ENDBRANCH   3   4
ENDBRANCH   2   3
ENDBRANCH   1   2
BRANCH   1  12
ATOM     12  C   UNL     1      30.445  34.783  23.225  1.00  0.00     0.000 C 
BRANCH  12  13
ATOM     13  C   UNL     1      29.006  34.744  23.761  1.00  0.00    -0.000 C 
BRANCH  13  14
ATOM     14  C   UNL     1      28.298  33.452  23.336  1.00  0.00    -0.000 C 
BRANCH  14  15
ATOM     15  C   UNL     1      29.086  32.730  22.233  1.00  0.00    -0.000 C 
BRANCH  15  16
ATOM     16  C   UNL     1      28.410  32.835  20.856  1.00  0.00    -0.000 C 
BRANCH  16  17
ATOM     17  C   UNL     1      27.150  33.713  20.881  1.00  0.00    -0.000 C 
BRANCH  17  18
ATOM     18  C   UNL     1      26.278  33.453  19.647  1.00  0.00    -0.003 C 
ATOM     19  C   UNL     1      24.991  32.724  20.025  1.00  0.00     0.004 C 
ENDBRANCH  17  18
ENDBRANCH  16  17
ENDBRANCH  15  16
ENDBRANCH  14  15
ENDBRANCH  13  14
ENDBRANCH  12  13
ENDBRANCH   1  12
TORSDOF 14
ENDMDL
MODEL 6
REMARK VINA RESULT:    -3.689      3.384      6.693
REMARK INTER + INTRA:          -8.930
REMARK INTER:                  -7.431
REMARK INTRA:                  -1.499
REMARK UNBOUND:                -2.222
REMARK SMILES CCCCCCCCCCCCCC[C@H](C)C(=O)[O-]
REMARK SMILES IDX 9 1 10 2 11 3 12 4 13 5 14 6 15 7 16 8 17 9 18 10 19 11 8 12
REMARK SMILES IDX 7 13 6 14 5 15 4 16 3 17 2 18 1 19
REMARK H PARENT
REMARK Flexibility Score: inf
ROOT
ATOM      1  C   UNL     1      31.787  33.421  22.060  1.00  0.00     0.000 C 
ENDROOT
BRANCH   1   2
ATOM      2  C   UNL     1      31.544  34.852  21.556  1.00  0.00     0.000 C 
BRANCH   2   3
ATOM      3  C   UNL     1      31.076  34.848  20.096  1.00  0.00     0.000 C 
BRANCH   3   4
ATOM      4  C   UNL     1      31.092  33.428  19.516  1.00  0.00     0.000 C 
BRANCH   4   5
ATOM      5  C   UNL     1      32.226  33.265  18.493  1.00  0.00     0.001 C 
BRANCH   5   6
ATOM      6  C   UNL     1      33.162  32.084  18.812  1.00  0.00     0.009 C 
BRANCH   6   7
ATOM      7  C   UNL     1      34.613  32.244  18.303  1.00  0.00     0.032 C 
ATOM      8  C   UNL     1      35.263  33.551  18.777  1.00  0.00     0.014 C 
BRANCH   7   9
ATOM      9  C   UNL     1      34.630  32.182  16.799  1.00  0.00     0.044 C 
ATOM     10  O   UNL     1      35.013  33.173  16.121  1.00  0.00    -0.550 OA
ATOM     11  O   UNL     1      34.210  31.028  16.148  1.00  0.00    -0.550 OA
ENDBRANCH   7   9
ENDBRANCH   6   7
ENDBRANCH   5   6
ENDBRANCH   4   5
ENDBRANCH   3   4
ENDBRANCH   2   3
ENDBRANCH   1   2
BRANCH   1  12
ATOM     12  C   UNL     1      30.608  32.874  22.880  1.00  0.00     0.000 C 
BRANCH  12  13
ATOM     13  C   UNL     1      29.608  33.969  23.282  1.00  0.00    -0.000 C 
BRANCH  13  14
ATOM     14  C   UNL     1      28.186  33.603  22.839  1.00  0.00    -0.000 C 
BRANCH  14  15
ATOM     15  C   UNL     1      27.831  34.290  21.511  1.00  0.00    -0.000 C 
BRANCH  15  16
ATOM     16  C   UNL     1      27.226  33.318  20.485  1.00  0.00    -0.000 C 
BRANCH  16  17
ATOM     17  C   UNL     1      26.307  34.019  19.474  1.00  0.00    -0.000 C 
BRANCH  17  18
ATOM     18  C   UNL     1      24.895  33.423  19.513  1.00  0.00    -0.003 C 
ATOM     19  C   UNL     1      24.875  32.099  20.272  1.00  0.00     0.004 C 
ENDBRANCH  17  18
ENDBRANCH  16  17
ENDBRANCH  15  16
ENDBRANCH  14  15
ENDBRANCH  13  14
ENDBRANCH  12  13
ENDBRANCH   1  12
TORSDOF 14
ENDMDL
MODEL 7
REMARK VINA RESULT:    -3.678      1.772      3.228
REMARK INTER + INTRA:          -8.910
REMARK INTER:                  -6.746
REMARK INTRA:                  -2.164
REMARK UNBOUND:                -2.222
REMARK SMILES CCCCCCCCCCCCCC[C@H](C)C(=O)[O-]
REMARK SMILES IDX 9 1 10 2 11 3 12 4 13 5 14 6 15 7 16 8 17 9 18 10 19 11 8 12
REMARK SMILES IDX 7 13 6 14 5 15 4 16 3 17 2 18 1 19
REMARK H PARENT
REMARK Flexibility Score: inf
ROOT
ATOM      1  C   UNL     1      32.439  34.069  20.717  1.00  0.00     0.000 C 
ENDROOT
BRANCH   1   2
ATOM      2  C   UNL     1      32.532  33.177  21.964  1.00  0.00     0.000 C 
BRANCH   2   3
ATOM      3  C   UNL     1      31.465  33.561  22.995  1.00  0.00     0.000 C 
BRANCH   3   4
ATOM      4  C   UNL     1      30.366  32.493  23.076  1.00  0.00     0.000 C 
BRANCH   4   5
ATOM      5  C   UNL     1      29.000  33.081  22.696  1.00  0.00     0.001 C 
BRANCH   5   6
ATOM      6  C   UNL     1      28.542  32.675  21.282  1.00  0.00     0.009 C 
BRANCH   6   7
ATOM      7  C   UNL     1      28.303  33.854  20.309  1.00  0.00     0.032 C 
ATOM      8  C   UNL     1      28.795  35.193  20.875  1.00  0.00     0.014 C 
BRANCH   7   9
ATOM      9  C   UNL     1      26.838  33.947  19.977  1.00  0.00     0.044 C 
ATOM     10  O   UNL     1      26.380  34.956  19.376  1.00  0.00    -0.550 OA
ATOM     11  O   UNL     1      25.977  32.920  20.346  1.00  0.00    -0.550 OA
ENDBRANCH   7   9
ENDBRANCH   6   7
ENDBRANCH   5   6
ENDBRANCH   4   5
ENDBRANCH   3   4
ENDBRANCH   2   3
ENDBRANCH   1   2
BRANCH   1  12
ATOM     12  C   UNL     1      31.799  33.349  19.520  1.00  0.00     0.000 C 
BRANCH  12  13
ATOM     13  C   UNL     1      32.796  33.102  18.376  1.00  0.00    -0.000 C 
BRANCH  13  14
ATOM     14  C   UNL     1      33.483  31.740  18.533  1.00  0.00    -0.000 C 
BRANCH  14  15
ATOM     15  C   UNL     1      35.009  31.900  18.607  1.00  0.00    -0.000 C 
BRANCH  15  16
ATOM     16  C   UNL     1      35.525  31.991  20.053  1.00  0.00    -0.000 C 
BRANCH  16  17
ATOM     17  C   UNL     1      36.590  33.083  20.234  1.00  0.00    -0.000 C 
BRANCH  17  18
ATOM     18  C   UNL     1      36.158  34.098  21.298  1.00  0.00    -0.003 C 
ATOM     19  C   UNL     1      36.156  33.471  22.690  1.00  0.00     0.004 C 
ENDBRANCH  17  18
ENDBRANCH  16  17
ENDBRANCH  15  16
ENDBRANCH  14  15
ENDBRANCH  13  14
ENDBRANCH  12  13
ENDBRANCH   1  12
TORSDOF 14
ENDMDL
MODEL 8
REMARK VINA RESULT:    -3.627      1.254      2.217
REMARK INTER + INTRA:          -8.817
REMARK INTER:                  -7.126
REMARK INTRA:                  -1.691
REMARK UNBOUND:                -2.222
REMARK SMILES CCCCCCCCCCCCCC[C@H](C)C(=O)[O-]
REMARK SMILES IDX 9 1 10 2 11 3 12 4 13 5 14 6 15 7 16 8 17 9 18 10 19 11 8 12
REMARK SMILES IDX 7 13 6 14 5 15 4 16 3 17 2 18 1 19
REMARK H PARENT
REMARK Flexibility Score: inf
ROOT
ATOM      1  C   UNL     1      31.627  35.039  21.337  1.00  0.00     0.000 C 
ENDROOT
BRANCH   1   2
ATOM      2  C   UNL     1      30.777  34.660  22.559  1.00  0.00     0.000 C 
BRANCH   2   3
ATOM      3  C   UNL     1      30.750  33.140  22.758  1.00  0.00     0.000 C 
BRANCH   3   4
ATOM      4  C   UNL     1      29.322  32.643  23.020  1.00  0.00     0.000 C 
BRANCH   4   5
ATOM      5  C   UNL     1      28.290  33.560  22.348  1.00  0.00     0.001 C 
BRANCH   5   6
ATOM      6  C   UNL     1      27.703  32.962  21.054  1.00  0.00     0.009 C 
BRANCH   6   7
ATOM      7  C   UNL     1      27.230  34.001  20.010  1.00  0.00     0.032 C 
ATOM      8  C   UNL     1      27.131  35.417  20.592  1.00  0.00     0.014 C 
BRANCH   7   9
ATOM      9  C   UNL     1      25.896  33.584  19.452  1.00  0.00     0.044 C 
ATOM     10  O   UNL     1      25.387  34.203  18.479  1.00  0.00    -0.550 OA
ATOM     11  O   UNL     1      25.210  32.517  20.019  1.00  0.00    -0.550 OA
ENDBRANCH   7   9
ENDBRANCH   6   7
ENDBRANCH   5   6
ENDBRANCH   4   5
ENDBRANCH   3   4
ENDBRANCH   2   3
ENDBRANCH   1   2
BRANCH   1  12
ATOM     12  C   UNL     1      30.829  34.999  20.024  1.00  0.00     0.000 C 
BRANCH  12  13
ATOM     13  C   UNL     1      30.971  33.659  19.286  1.00  0.00    -0.000 C 
BRANCH  13  14
ATOM     14  C   UNL     1      32.366  33.520  18.663  1.00  0.00    -0.000 C 
BRANCH  14  15
ATOM     15  C   UNL     1      32.896  32.086  18.815  1.00  0.00    -0.000 C 
BRANCH  15  16
ATOM     16  C   UNL     1      34.299  31.907  18.213  1.00  0.00    -0.000 C 
BRANCH  16  17
ATOM     17  C   UNL     1      34.261  31.430  16.754  1.00  0.00    -0.000 C 
BRANCH  17  18
ATOM     18  C   UNL     1      34.472  32.602  15.788  1.00  0.00    -0.003 C 
ATOM     19  C   UNL     1      33.559  32.484  14.571  1.00  0.00     0.004 C 
ENDBRANCH  17  18
ENDBRANCH  16  17
ENDBRANCH  15  16
ENDBRANCH  14  15
ENDBRANCH  13  14
ENDBRANCH  12  13
ENDBRANCH   1  12
TORSDOF 14
ENDMDL
MODEL 9
REMARK VINA RESULT:    -3.625      3.699      6.259
REMARK INTER + INTRA:          -8.813
REMARK INTER:                  -5.895
REMARK INTRA:                  -2.918
REMARK UNBOUND:                -2.222
REMARK SMILES CCCCCCCCCCCCCC[C@H](C)C(=O)[O-]
REMARK SMILES IDX 9 1 10 2 11 3 12 4 13 5 14 6 15 7 16 8 17 9 18 10 19 11 8 12
REMARK SMILES IDX 7 13 6 14 5 15 4 16 3 17 2 18 1 19
REMARK H PARENT
REMARK Flexibility Score: inf
ROOT
ATOM      1  C   UNL     1      29.454  35.657  24.392  1.00  0.00     0.000 C 
ENDROOT
BRANCH   1   2
ATOM      2  C   UNL     1      30.848  35.092  24.081  1.00  0.00     0.000 C 
BRANCH   2   3
ATOM      3  C   UNL     1      31.556  35.936  23.014  1.00  0.00     0.000 C 
BRANCH   3   4
ATOM      4  C   UNL     1      32.520  35.079  22.183  1.00  0.00     0.000 C 
BRANCH   4   5
ATOM      5  C   UNL     1      32.466  33.608  22.623  1.00  0.00     0.001 C 
BRANCH   5   6
ATOM      6  C   UNL     1      33.253  32.670  21.687  1.00  0.00     0.009 C 
BRANCH   6   7
ATOM      7  C   UNL     1      33.640  33.284  20.321  1.00  0.00     0.032 C 
ATOM      8  C   UNL     1      32.725  32.812  19.183  1.00  0.00     0.014 C 
BRANCH   7   9
ATOM      9  C   UNL     1      35.070  32.942  20.001  1.00  0.00     0.044 C 
ATOM     10  O   UNL     1      35.431  31.740  19.883  1.00  0.00    -0.550 OA
ATOM     11  O   UNL     1      36.007  33.957  19.844  1.00  0.00    -0.550 OA
ENDBRANCH   7   9
ENDBRANCH   6   7
ENDBRANCH   5   6
ENDBRANCH   4   5
ENDBRANCH   3   4
ENDBRANCH   2   3
ENDBRANCH   1   2
BRANCH   1  12
ATOM     12  C   UNL     1      28.325  34.672  24.048  1.00  0.00     0.000 C 
BRANCH  12  13
ATOM     13  C   UNL     1      28.842  33.394  23.368  1.00  0.00    -0.000 C 
BRANCH  13  14
ATOM     14  C   UNL     1      28.170  33.188  22.005  1.00  0.00    -0.000 C 
BRANCH  14  15
ATOM     15  C   UNL     1      29.212  33.163  20.877  1.00  0.00    -0.000 C 
BRANCH  15  16
ATOM     16  C   UNL     1      29.483  34.558  20.289  1.00  0.00    -0.000 C 
BRANCH  16  17
ATOM     17  C   UNL     1      28.263  35.485  20.379  1.00  0.00    -0.000 C 
BRANCH  17  18
ATOM     18  C   UNL     1      28.667  36.876  20.881  1.00  0.00    -0.003 C 
ATOM     19  C   UNL     1      27.573  37.488  21.752  1.00  0.00     0.004 C 
ENDBRANCH  17  18
ENDBRANCH  16  17
ENDBRANCH  15  16
ENDBRANCH  14  15
ENDBRANCH  13  14
ENDBRANCH  12  13
ENDBRANCH   1  12
TORSDOF 14
ENDMDL
