MODEL 1
REMARK VINA RESULT:    -2.748      0.000      0.000
REMARK INTER + INTRA:          -2.989
REMARK INTER:                  -2.989
REMARK INTRA:                   0.000
REMARK UNBOUND:                 0.000
REMARK SMILES [NH3+]CC(=O)[O-]
REMARK SMILES IDX 2 1 1 2 3 6 4 7 5 8
REMARK H PARENT 1 3 1 4 1 5
REMARK Flexibility Score: inf
ROOT
ATOM      1  C   UNL     1     194.569 209.972 216.485  1.00  0.00     0.312 C 
ENDROOT
BRANCH   1   2
ATOM      2  N   UNL     1     195.841 210.614 216.812  1.00  0.00    -0.353 N 
ATOM      3  H   UNL     1     195.692 211.646 216.894  1.00  0.00     0.344 HD
ATOM      4  H   UNL     1     196.540 210.433 216.055  1.00  0.00     0.344 HD
ATOM      5  H   UNL     1     196.204 210.251 217.723  1.00  0.00     0.344 HD
ENDBRANCH   1   2
BRANCH   1   6
ATOM      6  C   UNL     1     194.514 209.621 215.030  1.00  0.00     0.096 C 
ATOM      7  O   UNL     1     194.933 210.435 214.165  1.00  0.00    -0.544 OA
ATOM      8  O   UNL     1     194.047 208.375 214.633  1.00  0.00    -0.544 OA
ENDBRANCH   1   6
TORSDOF 2
ENDMDL
MODEL 2
REMARK VINA RESULT:    -2.641     22.143     22.235
REMARK INTER + INTRA:          -2.873
REMARK INTER:                  -2.873
REMARK INTRA:                   0.000
REMARK UNBOUND:                 0.000
REMARK SMILES [NH3+]CC(=O)[O-]
REMARK SMILES IDX 2 1 1 2 3 6 4 7 5 8
REMARK H PARENT 1 3 1 4 1 5
REMARK Flexibility Score: inf
ROOT
ATOM      1  C   UNL     1     212.947 197.059 216.641  1.00  0.00     0.312 C 
ENDROOT
BRANCH   1   2
ATOM      2  N   UNL     1     211.776 196.197 216.791  1.00  0.00    -0.353 N 
ATOM      3  H   UNL     1     211.024 196.726 217.289  1.00  0.00     0.344 HD
ATOM      4  H   UNL     1     212.023 195.350 217.353  1.00  0.00     0.344 HD
ATOM      5  H   UNL     1     211.420 195.907 215.851  1.00  0.00     0.344 HD
ENDBRANCH   1   2
BRANCH   1   6
ATOM      6  C   UNL     1     213.224 197.326 215.194  1.00  0.00     0.096 C 
ATOM      7  O   UNL     1     212.894 196.482 214.319  1.00  0.00    -0.544 OA
ATOM      8  O   UNL     1     213.799 198.529 214.806  1.00  0.00    -0.544 OA
ENDBRANCH   1   6
TORSDOF 2
ENDMDL
MODEL 3
REMARK VINA RESULT:    -2.613      2.330      2.512
REMARK INTER + INTRA:          -2.842
REMARK INTER:                  -2.842
REMARK INTRA:                   0.000
REMARK UNBOUND:                 0.000
REMARK SMILES [NH3+]CC(=O)[O-]
REMARK SMILES IDX 2 1 1 2 3 6 4 7 5 8
REMARK H PARENT 1 3 1 4 1 5
REMARK Flexibility Score: inf
ROOT
ATOM      1  C   UNL     1     194.946 209.958 214.439  1.00  0.00     0.312 C 
ENDROOT
BRANCH   1   2
ATOM      2  N   UNL     1     194.251 211.125 213.900  1.00  0.00    -0.353 N 
ATOM      3  H   UNL     1     193.727 211.597 214.673  1.00  0.00     0.344 HD
ATOM      4  H   UNL     1     193.570 210.829 213.162  1.00  0.00     0.344 HD
ATOM      5  H   UNL     1     194.939 211.800 213.497  1.00  0.00     0.344 HD
ENDBRANCH   1   2
BRANCH   1   6
ATOM      6  C   UNL     1     195.030 210.036 215.932  1.00  0.00     0.096 C 
ATOM      7  O   UNL     1     196.151 210.006 216.506  1.00  0.00    -0.544 OA
ATOM      8  O   UNL     1     193.875 210.193 216.686  1.00  0.00    -0.544 OA
ENDBRANCH   1   6
TORSDOF 2
ENDMDL
MODEL 4
REMARK VINA RESULT:    -2.588     22.312     22.418
REMARK INTER + INTRA:          -2.814
REMARK INTER:                  -2.814
REMARK INTRA:                   0.000
REMARK UNBOUND:                 0.000
REMARK SMILES [NH3+]CC(=O)[O-]
REMARK SMILES IDX 2 1 1 2 3 6 4 7 5 8
REMARK H PARENT 1 3 1 4 1 5
REMARK Flexibility Score: inf
ROOT
ATOM      1  C   UNL     1     213.280 197.064 215.215  1.00  0.00     0.312 C 
ENDROOT
BRANCH   1   2
ATOM      2  N   UNL     1     212.736 195.983 216.034  1.00  0.00    -0.353 N 
ATOM      3  H   UNL     1     211.880 195.600 215.569  1.00  0.00     0.344 HD
ATOM      4  H   UNL     1     212.473 196.346 216.980  1.00  0.00     0.344 HD
ATOM      5  H   UNL     1     213.439 195.216 216.132  1.00  0.00     0.344 HD
ENDBRANCH   1   2
BRANCH   1   6
ATOM      6  C   UNL     1     212.894 196.885 213.780  1.00  0.00     0.096 C 
ATOM      7  O   UNL     1     212.282 197.802 213.169  1.00  0.00    -0.544 OA
ATOM      8  O   UNL     1     213.253 195.728 213.101  1.00  0.00    -0.544 OA
ENDBRANCH   1   6
TORSDOF 2
ENDMDL
MODEL 5
REMARK VINA RESULT:    -2.516     22.416     22.570
REMARK INTER + INTRA:          -2.737
REMARK INTER:                  -2.737
REMARK INTRA:                   0.000
REMARK UNBOUND:                 0.000
REMARK SMILES [NH3+]CC(=O)[O-]
REMARK SMILES IDX 2 1 1 2 3 6 4 7 5 8
REMARK H PARENT 1 3 1 4 1 5
REMARK Flexibility Score: inf
ROOT
ATOM      1  C   UNL     1     212.720 196.855 214.396  1.00  0.00     0.312 C 
ENDROOT
BRANCH   1   2
ATOM      2  N   UNL     1     213.450 195.709 213.856  1.00  0.00    -0.353 N 
ATOM      3  H   UNL     1     213.481 194.953 214.578  1.00  0.00     0.344 HD
ATOM      4  H   UNL     1     214.430 195.988 213.616  1.00  0.00     0.344 HD
ATOM      5  H   UNL     1     212.967 195.344 213.004  1.00  0.00     0.344 HD
ENDBRANCH   1   2
BRANCH   1   6
ATOM      6  C   UNL     1     212.721 196.823 215.893  1.00  0.00     0.096 C 
ATOM      7  O   UNL     1     211.633 196.787 216.526  1.00  0.00    -0.544 OA
ATOM      8  O   UNL     1     213.922 196.781 216.587  1.00  0.00    -0.544 OA
ENDBRANCH   1   6
TORSDOF 2
ENDMDL
MODEL 6
REMARK VINA RESULT:    -2.510     22.252     22.338
REMARK INTER + INTRA:          -2.730
REMARK INTER:                  -2.730
REMARK INTRA:                   0.000
REMARK UNBOUND:                 0.000
REMARK SMILES [NH3+]CC(=O)[O-]
REMARK SMILES IDX 2 1 1 2 3 6 4 7 5 8
REMARK H PARENT 1 3 1 4 1 5
REMARK Flexibility Score: inf
ROOT
ATOM      1  C   UNL     1     212.274 196.761 215.943  1.00  0.00     0.312 C 
ENDROOT
BRANCH   1   2
ATOM      2  N   UNL     1     211.157 197.081 216.829  1.00  0.00    -0.353 N 
ATOM      3  H   UNL     1     211.155 198.109 217.020  1.00  0.00     0.344 HD
ATOM      4  H   UNL     1     211.259 196.569 217.736  1.00  0.00     0.344 HD
ATOM      5  H   UNL     1     210.251 196.820 216.375  1.00  0.00     0.344 HD
ENDBRANCH   1   2
BRANCH   1   6
ATOM      6  C   UNL     1     213.565 197.246 216.525  1.00  0.00     0.096 C 
ATOM      7  O   UNL     1     214.125 198.274 216.058  1.00  0.00    -0.544 OA
ATOM      8  O   UNL     1     214.124 196.595 217.617  1.00  0.00    -0.544 OA
ENDBRANCH   1   6
TORSDOF 2
ENDMDL
MODEL 7
REMARK VINA RESULT:    -2.497     22.583     22.753
REMARK INTER + INTRA:          -2.716
REMARK INTER:                  -2.716
REMARK INTRA:                   0.000
REMARK UNBOUND:                 0.000
REMARK SMILES [NH3+]CC(=O)[O-]
REMARK SMILES IDX 2 1 1 2 3 6 4 7 5 8
REMARK H PARENT 1 3 1 4 1 5
REMARK Flexibility Score: inf
ROOT
ATOM      1  C   UNL     1     213.074 195.886 212.171  1.00  0.00     0.312 C 
ENDROOT
BRANCH   1   2
ATOM      2  N   UNL     1     213.452 194.624 212.805  1.00  0.00    -0.353 N 
ATOM      3  H   UNL     1     212.640 194.261 213.355  1.00  0.00     0.344 HD
ATOM      4  H   UNL     1     214.259 194.775 213.453  1.00  0.00     0.344 HD
ATOM      5  H   UNL     1     213.710 193.919 212.077  1.00  0.00     0.344 HD
ENDBRANCH   1   2
BRANCH   1   6
ATOM      6  C   UNL     1     212.706 196.906 213.203  1.00  0.00     0.096 C 
ATOM      7  O   UNL     1     212.733 196.607 214.427  1.00  0.00    -0.544 OA
ATOM      8  O   UNL     1     212.383 198.200 212.818  1.00  0.00    -0.544 OA
ENDBRANCH   1   6
TORSDOF 2
ENDMDL
MODEL 8
REMARK VINA RESULT:    -2.464     16.265     16.567
REMARK INTER + INTRA:          -2.680
REMARK INTER:                  -2.680
REMARK INTRA:                   0.000
REMARK UNBOUND:                 0.000
REMARK SMILES [NH3+]CC(=O)[O-]
REMARK SMILES IDX 2 1 1 2 3 6 4 7 5 8
REMARK H PARENT 1 3 1 4 1 5
REMARK Flexibility Score: inf
ROOT
ATOM      1  C   UNL     1     210.233 212.292 214.625  1.00  0.00     0.312 C 
ENDROOT
BRANCH   1   2
ATOM      2  N   UNL     1     209.997 212.243 216.067  1.00  0.00    -0.353 N 
ATOM      3  H   UNL     1     209.005 212.511 216.260  1.00  0.00     0.344 HD
ATOM      4  H   UNL     1     210.631 212.915 216.558  1.00  0.00     0.344 HD
ATOM      5  H   UNL     1     210.161 211.275 216.426  1.00  0.00     0.344 HD
ENDBRANCH   1   2
BRANCH   1   6
ATOM      6  C   UNL     1     211.090 213.468 214.270  1.00  0.00     0.096 C 
ATOM      7  O   UNL     1     211.121 213.895 213.086  1.00  0.00    -0.544 OA
ATOM      8  O   UNL     1     211.813 214.125 215.257  1.00  0.00    -0.544 OA
ENDBRANCH   1   6
TORSDOF 2
ENDMDL
MODEL 9
REMARK VINA RESULT:    -2.450     21.474     21.642
REMARK INTER + INTRA:          -2.665
REMARK INTER:                  -2.665
REMARK INTRA:                   0.000
REMARK UNBOUND:                 0.000
REMARK SMILES [NH3+]CC(=O)[O-]
REMARK SMILES IDX 2 1 1 2 3 6 4 7 5 8
REMARK H PARENT 1 3 1 4 1 5
REMARK Flexibility Score: inf
ROOT
ATOM      1  C   UNL     1     212.233 197.957 212.561  1.00  0.00     0.312 C 
ENDROOT
BRANCH   1   2
ATOM      2  N   UNL     1     211.516 199.230 212.607  1.00  0.00    -0.353 N 
ATOM      3  H   UNL     1     212.124 199.979 212.204  1.00  0.00     0.344 HD
ATOM      4  H   UNL     1     211.284 199.477 213.597  1.00  0.00     0.344 HD
ATOM      5  H   UNL     1     210.637 199.168 212.043  1.00  0.00     0.344 HD
ENDBRANCH   1   2
BRANCH   1   6
ATOM      6  C   UNL     1     212.933 197.699 213.860  1.00  0.00     0.096 C 
ATOM      7  O   UNL     1     212.832 196.576 214.422  1.00  0.00    -0.544 OA
ATOM      8  O   UNL     1     213.737 198.680 214.424  1.00  0.00    -0.544 OA
ENDBRANCH   1   6
TORSDOF 2
ENDMDL
