MODEL 1
REMARK VINA RESULT:     1.162      0.000      0.000
REMARK INTER + INTRA:           1.227
REMARK INTER:                   1.297
REMARK INTRA:                  -0.070
REMARK UNBOUND:                -0.070
REMARK SMILES COc1ccc(C(=O)[O-])cc1
REMARK SMILES IDX 6 1 5 2 10 3 4 4 11 5 3 6 7 7 8 8 9 9 2 10 1 11
REMARK H PARENT
REMARK Flexibility Score: inf
ROOT
ATOM      1  C   UNL     1      91.994   9.263  61.978  1.00  0.00    -0.003 A 
ATOM      2  C   UNL     1      93.029  10.210  61.903  1.00  0.00     0.014 A 
ATOM      3  C   UNL     1      92.324   7.903  62.121  1.00  0.00     0.014 A 
ATOM      4  C   UNL     1      94.366   9.805  61.969  1.00  0.00     0.047 A 
ATOM      5  C   UNL     1      93.660   7.501  62.187  1.00  0.00     0.047 A 
ATOM      6  C   UNL     1      94.693   8.453  62.112  1.00  0.00     0.118 A 
ENDROOT
BRANCH   1   7
ATOM      7  C   UNL     1      90.577   9.685  61.908  1.00  0.00     0.071 C 
ATOM      8  O   UNL     1      89.654   8.829  61.875  1.00  0.00    -0.545 OA
ATOM      9  O   UNL     1      90.246  11.035  61.875  1.00  0.00    -0.545 OA
ENDBRANCH   1   7
BRANCH   6  10
ATOM     10  O   UNL     1      96.050   8.100  62.174  1.00  0.00    -0.497 OA
ATOM     11  C   UNL     1      97.113   9.024  62.386  1.00  0.00     0.278 C 
ENDBRANCH   6  10
TORSDOF 2
ENDMDL
MODEL 2
REMARK VINA RESULT:     2.040      1.222      4.974
REMARK INTER + INTRA:           2.208
REMARK INTER:                   2.279
REMARK INTRA:                  -0.071
REMARK UNBOUND:                -0.070
REMARK SMILES COc1ccc(C(=O)[O-])cc1
REMARK SMILES IDX 6 1 5 2 10 3 4 4 11 5 3 6 7 7 8 8 9 9 2 10 1 11
REMARK H PARENT
REMARK Flexibility Score: inf
ROOT
ATOM      1  C   UNL     1      93.733   8.856  62.051  1.00  0.00    -0.003 A 
ATOM      2  C   UNL     1      92.477   8.236  61.939  1.00  0.00     0.014 A 
ATOM      3  C   UNL     1      93.796  10.260  62.107  1.00  0.00     0.014 A 
ATOM      4  C   UNL     1      91.310   9.004  61.885  1.00  0.00     0.047 A 
ATOM      5  C   UNL     1      92.628  11.025  62.053  1.00  0.00     0.047 A 
ATOM      6  C   UNL     1      91.373  10.400  61.941  1.00  0.00     0.118 A 
ENDROOT
BRANCH   1   7
ATOM      7  C   UNL     1      94.972   8.049  62.108  1.00  0.00     0.071 C 
ATOM      8  O   UNL     1      96.086   8.598  62.316  1.00  0.00    -0.545 OA
ATOM      9  O   UNL     1      94.922   6.670  61.932  1.00  0.00    -0.545 OA
ENDBRANCH   1   7
BRANCH   6  10
ATOM     10  O   UNL     1      90.173  11.124  61.883  1.00  0.00    -0.497 OA
ATOM     11  C   UNL     1      88.876  10.536  61.927  1.00  0.00     0.278 C 
ENDBRANCH   6  10
TORSDOF 2
ENDMDL
