MODEL 1
REMARK VINA RESULT:    -5.867      0.000      0.000
REMARK INTER + INTRA:          -6.243
REMARK INTER:                  -6.210
REMARK INTRA:                  -0.033
REMARK UNBOUND:                -0.033
REMARK SMILES COc1ccc2ccc(=O)oc2c1
REMARK SMILES IDX 3 1 13 2 12 3 6 4 5 5 4 6 7 7 8 8 9 9 10 10 11 11 2 12 1 13
REMARK H PARENT
REMARK Flexibility Score: inf
ROOT
ATOM      1  C   UNL     1      72.912  44.589  -1.433  1.00  0.00     0.122 A 
ATOM      2  C   UNL     1      72.653  43.311  -1.966  1.00  0.00     0.094 A 
ATOM      3  C   UNL     1      73.232  42.921  -3.179  1.00  0.00     0.142 A 
ATOM      4  C   UNL     1      74.079  43.813  -3.871  1.00  0.00     0.018 A 
ATOM      5  C   UNL     1      74.336  45.084  -3.342  1.00  0.00     0.016 A 
ATOM      6  C   UNL     1      73.754  45.466  -2.129  1.00  0.00     0.047 A 
ATOM      7  C   UNL     1      74.643  43.395  -5.080  1.00  0.00     0.019 A 
ATOM      8  C   UNL     1      74.355  42.120  -5.565  1.00  0.00     0.094 A 
ATOM      9  C   UNL     1      73.506  41.289  -4.824  1.00  0.00     0.336 A 
ATOM     10  O   UNL     1      73.234  40.134  -5.245  1.00  0.00    -0.246 OA
ATOM     11  O   UNL     1      72.984  41.712  -3.677  1.00  0.00    -0.423 OA
ENDROOT
BRANCH   1  12
ATOM     12  O   UNL     1      72.355  45.025  -0.221  1.00  0.00    -0.497 OA
ATOM     13  C   UNL     1      70.988  45.384  -0.047  1.00  0.00     0.278 C 
ENDBRANCH   1  12
TORSDOF 1
ENDMDL
MODEL 2
REMARK VINA RESULT:    -5.813      1.066      4.646
REMARK INTER + INTRA:          -6.186
REMARK INTER:                  -6.151
REMARK INTRA:                  -0.034
REMARK UNBOUND:                -0.033
REMARK SMILES COc1ccc2ccc(=O)oc2c1
REMARK SMILES IDX 3 1 13 2 12 3 6 4 5 5 4 6 7 7 8 8 9 9 10 10 11 11 2 12 1 13
REMARK H PARENT
REMARK Flexibility Score: inf
ROOT
ATOM      1  C   UNL     1      73.255  41.233  -4.694  1.00  0.00     0.122 A 
ATOM      2  C   UNL     1      72.684  41.722  -3.503  1.00  0.00     0.094 A 
ATOM      3  C   UNL     1      73.038  42.986  -3.018  1.00  0.00     0.142 A 
ATOM      4  C   UNL     1      73.972  43.773  -3.724  1.00  0.00     0.018 A 
ATOM      5  C   UNL     1      74.541  43.287  -4.908  1.00  0.00     0.016 A 
ATOM      6  C   UNL     1      74.181  42.024  -5.388  1.00  0.00     0.047 A 
ATOM      7  C   UNL     1      74.306  45.031  -3.214  1.00  0.00     0.019 A 
ATOM      8  C   UNL     1      73.713  45.469  -2.031  1.00  0.00     0.094 A 
ATOM      9  C   UNL     1      72.794  44.635  -1.384  1.00  0.00     0.336 A 
ATOM     10  O   UNL     1      72.248  45.012  -0.315  1.00  0.00    -0.246 OA
ATOM     11  O   UNL     1      72.495  43.442  -1.891  1.00  0.00    -0.423 OA
ENDROOT
BRANCH   1  12
ATOM     12  O   UNL     1      72.931  39.973  -5.221  1.00  0.00    -0.497 OA
ATOM     13  C   UNL     1      71.617  39.569  -5.589  1.00  0.00     0.278 C 
ENDBRANCH   1  12
TORSDOF 1
ENDMDL
MODEL 3
REMARK VINA RESULT:    -5.792      2.553      4.434
REMARK INTER + INTRA:          -6.164
REMARK INTER:                  -6.130
REMARK INTRA:                  -0.034
REMARK UNBOUND:                -0.033
REMARK SMILES COc1ccc2ccc(=O)oc2c1
REMARK SMILES IDX 3 1 13 2 12 3 6 4 5 5 4 6 7 7 8 8 9 9 10 10 11 11 2 12 1 13
REMARK H PARENT
REMARK Flexibility Score: inf
ROOT
ATOM      1  C   UNL     1      72.789  41.406  -3.724  1.00  0.00     0.122 A 
ATOM      2  C   UNL     1      73.687  41.342  -4.807  1.00  0.00     0.094 A 
ATOM      3  C   UNL     1      73.391  40.552  -5.923  1.00  0.00     0.142 A 
ATOM      4  C   UNL     1      72.188  39.815  -5.963  1.00  0.00     0.018 A 
ATOM      5  C   UNL     1      71.295  39.877  -4.885  1.00  0.00     0.016 A 
ATOM      6  C   UNL     1      71.598  40.670  -3.773  1.00  0.00     0.047 A 
ATOM      7  C   UNL     1      71.920  39.034  -7.091  1.00  0.00     0.019 A 
ATOM      8  C   UNL     1      72.841  39.005  -8.137  1.00  0.00     0.094 A 
ATOM      9  C   UNL     1      74.013  39.762  -8.029  1.00  0.00     0.336 A 
ATOM     10  O   UNL     1      74.857  39.749  -8.963  1.00  0.00    -0.246 OA
ATOM     11  O   UNL     1      74.243  40.496  -6.944  1.00  0.00    -0.423 OA
ENDROOT
BRANCH   1  12
ATOM     12  O   UNL     1      73.042  42.184  -2.584  1.00  0.00    -0.497 OA
ATOM     13  C   UNL     1      73.202  43.599  -2.594  1.00  0.00     0.278 C 
ENDBRANCH   1  12
TORSDOF 1
ENDMDL
MODEL 4
REMARK VINA RESULT:    -5.729      3.247      6.763
REMARK INTER + INTRA:          -6.097
REMARK INTER:                  -6.057
REMARK INTRA:                  -0.040
REMARK UNBOUND:                -0.033
REMARK SMILES COc1ccc2ccc(=O)oc2c1
REMARK SMILES IDX 3 1 13 2 12 3 6 4 5 5 4 6 7 7 8 8 9 9 10 10 11 11 2 12 1 13
REMARK H PARENT
REMARK Flexibility Score: inf
ROOT
ATOM      1  C   UNL     1      73.911  39.845  -8.006  1.00  0.00     0.122 A 
ATOM      2  C   UNL     1      74.135  40.611  -6.846  1.00  0.00     0.094 A 
ATOM      3  C   UNL     1      73.198  40.606  -5.806  1.00  0.00     0.142 A 
ATOM      4  C   UNL     1      72.024  39.831  -5.921  1.00  0.00     0.018 A 
ATOM      5  C   UNL     1      71.801  39.069  -7.075  1.00  0.00     0.016 A 
ATOM      6  C   UNL     1      72.742  39.079  -8.110  1.00  0.00     0.047 A 
ATOM      7  C   UNL     1      71.108  39.846  -4.866  1.00  0.00     0.019 A 
ATOM      8  C   UNL     1      71.376  40.621  -3.738  1.00  0.00     0.094 A 
ATOM      9  C   UNL     1      72.561  41.365  -3.693  1.00  0.00     0.336 A 
ATOM     10  O   UNL     1      72.820  42.071  -2.684  1.00  0.00    -0.246 OA
ATOM     11  O   UNL     1      73.415  41.332  -4.711  1.00  0.00    -0.423 OA
ENDROOT
BRANCH   1  12
ATOM     12  O   UNL     1      74.820  39.817  -9.075  1.00  0.00    -0.497 OA
ATOM     13  C   UNL     1      74.798  38.856 -10.125  1.00  0.00     0.278 C 
ENDBRANCH   1  12
TORSDOF 1
ENDMDL
MODEL 5
REMARK VINA RESULT:    -5.673      1.761      5.268
REMARK INTER + INTRA:          -6.038
REMARK INTER:                  -6.003
REMARK INTRA:                  -0.034
REMARK UNBOUND:                -0.033
REMARK SMILES COc1ccc2ccc(=O)oc2c1
REMARK SMILES IDX 3 1 13 2 12 3 6 4 5 5 4 6 7 7 8 8 9 9 10 10 11 11 2 12 1 13
REMARK H PARENT
REMARK Flexibility Score: inf
ROOT
ATOM      1  C   UNL     1      74.030  41.525  -5.526  1.00  0.00     0.122 A 
ATOM      2  C   UNL     1      74.466  42.834  -5.239  1.00  0.00     0.094 A 
ATOM      3  C   UNL     1      74.050  43.476  -4.068  1.00  0.00     0.142 A 
ATOM      4  C   UNL     1      73.189  42.809  -3.170  1.00  0.00     0.018 A 
ATOM      5  C   UNL     1      72.754  41.509  -3.455  1.00  0.00     0.016 A 
ATOM      6  C   UNL     1      73.175  40.873  -4.627  1.00  0.00     0.047 A 
ATOM      7  C   UNL     1      72.790  43.476  -2.008  1.00  0.00     0.019 A 
ATOM      8  C   UNL     1      73.250  44.771  -1.771  1.00  0.00     0.094 A 
ATOM      9  C   UNL     1      74.102  45.370  -2.705  1.00  0.00     0.336 A 
ATOM     10  O   UNL     1      74.527  46.538  -2.509  1.00  0.00    -0.246 OA
ATOM     11  O   UNL     1      74.466  44.712  -3.803  1.00  0.00    -0.423 OA
ENDROOT
BRANCH   1  12
ATOM     12  O   UNL     1      74.420  40.841  -6.687  1.00  0.00    -0.497 OA
ATOM     13  C   UNL     1      73.520  40.194  -7.580  1.00  0.00     0.278 C 
ENDBRANCH   1  12
TORSDOF 1
ENDMDL
MODEL 6
REMARK VINA RESULT:    -5.659      1.784      3.059
REMARK INTER + INTRA:          -6.023
REMARK INTER:                  -5.991
REMARK INTRA:                  -0.032
REMARK UNBOUND:                -0.033
REMARK SMILES COc1ccc2ccc(=O)oc2c1
REMARK SMILES IDX 3 1 13 2 12 3 6 4 5 5 4 6 7 7 8 8 9 9 10 10 11 11 2 12 1 13
REMARK H PARENT
REMARK Flexibility Score: inf
ROOT
ATOM      1  C   UNL     1      73.631  42.346  -3.400  1.00  0.00     0.122 A 
ATOM      2  C   UNL     1      72.942  41.277  -4.005  1.00  0.00     0.094 A 
ATOM      3  C   UNL     1      73.239  40.900  -5.320  1.00  0.00     0.142 A 
ATOM      4  C   UNL     1      74.233  41.594  -6.042  1.00  0.00     0.018 A 
ATOM      5  C   UNL     1      74.919  42.657  -5.441  1.00  0.00     0.016 A 
ATOM      6  C   UNL     1      74.616  43.028  -4.127  1.00  0.00     0.047 A 
ATOM      7  C   UNL     1      74.508  41.194  -7.353  1.00  0.00     0.019 A 
ATOM      8  C   UNL     1      73.797  40.129  -7.907  1.00  0.00     0.094 A 
ATOM      9  C   UNL     1      72.825  39.487  -7.131  1.00  0.00     0.336 A 
ATOM     10  O   UNL     1      72.172  38.525  -7.613  1.00  0.00    -0.246 OA
ATOM     11  O   UNL     1      72.584  39.888  -5.886  1.00  0.00    -0.423 OA
ENDROOT
BRANCH   1  12
ATOM     12  O   UNL     1      73.369  42.761  -2.086  1.00  0.00    -0.497 OA
ATOM     13  C   UNL     1      72.822  44.028  -1.737  1.00  0.00     0.278 C 
ENDBRANCH   1  12
TORSDOF 1
ENDMDL
MODEL 7
REMARK VINA RESULT:    -5.147      2.030      5.671
REMARK INTER + INTRA:          -5.482
REMARK INTER:                  -5.442
REMARK INTRA:                  -0.040
REMARK UNBOUND:                -0.033
REMARK SMILES COc1ccc2ccc(=O)oc2c1
REMARK SMILES IDX 3 1 13 2 12 3 6 4 5 5 4 6 7 7 8 8 9 9 10 10 11 11 2 12 1 13
REMARK H PARENT
REMARK Flexibility Score: inf
ROOT
ATOM      1  C   UNL     1      73.386  39.944  -6.931  1.00  0.00     0.122 A 
ATOM      2  C   UNL     1      72.866  40.245  -5.657  1.00  0.00     0.094 A 
ATOM      3  C   UNL     1      73.351  41.344  -4.939  1.00  0.00     0.142 A 
ATOM      4  C   UNL     1      74.365  42.154  -5.494  1.00  0.00     0.018 A 
ATOM      5  C   UNL     1      74.883  41.855  -6.760  1.00  0.00     0.016 A 
ATOM      6  C   UNL     1      74.393  40.755  -7.472  1.00  0.00     0.047 A 
ATOM      7  C   UNL     1      74.828  43.245  -4.752  1.00  0.00     0.019 A 
ATOM      8  C   UNL     1      74.280  43.500  -3.495  1.00  0.00     0.094 A 
ATOM      9  C   UNL     1      73.277  42.654  -3.009  1.00  0.00     0.336 A 
ATOM     10  O   UNL     1      72.770  42.868  -1.877  1.00  0.00    -0.246 OA
ATOM     11  O   UNL     1      72.855  41.623  -3.736  1.00  0.00    -0.423 OA
ENDROOT
BRANCH   1  12
ATOM     12  O   UNL     1      72.933  38.854  -7.689  1.00  0.00    -0.497 OA
ATOM     13  C   UNL     1      73.543  38.403  -8.894  1.00  0.00     0.278 C 
ENDBRANCH   1  12
TORSDOF 1
ENDMDL
MODEL 8
REMARK VINA RESULT:    -4.977      8.185     12.305
REMARK INTER + INTRA:          -5.301
REMARK INTER:                  -5.268
REMARK INTRA:                  -0.033
REMARK UNBOUND:                -0.033
REMARK SMILES COc1ccc2ccc(=O)oc2c1
REMARK SMILES IDX 3 1 13 2 12 3 6 4 5 5 4 6 7 7 8 8 9 9 10 10 11 11 2 12 1 13
REMARK H PARENT
REMARK Flexibility Score: inf
ROOT
ATOM      1  C   UNL     1      72.602  47.720   5.141  1.00  0.00     0.122 A 
ATOM      2  C   UNL     1      71.361  48.104   5.684  1.00  0.00     0.094 A 
ATOM      3  C   UNL     1      71.279  48.557   7.006  1.00  0.00     0.142 A 
ATOM      4  C   UNL     1      72.445  48.629   7.798  1.00  0.00     0.018 A 
ATOM      5  C   UNL     1      73.680  48.246   7.258  1.00  0.00     0.016 A 
ATOM      6  C   UNL     1      73.754  47.795   5.937  1.00  0.00     0.047 A 
ATOM      7  C   UNL     1      72.331  49.085   9.114  1.00  0.00     0.019 A 
ATOM      8  C   UNL     1      71.079  49.454   9.604  1.00  0.00     0.094 A 
ATOM      9  C   UNL     1      69.966  49.357   8.762  1.00  0.00     0.336 A 
ATOM     10  O   UNL     1      68.827  49.685   9.186  1.00  0.00    -0.246 OA
ATOM     11  O   UNL     1      70.103  48.919   7.513  1.00  0.00    -0.423 OA
ENDROOT
BRANCH   1  12
ATOM     12  O   UNL     1      72.736  47.260   3.822  1.00  0.00    -0.497 OA
ATOM     13  C   UNL     1      72.758  45.886   3.448  1.00  0.00     0.278 C 
ENDBRANCH   1  12
TORSDOF 1
ENDMDL
MODEL 9
REMARK VINA RESULT:    -4.932      9.320     11.945
REMARK INTER + INTRA:          -5.253
REMARK INTER:                  -5.220
REMARK INTRA:                  -0.033
REMARK UNBOUND:                -0.033
REMARK SMILES COc1ccc2ccc(=O)oc2c1
REMARK SMILES IDX 3 1 13 2 12 3 6 4 5 5 4 6 7 7 8 8 9 9 10 10 11 11 2 12 1 13
REMARK H PARENT
REMARK Flexibility Score: inf
ROOT
ATOM      1  C   UNL     1      70.049  49.355   8.729  1.00  0.00     0.122 A 
ATOM      2  C   UNL     1      70.106  48.921   7.390  1.00  0.00     0.094 A 
ATOM      3  C   UNL     1      71.330  48.557   6.817  1.00  0.00     0.142 A 
ATOM      4  C   UNL     1      72.513  48.626   7.584  1.00  0.00     0.018 A 
ATOM      5  C   UNL     1      72.457  49.059   8.915  1.00  0.00     0.016 A 
ATOM      6  C   UNL     1      71.230  49.420   9.481  1.00  0.00     0.047 A 
ATOM      7  C   UNL     1      73.720  48.256   6.985  1.00  0.00     0.019 A 
ATOM      8  C   UNL     1      73.722  47.833   5.656  1.00  0.00     0.094 A 
ATOM      9  C   UNL     1      72.511  47.789   4.957  1.00  0.00     0.336 A 
ATOM     10  O   UNL     1      72.492  47.410   3.756  1.00  0.00    -0.246 OA
ATOM     11  O   UNL     1      71.376  48.147   5.552  1.00  0.00    -0.423 OA
ENDROOT
BRANCH   1  12
ATOM     12  O   UNL     1      68.847  49.730   9.347  1.00  0.00    -0.497 OA
ATOM     13  C   UNL     1      67.871  48.813   9.831  1.00  0.00     0.278 C 
ENDBRANCH   1  12
TORSDOF 1
ENDMDL
