MODEL 1
REMARK VINA RESULT:    -6.026      0.000      0.000
REMARK INTER + INTRA:         -13.111
REMARK INTER:                 -11.662
REMARK INTRA:                  -1.450
REMARK UNBOUND:                -1.450
REMARK SMILES CCCCCC=CCC=CCCCCCCCCOC(C)=O
REMARK SMILES IDX 12 1 11 2 10 3 9 4 8 5 7 6 6 7 5 8 4 9 3 10 2 11 1 12 13 13
REMARK SMILES IDX 14 14 15 15 16 16 17 17 18 18 19 19 20 20 22 21 21 22
REMARK H PARENT
REMARK Flexibility Score: inf
ROOT
ATOM      1  C   UNL     1      27.829   2.673  28.239  1.00  0.00     0.004 C 
ENDROOT
BRANCH   1   2
ATOM      2  C   UNL     1      29.108   2.038  28.803  1.00  0.00     0.027 C 
BRANCH   2   3
ATOM      3  C   UNL     1      30.241   3.032  28.775  1.00  0.00    -0.031 C 
ATOM      4  C   UNL     1      30.782   3.611  29.864  1.00  0.00    -0.027 C 
BRANCH   4   5
ATOM      5  C   UNL     1      30.289   3.423  31.277  1.00  0.00     0.054 C 
BRANCH   5   6
ATOM      6  C   UNL     1      29.522   4.621  31.764  1.00  0.00    -0.027 C 
ATOM      7  C   UNL     1      28.181   4.637  31.795  1.00  0.00    -0.031 C 
BRANCH   7   8
ATOM      8  C   UNL     1      27.417   5.853  32.243  1.00  0.00     0.027 C 
BRANCH   8   9
ATOM      9  C   UNL     1      28.331   7.013  32.676  1.00  0.00     0.004 C 
BRANCH   9  10
ATOM     10  C   UNL     1      27.593   8.334  32.956  1.00  0.00     0.000 C 
BRANCH  10  11
ATOM     11  C   UNL     1      26.416   8.571  31.997  1.00  0.00    -0.003 C 
ATOM     12  C   UNL     1      26.449   9.986  31.427  1.00  0.00     0.004 C 
ENDBRANCH  10  11
ENDBRANCH   9  10
ENDBRANCH   8   9
ENDBRANCH   7   8
ENDBRANCH   5   6
ENDBRANCH   4   5
ENDBRANCH   2   3
ENDBRANCH   1   2
BRANCH   1  13
ATOM     13  C   UNL     1      26.618   2.499  29.169  1.00  0.00     0.000 C 
BRANCH  13  14
ATOM     14  C   UNL     1      25.816   1.225  28.856  1.00  0.00     0.000 C 
BRANCH  14  15
ATOM     15  C   UNL     1      25.853   0.850  27.364  1.00  0.00     0.000 C 
BRANCH  15  16
ATOM     16  C   UNL     1      24.503   0.338  26.815  1.00  0.00     0.003 C 
BRANCH  16  17
ATOM     17  C   UNL     1      23.609   1.478  26.306  1.00  0.00     0.042 C 
BRANCH  17  18
ATOM     18  C   UNL     1      22.272   0.937  25.788  1.00  0.00     0.233 C 
BRANCH  18  19
ATOM     19  O   UNL     1      21.725   1.811  24.802  1.00  0.00    -0.466 OA
BRANCH  19  20
ATOM     20  C   UNL     1      22.317   2.030  23.554  1.00  0.00     0.302 C 
ATOM     21  O   UNL     1      22.845   1.082  22.912  1.00  0.00    -0.253 OA
ATOM     22  C   UNL     1      22.352   3.407  22.988  1.00  0.00     0.139 C 
ENDBRANCH  19  20
ENDBRANCH  18  19
ENDBRANCH  17  18
ENDBRANCH  16  17
ENDBRANCH  15  16
ENDBRANCH  14  15
ENDBRANCH  13  14
ENDBRANCH   1  13
TORSDOF 16
ENDMDL
MODEL 2
REMARK VINA RESULT:    -5.913      6.161     11.169
REMARK INTER + INTRA:         -12.894
REMARK INTER:                 -11.632
REMARK INTRA:                  -1.262
REMARK UNBOUND:                -1.450
REMARK SMILES CCCCCC=CCC=CCCCCCCCCOC(C)=O
REMARK SMILES IDX 12 1 11 2 10 3 9 4 8 5 7 6 6 7 5 8 4 9 3 10 2 11 1 12 13 13
REMARK SMILES IDX 14 14 15 15 16 16 17 17 18 18 19 19 20 20 22 21 21 22
REMARK H PARENT
REMARK Flexibility Score: inf
ROOT
ATOM      1  C   UNL     1      26.874   7.986  32.122  1.00  0.00     0.004 C 
ENDROOT
BRANCH   1   2
ATOM      2  C   UNL     1      27.976   6.992  32.515  1.00  0.00     0.027 C 
BRANCH   2   3
ATOM      3  C   UNL     1      27.531   5.580  32.230  1.00  0.00    -0.031 C 
ATOM      4  C   UNL     1      28.354   4.570  31.887  1.00  0.00    -0.027 C 
BRANCH   4   5
ATOM      5  C   UNL     1      29.838   4.708  31.650  1.00  0.00     0.054 C 
BRANCH   5   6
ATOM      6  C   UNL     1      30.339   3.701  30.652  1.00  0.00    -0.027 C 
ATOM      7  C   UNL     1      29.832   3.624  29.413  1.00  0.00    -0.031 C 
BRANCH   7   8
ATOM      8  C   UNL     1      30.306   2.588  28.430  1.00  0.00     0.027 C 
BRANCH   8   9
ATOM      9  C   UNL     1      29.307   1.432  28.246  1.00  0.00     0.004 C 
BRANCH   9  10
ATOM     10  C   UNL     1      28.061   1.795  27.417  1.00  0.00     0.000 C 
BRANCH  10  11
ATOM     11  C   UNL     1      26.750   1.568  28.185  1.00  0.00    -0.003 C 
ATOM     12  C   UNL     1      26.418   2.764  29.072  1.00  0.00     0.004 C 
ENDBRANCH  10  11
ENDBRANCH   9  10
ENDBRANCH   8   9
ENDBRANCH   7   8
ENDBRANCH   5   6
ENDBRANCH   4   5
ENDBRANCH   2   3
ENDBRANCH   1   2
BRANCH   1  13
ATOM     13  C   UNL     1      27.151   9.411  32.626  1.00  0.00     0.000 C 
BRANCH  13  14
ATOM     14  C   UNL     1      27.974   9.425  33.924  1.00  0.00     0.000 C 
BRANCH  14  15
ATOM     15  C   UNL     1      27.940  10.789  34.636  1.00  0.00     0.000 C 
BRANCH  15  16
ATOM     16  C   UNL     1      28.733  10.822  35.960  1.00  0.00     0.003 C 
BRANCH  16  17
ATOM     17  C   UNL     1      28.535  12.137  36.729  1.00  0.00     0.042 C 
BRANCH  17  18
ATOM     18  C   UNL     1      27.282  12.873  36.242  1.00  0.00     0.233 C 
BRANCH  18  19
ATOM     19  O   UNL     1      27.558  14.259  36.048  1.00  0.00    -0.466 OA
BRANCH  19  20
ATOM     20  C   UNL     1      27.901  14.811  34.809  1.00  0.00     0.302 C 
ATOM     21  O   UNL     1      28.862  15.620  34.705  1.00  0.00    -0.253 OA
ATOM     22  C   UNL     1      27.100  14.464  33.603  1.00  0.00     0.139 C 
ENDBRANCH  19  20
ENDBRANCH  18  19
ENDBRANCH  17  18
ENDBRANCH  16  17
ENDBRANCH  15  16
ENDBRANCH  14  15
ENDBRANCH  13  14
ENDBRANCH   1  13
TORSDOF 16
ENDMDL
MODEL 3
REMARK VINA RESULT:    -5.903      1.183      1.607
REMARK INTER + INTRA:         -12.874
REMARK INTER:                 -11.726
REMARK INTRA:                  -1.148
REMARK UNBOUND:                -1.450
REMARK SMILES CCCCCC=CCC=CCCCCCCCCOC(C)=O
REMARK SMILES IDX 12 1 11 2 10 3 9 4 8 5 7 6 6 7 5 8 4 9 3 10 2 11 1 12 13 13
REMARK SMILES IDX 14 14 15 15 16 16 17 17 18 18 19 19 20 20 22 21 21 22
REMARK H PARENT
REMARK Flexibility Score: inf
ROOT
ATOM      1  C   UNL     1      26.723   2.876  29.163  1.00  0.00     0.004 C 
ENDROOT
BRANCH   1   2
ATOM      2  C   UNL     1      27.958   2.053  28.772  1.00  0.00     0.027 C 
BRANCH   2   3
ATOM      3  C   UNL     1      29.090   2.967  28.375  1.00  0.00    -0.031 C 
ATOM      4  C   UNL     1      30.009   3.466  29.225  1.00  0.00    -0.027 C 
BRANCH   4   5
ATOM      5  C   UNL     1      30.005   3.259  30.719  1.00  0.00     0.054 C 
BRANCH   5   6
ATOM      6  C   UNL     1      29.450   4.452  31.446  1.00  0.00    -0.027 C 
ATOM      7  C   UNL     1      28.155   4.532  31.786  1.00  0.00    -0.031 C 
BRANCH   7   8
ATOM      8  C   UNL     1      27.594   5.746  32.475  1.00  0.00     0.027 C 
BRANCH   8   9
ATOM      9  C   UNL     1      28.558   6.945  32.461  1.00  0.00     0.004 C 
BRANCH   9  10
ATOM     10  C   UNL     1      27.948   8.257  32.988  1.00  0.00     0.000 C 
BRANCH  10  11
ATOM     11  C   UNL     1      26.539   8.520  32.437  1.00  0.00    -0.003 C 
ATOM     12  C   UNL     1      26.489   9.834  31.662  1.00  0.00     0.004 C 
ENDBRANCH  10  11
ENDBRANCH   9  10
ENDBRANCH   8   9
ENDBRANCH   7   8
ENDBRANCH   5   6
ENDBRANCH   4   5
ENDBRANCH   2   3
ENDBRANCH   1   2
BRANCH   1  13
ATOM     13  C   UNL     1      25.406   2.219  28.720  1.00  0.00     0.000 C 
BRANCH  13  14
ATOM     14  C   UNL     1      25.612   1.194  27.593  1.00  0.00     0.000 C 
BRANCH  14  15
ATOM     15  C   UNL     1      24.323   0.910  26.803  1.00  0.00     0.000 C 
BRANCH  15  16
ATOM     16  C   UNL     1      24.538   0.792  25.278  1.00  0.00     0.003 C 
BRANCH  16  17
ATOM     17  C   UNL     1      23.397   1.436  24.475  1.00  0.00     0.042 C 
BRANCH  17  18
ATOM     18  C   UNL     1      23.387   0.926  23.030  1.00  0.00     0.233 C 
BRANCH  18  19
ATOM     19  O   UNL     1      23.326   2.016  22.113  1.00  0.00    -0.466 OA
BRANCH  19  20
ATOM     20  C   UNL     1      24.010   3.222  22.302  1.00  0.00     0.302 C 
ATOM     21  O   UNL     1      25.270   3.258  22.298  1.00  0.00    -0.253 OA
ATOM     22  C   UNL     1      23.241   4.474  22.542  1.00  0.00     0.139 C 
ENDBRANCH  19  20
ENDBRANCH  18  19
ENDBRANCH  17  18
ENDBRANCH  16  17
ENDBRANCH  15  16
ENDBRANCH  14  15
ENDBRANCH  13  14
ENDBRANCH   1  13
TORSDOF 16
ENDMDL
MODEL 4
REMARK VINA RESULT:    -5.857      0.965      1.358
REMARK INTER + INTRA:         -12.785
REMARK INTER:                 -11.112
REMARK INTRA:                  -1.673
REMARK UNBOUND:                -1.450
REMARK SMILES CCCCCC=CCC=CCCCCCCCCOC(C)=O
REMARK SMILES IDX 12 1 11 2 10 3 9 4 8 5 7 6 6 7 5 8 4 9 3 10 2 11 1 12 13 13
REMARK SMILES IDX 14 14 15 15 16 16 17 17 18 18 19 19 20 20 22 21 21 22
REMARK H PARENT
REMARK Flexibility Score: inf
ROOT
ATOM      1  C   UNL     1      27.919   2.703  28.300  1.00  0.00     0.004 C 
ENDROOT
BRANCH   1   2
ATOM      2  C   UNL     1      29.204   2.161  28.941  1.00  0.00     0.027 C 
BRANCH   2   3
ATOM      3  C   UNL     1      30.316   3.172  28.816  1.00  0.00    -0.031 C 
ATOM      4  C   UNL     1      30.915   3.788  29.854  1.00  0.00    -0.027 C 
BRANCH   4   5
ATOM      5  C   UNL     1      30.513   3.630  31.300  1.00  0.00     0.054 C 
BRANCH   5   6
ATOM      6  C   UNL     1      29.660   4.776  31.770  1.00  0.00    -0.027 C 
ATOM      7  C   UNL     1      28.321   4.707  31.766  1.00  0.00    -0.031 C 
BRANCH   7   8
ATOM      8  C   UNL     1      27.469   5.870  32.196  1.00  0.00     0.027 C 
BRANCH   8   9
ATOM      9  C   UNL     1      28.294   7.049  32.743  1.00  0.00     0.004 C 
BRANCH   9  10
ATOM     10  C   UNL     1      27.482   8.334  32.985  1.00  0.00     0.000 C 
BRANCH  10  11
ATOM     11  C   UNL     1      26.454   8.605  31.876  1.00  0.00    -0.003 C 
ATOM     12  C   UNL     1      26.417  10.086  31.512  1.00  0.00     0.004 C 
ENDBRANCH  10  11
ENDBRANCH   9  10
ENDBRANCH   8   9
ENDBRANCH   7   8
ENDBRANCH   5   6
ENDBRANCH   4   5
ENDBRANCH   2   3
ENDBRANCH   1   2
BRANCH   1  13
ATOM     13  C   UNL     1      26.673   2.452  29.163  1.00  0.00     0.000 C 
BRANCH  13  14
ATOM     14  C   UNL     1      25.481   1.941  28.338  1.00  0.00     0.000 C 
BRANCH  14  15
ATOM     15  C   UNL     1      25.436   0.406  28.244  1.00  0.00     0.000 C 
BRANCH  15  16
ATOM     16  C   UNL     1      25.197  -0.126  26.815  1.00  0.00     0.003 C 
BRANCH  16  17
ATOM     17  C   UNL     1      25.912   0.718  25.749  1.00  0.00     0.042 C 
BRANCH  17  18
ATOM     18  C   UNL     1      25.217   0.590  24.390  1.00  0.00     0.233 C 
BRANCH  18  19
ATOM     19  O   UNL     1      23.810   0.424  24.559  1.00  0.00    -0.466 OA
BRANCH  19  20
ATOM     20  C   UNL     1      22.904   1.489  24.562  1.00  0.00     0.302 C 
ATOM     21  O   UNL     1      22.844   2.291  23.590  1.00  0.00    -0.253 OA
ATOM     22  C   UNL     1      22.019   1.700  25.741  1.00  0.00     0.139 C 
ENDBRANCH  19  20
ENDBRANCH  18  19
ENDBRANCH  17  18
ENDBRANCH  16  17
ENDBRANCH  15  16
ENDBRANCH  14  15
ENDBRANCH  13  14
ENDBRANCH   1  13
TORSDOF 16
ENDMDL
MODEL 5
REMARK VINA RESULT:    -5.797      3.790      9.056
REMARK INTER + INTRA:         -12.668
REMARK INTER:                 -11.335
REMARK INTRA:                  -1.333
REMARK UNBOUND:                -1.450
REMARK SMILES CCCCCC=CCC=CCCCCCCCCOC(C)=O
REMARK SMILES IDX 12 1 11 2 10 3 9 4 8 5 7 6 6 7 5 8 4 9 3 10 2 11 1 12 13 13
REMARK SMILES IDX 14 14 15 15 16 16 17 17 18 18 19 19 20 20 22 21 21 22
REMARK H PARENT
REMARK Flexibility Score: inf
ROOT
ATOM      1  C   UNL     1      28.981   2.963  28.088  1.00  0.00     0.004 C 
ENDROOT
BRANCH   1   2
ATOM      2  C   UNL     1      28.054   2.167  29.017  1.00  0.00     0.027 C 
BRANCH   2   3
ATOM      3  C   UNL     1      26.686   2.800  29.058  1.00  0.00    -0.031 C 
ATOM      4  C   UNL     1      25.544   2.186  28.696  1.00  0.00    -0.027 C 
BRANCH   4   5
ATOM      5  C   UNL     1      25.457   0.797  28.114  1.00  0.00     0.054 C 
BRANCH   5   6
ATOM      6  C   UNL     1      24.808   0.800  26.758  1.00  0.00    -0.027 C 
ATOM      7  C   UNL     1      23.630   1.404  26.540  1.00  0.00    -0.031 C 
BRANCH   7   8
ATOM      8  C   UNL     1      22.963   1.369  25.193  1.00  0.00     0.027 C 
BRANCH   8   9
ATOM      9  C   UNL     1      21.541   1.959  25.210  1.00  0.00     0.004 C 
BRANCH   9  10
ATOM     10  C   UNL     1      21.211   2.857  24.004  1.00  0.00     0.000 C 
BRANCH  10  11
ATOM     11  C   UNL     1      22.444   3.172  23.143  1.00  0.00    -0.003 C 
ATOM     12  C   UNL     1      22.114   3.077  21.656  1.00  0.00     0.004 C 
ENDBRANCH  10  11
ENDBRANCH   9  10
ENDBRANCH   8   9
ENDBRANCH   7   8
ENDBRANCH   5   6
ENDBRANCH   4   5
ENDBRANCH   2   3
ENDBRANCH   1   2
BRANCH   1  13
ATOM     13  C   UNL     1      30.292   3.380  28.772  1.00  0.00     0.000 C 
BRANCH  13  14
ATOM     14  C   UNL     1      30.263   3.146  30.291  1.00  0.00     0.000 C 
BRANCH  14  15
ATOM     15  C   UNL     1      30.966   4.264  31.080  1.00  0.00     0.000 C 
BRANCH  15  16
ATOM     16  C   UNL     1      29.997   5.268  31.740  1.00  0.00     0.003 C 
BRANCH  16  17
ATOM     17  C   UNL     1      28.553   4.744  31.786  1.00  0.00     0.042 C 
BRANCH  17  18
ATOM     18  C   UNL     1      27.606   5.795  32.375  1.00  0.00     0.233 C 
BRANCH  18  19
ATOM     19  O   UNL     1      28.287   7.033  32.567  1.00  0.00    -0.466 OA
BRANCH  19  20
ATOM     20  C   UNL     1      27.630   8.250  32.777  1.00  0.00     0.302 C 
ATOM     21  O   UNL     1      28.097   9.109  33.572  1.00  0.00    -0.253 OA
ATOM     22  C   UNL     1      26.344   8.522  32.076  1.00  0.00     0.139 C 
ENDBRANCH  19  20
ENDBRANCH  18  19
ENDBRANCH  17  18
ENDBRANCH  16  17
ENDBRANCH  15  16
ENDBRANCH  14  15
ENDBRANCH  13  14
ENDBRANCH   1  13
TORSDOF 16
ENDMDL
MODEL 6
REMARK VINA RESULT:    -5.780      7.280     12.223
REMARK INTER + INTRA:         -12.636
REMARK INTER:                 -11.661
REMARK INTRA:                  -0.975
REMARK UNBOUND:                -1.450
REMARK SMILES CCCCCC=CCC=CCCCCCCCCOC(C)=O
REMARK SMILES IDX 12 1 11 2 10 3 9 4 8 5 7 6 6 7 5 8 4 9 3 10 2 11 1 12 13 13
REMARK SMILES IDX 14 14 15 15 16 16 17 17 18 18 19 19 20 20 22 21 21 22
REMARK H PARENT
REMARK Flexibility Score: inf
ROOT
ATOM      1  C   UNL     1      27.928  10.116  34.162  1.00  0.00     0.004 C 
ENDROOT
BRANCH   1   2
ATOM      2  C   UNL     1      28.259   8.769  33.506  1.00  0.00     0.027 C 
BRANCH   2   3
ATOM      3  C   UNL     1      27.180   8.386  32.525  1.00  0.00    -0.031 C 
ATOM      4  C   UNL     1      26.808   7.122  32.247  1.00  0.00    -0.027 C 
BRANCH   4   5
ATOM      5  C   UNL     1      27.466   5.885  32.806  1.00  0.00     0.054 C 
BRANCH   5   6
ATOM      6  C   UNL     1      28.409   5.259  31.816  1.00  0.00    -0.027 C 
ATOM      7  C   UNL     1      28.292   3.977  31.441  1.00  0.00    -0.031 C 
BRANCH   7   8
ATOM      8  C   UNL     1      29.263   3.343  30.484  1.00  0.00     0.027 C 
BRANCH   8   9
ATOM      9  C   UNL     1      30.726   3.447  30.954  1.00  0.00     0.004 C 
BRANCH   9  10
ATOM     10  C   UNL     1      31.679   4.082  29.925  1.00  0.00     0.000 C 
BRANCH  10  11
ATOM     11  C   UNL     1      32.440   5.292  30.487  1.00  0.00    -0.003 C 
ATOM     12  C   UNL     1      31.867   5.724  31.833  1.00  0.00     0.004 C 
ENDBRANCH  10  11
ENDBRANCH   9  10
ENDBRANCH   8   9
ENDBRANCH   7   8
ENDBRANCH   5   6
ENDBRANCH   4   5
ENDBRANCH   2   3
ENDBRANCH   1   2
BRANCH   1  13
ATOM     13  C   UNL     1      28.636  10.310  35.513  1.00  0.00     0.000 C 
BRANCH  13  14
ATOM     14  C   UNL     1      28.276  11.648  36.178  1.00  0.00     0.000 C 
BRANCH  14  15
ATOM     15  C   UNL     1      29.348  12.126  37.172  1.00  0.00     0.000 C 
BRANCH  15  16
ATOM     16  C   UNL     1      29.070  13.524  37.766  1.00  0.00     0.003 C 
BRANCH  16  17
ATOM     17  C   UNL     1      30.100  14.569  37.312  1.00  0.00     0.042 C 
BRANCH  17  18
ATOM     18  C   UNL     1      29.492  15.529  36.284  1.00  0.00     0.233 C 
BRANCH  18  19
ATOM     19  O   UNL     1      28.721  14.812  35.322  1.00  0.00    -0.466 OA
BRANCH  19  20
ATOM     20  C   UNL     1      27.810  15.424  34.454  1.00  0.00     0.302 C 
ATOM     21  O   UNL     1      27.786  16.678  34.320  1.00  0.00    -0.253 OA
ATOM     22  C   UNL     1      26.834  14.588  33.703  1.00  0.00     0.139 C 
ENDBRANCH  19  20
ENDBRANCH  18  19
ENDBRANCH  17  18
ENDBRANCH  16  17
ENDBRANCH  15  16
ENDBRANCH  14  15
ENDBRANCH  13  14
ENDBRANCH   1  13
TORSDOF 16
ENDMDL
MODEL 7
REMARK VINA RESULT:    -5.733      3.475      6.569
REMARK INTER + INTRA:         -12.545
REMARK INTER:                 -11.304
REMARK INTRA:                  -1.241
REMARK UNBOUND:                -1.450
REMARK SMILES CCCCCC=CCC=CCCCCCCCCOC(C)=O
REMARK SMILES IDX 12 1 11 2 10 3 9 4 8 5 7 6 6 7 5 8 4 9 3 10 2 11 1 12 13 13
REMARK SMILES IDX 14 14 15 15 16 16 17 17 18 18 19 19 20 20 22 21 21 22
REMARK H PARENT
REMARK Flexibility Score: inf
ROOT
ATOM      1  C   UNL     1      27.370   5.566  31.642  1.00  0.00     0.004 C 
ENDROOT
BRANCH   1   2
ATOM      2  C   UNL     1      27.506   6.582  32.785  1.00  0.00     0.027 C 
BRANCH   2   3
ATOM      3  C   UNL     1      26.910   7.906  32.380  1.00  0.00    -0.031 C 
ATOM      4  C   UNL     1      27.271   9.099  32.890  1.00  0.00    -0.027 C 
BRANCH   4   5
ATOM      5  C   UNL     1      28.267   9.296  34.006  1.00  0.00     0.054 C 
BRANCH   5   6
ATOM      6  C   UNL     1      28.016  10.572  34.760  1.00  0.00    -0.027 C 
ATOM      7  C   UNL     1      28.704  10.885  35.868  1.00  0.00    -0.031 C 
BRANCH   7   8
ATOM      8  C   UNL     1      28.421  12.142  36.644  1.00  0.00     0.027 C 
BRANCH   8   9
ATOM      9  C   UNL     1      27.380  13.048  35.962  1.00  0.00     0.004 C 
BRANCH   9  10
ATOM     10  C   UNL     1      27.934  14.401  35.481  1.00  0.00     0.000 C 
BRANCH  10  11
ATOM     11  C   UNL     1      27.648  14.665  33.995  1.00  0.00    -0.003 C 
ATOM     12  C   UNL     1      26.154  14.574  33.698  1.00  0.00     0.004 C 
ENDBRANCH  10  11
ENDBRANCH   9  10
ENDBRANCH   8   9
ENDBRANCH   7   8
ENDBRANCH   5   6
ENDBRANCH   4   5
ENDBRANCH   2   3
ENDBRANCH   1   2
BRANCH   1  13
ATOM     13  C   UNL     1      28.352   4.391  31.771  1.00  0.00     0.000 C 
BRANCH  13  14
ATOM     14  C   UNL     1      29.819   4.849  31.764  1.00  0.00     0.000 C 
BRANCH  14  15
ATOM     15  C   UNL     1      30.631   4.232  30.612  1.00  0.00     0.000 C 
BRANCH  15  16
ATOM     16  C   UNL     1      30.017   2.936  30.040  1.00  0.00     0.003 C 
BRANCH  16  17
ATOM     17  C   UNL     1      30.120   2.865  28.509  1.00  0.00     0.042 C 
BRANCH  17  18
ATOM     18  C   UNL     1      29.268   1.719  27.953  1.00  0.00     0.233 C 
BRANCH  18  19
ATOM     19  O   UNL     1      27.999   2.202  27.518  1.00  0.00    -0.466 OA
BRANCH  19  20
ATOM     20  C   UNL     1      26.787   1.814  28.097  1.00  0.00     0.302 C 
ATOM     21  O   UNL     1      26.201   0.759  27.729  1.00  0.00    -0.253 OA
ATOM     22  C   UNL     1      26.162   2.672  29.142  1.00  0.00     0.139 C 
ENDBRANCH  19  20
ENDBRANCH  18  19
ENDBRANCH  17  18
ENDBRANCH  16  17
ENDBRANCH  15  16
ENDBRANCH  14  15
ENDBRANCH  13  14
ENDBRANCH   1  13
TORSDOF 16
ENDMDL
MODEL 8
REMARK VINA RESULT:    -5.718      6.130     11.781
REMARK INTER + INTRA:         -12.517
REMARK INTER:                 -11.557
REMARK INTRA:                  -0.960
REMARK UNBOUND:                -1.450
REMARK SMILES CCCCCC=CCC=CCCCCCCCCOC(C)=O
REMARK SMILES IDX 12 1 11 2 10 3 9 4 8 5 7 6 6 7 5 8 4 9 3 10 2 11 1 12 13 13
REMARK SMILES IDX 14 14 15 15 16 16 17 17 18 18 19 19 20 20 22 21 21 22
REMARK H PARENT
REMARK Flexibility Score: inf
ROOT
ATOM      1  C   UNL     1      28.001  10.345  34.702  1.00  0.00     0.004 C 
ENDROOT
BRANCH   1   2
ATOM      2  C   UNL     1      28.363   9.148  33.811  1.00  0.00     0.027 C 
BRANCH   2   3
ATOM      3  C   UNL     1      27.281   8.911  32.789  1.00  0.00    -0.031 C 
ATOM      4  C   UNL     1      26.798   7.701  32.448  1.00  0.00    -0.027 C 
BRANCH   4   5
ATOM      5  C   UNL     1      27.318   6.385  32.971  1.00  0.00     0.054 C 
BRANCH   5   6
ATOM      6  C   UNL     1      27.580   5.407  31.859  1.00  0.00    -0.027 C 
ATOM      7  C   UNL     1      28.709   4.687  31.803  1.00  0.00    -0.031 C 
BRANCH   7   8
ATOM      8  C   UNL     1      28.987   3.741  30.666  1.00  0.00     0.027 C 
BRANCH   8   9
ATOM      9  C   UNL     1      27.817   2.782  30.383  1.00  0.00     0.004 C 
BRANCH   9  10
ATOM     10  C   UNL     1      27.436   2.666  28.895  1.00  0.00     0.000 C 
BRANCH  10  11
ATOM     11  C   UNL     1      26.046   2.048  28.684  1.00  0.00    -0.003 C 
ATOM     12  C   UNL     1      25.882   0.772  29.504  1.00  0.00     0.004 C 
ENDBRANCH  10  11
ENDBRANCH   9  10
ENDBRANCH   8   9
ENDBRANCH   7   8
ENDBRANCH   5   6
ENDBRANCH   4   5
ENDBRANCH   2   3
ENDBRANCH   1   2
BRANCH   1  13
ATOM     13  C   UNL     1      28.947  10.500  35.903  1.00  0.00     0.000 C 
BRANCH  13  14
ATOM     14  C   UNL     1      28.712  11.811  36.670  1.00  0.00     0.000 C 
BRANCH  14  15
ATOM     15  C   UNL     1      27.604  12.677  36.045  1.00  0.00     0.000 C 
BRANCH  15  16
ATOM     16  C   UNL     1      27.091  13.799  36.973  1.00  0.00     0.003 C 
BRANCH  16  17
ATOM     17  C   UNL     1      27.537  15.194  36.506  1.00  0.00     0.042 C 
BRANCH  17  18
ATOM     18  C   UNL     1      27.977  15.167  35.039  1.00  0.00     0.233 C 
BRANCH  18  19
ATOM     19  O   UNL     1      26.918  15.602  34.188  1.00  0.00    -0.466 OA
BRANCH  19  20
ATOM     20  C   UNL     1      26.169  14.736  33.385  1.00  0.00     0.302 C 
ATOM     21  O   UNL     1      26.646  13.632  33.004  1.00  0.00    -0.253 OA
ATOM     22  C   UNL     1      24.803  15.134  32.948  1.00  0.00     0.139 C 
ENDBRANCH  19  20
ENDBRANCH  18  19
ENDBRANCH  17  18
ENDBRANCH  16  17
ENDBRANCH  15  16
ENDBRANCH  14  15
ENDBRANCH  13  14
ENDBRANCH   1  13
TORSDOF 16
ENDMDL
MODEL 9
REMARK VINA RESULT:    -5.676      5.983     10.993
REMARK INTER + INTRA:         -12.435
REMARK INTER:                 -11.260
REMARK INTRA:                  -1.175
REMARK UNBOUND:                -1.450
REMARK SMILES CCCCCC=CCC=CCCCCCCCCOC(C)=O
REMARK SMILES IDX 12 1 11 2 10 3 9 4 8 5 7 6 6 7 5 8 4 9 3 10 2 11 1 12 13 13
REMARK SMILES IDX 14 14 15 15 16 16 17 17 18 18 19 19 20 20 22 21 21 22
REMARK H PARENT
REMARK Flexibility Score: inf
ROOT
ATOM      1  C   UNL     1      27.220   6.681  32.916  1.00  0.00     0.004 C 
ENDROOT
BRANCH   1   2
ATOM      2  C   UNL     1      28.141   5.688  32.192  1.00  0.00     0.027 C 
BRANCH   2   3
ATOM      3  C   UNL     1      29.537   6.248  32.094  1.00  0.00    -0.031 C 
ATOM      4  C   UNL     1      30.629   5.534  31.759  1.00  0.00    -0.027 C 
BRANCH   4   5
ATOM      5  C   UNL     1      30.645   4.046  31.510  1.00  0.00     0.054 C 
BRANCH   5   6
ATOM      6  C   UNL     1      30.608   3.725  30.042  1.00  0.00    -0.027 C 
ATOM      7  C   UNL     1      29.503   3.245  29.452  1.00  0.00    -0.031 C 
BRANCH   7   8
ATOM      8  C   UNL     1      29.482   2.885  27.991  1.00  0.00     0.027 C 
BRANCH   8   9
ATOM      9  C   UNL     1      29.176   1.397  27.743  1.00  0.00     0.004 C 
BRANCH   9  10
ATOM     10  C   UNL     1      27.823   1.133  27.057  1.00  0.00     0.000 C 
BRANCH  10  11
ATOM     11  C   UNL     1      26.756   0.607  28.029  1.00  0.00    -0.003 C 
ATOM     12  C   UNL     1      25.470   1.421  27.925  1.00  0.00     0.004 C 
ENDBRANCH  10  11
ENDBRANCH   9  10
ENDBRANCH   8   9
ENDBRANCH   7   8
ENDBRANCH   5   6
ENDBRANCH   4   5
ENDBRANCH   2   3
ENDBRANCH   1   2
BRANCH   1  13
ATOM     13  C   UNL     1      26.697   7.791  31.990  1.00  0.00     0.000 C 
BRANCH  13  14
ATOM     14  C   UNL     1      27.053   9.197  32.499  1.00  0.00     0.000 C 
BRANCH  14  15
ATOM     15  C   UNL     1      27.953   9.168  33.747  1.00  0.00     0.000 C 
BRANCH  15  16
ATOM     16  C   UNL     1      27.973  10.498  34.532  1.00  0.00     0.003 C 
BRANCH  16  17
ATOM     17  C   UNL     1      28.811  10.406  35.817  1.00  0.00     0.042 C 
BRANCH  17  18
ATOM     18  C   UNL     1      28.721  11.705  36.625  1.00  0.00     0.233 C 
BRANCH  18  19
ATOM     19  O   UNL     1      28.019  12.706  35.890  1.00  0.00    -0.466 OA
BRANCH  19  20
ATOM     20  C   UNL     1      27.424  13.823  36.485  1.00  0.00     0.302 C 
ATOM     21  O   UNL     1      28.116  14.820  36.827  1.00  0.00    -0.253 OA
ATOM     22  C   UNL     1      25.958  13.824  36.749  1.00  0.00     0.139 C 
ENDBRANCH  19  20
ENDBRANCH  18  19
ENDBRANCH  17  18
ENDBRANCH  16  17
ENDBRANCH  15  16
ENDBRANCH  14  15
ENDBRANCH  13  14
ENDBRANCH   1  13
TORSDOF 16
ENDMDL
