MODEL 1
REMARK VINA RESULT:    -4.294      0.000      0.000
REMARK INTER + INTRA:          -6.087
REMARK INTER:                  -6.051
REMARK INTRA:                  -0.037
REMARK UNBOUND:                -0.037
REMARK SMILES CC1=CCC(=C(C)C)C(=O)CC(C)=CCC1
REMARK SMILES IDX 12 1 14 2 13 3 15 4 16 5 2 6 1 7 3 8 11 10 9 11 10 12 5 13
REMARK SMILES IDX 6 14 7 15 8 16 4 17
REMARK H PARENT
REMARK Flexibility Score: 60.00
ROOT
ATOM      1  C   UNL     1     -24.835   4.495  -1.449  1.00  0.00    -0.070 C 
ATOM      2  C   UNL     1     -25.592   3.937  -2.423  1.00  0.00    -0.027 C 
ATOM      3  C   UNL     1     -25.259   5.833  -0.900  1.00  0.00     0.039 C 
ENDROOT
BRANCH   2   4
ATOM      4  C   UNL     1     -25.236   2.685  -3.181  1.00  0.00     0.032 C 
BRANCH   4   5
ATOM      5  C   UNL     1     -26.258   1.584  -2.876  1.00  0.00     0.034 C 
BRANCH   5   6
ATOM      6  C   UNL     1     -25.607   0.233  -2.652  1.00  0.00    -0.077 C 
ATOM      7  C   UNL     1     -25.501  -0.721  -3.817  1.00  0.00     0.039 C 
ATOM      8  C   UNL     1     -25.047  -0.144  -1.476  1.00  0.00    -0.023 CG0
ATOM      9  G   UNL     1     -25.076   0.608  -0.157  1.00  0.00     0.000 G0
ENDBRANCH   5   6
ENDBRANCH   4   5
ENDBRANCH   2   4
BRANCH   1  10
ATOM     10  C   UNL     1     -23.600   3.833  -0.871  1.00  0.00     0.111 C 
BRANCH  10  11
ATOM     11  C   UNL     1     -23.939   2.909   0.273  1.00  0.00     0.163 C 
ATOM     12  O   UNL     1     -24.369   3.441   1.333  1.00  0.00    -0.294 OA
BRANCH  11  13
ATOM     13  C   UNL     1     -23.814   1.414   0.204  1.00  0.00    -0.002 C 
ATOM     14  C   UNL     1     -22.666   0.793   0.615  1.00  0.00    -0.069 C 
ATOM     15  C   UNL     1     -21.397   1.572   0.878  1.00  0.00     0.039 C 
ATOM     16  C   UNL     1     -22.583  -0.708   0.782  1.00  0.00     0.039 C 
BRANCH  13  17
ATOM     17  C   UNL     1     -25.060   0.613  -0.159  1.00  0.00     0.066 CG0
ATOM     18  G   UNL     1     -25.025  -0.126  -1.484  1.00  0.00     0.000 G0
ENDBRANCH  13  17
ENDBRANCH  11  13
ENDBRANCH  10  11
ENDBRANCH   1  10
TORSDOF 0
ENDMDL
MODEL 2
REMARK VINA RESULT:    -4.092      2.515      5.806
REMARK INTER + INTRA:          -5.804
REMARK INTER:                  -5.663
REMARK INTRA:                  -0.141
REMARK UNBOUND:                -0.037
REMARK SMILES CC1=CCC(=C(C)C)C(=O)CC(C)=CCC1
REMARK SMILES IDX 12 1 14 2 13 3 15 4 16 5 2 6 1 7 3 8 11 10 9 11 10 12 5 13
REMARK SMILES IDX 6 14 7 15 8 16 4 17
REMARK H PARENT
REMARK Flexibility Score: 60.00
ROOT
ATOM      1  C   UNL     1     -22.423   0.907   0.176  1.00  0.00    -0.070 C 
ATOM      2  C   UNL     1     -21.361   1.336   0.897  1.00  0.00    -0.027 C 
ATOM      3  C   UNL     1     -22.851  -0.530   0.329  1.00  0.00     0.039 C 
ENDROOT
BRANCH   2   4
ATOM      4  C   UNL     1     -20.712   2.689   0.757  1.00  0.00     0.032 C 
BRANCH   4   5
ATOM      5  C   UNL     1     -21.188   3.613   1.884  1.00  0.00     0.034 C 
BRANCH   5   6
ATOM      6  C   UNL     1     -21.442   5.028   1.405  1.00  0.00    -0.077 C 
ATOM      7  C   UNL     1     -20.264   5.957   1.236  1.00  0.00     0.039 C 
ATOM      8  C   UNL     1     -22.666   5.493   1.050  1.00  0.00    -0.023 CG0
ATOM      9  G   UNL     1     -23.999   4.777   1.184  1.00  0.00     0.000 G0
ENDBRANCH   5   6
ENDBRANCH   4   5
ENDBRANCH   2   4
BRANCH   1  10
ATOM     10  C   UNL     1     -23.213   1.802  -0.758  1.00  0.00     0.111 C 
BRANCH  10  11
ATOM     11  C   UNL     1     -24.322   2.529  -0.038  1.00  0.00     0.163 C 
ATOM     12  O   UNL     1     -25.137   1.824   0.620  1.00  0.00    -0.294 OA
BRANCH  11  13
ATOM     13  C   UNL     1     -24.488   4.021  -0.046  1.00  0.00    -0.002 C 
ATOM     14  C   UNL     1     -25.201   4.636  -1.040  1.00  0.00    -0.069 C 
ATOM     15  C   UNL     1     -25.598   3.898  -2.299  1.00  0.00     0.039 C 
ATOM     16  C   UNL     1     -25.586   6.095  -0.964  1.00  0.00     0.039 C 
BRANCH  13  17
ATOM     17  C   UNL     1     -24.000   4.797   1.172  1.00  0.00     0.066 CG0
ATOM     18  G   UNL     1     -22.659   5.495   1.035  1.00  0.00     0.000 G0
ENDBRANCH  13  17
ENDBRANCH  11  13
ENDBRANCH  10  11
ENDBRANCH   1  10
TORSDOF 0
ENDMDL
MODEL 3
REMARK VINA RESULT:    -3.971      2.722      4.845
REMARK INTER + INTRA:          -5.633
REMARK INTER:                  -5.733
REMARK INTRA:                   0.100
REMARK UNBOUND:                -0.037
REMARK SMILES CC1=CCC(=C(C)C)C(=O)CC(C)=CCC1
REMARK SMILES IDX 12 1 14 2 13 3 15 4 16 5 2 6 1 7 3 8 11 10 9 11 10 12 5 13
REMARK SMILES IDX 6 14 7 15 8 16 4 17
REMARK H PARENT
REMARK Flexibility Score: 60.00
ROOT
ATOM      1  C   UNL     1     -24.834   0.880  -0.756  1.00  0.00    -0.070 C 
ATOM      2  C   UNL     1     -24.725   2.176  -1.134  1.00  0.00    -0.027 C 
ATOM      3  C   UNL     1     -25.161   0.587   0.686  1.00  0.00     0.039 C 
ENDROOT
BRANCH   2   4
ATOM      4  C   UNL     1     -24.263   2.643  -2.489  1.00  0.00     0.032 C 
BRANCH   4   5
ATOM      5  C   UNL     1     -25.415   2.540  -3.496  1.00  0.00     0.034 C 
BRANCH   5   6
ATOM      6  C   UNL     1     -24.997   1.867  -4.788  1.00  0.00    -0.077 C 
ATOM      7  C   UNL     1     -23.905   2.503  -5.614  1.00  0.00     0.039 C 
ATOM      8  C   UNL     1     -25.501   0.682  -5.216  1.00  0.00    -0.023 CG0
ATOM      9  G   UNL     1     -26.636  -0.114  -4.597  1.00  0.00     0.000 G0
ENDBRANCH   5   6
ENDBRANCH   4   5
ENDBRANCH   2   4
BRANCH   1  10
ATOM     10  C   UNL     1     -24.665  -0.284  -1.712  1.00  0.00     0.111 C 
BRANCH  10  11
ATOM     11  C   UNL     1     -25.993  -0.819  -2.188  1.00  0.00     0.163 C 
ATOM     12  O   UNL     1     -26.916  -0.907  -1.332  1.00  0.00    -0.294 OA
BRANCH  11  13
ATOM     13  C   UNL     1     -26.272  -1.222  -3.607  1.00  0.00    -0.002 C 
ATOM     14  C   UNL     1     -26.344  -2.544  -3.953  1.00  0.00    -0.069 C 
ATOM     15  C   UNL     1     -25.873  -3.633  -3.014  1.00  0.00     0.039 C 
ATOM     16  C   UNL     1     -26.847  -2.992  -5.306  1.00  0.00     0.039 C 
BRANCH  13  17
ATOM     17  C   UNL     1     -26.649  -0.125  -4.596  1.00  0.00     0.066 CG0
ATOM     18  G   UNL     1     -25.502   0.659  -5.206  1.00  0.00     0.000 G0
ENDBRANCH  13  17
ENDBRANCH  11  13
ENDBRANCH  10  11
ENDBRANCH   1  10
TORSDOF 0
ENDMDL
MODEL 4
REMARK VINA RESULT:    -3.965      1.999      4.169
REMARK INTER + INTRA:          -5.624
REMARK INTER:                  -5.981
REMARK INTRA:                   0.358
REMARK UNBOUND:                -0.037
REMARK SMILES CC1=CCC(=C(C)C)C(=O)CC(C)=CCC1
REMARK SMILES IDX 12 1 14 2 13 3 15 4 16 5 2 6 1 7 3 8 11 10 9 11 10 12 5 13
REMARK SMILES IDX 6 14 7 15 8 16 4 17
REMARK H PARENT
REMARK Flexibility Score: 60.00
ROOT
ATOM      1  C   UNL     1     -24.243   2.704  -2.158  1.00  0.00    -0.070 C 
ATOM      2  C   UNL     1     -23.340   3.315  -1.356  1.00  0.00    -0.027 C 
ATOM      3  C   UNL     1     -25.515   3.442  -2.485  1.00  0.00     0.039 C 
ENDROOT
BRANCH   2   4
ATOM      4  C   UNL     1     -22.092   2.669  -0.812  1.00  0.00     0.032 C 
BRANCH   4   5
ATOM      5  C   UNL     1     -22.332   2.205   0.629  1.00  0.00     0.034 C 
BRANCH   5   6
ATOM      6  C   UNL     1     -23.662   2.680   1.178  1.00  0.00    -0.077 C 
ATOM      7  C   UNL     1     -23.767   4.092   1.700  1.00  0.00     0.039 C 
ATOM      8  C   UNL     1     -24.792   1.929   1.162  1.00  0.00    -0.023 CG0
ATOM      9  G   UNL     1     -24.928   0.475   0.746  1.00  0.00     0.000 G0
ENDBRANCH   5   6
ENDBRANCH   4   5
ENDBRANCH   2   4
BRANCH   1  10
ATOM     10  C   UNL     1     -24.028   1.328  -2.758  1.00  0.00     0.111 C 
BRANCH  10  11
ATOM     11  C   UNL     1     -24.205   0.234  -1.734  1.00  0.00     0.163 C 
ATOM     12  O   UNL     1     -23.357  -0.701  -1.741  1.00  0.00    -0.294 OA
BRANCH  11  13
ATOM     13  C   UNL     1     -25.306   0.214  -0.713  1.00  0.00    -0.002 C 
ATOM     14  C   UNL     1     -26.568  -0.187  -1.059  1.00  0.00    -0.069 C 
ATOM     15  C   UNL     1     -26.977  -0.347  -2.506  1.00  0.00     0.039 C 
ATOM     16  C   UNL     1     -27.639  -0.442  -0.024  1.00  0.00     0.039 C 
BRANCH  13  17
ATOM     17  C   UNL     1     -24.931   0.475   0.741  1.00  0.00     0.066 CG0
ATOM     18  G   UNL     1     -24.804   1.930   1.156  1.00  0.00     0.000 G0
ENDBRANCH  13  17
ENDBRANCH  11  13
ENDBRANCH  10  11
ENDBRANCH   1  10
TORSDOF 0
ENDMDL
MODEL 5
REMARK VINA RESULT:    -3.863      1.878      3.952
REMARK INTER + INTRA:          -5.481
REMARK INTER:                  -5.434
REMARK INTRA:                  -0.047
REMARK UNBOUND:                -0.037
REMARK SMILES CC1=CCC(=C(C)C)C(=O)CC(C)=CCC1
REMARK SMILES IDX 12 1 14 2 13 3 15 4 16 5 2 6 1 7 3 8 11 10 9 11 10 12 5 13
REMARK SMILES IDX 6 14 7 15 8 16 4 17
REMARK H PARENT
REMARK Flexibility Score: 60.00
ROOT
ATOM      1  C   UNL     1     -25.886  -0.248  -2.929  1.00  0.00    -0.070 C 
ATOM      2  C   UNL     1     -26.313   0.842  -3.609  1.00  0.00    -0.027 C 
ATOM      3  C   UNL     1     -25.878  -1.573  -3.646  1.00  0.00     0.039 C 
ENDROOT
BRANCH   2   4
ATOM      4  C   UNL     1     -26.524   2.207  -3.006  1.00  0.00     0.032 C 
BRANCH   4   5
ATOM      5  C   UNL     1     -25.246   3.041  -3.146  1.00  0.00     0.034 C 
BRANCH   5   6
ATOM      6  C   UNL     1     -24.870   3.747  -1.859  1.00  0.00    -0.077 C 
ATOM      7  C   UNL     1     -25.698   4.928  -1.414  1.00  0.00     0.039 C 
ATOM      8  C   UNL     1     -23.869   3.335  -1.041  1.00  0.00    -0.023 CG0
ATOM      9  G   UNL     1     -22.870   2.221  -1.295  1.00  0.00     0.000 G0
ENDBRANCH   5   6
ENDBRANCH   4   5
ENDBRANCH   2   4
BRANCH   1  10
ATOM     10  C   UNL     1     -25.398  -0.197  -1.494  1.00  0.00     0.111 C 
BRANCH  10  11
ATOM     11  C   UNL     1     -23.892  -0.155  -1.414  1.00  0.00     0.163 C 
ATOM     12  O   UNL     1     -23.257  -1.035  -2.058  1.00  0.00    -0.294 OA
BRANCH  11  13
ATOM     13  C   UNL     1     -23.125   0.877  -0.638  1.00  0.00    -0.002 C 
ATOM     14  C   UNL     1     -22.542   0.557   0.558  1.00  0.00    -0.069 C 
ATOM     15  C   UNL     1     -22.874  -0.731   1.278  1.00  0.00     0.039 C 
ATOM     16  C   UNL     1     -21.575   1.488   1.253  1.00  0.00     0.039 C 
BRANCH  13  17
ATOM     17  C   UNL     1     -22.867   2.222  -1.307  1.00  0.00     0.066 CG0
ATOM     18  G   UNL     1     -23.882   3.318  -1.036  1.00  0.00     0.000 G0
ENDBRANCH  13  17
ENDBRANCH  11  13
ENDBRANCH  10  11
ENDBRANCH   1  10
TORSDOF 0
ENDMDL
MODEL 6
REMARK VINA RESULT:    -3.820      1.885      4.167
REMARK INTER + INTRA:          -5.420
REMARK INTER:                  -5.666
REMARK INTRA:                   0.245
REMARK UNBOUND:                -0.037
REMARK SMILES CC1=CCC(=C(C)C)C(=O)CC(C)=CCC1
REMARK SMILES IDX 12 1 14 2 13 3 15 4 16 5 2 6 1 7 3 8 11 10 9 11 10 12 5 13
REMARK SMILES IDX 6 14 7 15 8 16 4 17
REMARK H PARENT
REMARK Flexibility Score: 60.00
ROOT
ATOM      1  C   UNL     1     -25.322   1.607  -3.673  1.00  0.00    -0.070 C 
ATOM      2  C   UNL     1     -24.560   2.592  -3.142  1.00  0.00    -0.027 C 
ATOM      3  C   UNL     1     -24.998   1.132  -5.066  1.00  0.00     0.039 C 
ENDROOT
BRANCH   2   4
ATOM      4  C   UNL     1     -24.832   3.283  -1.831  1.00  0.00     0.032 C 
BRANCH   4   5
ATOM      5  C   UNL     1     -23.636   3.103  -0.890  1.00  0.00     0.034 C 
BRANCH   5   6
ATOM      6  C   UNL     1     -23.906   2.092   0.206  1.00  0.00    -0.077 C 
ATOM      7  C   UNL     1     -24.291   2.595   1.576  1.00  0.00     0.039 C 
ATOM      8  C   UNL     1     -23.891   0.750   0.010  1.00  0.00    -0.023 CG0
ATOM      9  G   UNL     1     -23.481   0.006  -1.249  1.00  0.00     0.000 G0
ENDBRANCH   5   6
ENDBRANCH   4   5
ENDBRANCH   2   4
BRANCH   1  10
ATOM     10  C   UNL     1     -26.468   0.948  -2.931  1.00  0.00     0.111 C 
BRANCH  10  11
ATOM     11  C   UNL     1     -25.981  -0.105  -1.966  1.00  0.00     0.163 C 
ATOM     12  O   UNL     1     -26.797  -0.500  -1.088  1.00  0.00    -0.294 OA
BRANCH  11  13
ATOM     13  C   UNL     1     -24.608  -0.710  -2.012  1.00  0.00    -0.002 C 
ATOM     14  C   UNL     1     -24.342  -1.769  -2.838  1.00  0.00    -0.069 C 
ATOM     15  C   UNL     1     -25.452  -2.546  -3.509  1.00  0.00     0.039 C 
ATOM     16  C   UNL     1     -22.932  -2.255  -3.088  1.00  0.00     0.039 C 
BRANCH  13  17
ATOM     17  C   UNL     1     -23.492   0.002  -1.257  1.00  0.00     0.066 CG0
ATOM     18  G   UNL     1     -23.894   0.735   0.010  1.00  0.00     0.000 G0
ENDBRANCH  13  17
ENDBRANCH  11  13
ENDBRANCH  10  11
ENDBRANCH   1  10
TORSDOF 0
ENDMDL
MODEL 7
REMARK VINA RESULT:    -3.777      7.611      9.340
REMARK INTER + INTRA:          -5.359
REMARK INTER:                  -5.436
REMARK INTRA:                   0.077
REMARK UNBOUND:                -0.037
REMARK SMILES CC1=CCC(=C(C)C)C(=O)CC(C)=CCC1
REMARK SMILES IDX 12 1 14 2 13 3 15 4 16 5 2 6 1 7 3 8 11 10 9 11 10 12 5 13
REMARK SMILES IDX 6 14 7 15 8 16 4 17
REMARK H PARENT
REMARK Flexibility Score: 60.00
ROOT
ATOM      1  C   UNL     1     -27.321  -1.163  -7.972  1.00  0.00    -0.070 C 
ATOM      2  C   UNL     1     -27.338  -1.762  -9.186  1.00  0.00    -0.027 C 
ATOM      3  C   UNL     1     -27.563   0.323  -7.912  1.00  0.00     0.039 C 
ENDROOT
BRANCH   2   4
ATOM      4  C   UNL     1     -26.973  -3.201  -9.443  1.00  0.00     0.032 C 
BRANCH   4   5
ATOM      5  C   UNL     1     -28.232  -4.002  -9.795  1.00  0.00     0.034 C 
BRANCH   5   6
ATOM      6  C   UNL     1     -28.156  -5.440  -9.321  1.00  0.00    -0.077 C 
ATOM      7  C   UNL     1     -27.560  -6.474 -10.244  1.00  0.00     0.039 C 
ATOM      8  C   UNL     1     -28.530  -5.843  -8.081  1.00  0.00    -0.023 CG0
ATOM      9  G   UNL     1     -29.204  -5.010  -7.005  1.00  0.00     0.000 G0
ENDBRANCH   5   6
ENDBRANCH   4   5
ENDBRANCH   2   4
BRANCH   1  10
ATOM     10  C   UNL     1     -27.094  -1.914  -6.675  1.00  0.00     0.111 C 
BRANCH  10  11
ATOM     11  C   UNL     1     -28.312  -2.703  -6.261  1.00  0.00     0.163 C 
ATOM     12  O   UNL     1     -29.380  -2.056  -6.079  1.00  0.00    -0.294 OA
BRANCH  11  13
ATOM     13  C   UNL     1     -28.321  -4.193  -6.081  1.00  0.00    -0.002 C 
ATOM     14  C   UNL     1     -27.672  -4.769  -5.022  1.00  0.00    -0.069 C 
ATOM     15  C   UNL     1     -26.699  -3.984  -4.170  1.00  0.00     0.039 C 
ATOM     16  C   UNL     1     -27.847  -6.230  -4.674  1.00  0.00     0.039 C 
BRANCH  13  17
ATOM     17  C   UNL     1     -29.219  -5.015  -6.998  1.00  0.00     0.066 CG0
ATOM     18  G   UNL     1     -28.522  -5.835  -8.069  1.00  0.00     0.000 G0
ENDBRANCH  13  17
ENDBRANCH  11  13
ENDBRANCH  10  11
ENDBRANCH   1  10
TORSDOF 0
ENDMDL
MODEL 8
REMARK VINA RESULT:    -3.552      8.049     10.432
REMARK INTER + INTRA:          -5.042
REMARK INTER:                  -4.895
REMARK INTRA:                  -0.147
REMARK UNBOUND:                -0.037
REMARK SMILES CC1=CCC(=C(C)C)C(=O)CC(C)=CCC1
REMARK SMILES IDX 12 1 14 2 13 3 15 4 16 5 2 6 1 7 3 8 11 10 9 11 10 12 5 13
REMARK SMILES IDX 6 14 7 15 8 16 4 17
REMARK H PARENT
REMARK Flexibility Score: 60.00
ROOT
ATOM      1  C   UNL     1     -27.597  -1.825  -7.395  1.00  0.00    -0.070 C 
ATOM      2  C   UNL     1     -27.221  -2.016  -6.109  1.00  0.00    -0.027 C 
ATOM      3  C   UNL     1     -27.075  -0.607  -8.113  1.00  0.00     0.039 C 
ENDROOT
BRANCH   2   4
ATOM      4  C   UNL     1     -27.761  -3.091  -5.202  1.00  0.00     0.032 C 
BRANCH   4   5
ATOM      5  C   UNL     1     -26.816  -4.298  -5.206  1.00  0.00     0.034 C 
BRANCH   5   6
ATOM      6  C   UNL     1     -27.560  -5.617  -5.261  1.00  0.00    -0.077 C 
ATOM      7  C   UNL     1     -28.230  -6.122  -4.007  1.00  0.00     0.039 C 
ATOM      8  C   UNL     1     -27.720  -6.343  -6.397  1.00  0.00    -0.023 CG0
ATOM      9  G   UNL     1     -27.100  -6.076  -7.756  1.00  0.00     0.000 G0
ENDBRANCH   5   6
ENDBRANCH   4   5
ENDBRANCH   2   4
BRANCH   1  10
ATOM     10  C   UNL     1     -28.496  -2.783  -8.151  1.00  0.00     0.111 C 
BRANCH  10  11
ATOM     11  C   UNL     1     -27.704  -3.832  -8.893  1.00  0.00     0.163 C 
ATOM     12  O   UNL     1     -26.778  -3.424  -9.647  1.00  0.00    -0.294 OA
BRANCH  11  13
ATOM     13  C   UNL     1     -27.944  -5.308  -8.762  1.00  0.00    -0.002 C 
ATOM     14  C   UNL     1     -28.776  -5.957  -9.634  1.00  0.00    -0.069 C 
ATOM     15  C   UNL     1     -29.694  -5.196 -10.563  1.00  0.00     0.039 C 
ATOM     16  C   UNL     1     -28.864  -7.465  -9.684  1.00  0.00     0.039 C 
BRANCH  13  17
ATOM     17  C   UNL     1     -27.097  -6.079  -7.756  1.00  0.00     0.066 CG0
ATOM     18  G   UNL     1     -27.728  -6.338  -6.400  1.00  0.00     0.000 G0
ENDBRANCH  13  17
ENDBRANCH  11  13
ENDBRANCH  10  11
ENDBRANCH   1  10
TORSDOF 0
ENDMDL
MODEL 9
REMARK VINA RESULT:    -3.484      9.188     11.936
REMARK INTER + INTRA:          -4.946
REMARK INTER:                  -4.861
REMARK INTRA:                  -0.085
REMARK UNBOUND:                -0.037
REMARK SMILES CC1=CCC(=C(C)C)C(=O)CC(C)=CCC1
REMARK SMILES IDX 12 1 14 2 13 3 15 4 16 5 2 6 1 7 3 8 11 10 9 11 10 12 5 13
REMARK SMILES IDX 6 14 7 15 8 16 4 17
REMARK H PARENT
REMARK Flexibility Score: 60.00
ROOT
ATOM      1  C   UNL     1     -28.619  -3.357  -6.918  1.00  0.00    -0.070 C 
ATOM      2  C   UNL     1     -27.949  -3.912  -5.880  1.00  0.00    -0.027 C 
ATOM      3  C   UNL     1     -28.313  -1.926  -7.276  1.00  0.00     0.039 C 
ENDROOT
BRANCH   2   4
ATOM      4  C   UNL     1     -28.234  -5.272  -5.298  1.00  0.00     0.032 C 
BRANCH   4   5
ATOM      5  C   UNL     1     -27.417  -6.337  -6.040  1.00  0.00     0.034 C 
BRANCH   5   6
ATOM      6  C   UNL     1     -28.232  -7.573  -6.363  1.00  0.00    -0.077 C 
ATOM      7  C   UNL     1     -28.675  -8.464  -5.228  1.00  0.00     0.039 C 
ATOM      8  C   UNL     1     -28.651  -7.891  -7.614  1.00  0.00    -0.023 CG0
ATOM      9  G   UNL     1     -28.291  -7.192  -8.912  1.00  0.00     0.000 G0
ENDBRANCH   5   6
ENDBRANCH   4   5
ENDBRANCH   2   4
BRANCH   1  10
ATOM     10  C   UNL     1     -29.642  -4.109  -7.747  1.00  0.00     0.111 C 
BRANCH  10  11
ATOM     11  C   UNL     1     -29.028  -4.712  -8.986  1.00  0.00     0.163 C 
ATOM     12  O   UNL     1     -28.271  -3.971  -9.671  1.00  0.00    -0.294 OA
BRANCH  11  13
ATOM     13  C   UNL     1     -29.251  -6.131  -9.424  1.00  0.00    -0.002 C 
ATOM     14  C   UNL     1     -30.188  -6.426 -10.377  1.00  0.00    -0.069 C 
ATOM     15  C   UNL     1     -31.217  -5.407 -10.814  1.00  0.00     0.039 C 
ATOM     16  C   UNL     1     -30.284  -7.795 -11.010  1.00  0.00     0.039 C 
BRANCH  13  17
ATOM     17  C   UNL     1     -28.284  -7.193  -8.912  1.00  0.00     0.066 CG0
ATOM     18  G   UNL     1     -28.672  -7.894  -7.622  1.00  0.00     0.000 G0
ENDBRANCH  13  17
ENDBRANCH  11  13
ENDBRANCH  10  11
ENDBRANCH   1  10
TORSDOF 0
ENDMDL
