MODEL 1
REMARK VINA RESULT:    -3.785      0.000      0.000
REMARK INTER + INTRA:          -9.514
REMARK INTER:                  -6.884
REMARK INTRA:                  -2.631
REMARK UNBOUND:                -2.631
REMARK SMILES CCCCCCCCCCCCCCCC(=O)[O-]
REMARK SMILES IDX 9 1 10 2 11 3 12 4 13 5 14 6 15 7 16 8 17 9 18 10 8 11 7 12
REMARK SMILES IDX 6 13 5 14 4 15 3 16 2 17 1 18
REMARK H PARENT
REMARK Flexibility Score: inf
ROOT
ATOM      1  C   UNL     1       2.804  11.903  12.111  1.00  0.00     0.000 C 
ENDROOT
BRANCH   1   2
ATOM      2  C   UNL     1       2.338  13.348  12.341  1.00  0.00     0.000 C 
BRANCH   2   3
ATOM      3  C   UNL     1       3.323  14.386  11.760  1.00  0.00     0.000 C 
BRANCH   3   4
ATOM      4  C   UNL     1       4.781  14.178  12.210  1.00  0.00     0.000 C 
BRANCH   4   5
ATOM      5  C   UNL     1       5.770  13.849  11.077  1.00  0.00     0.000 C 
BRANCH   5   6
ATOM      6  C   UNL     1       6.907  12.880  11.463  1.00  0.00     0.006 C 
BRANCH   6   7
ATOM      7  C   UNL     1       6.478  11.409  11.585  1.00  0.00     0.053 C 
BRANCH   7   8
ATOM      8  C   UNL     1       7.117  10.547  10.540  1.00  0.00     0.041 C 
ATOM      9  O   UNL     1       7.924   9.641  10.875  1.00  0.00    -0.550 OA
ATOM     10  O   UNL     1       6.794  10.722   9.201  1.00  0.00    -0.550 OA
ENDBRANCH   7   8
ENDBRANCH   6   7
ENDBRANCH   5   6
ENDBRANCH   4   5
ENDBRANCH   3   4
ENDBRANCH   2   3
ENDBRANCH   1   2
BRANCH   1  11
ATOM     11  C   UNL     1       1.646  11.022  11.627  1.00  0.00     0.000 C 
BRANCH  11  12
ATOM     12  C   UNL     1       2.039  10.240  10.365  1.00  0.00    -0.000 C 
BRANCH  12  13
ATOM     13  C   UNL     1       3.356  10.732   9.737  1.00  0.00    -0.000 C 
BRANCH  13  14
ATOM     14  C   UNL     1       3.217  11.397   8.355  1.00  0.00    -0.000 C 
BRANCH  14  15
ATOM     15  C   UNL     1       3.769  12.832   8.321  1.00  0.00    -0.000 C 
BRANCH  15  16
ATOM     16  C   UNL     1       2.682  13.887   8.045  1.00  0.00    -0.000 C 
BRANCH  16  17
ATOM     17  C   UNL     1       1.263  13.494   8.496  1.00  0.00    -0.003 C 
ATOM     18  C   UNL     1       0.566  14.585   9.307  1.00  0.00     0.004 C 
ENDBRANCH  16  17
ENDBRANCH  15  16
ENDBRANCH  14  15
ENDBRANCH  13  14
ENDBRANCH  12  13
ENDBRANCH  11  12
ENDBRANCH   1  11
TORSDOF 14
ENDMDL
MODEL 2
REMARK VINA RESULT:    -3.706      1.280      3.076
REMARK INTER + INTRA:          -9.370
REMARK INTER:                  -7.156
REMARK INTRA:                  -2.214
REMARK UNBOUND:                -2.631
REMARK SMILES CCCCCCCCCCCCCCCC(=O)[O-]
REMARK SMILES IDX 9 1 10 2 11 3 12 4 13 5 14 6 15 7 16 8 17 9 18 10 8 11 7 12
REMARK SMILES IDX 6 13 5 14 4 15 3 16 2 17 1 18
REMARK H PARENT
REMARK Flexibility Score: inf
ROOT
ATOM      1  C   UNL     1       3.336  14.674  11.887  1.00  0.00     0.000 C 
ENDROOT
BRANCH   1   2
ATOM      2  C   UNL     1       4.399  13.566  11.925  1.00  0.00     0.000 C 
BRANCH   2   3
ATOM      3  C   UNL     1       5.662  13.931  11.114  1.00  0.00     0.000 C 
BRANCH   3   4
ATOM      4  C   UNL     1       6.775  12.870  11.188  1.00  0.00     0.000 C 
BRANCH   4   5
ATOM      5  C   UNL     1       6.281  11.416  11.301  1.00  0.00     0.000 C 
BRANCH   5   6
ATOM      6  C   UNL     1       6.751  10.476  10.171  1.00  0.00     0.006 C 
BRANCH   6   7
ATOM      7  C   UNL     1       8.154  10.784   9.627  1.00  0.00     0.053 C 
BRANCH   7   8
ATOM      8  C   UNL     1       8.339  10.284   8.227  1.00  0.00     0.041 C 
ATOM      9  O   UNL     1       7.368  10.275   7.425  1.00  0.00    -0.550 OA
ATOM     10  O   UNL     1       9.590   9.861   7.799  1.00  0.00    -0.550 OA
ENDBRANCH   7   8
ENDBRANCH   6   7
ENDBRANCH   5   6
ENDBRANCH   4   5
ENDBRANCH   3   4
ENDBRANCH   2   3
ENDBRANCH   1   2
BRANCH   1  11
ATOM     11  C   UNL     1       2.056  14.185  11.198  1.00  0.00     0.000 C 
BRANCH  11  12
ATOM     12  C   UNL     1       1.815  14.943   9.884  1.00  0.00    -0.000 C 
BRANCH  12  13
ATOM     13  C   UNL     1       1.631  14.009   8.675  1.00  0.00    -0.000 C 
BRANCH  13  14
ATOM     14  C   UNL     1       2.891  13.786   7.818  1.00  0.00    -0.000 C 
BRANCH  14  15
ATOM     15  C   UNL     1       3.718  12.570   8.271  1.00  0.00    -0.000 C 
BRANCH  15  16
ATOM     16  C   UNL     1       2.851  11.333   8.570  1.00  0.00    -0.000 C 
BRANCH  16  17
ATOM     17  C   UNL     1       2.995  10.764   9.994  1.00  0.00    -0.003 C 
ATOM     18  C   UNL     1       1.662  10.342  10.609  1.00  0.00     0.004 C 
ENDBRANCH  16  17
ENDBRANCH  15  16
ENDBRANCH  14  15
ENDBRANCH  13  14
ENDBRANCH  12  13
ENDBRANCH  11  12
ENDBRANCH   1  11
TORSDOF 14
ENDMDL
MODEL 3
REMARK VINA RESULT:    -3.698      2.334      5.379
REMARK INTER + INTRA:          -9.356
REMARK INTER:                  -7.616
REMARK INTRA:                  -1.740
REMARK UNBOUND:                -2.631
REMARK SMILES CCCCCCCCCCCCCCCC(=O)[O-]
REMARK SMILES IDX 9 1 10 2 11 3 12 4 13 5 14 6 15 7 16 8 17 9 18 10 8 11 7 12
REMARK SMILES IDX 6 13 5 14 4 15 3 16 2 17 1 18
REMARK H PARENT
REMARK Flexibility Score: inf
ROOT
ATOM      1  C   UNL     1       1.986  15.164  10.367  1.00  0.00     0.000 C 
ENDROOT
BRANCH   1   2
ATOM      2  C   UNL     1       1.171  14.292   9.399  1.00  0.00     0.000 C 
BRANCH   2   3
ATOM      3  C   UNL     1       1.921  14.018   8.077  1.00  0.00     0.000 C 
BRANCH   3   4
ATOM      4  C   UNL     1       3.408  13.665   8.270  1.00  0.00     0.000 C 
BRANCH   4   5
ATOM      5  C   UNL     1       3.757  12.181   8.048  1.00  0.00     0.000 C 
BRANCH   5   6
ATOM      6  C   UNL     1       2.899  11.181   8.851  1.00  0.00     0.006 C 
BRANCH   6   7
ATOM      7  C   UNL     1       3.301  11.036  10.326  1.00  0.00     0.053 C 
BRANCH   7   8
ATOM      8  C   UNL     1       2.152  10.602  11.184  1.00  0.00     0.041 C 
ATOM      9  O   UNL     1       2.312  10.438  12.422  1.00  0.00    -0.550 OA
ATOM     10  O   UNL     1       0.897  10.412  10.621  1.00  0.00    -0.550 OA
ENDBRANCH   7   8
ENDBRANCH   6   7
ENDBRANCH   5   6
ENDBRANCH   4   5
ENDBRANCH   3   4
ENDBRANCH   2   3
ENDBRANCH   1   2
BRANCH   1  11
ATOM     11  C   UNL     1       2.414  14.361  11.602  1.00  0.00     0.000 C 
BRANCH  11  12
ATOM     12  C   UNL     1       3.656  14.983  12.258  1.00  0.00    -0.000 C 
BRANCH  12  13
ATOM     13  C   UNL     1       4.834  13.999  12.373  1.00  0.00    -0.000 C 
BRANCH  13  14
ATOM     14  C   UNL     1       5.636  13.781  11.076  1.00  0.00    -0.000 C 
BRANCH  14  15
ATOM     15  C   UNL     1       6.922  12.966  11.296  1.00  0.00    -0.000 C 
BRANCH  15  16
ATOM     16  C   UNL     1       6.944  12.233  12.650  1.00  0.00    -0.000 C 
BRANCH  16  17
ATOM     17  C   UNL     1       8.340  12.064  13.277  1.00  0.00    -0.003 C 
ATOM     18  C   UNL     1       8.303  11.931  14.799  1.00  0.00     0.004 C 
ENDBRANCH  16  17
ENDBRANCH  15  16
ENDBRANCH  14  15
ENDBRANCH  13  14
ENDBRANCH  12  13
ENDBRANCH  11  12
ENDBRANCH   1  11
TORSDOF 14
ENDMDL
MODEL 4
REMARK VINA RESULT:    -3.602      2.019      3.732
REMARK INTER + INTRA:          -9.180
REMARK INTER:                  -7.595
REMARK INTRA:                  -1.585
REMARK UNBOUND:                -2.631
REMARK SMILES CCCCCCCCCCCCCCCC(=O)[O-]
REMARK SMILES IDX 9 1 10 2 11 3 12 4 13 5 14 6 15 7 16 8 17 9 18 10 8 11 7 12
REMARK SMILES IDX 6 13 5 14 4 15 3 16 2 17 1 18
REMARK H PARENT
REMARK Flexibility Score: inf
ROOT
ATOM      1  C   UNL     1       5.741  12.539  10.964  1.00  0.00     0.000 C 
ENDROOT
BRANCH   1   2
ATOM      2  C   UNL     1       5.967  11.881  12.334  1.00  0.00     0.000 C 
BRANCH   2   3
ATOM      3  C   UNL     1       7.445  11.935  12.778  1.00  0.00     0.000 C 
BRANCH   3   4
ATOM      4  C   UNL     1       8.430  12.198  11.624  1.00  0.00     0.000 C 
BRANCH   4   5
ATOM      5  C   UNL     1       9.122  10.943  11.060  1.00  0.00     0.000 C 
BRANCH   5   6
ATOM      6  C   UNL     1       8.684  10.539   9.637  1.00  0.00     0.006 C 
BRANCH   6   7
ATOM      7  C   UNL     1       7.424   9.662   9.582  1.00  0.00     0.053 C 
BRANCH   7   8
ATOM      8  C   UNL     1       6.629   9.895   8.333  1.00  0.00     0.041 C 
ATOM      9  O   UNL     1       7.135  10.527   7.369  1.00  0.00    -0.550 OA
ATOM     10  O   UNL     1       5.342   9.384   8.223  1.00  0.00    -0.550 OA
ENDBRANCH   7   8
ENDBRANCH   6   7
ENDBRANCH   5   6
ENDBRANCH   4   5
ENDBRANCH   3   4
ENDBRANCH   2   3
ENDBRANCH   1   2
BRANCH   1  11
ATOM     11  C   UNL     1       5.426  14.032  11.117  1.00  0.00     0.000 C 
BRANCH  11  12
ATOM     12  C   UNL     1       4.526  14.282  12.338  1.00  0.00    -0.000 C 
BRANCH  12  13
ATOM     13  C   UNL     1       3.224  15.023  11.985  1.00  0.00    -0.000 C 
BRANCH  13  14
ATOM     14  C   UNL     1       2.263  14.257  11.057  1.00  0.00    -0.000 C 
BRANCH  14  15
ATOM     15  C   UNL     1       1.906  15.042   9.783  1.00  0.00    -0.000 C 
BRANCH  15  16
ATOM     16  C   UNL     1       1.546  14.128   8.597  1.00  0.00    -0.000 C 
BRANCH  16  17
ATOM     17  C   UNL     1       2.637  13.997   7.518  1.00  0.00    -0.003 C 
ATOM     18  C   UNL     1       3.676  12.926   7.843  1.00  0.00     0.004 C 
ENDBRANCH  16  17
ENDBRANCH  15  16
ENDBRANCH  14  15
ENDBRANCH  13  14
ENDBRANCH  12  13
ENDBRANCH  11  12
ENDBRANCH   1  11
TORSDOF 14
ENDMDL
MODEL 5
REMARK VINA RESULT:    -3.527      3.117      5.821
REMARK INTER + INTRA:          -9.044
REMARK INTER:                  -7.214
REMARK INTRA:                  -1.830
REMARK UNBOUND:                -2.631
REMARK SMILES CCCCCCCCCCCCCCCC(=O)[O-]
REMARK SMILES IDX 9 1 10 2 11 3 12 4 13 5 14 6 15 7 16 8 17 9 18 10 8 11 7 12
REMARK SMILES IDX 6 13 5 14 4 15 3 16 2 17 1 18
REMARK H PARENT
REMARK Flexibility Score: inf
ROOT
ATOM      1  C   UNL     1       7.510  10.042  10.358  1.00  0.00     0.000 C 
ENDROOT
BRANCH   1   2
ATOM      2  C   UNL     1       6.458   9.966   9.241  1.00  0.00     0.000 C 
BRANCH   2   3
ATOM      3  C   UNL     1       5.145  10.686   9.617  1.00  0.00     0.000 C 
BRANCH   3   4
ATOM      4  C   UNL     1       4.522  11.485   8.457  1.00  0.00     0.000 C 
BRANCH   4   5
ATOM      5  C   UNL     1       3.647  12.678   8.885  1.00  0.00     0.000 C 
BRANCH   5   6
ATOM      6  C   UNL     1       2.382  12.901   8.030  1.00  0.00     0.006 C 
BRANCH   6   7
ATOM      7  C   UNL     1       2.017  14.376   7.804  1.00  0.00     0.053 C 
BRANCH   7   8
ATOM      8  C   UNL     1       1.142  14.915   8.893  1.00  0.00     0.041 C 
ATOM      9  O   UNL     1       1.336  16.073   9.347  1.00  0.00    -0.550 OA
ATOM     10  O   UNL     1       0.091  14.150   9.382  1.00  0.00    -0.550 OA
ENDBRANCH   7   8
ENDBRANCH   6   7
ENDBRANCH   5   6
ENDBRANCH   4   5
ENDBRANCH   3   4
ENDBRANCH   2   3
ENDBRANCH   1   2
BRANCH   1  11
ATOM     11  C   UNL     1       8.377  11.298  10.212  1.00  0.00     0.000 C 
BRANCH  11  12
ATOM     12  C   UNL     1       7.941  12.385  11.206  1.00  0.00    -0.000 C 
BRANCH  12  13
ATOM     13  C   UNL     1       7.292  11.813  12.479  1.00  0.00    -0.000 C 
BRANCH  13  14
ATOM     14  C   UNL     1       6.033  12.553  12.965  1.00  0.00    -0.000 C 
BRANCH  14  15
ATOM     15  C   UNL     1       5.492  13.559  11.935  1.00  0.00    -0.000 C 
BRANCH  15  16
ATOM     16  C   UNL     1       4.570  14.622  12.561  1.00  0.00    -0.000 C 
BRANCH  16  17
ATOM     17  C   UNL     1       3.174  14.735  11.921  1.00  0.00    -0.003 C 
ATOM     18  C   UNL     1       2.252  13.573  12.285  1.00  0.00     0.004 C 
ENDBRANCH  16  17
ENDBRANCH  15  16
ENDBRANCH  14  15
ENDBRANCH  13  14
ENDBRANCH  12  13
ENDBRANCH  11  12
ENDBRANCH   1  11
TORSDOF 14
ENDMDL
MODEL 6
REMARK VINA RESULT:    -3.514      2.261      3.446
REMARK INTER + INTRA:          -9.021
REMARK INTER:                  -6.734
REMARK INTRA:                  -2.287
REMARK UNBOUND:                -2.631
REMARK SMILES CCCCCCCCCCCCCCCC(=O)[O-]
REMARK SMILES IDX 9 1 10 2 11 3 12 4 13 5 14 6 15 7 16 8 17 9 18 10 8 11 7 12
REMARK SMILES IDX 6 13 5 14 4 15 3 16 2 17 1 18
REMARK H PARENT
REMARK Flexibility Score: inf
ROOT
ATOM      1  C   UNL     1       3.485  14.983  12.297  1.00  0.00     0.000 C 
ENDROOT
BRANCH   1   2
ATOM      2  C   UNL     1       4.824  14.253  12.479  1.00  0.00     0.000 C 
BRANCH   2   3
ATOM      3  C   UNL     1       5.480  13.878  11.133  1.00  0.00     0.000 C 
BRANCH   3   4
ATOM      4  C   UNL     1       6.496  12.725  11.238  1.00  0.00     0.000 C 
BRANCH   4   5
ATOM      5  C   UNL     1       6.356  11.849  12.497  1.00  0.00     0.000 C 
BRANCH   5   6
ATOM      6  C   UNL     1       7.501  11.990  13.522  1.00  0.00     0.006 C 
BRANCH   6   7
ATOM      7  C   UNL     1       8.910  11.981  12.909  1.00  0.00     0.053 C 
BRANCH   7   8
ATOM      8  C   UNL     1       9.980  12.045  13.955  1.00  0.00     0.041 C 
ATOM      9  O   UNL     1       9.804  12.724  15.001  1.00  0.00    -0.550 OA
ATOM     10  O   UNL     1      11.158  11.326  13.791  1.00  0.00    -0.550 OA
ENDBRANCH   7   8
ENDBRANCH   6   7
ENDBRANCH   5   6
ENDBRANCH   4   5
ENDBRANCH   3   4
ENDBRANCH   2   3
ENDBRANCH   1   2
BRANCH   1  11
ATOM     11  C   UNL     1       2.360  14.263  13.050  1.00  0.00     0.000 C 
BRANCH  11  12
ATOM     12  C   UNL     1       2.740  12.804  13.345  1.00  0.00    -0.000 C 
BRANCH  12  13
ATOM     13  C   UNL     1       2.055  11.800  12.400  1.00  0.00    -0.000 C 
BRANCH  13  14
ATOM     14  C   UNL     1       2.993  11.081  11.413  1.00  0.00    -0.000 C 
BRANCH  14  15
ATOM     15  C   UNL     1       2.678  11.402   9.942  1.00  0.00    -0.000 C 
BRANCH  15  16
ATOM     16  C   UNL     1       1.802  12.657   9.777  1.00  0.00    -0.000 C 
BRANCH  16  17
ATOM     17  C   UNL     1       2.437  13.792   8.953  1.00  0.00    -0.003 C 
ATOM     18  C   UNL     1       3.422  13.290   7.899  1.00  0.00     0.004 C 
ENDBRANCH  16  17
ENDBRANCH  15  16
ENDBRANCH  14  15
ENDBRANCH  13  14
ENDBRANCH  12  13
ENDBRANCH  11  12
ENDBRANCH   1  11
TORSDOF 14
ENDMDL
MODEL 7
REMARK VINA RESULT:    -3.476      2.262      5.297
REMARK INTER + INTRA:          -8.951
REMARK INTER:                  -7.000
REMARK INTRA:                  -1.951
REMARK UNBOUND:                -2.631
REMARK SMILES CCCCCCCCCCCCCCCC(=O)[O-]
REMARK SMILES IDX 9 1 10 2 11 3 12 4 13 5 14 6 15 7 16 8 17 9 18 10 8 11 7 12
REMARK SMILES IDX 6 13 5 14 4 15 3 16 2 17 1 18
REMARK H PARENT
REMARK Flexibility Score: inf
ROOT
ATOM      1  C   UNL     1       2.859  13.906  11.692  1.00  0.00     0.000 C 
ENDROOT
BRANCH   1   2
ATOM      2  C   UNL     1       2.313  14.699  10.495  1.00  0.00     0.000 C 
BRANCH   2   3
ATOM      3  C   UNL     1       2.103  13.813   9.247  1.00  0.00     0.000 C 
BRANCH   3   4
ATOM      4  C   UNL     1       3.413  13.421   8.538  1.00  0.00     0.000 C 
BRANCH   4   5
ATOM      5  C   UNL     1       3.589  11.912   8.285  1.00  0.00     0.000 C 
BRANCH   5   6
ATOM      6  C   UNL     1       3.795  11.057   9.552  1.00  0.00     0.006 C 
BRANCH   6   7
ATOM      7  C   UNL     1       2.706   9.999   9.792  1.00  0.00     0.053 C 
BRANCH   7   8
ATOM      8  C   UNL     1       1.758  10.403  10.879  1.00  0.00     0.041 C 
ATOM      9  O   UNL     1       0.606  10.823  10.590  1.00  0.00    -0.550 OA
ATOM     10  O   UNL     1       2.133  10.283  12.210  1.00  0.00    -0.550 OA
ENDBRANCH   7   8
ENDBRANCH   6   7
ENDBRANCH   5   6
ENDBRANCH   4   5
ENDBRANCH   3   4
ENDBRANCH   2   3
ENDBRANCH   1   2
BRANCH   1  11
ATOM     11  C   UNL     1       4.136  14.553  12.243  1.00  0.00     0.000 C 
BRANCH  11  12
ATOM     12  C   UNL     1       5.388  13.887  11.652  1.00  0.00    -0.000 C 
BRANCH  12  13
ATOM     13  C   UNL     1       5.749  12.561  12.345  1.00  0.00    -0.000 C 
BRANCH  13  14
ATOM     14  C   UNL     1       7.221  12.423  12.776  1.00  0.00    -0.000 C 
BRANCH  14  15
ATOM     15  C   UNL     1       8.023  11.464  11.878  1.00  0.00    -0.000 C 
BRANCH  15  16
ATOM     16  C   UNL     1       7.130  10.462  11.124  1.00  0.00    -0.000 C 
BRANCH  16  17
ATOM     17  C   UNL     1       7.538  10.194   9.664  1.00  0.00    -0.003 C 
ATOM     18  C   UNL     1       8.810  10.932   9.252  1.00  0.00     0.004 C 
ENDBRANCH  16  17
ENDBRANCH  15  16
ENDBRANCH  14  15
ENDBRANCH  13  14
ENDBRANCH  12  13
ENDBRANCH  11  12
ENDBRANCH   1  11
TORSDOF 14
ENDMDL
MODEL 8
REMARK VINA RESULT:    -3.452      2.949      4.983
REMARK INTER + INTRA:          -8.908
REMARK INTER:                  -7.059
REMARK INTRA:                  -1.849
REMARK UNBOUND:                -2.631
REMARK SMILES CCCCCCCCCCCCCCCC(=O)[O-]
REMARK SMILES IDX 9 1 10 2 11 3 12 4 13 5 14 6 15 7 16 8 17 9 18 10 8 11 7 12
REMARK SMILES IDX 6 13 5 14 4 15 3 16 2 17 1 18
REMARK H PARENT
REMARK Flexibility Score: inf
ROOT
ATOM      1  C   UNL     1       1.446  14.000   8.650  1.00  0.00     0.000 C 
ENDROOT
BRANCH   1   2
ATOM      2  C   UNL     1       1.126  15.411   9.166  1.00  0.00     0.000 C 
BRANCH   2   3
ATOM      3  C   UNL     1       1.863  15.739  10.483  1.00  0.00     0.000 C 
BRANCH   3   4
ATOM      4  C   UNL     1       2.382  14.496  11.229  1.00  0.00     0.000 C 
BRANCH   4   5
ATOM      5  C   UNL     1       3.865  14.556  11.639  1.00  0.00     0.000 C 
BRANCH   5   6
ATOM      6  C   UNL     1       4.120  14.859  13.131  1.00  0.00     0.006 C 
BRANCH   6   7
ATOM      7  C   UNL     1       4.137  13.619  14.039  1.00  0.00     0.053 C 
BRANCH   7   8
ATOM      8  C   UNL     1       2.879  13.492  14.842  1.00  0.00     0.041 C 
ATOM      9  O   UNL     1       1.911  12.819  14.400  1.00  0.00    -0.550 OA
ATOM     10  O   UNL     1       2.790  14.087  16.094  1.00  0.00    -0.550 OA
ENDBRANCH   7   8
ENDBRANCH   6   7
ENDBRANCH   5   6
ENDBRANCH   4   5
ENDBRANCH   3   4
ENDBRANCH   2   3
ENDBRANCH   1   2
BRANCH   1  11
ATOM     11  C   UNL     1       2.494  14.049   7.531  1.00  0.00     0.000 C 
BRANCH  11  12
ATOM     12  C   UNL     1       3.655  13.086   7.822  1.00  0.00    -0.000 C 
BRANCH  12  13
ATOM     13  C   UNL     1       3.201  11.784   8.507  1.00  0.00    -0.000 C 
BRANCH  13  14
ATOM     14  C   UNL     1       4.022  11.371   9.743  1.00  0.00    -0.000 C 
BRANCH  14  15
ATOM     15  C   UNL     1       5.314  10.618   9.381  1.00  0.00    -0.000 C 
BRANCH  15  16
ATOM     16  C   UNL     1       6.470  10.909  10.355  1.00  0.00    -0.000 C 
BRANCH  16  17
ATOM     17  C   UNL     1       6.047  11.506  11.710  1.00  0.00    -0.003 C 
ATOM     18  C   UNL     1       7.228  11.788  12.636  1.00  0.00     0.004 C 
ENDBRANCH  16  17
ENDBRANCH  15  16
ENDBRANCH  14  15
ENDBRANCH  13  14
ENDBRANCH  12  13
ENDBRANCH  11  12
ENDBRANCH   1  11
TORSDOF 14
ENDMDL
MODEL 9
REMARK VINA RESULT:    -3.410      2.702      4.131
REMARK INTER + INTRA:          -8.832
REMARK INTER:                  -6.647
REMARK INTRA:                  -2.184
REMARK UNBOUND:                -2.631
REMARK SMILES CCCCCCCCCCCCCCCC(=O)[O-]
REMARK SMILES IDX 9 1 10 2 11 3 12 4 13 5 14 6 15 7 16 8 17 9 18 10 8 11 7 12
REMARK SMILES IDX 6 13 5 14 4 15 3 16 2 17 1 18
REMARK H PARENT
REMARK Flexibility Score: inf
ROOT
ATOM      1  C   UNL     1       6.852  10.532  10.423  1.00  0.00     0.000 C 
ENDROOT
BRANCH   1   2
ATOM      2  C   UNL     1       7.502  11.811  10.970  1.00  0.00     0.000 C 
BRANCH   2   3
ATOM      3  C   UNL     1       6.550  12.614  11.884  1.00  0.00     0.000 C 
BRANCH   3   4
ATOM      4  C   UNL     1       5.915  13.837  11.196  1.00  0.00     0.000 C 
BRANCH   4   5
ATOM      5  C   UNL     1       4.498  14.193  11.681  1.00  0.00     0.000 C 
BRANCH   5   6
ATOM      6  C   UNL     1       3.750  13.055  12.406  1.00  0.00     0.006 C 
BRANCH   6   7
ATOM      7  C   UNL     1       2.988  13.494  13.667  1.00  0.00     0.053 C 
BRANCH   7   8
ATOM      8  C   UNL     1       3.914  13.912  14.768  1.00  0.00     0.041 C 
ATOM      9  O   UNL     1       3.705  14.981  15.398  1.00  0.00    -0.550 OA
ATOM     10  O   UNL     1       4.987  13.104  15.119  1.00  0.00    -0.550 OA
ENDBRANCH   7   8
ENDBRANCH   6   7
ENDBRANCH   5   6
ENDBRANCH   4   5
ENDBRANCH   3   4
ENDBRANCH   2   3
ENDBRANCH   1   2
BRANCH   1  11
ATOM     11  C   UNL     1       6.877  10.515   8.890  1.00  0.00     0.000 C 
BRANCH  11  12
ATOM     12  C   UNL     1       5.452  10.564   8.316  1.00  0.00    -0.000 C 
BRANCH  12  13
ATOM     13  C   UNL     1       4.382  10.853   9.383  1.00  0.00    -0.000 C 
BRANCH  13  14
ATOM     14  C   UNL     1       3.261  11.814   8.947  1.00  0.00    -0.000 C 
BRANCH  14  15
ATOM     15  C   UNL     1       3.791  13.078   8.250  1.00  0.00    -0.000 C 
BRANCH  15  16
ATOM     16  C   UNL     1       2.677  13.908   7.585  1.00  0.00    -0.000 C 
BRANCH  16  17
ATOM     17  C   UNL     1       1.433  14.151   8.461  1.00  0.00    -0.003 C 
ATOM     18  C   UNL     1       1.640  15.244   9.507  1.00  0.00     0.004 C 
ENDBRANCH  16  17
ENDBRANCH  15  16
ENDBRANCH  14  15
ENDBRANCH  13  14
ENDBRANCH  12  13
ENDBRANCH  11  12
ENDBRANCH   1  11
TORSDOF 14
ENDMDL
