MODEL 1
REMARK VINA RESULT:    -2.766      0.000      0.000
REMARK INTER + INTRA:          -4.253
REMARK INTER:                  -3.817
REMARK INTRA:                  -0.436
REMARK UNBOUND:                -0.436
REMARK SMILES CCCCCCCCO
REMARK SMILES IDX 5 1 4 2 3 3 2 4 1 5 6 6 7 7 8 8 9 9
REMARK H PARENT 9 10
REMARK Flexibility Score: inf
ROOT
ATOM      1  C   UNL     1     114.246 116.838 119.302  1.00  0.00     0.000 C 
ENDROOT
BRANCH   1   2
ATOM      2  C   UNL     1     113.824 115.485 119.889  1.00  0.00    -0.000 C 
BRANCH   2   3
ATOM      3  C   UNL     1     114.943 114.889 120.755  1.00  0.00    -0.000 C 
BRANCH   3   4
ATOM      4  C   UNL     1     116.149 114.425 119.924  1.00  0.00    -0.003 C 
ATOM      5  C   UNL     1     117.476 114.973 120.449  1.00  0.00     0.004 C 
ENDBRANCH   3   4
ENDBRANCH   2   3
ENDBRANCH   1   2
BRANCH   1   6
ATOM      6  C   UNL     1     114.623 117.826 120.411  1.00  0.00     0.002 C 
BRANCH   6   7
ATOM      7  C   UNL     1     115.902 118.594 120.052  1.00  0.00     0.028 C 
BRANCH   7   8
ATOM      8  C   UNL     1     115.598 119.859 119.247  1.00  0.00     0.156 C 
BRANCH   8   9
ATOM      9  O   UNL     1     115.245 120.906 120.109  1.00  0.00    -0.396 OA
ATOM     10  H   UNL     1     116.069 121.443 120.240  1.00  0.00     0.210 HD
ENDBRANCH   8   9
ENDBRANCH   7   8
ENDBRANCH   6   7
ENDBRANCH   1   6
TORSDOF 7
ENDMDL
MODEL 2
REMARK VINA RESULT:    -2.765      2.372      3.632
REMARK INTER + INTRA:          -4.252
REMARK INTER:                  -3.735
REMARK INTRA:                  -0.517
REMARK UNBOUND:                -0.436
REMARK SMILES CCCCCCCCO
REMARK SMILES IDX 5 1 4 2 3 3 2 4 1 5 6 6 7 7 8 8 9 9
REMARK H PARENT 9 10
REMARK Flexibility Score: inf
ROOT
ATOM      1  C   UNL     1     118.323 115.262 120.634  1.00  0.00     0.000 C 
ENDROOT
BRANCH   1   2
ATOM      2  C   UNL     1     117.757 114.040 119.901  1.00  0.00    -0.000 C 
BRANCH   2   3
ATOM      3  C   UNL     1     116.283 114.259 119.525  1.00  0.00    -0.000 C 
BRANCH   3   4
ATOM      4  C   UNL     1     115.471 114.894 120.665  1.00  0.00    -0.003 C 
ATOM      5  C   UNL     1     114.679 116.121 120.216  1.00  0.00     0.004 C 
ENDBRANCH   3   4
ENDBRANCH   2   3
ENDBRANCH   1   2
BRANCH   1   6
ATOM      6  C   UNL     1     118.847 116.307 119.642  1.00  0.00     0.002 C 
BRANCH   6   7
ATOM      7  C   UNL     1     118.567 117.730 120.143  1.00  0.00     0.028 C 
BRANCH   7   8
ATOM      8  C   UNL     1     117.940 117.727 121.538  1.00  0.00     0.156 C 
BRANCH   8   9
ATOM      9  O   UNL     1     118.660 118.574 122.392  1.00  0.00    -0.396 OA
ATOM     10  H   UNL     1     118.062 119.343 122.583  1.00  0.00     0.210 HD
ENDBRANCH   8   9
ENDBRANCH   7   8
ENDBRANCH   6   7
ENDBRANCH   1   6
TORSDOF 7
ENDMDL
MODEL 3
REMARK VINA RESULT:    -2.737      3.583      5.652
REMARK INTER + INTRA:          -4.212
REMARK INTER:                  -3.828
REMARK INTRA:                  -0.385
REMARK UNBOUND:                -0.436
REMARK SMILES CCCCCCCCO
REMARK SMILES IDX 5 1 4 2 3 3 2 4 1 5 6 6 7 7 8 8 9 9
REMARK H PARENT 9 10
REMARK Flexibility Score: inf
ROOT
ATOM      1  C   UNL     1     118.789 116.402 119.281  1.00  0.00     0.000 C 
ENDROOT
BRANCH   1   2
ATOM      2  C   UNL     1     119.251 117.748 119.854  1.00  0.00    -0.000 C 
BRANCH   2   3
ATOM      3  C   UNL     1     118.110 118.441 120.615  1.00  0.00    -0.000 C 
BRANCH   3   4
ATOM      4  C   UNL     1     116.881 118.699 119.729  1.00  0.00    -0.003 C 
ATOM      5  C   UNL     1     115.568 118.328 120.417  1.00  0.00     0.004 C 
ENDBRANCH   3   4
ENDBRANCH   2   3
ENDBRANCH   1   2
BRANCH   1   6
ATOM      6  C   UNL     1     118.522 115.389 120.400  1.00  0.00     0.002 C 
BRANCH   6   7
ATOM      7  C   UNL     1     117.400 114.419 120.007  1.00  0.00     0.028 C 
BRANCH   7   8
ATOM      8  C   UNL     1     117.937 113.220 119.223  1.00  0.00     0.156 C 
BRANCH   8   9
ATOM      9  O   UNL     1     118.022 112.097 120.057  1.00  0.00    -0.396 OA
ATOM     10  H   UNL     1     117.190 112.092 120.597  1.00  0.00     0.210 HD
ENDBRANCH   8   9
ENDBRANCH   7   8
ENDBRANCH   6   7
ENDBRANCH   1   6
TORSDOF 7
ENDMDL
MODEL 4
REMARK VINA RESULT:    -2.729      3.249      4.883
REMARK INTER + INTRA:          -4.202
REMARK INTER:                  -3.867
REMARK INTRA:                  -0.335
REMARK UNBOUND:                -0.436
REMARK SMILES CCCCCCCCO
REMARK SMILES IDX 5 1 4 2 3 3 2 4 1 5 6 6 7 7 8 8 9 9
REMARK H PARENT 9 10
REMARK Flexibility Score: inf
ROOT
ATOM      1  C   UNL     1     115.745 114.767 119.820  1.00  0.00     0.000 C 
ENDROOT
BRANCH   1   2
ATOM      2  C   UNL     1     114.458 115.448 120.301  1.00  0.00    -0.000 C 
BRANCH   2   3
ATOM      3  C   UNL     1     113.994 116.516 119.300  1.00  0.00    -0.000 C 
BRANCH   3   4
ATOM      4  C   UNL     1     114.685 117.871 119.519  1.00  0.00    -0.003 C 
ATOM      5  C   UNL     1     114.814 118.238 120.997  1.00  0.00     0.004 C 
ENDBRANCH   3   4
ENDBRANCH   2   3
ENDBRANCH   1   2
BRANCH   1   6
ATOM      6  C   UNL     1     116.908 115.048 120.777  1.00  0.00     0.002 C 
BRANCH   6   7
ATOM      7  C   UNL     1     118.230 114.517 120.207  1.00  0.00     0.028 C 
BRANCH   7   8
ATOM      8  C   UNL     1     118.014 113.289 119.322  1.00  0.00     0.156 C 
BRANCH   8   9
ATOM      9  O   UNL     1     118.071 112.121 120.095  1.00  0.00    -0.396 OA
ATOM     10  H   UNL     1     117.297 112.165 120.716  1.00  0.00     0.210 HD
ENDBRANCH   8   9
ENDBRANCH   7   8
ENDBRANCH   6   7
ENDBRANCH   1   6
TORSDOF 7
ENDMDL
MODEL 5
REMARK VINA RESULT:    -2.727      2.562      4.053
REMARK INTER + INTRA:          -4.199
REMARK INTER:                  -3.672
REMARK INTRA:                  -0.527
REMARK UNBOUND:                -0.436
REMARK SMILES CCCCCCCCO
REMARK SMILES IDX 5 1 4 2 3 3 2 4 1 5 6 6 7 7 8 8 9 9
REMARK H PARENT 9 10
REMARK Flexibility Score: inf
ROOT
ATOM      1  C   UNL     1     114.891 118.016 120.734  1.00  0.00     0.000 C 
ENDROOT
BRANCH   1   2
ATOM      2  C   UNL     1     115.419 119.193 119.904  1.00  0.00    -0.000 C 
BRANCH   2   3
ATOM      3  C   UNL     1     116.867 118.944 119.457  1.00  0.00    -0.000 C 
BRANCH   3   4
ATOM      4  C   UNL     1     117.746 118.383 120.586  1.00  0.00    -0.003 C 
ATOM      5  C   UNL     1     118.491 117.111 120.180  1.00  0.00     0.004 C 
ENDBRANCH   3   4
ENDBRANCH   2   3
ENDBRANCH   1   2
BRANCH   1   6
ATOM      6  C   UNL     1     114.386 116.886 119.829  1.00  0.00     0.002 C 
BRANCH   6   7
ATOM      7  C   UNL     1     114.710 115.513 120.431  1.00  0.00     0.028 C 
BRANCH   7   8
ATOM      8  C   UNL     1     115.350 115.636 121.814  1.00  0.00     0.156 C 
BRANCH   8   9
ATOM      9  O   UNL     1     114.720 114.770 122.717  1.00  0.00    -0.396 OA
ATOM     10  H   UNL     1     113.874 115.217 122.982  1.00  0.00     0.210 HD
ENDBRANCH   8   9
ENDBRANCH   7   8
ENDBRANCH   6   7
ENDBRANCH   1   6
TORSDOF 7
ENDMDL
MODEL 6
REMARK VINA RESULT:    -2.707      1.121      2.081
REMARK INTER + INTRA:          -4.172
REMARK INTER:                  -3.782
REMARK INTRA:                  -0.389
REMARK UNBOUND:                -0.436
REMARK SMILES CCCCCCCCO
REMARK SMILES IDX 5 1 4 2 3 3 2 4 1 5 6 6 7 7 8 8 9 9
REMARK H PARENT 9 10
REMARK Flexibility Score: inf
ROOT
ATOM      1  C   UNL     1     115.835 116.577 121.805  1.00  0.00     0.000 C 
ENDROOT
BRANCH   1   2
ATOM      2  C   UNL     1     115.097 115.285 121.433  1.00  0.00    -0.000 C 
BRANCH   2   3
ATOM      3  C   UNL     1     115.552 114.768 120.060  1.00  0.00    -0.000 C 
BRANCH   3   4
ATOM      4  C   UNL     1     114.416 114.761 119.026  1.00  0.00    -0.003 C 
ATOM      5  C   UNL     1     113.059 115.115 119.634  1.00  0.00     0.004 C 
ENDBRANCH   3   4
ENDBRANCH   2   3
ENDBRANCH   1   2
BRANCH   1   6
ATOM      6  C   UNL     1     115.182 117.795 121.142  1.00  0.00     0.002 C 
BRANCH   6   7
ATOM      7  C   UNL     1     116.159 118.490 120.184  1.00  0.00     0.028 C 
BRANCH   7   8
ATOM      8  C   UNL     1     115.477 119.604 119.389  1.00  0.00     0.156 C 
BRANCH   8   9
ATOM      9  O   UNL     1     115.373 120.761 120.173  1.00  0.00    -0.396 OA
ATOM     10  H   UNL     1     116.058 120.673 120.886  1.00  0.00     0.210 HD
ENDBRANCH   8   9
ENDBRANCH   7   8
ENDBRANCH   6   7
ENDBRANCH   1   6
TORSDOF 7
ENDMDL
MODEL 7
REMARK VINA RESULT:    -2.695      2.769      4.132
REMARK INTER + INTRA:          -4.156
REMARK INTER:                  -3.735
REMARK INTRA:                  -0.421
REMARK UNBOUND:                -0.436
REMARK SMILES CCCCCCCCO
REMARK SMILES IDX 5 1 4 2 3 3 2 4 1 5 6 6 7 7 8 8 9 9
REMARK H PARENT 9 10
REMARK Flexibility Score: inf
ROOT
ATOM      1  C   UNL     1     116.550 114.619 120.123  1.00  0.00     0.000 C 
ENDROOT
BRANCH   1   2
ATOM      2  C   UNL     1     117.750 115.133 120.928  1.00  0.00    -0.000 C 
BRANCH   2   3
ATOM      3  C   UNL     1     118.474 116.260 120.177  1.00  0.00    -0.000 C 
BRANCH   3   4
ATOM      4  C   UNL     1     118.159 117.650 120.752  1.00  0.00    -0.003 C 
ATOM      5  C   UNL     1     117.628 117.591 122.184  1.00  0.00     0.004 C 
ENDBRANCH   3   4
ENDBRANCH   2   3
ENDBRANCH   1   2
BRANCH   1   6
ATOM      6  C   UNL     1     115.230 114.952 120.829  1.00  0.00     0.002 C 
BRANCH   6   7
ATOM      7  C   UNL     1     114.423 115.982 120.028  1.00  0.00     0.028 C 
BRANCH   7   8
ATOM      8  C   UNL     1     113.266 115.331 119.269  1.00  0.00     0.156 C 
BRANCH   8   9
ATOM      9  O   UNL     1     112.172 115.144 120.124  1.00  0.00    -0.396 OA
ATOM     10  H   UNL     1     111.528 115.868 119.909  1.00  0.00     0.210 HD
ENDBRANCH   8   9
ENDBRANCH   7   8
ENDBRANCH   6   7
ENDBRANCH   1   6
TORSDOF 7
ENDMDL
MODEL 8
REMARK VINA RESULT:    -2.687      2.807      4.251
REMARK INTER + INTRA:          -4.145
REMARK INTER:                  -3.620
REMARK INTRA:                  -0.525
REMARK UNBOUND:                -0.436
REMARK SMILES CCCCCCCCO
REMARK SMILES IDX 5 1 4 2 3 3 2 4 1 5 6 6 7 7 8 8 9 9
REMARK H PARENT 9 10
REMARK Flexibility Score: inf
ROOT
ATOM      1  C   UNL     1     116.072 114.372 120.003  1.00  0.00     0.000 C 
ENDROOT
BRANCH   1   2
ATOM      2  C   UNL     1     114.966 114.903 119.083  1.00  0.00    -0.000 C 
BRANCH   2   3
ATOM      3  C   UNL     1     114.087 115.928 119.815  1.00  0.00    -0.000 C 
BRANCH   3   4
ATOM      4  C   UNL     1     114.593 117.368 119.646  1.00  0.00    -0.003 C 
ATOM      5  C   UNL     1     114.939 118.035 120.977  1.00  0.00     0.004 C 
ENDBRANCH   3   4
ENDBRANCH   2   3
ENDBRANCH   1   2
BRANCH   1   6
ATOM      6  C   UNL     1     117.456 114.814 119.514  1.00  0.00     0.002 C 
BRANCH   6   7
ATOM      7  C   UNL     1     118.128 115.743 120.533  1.00  0.00     0.028 C 
BRANCH   7   8
ATOM      8  C   UNL     1     117.697 115.421 121.965  1.00  0.00     0.156 C 
BRANCH   8   9
ATOM      9  O   UNL     1     118.620 114.552 122.563  1.00  0.00    -0.396 OA
ATOM     10  H   UNL     1     118.122 113.718 122.763  1.00  0.00     0.210 HD
ENDBRANCH   8   9
ENDBRANCH   7   8
ENDBRANCH   6   7
ENDBRANCH   1   6
TORSDOF 7
ENDMDL
MODEL 9
REMARK VINA RESULT:    -2.656      2.807      4.560
REMARK INTER + INTRA:          -4.101
REMARK INTER:                  -3.572
REMARK INTRA:                  -0.529
REMARK UNBOUND:                -0.436
REMARK SMILES CCCCCCCCO
REMARK SMILES IDX 5 1 4 2 3 3 2 4 1 5 6 6 7 7 8 8 9 9
REMARK H PARENT 9 10
REMARK Flexibility Score: inf
ROOT
ATOM      1  C   UNL     1     117.785 117.898 120.760  1.00  0.00     0.000 C 
ENDROOT
BRANCH   1   2
ATOM      2  C   UNL     1     116.747 118.745 120.013  1.00  0.00    -0.000 C 
BRANCH   2   3
ATOM      3  C   UNL     1     115.321 118.378 120.451  1.00  0.00    -0.000 C 
BRANCH   3   4
ATOM      4  C   UNL     1     114.636 117.407 119.477  1.00  0.00    -0.003 C 
ATOM      5  C   UNL     1     114.454 116.008 120.065  1.00  0.00     0.004 C 
ENDBRANCH   3   4
ENDBRANCH   2   3
ENDBRANCH   1   2
BRANCH   1   6
ATOM      6  C   UNL     1     118.406 116.846 119.835  1.00  0.00     0.002 C 
BRANCH   6   7
ATOM      7  C   UNL     1     118.369 115.454 120.481  1.00  0.00     0.028 C 
BRANCH   7   8
ATOM      8  C   UNL     1     117.731 115.491 121.871  1.00  0.00     0.156 C 
BRANCH   8   9
ATOM      9  O   UNL     1     118.487 114.726 122.769  1.00  0.00    -0.396 OA
ATOM     10  H   UNL     1     119.437 114.946 122.585  1.00  0.00     0.210 HD
ENDBRANCH   8   9
ENDBRANCH   7   8
ENDBRANCH   6   7
ENDBRANCH   1   6
TORSDOF 7
ENDMDL
