MODEL 1
REMARK VINA RESULT:    -4.458      0.000      0.000
REMARK INTER + INTRA:          -7.747
REMARK INTER:                  -7.194
REMARK INTRA:                  -0.552
REMARK UNBOUND:                -0.552
REMARK SMILES CCCCCCCCCCCCO
REMARK SMILES IDX 7 1 6 2 5 3 4 4 3 5 2 6 1 7 8 8 9 9 10 10 11 11 12 12 13 13
REMARK H PARENT 13 14
REMARK Flexibility Score: inf
ROOT
ATOM      1  C   UNL     1      -1.158 -14.254  19.678  1.00  0.00     0.000 C 
ENDROOT
BRANCH   1   2
ATOM      2  C   UNL     1      -1.657 -13.013  20.438  1.00  0.00    -0.000 C 
BRANCH   2   3
ATOM      3  C   UNL     1      -2.975 -13.269  21.187  1.00  0.00    -0.000 C 
BRANCH   3   4
ATOM      4  C   UNL     1      -3.838 -12.005  21.320  1.00  0.00    -0.000 C 
BRANCH   4   5
ATOM      5  C   UNL     1      -4.397 -11.577  19.957  1.00  0.00    -0.000 C 
BRANCH   5   6
ATOM      6  C   UNL     1      -5.652 -10.712  20.124  1.00  0.00    -0.003 C 
ATOM      7  C   UNL     1      -5.376  -9.506  21.017  1.00  0.00     0.004 C 
ENDBRANCH   5   6
ENDBRANCH   4   5
ENDBRANCH   3   4
ENDBRANCH   2   3
ENDBRANCH   1   2
BRANCH   1   8
ATOM      8  C   UNL     1      -2.246 -15.330  19.524  1.00  0.00     0.000 C 
BRANCH   8   9
ATOM      9  C   UNL     1      -1.811 -16.697  20.074  1.00  0.00     0.000 C 
BRANCH   9  10
ATOM     10  C   UNL     1      -2.817 -17.214  21.113  1.00  0.00     0.002 C 
BRANCH  10  11
ATOM     11  C   UNL     1      -3.917 -18.098  20.498  1.00  0.00     0.028 C 
BRANCH  11  12
ATOM     12  C   UNL     1      -4.199 -19.372  21.303  1.00  0.00     0.156 C 
BRANCH  12  13
ATOM     13  O   UNL     1      -5.189 -20.136  20.674  1.00  0.00    -0.396 OA
ATOM     14  H   UNL     1      -6.035 -19.941  21.154  1.00  0.00     0.210 HD
ENDBRANCH  12  13
ENDBRANCH  11  12
ENDBRANCH  10  11
ENDBRANCH   9  10
ENDBRANCH   8   9
ENDBRANCH   1   8
TORSDOF 11
ENDMDL
MODEL 2
REMARK VINA RESULT:    -4.414      2.935      6.728
REMARK INTER + INTRA:          -7.676
REMARK INTER:                  -7.282
REMARK INTRA:                  -0.394
REMARK UNBOUND:                -0.552
REMARK SMILES CCCCCCCCCCCCO
REMARK SMILES IDX 7 1 6 2 5 3 4 4 3 5 2 6 1 7 8 8 9 9 10 10 11 11 12 12 13 13
REMARK H PARENT 13 14
REMARK Flexibility Score: inf
ROOT
ATOM      1  C   UNL     1      -2.323 -13.718  20.739  1.00  0.00     0.000 C 
ENDROOT
BRANCH   1   2
ATOM      2  C   UNL     1      -1.359 -14.272  19.675  1.00  0.00    -0.000 C 
BRANCH   2   3
ATOM      3  C   UNL     1      -1.515 -15.787  19.468  1.00  0.00    -0.000 C 
BRANCH   3   4
ATOM      4  C   UNL     1      -2.027 -16.509  20.725  1.00  0.00    -0.000 C 
BRANCH   4   5
ATOM      5  C   UNL     1      -3.243 -17.383  20.398  1.00  0.00    -0.000 C 
BRANCH   5   6
ATOM      6  C   UNL     1      -3.505 -18.402  21.513  1.00  0.00    -0.003 C 
ATOM      7  C   UNL     1      -4.558 -19.422  21.093  1.00  0.00     0.004 C 
ENDBRANCH   5   6
ENDBRANCH   4   5
ENDBRANCH   3   4
ENDBRANCH   2   3
ENDBRANCH   1   2
BRANCH   1   8
ATOM      8  C   UNL     1      -3.538 -13.005  20.121  1.00  0.00     0.000 C 
BRANCH   8   9
ATOM      9  C   UNL     1      -3.990 -11.786  20.940  1.00  0.00     0.000 C 
BRANCH   9  10
ATOM     10  C   UNL     1      -5.045 -10.974  20.175  1.00  0.00     0.002 C 
BRANCH  10  11
ATOM     11  C   UNL     1      -5.543  -9.746  20.957  1.00  0.00     0.028 C 
BRANCH  11  12
ATOM     12  C   UNL     1      -6.214 -10.101  22.289  1.00  0.00     0.156 C 
BRANCH  12  13
ATOM     13  O   UNL     1      -7.570 -10.388  22.090  1.00  0.00    -0.396 OA
ATOM     14  H   UNL     1      -7.656 -11.374  22.156  1.00  0.00     0.210 HD
ENDBRANCH  12  13
ENDBRANCH  11  12
ENDBRANCH  10  11
ENDBRANCH   9  10
ENDBRANCH   8   9
ENDBRANCH   1   8
TORSDOF 11
ENDMDL
MODEL 3
REMARK VINA RESULT:    -4.221      3.443      6.414
REMARK INTER + INTRA:          -7.365
REMARK INTER:                  -6.578
REMARK INTRA:                  -0.787
REMARK UNBOUND:                -0.552
REMARK SMILES CCCCCCCCCCCCO
REMARK SMILES IDX 7 1 6 2 5 3 4 4 3 5 2 6 1 7 8 8 9 9 10 10 11 11 12 12 13 13
REMARK H PARENT 13 14
REMARK Flexibility Score: inf
ROOT
ATOM      1  C   UNL     1      -2.721 -10.948  21.648  1.00  0.00     0.000 C 
ENDROOT
BRANCH   1   2
ATOM      2  C   UNL     1      -3.550 -11.488  20.470  1.00  0.00    -0.000 C 
BRANCH   2   3
ATOM      3  C   UNL     1      -3.617 -13.024  20.450  1.00  0.00    -0.000 C 
BRANCH   3   4
ATOM      4  C   UNL     1      -2.228 -13.679  20.459  1.00  0.00    -0.000 C 
BRANCH   4   5
ATOM      5  C   UNL     1      -2.090 -14.686  19.311  1.00  0.00    -0.000 C 
BRANCH   5   6
ATOM      6  C   UNL     1      -1.424 -15.981  19.791  1.00  0.00    -0.003 C 
ATOM      7  C   UNL     1      -2.438 -16.915  20.444  1.00  0.00     0.004 C 
ENDBRANCH   5   6
ENDBRANCH   4   5
ENDBRANCH   3   4
ENDBRANCH   2   3
ENDBRANCH   1   2
BRANCH   1   8
ATOM      8  C   UNL     1      -1.951  -9.665  21.291  1.00  0.00     0.000 C 
BRANCH   8   9
ATOM      9  C   UNL     1      -0.682  -9.943  20.471  1.00  0.00     0.000 C 
BRANCH   9  10
ATOM     10  C   UNL     1       0.169 -11.037  21.133  1.00  0.00     0.002 C 
BRANCH  10  11
ATOM     11  C   UNL     1       1.361 -11.478  20.266  1.00  0.00     0.028 C 
BRANCH  11  12
ATOM     12  C   UNL     1       1.010 -12.578  19.258  1.00  0.00     0.156 C 
BRANCH  12  13
ATOM     13  O   UNL     1       2.105 -13.429  19.064  1.00  0.00    -0.396 OA
ATOM     14  H   UNL     1       2.690 -13.312  19.857  1.00  0.00     0.210 HD
ENDBRANCH  12  13
ENDBRANCH  11  12
ENDBRANCH  10  11
ENDBRANCH   9  10
ENDBRANCH   8   9
ENDBRANCH   1   8
TORSDOF 11
ENDMDL
MODEL 4
REMARK VINA RESULT:    -4.221      4.415      7.520
REMARK INTER + INTRA:          -7.364
REMARK INTER:                  -7.010
REMARK INTRA:                  -0.354
REMARK UNBOUND:                -0.552
REMARK SMILES CCCCCCCCCCCCO
REMARK SMILES IDX 7 1 6 2 5 3 4 4 3 5 2 6 1 7 8 8 9 9 10 10 11 11 12 12 13 13
REMARK H PARENT 13 14
REMARK Flexibility Score: inf
ROOT
ATOM      1  C   UNL     1      -1.179 -13.262  20.124  1.00  0.00     0.000 C 
ENDROOT
BRANCH   1   2
ATOM      2  C   UNL     1      -2.262 -14.290  19.753  1.00  0.00    -0.000 C 
BRANCH   2   3
ATOM      3  C   UNL     1      -1.669 -15.631  19.291  1.00  0.00    -0.000 C 
BRANCH   3   4
ATOM      4  C   UNL     1      -1.795 -16.733  20.355  1.00  0.00    -0.000 C 
BRANCH   4   5
ATOM      5  C   UNL     1      -3.237 -17.244  20.447  1.00  0.00    -0.000 C 
BRANCH   5   6
ATOM      6  C   UNL     1      -3.368 -18.333  21.519  1.00  0.00    -0.003 C 
ATOM      7  C   UNL     1      -4.416 -19.371  21.126  1.00  0.00     0.004 C 
ENDBRANCH   5   6
ENDBRANCH   4   5
ENDBRANCH   3   4
ENDBRANCH   2   3
ENDBRANCH   1   2
BRANCH   1   8
ATOM      8  C   UNL     1       0.104 -13.429  19.294  1.00  0.00     0.000 C 
BRANCH   8   9
ATOM      9  C   UNL     1       1.074 -12.248  19.453  1.00  0.00     0.000 C 
BRANCH   9  10
ATOM     10  C   UNL     1       1.541 -11.734  18.083  1.00  0.00     0.002 C 
BRANCH  10  11
ATOM     11  C   UNL     1       2.860 -10.944  18.155  1.00  0.00     0.028 C 
BRANCH  11  12
ATOM     12  C   UNL     1       3.956 -11.501  17.239  1.00  0.00     0.156 C 
BRANCH  12  13
ATOM     13  O   UNL     1       3.413 -12.416  16.330  1.00  0.00    -0.396 OA
ATOM     14  H   UNL     1       2.431 -12.271  16.345  1.00  0.00     0.210 HD
ENDBRANCH  12  13
ENDBRANCH  11  12
ENDBRANCH  10  11
ENDBRANCH   9  10
ENDBRANCH   8   9
ENDBRANCH   1   8
TORSDOF 11
ENDMDL
MODEL 5
REMARK VINA RESULT:    -4.178      3.165      6.602
REMARK INTER + INTRA:          -7.295
REMARK INTER:                  -6.748
REMARK INTRA:                  -0.547
REMARK UNBOUND:                -0.552
REMARK SMILES CCCCCCCCCCCCO
REMARK SMILES IDX 7 1 6 2 5 3 4 4 3 5 2 6 1 7 8 8 9 9 10 10 11 11 12 12 13 13
REMARK H PARENT 13 14
REMARK Flexibility Score: inf
ROOT
ATOM      1  C   UNL     1      -3.063 -13.088  20.161  1.00  0.00     0.000 C 
ENDROOT
BRANCH   1   2
ATOM      2  C   UNL     1      -2.094 -14.250  20.437  1.00  0.00    -0.000 C 
BRANCH   2   3
ATOM      3  C   UNL     1      -2.376 -15.477  19.555  1.00  0.00    -0.000 C 
BRANCH   3   4
ATOM      4  C   UNL     1      -1.866 -16.786  20.177  1.00  0.00    -0.000 C 
BRANCH   4   5
ATOM      5  C   UNL     1      -2.836 -17.298  21.249  1.00  0.00    -0.000 C 
BRANCH   5   6
ATOM      6  C   UNL     1      -3.850 -18.280  20.651  1.00  0.00    -0.003 C 
ATOM      7  C   UNL     1      -4.322 -19.289  21.693  1.00  0.00     0.004 C 
ENDBRANCH   5   6
ENDBRANCH   4   5
ENDBRANCH   3   4
ENDBRANCH   2   3
ENDBRANCH   1   2
BRANCH   1   8
ATOM      8  C   UNL     1      -2.696 -11.814  20.939  1.00  0.00     0.000 C 
BRANCH   8   9
ATOM      9  C   UNL     1      -1.239 -11.814  21.426  1.00  0.00     0.000 C 
BRANCH   9  10
ATOM     10  C   UNL     1      -0.371 -10.891  20.558  1.00  0.00     0.002 C 
BRANCH  10  11
ATOM     11  C   UNL     1       0.991 -11.509  20.197  1.00  0.00     0.028 C 
BRANCH  11  12
ATOM     12  C   UNL     1       0.907 -12.568  19.091  1.00  0.00     0.156 C 
BRANCH  12  13
ATOM     13  O   UNL     1       1.946 -13.497  19.226  1.00  0.00    -0.396 OA
ATOM     14  H   UNL     1       2.679 -13.180  18.638  1.00  0.00     0.210 HD
ENDBRANCH  12  13
ENDBRANCH  11  12
ENDBRANCH  10  11
ENDBRANCH   9  10
ENDBRANCH   8   9
ENDBRANCH   1   8
TORSDOF 11
ENDMDL
MODEL 6
REMARK VINA RESULT:    -4.141      7.033      9.696
REMARK INTER + INTRA:          -7.235
REMARK INTER:                  -6.495
REMARK INTRA:                  -0.740
REMARK UNBOUND:                -0.552
REMARK SMILES CCCCCCCCCCCCO
REMARK SMILES IDX 7 1 6 2 5 3 4 4 3 5 2 6 1 7 8 8 9 9 10 10 11 11 12 12 13 13
REMARK H PARENT 13 14
REMARK Flexibility Score: inf
ROOT
ATOM      1  C   UNL     1       4.252  -9.613  18.213  1.00  0.00     0.000 C 
ENDROOT
BRANCH   1   2
ATOM      2  C   UNL     1       5.691  -9.716  17.680  1.00  0.00    -0.000 C 
BRANCH   2   3
ATOM      3  C   UNL     1       5.893 -10.929  16.757  1.00  0.00    -0.000 C 
BRANCH   3   4
ATOM      4  C   UNL     1       6.675 -12.066  17.433  1.00  0.00    -0.000 C 
BRANCH   4   5
ATOM      5  C   UNL     1       6.138 -13.435  16.998  1.00  0.00    -0.000 C 
BRANCH   5   6
ATOM      6  C   UNL     1       5.151 -13.294  15.834  1.00  0.00    -0.003 C 
ATOM      7  C   UNL     1       5.510 -14.238  14.690  1.00  0.00     0.004 C 
ENDBRANCH   5   6
ENDBRANCH   4   5
ENDBRANCH   3   4
ENDBRANCH   2   3
ENDBRANCH   1   2
BRANCH   1   8
ATOM      8  C   UNL     1       3.289 -10.585  17.510  1.00  0.00     0.000 C 
BRANCH   8   9
ATOM      9  C   UNL     1       1.844 -10.460  18.016  1.00  0.00     0.000 C 
BRANCH   9  10
ATOM     10  C   UNL     1       1.807 -10.360  19.549  1.00  0.00     0.002 C 
BRANCH  10  11
ATOM     11  C   UNL     1       1.150 -11.581  20.216  1.00  0.00     0.028 C 
BRANCH  11  12
ATOM     12  C   UNL     1       0.830 -12.715  19.234  1.00  0.00     0.156 C 
BRANCH  12  13
ATOM     13  O   UNL     1       1.892 -13.625  19.178  1.00  0.00    -0.396 OA
ATOM     14  H   UNL     1       2.721 -13.088  19.270  1.00  0.00     0.210 HD
ENDBRANCH  12  13
ENDBRANCH  11  12
ENDBRANCH  10  11
ENDBRANCH   9  10
ENDBRANCH   8   9
ENDBRANCH   1   8
TORSDOF 11
ENDMDL
MODEL 7
REMARK VINA RESULT:    -4.122      2.760      4.635
REMARK INTER + INTRA:          -7.205
REMARK INTER:                  -6.184
REMARK INTRA:                  -1.022
REMARK UNBOUND:                -0.552
REMARK SMILES CCCCCCCCCCCCO
REMARK SMILES IDX 7 1 6 2 5 3 4 4 3 5 2 6 1 7 8 8 9 9 10 10 11 11 12 12 13 13
REMARK H PARENT 13 14
REMARK Flexibility Score: inf
ROOT
ATOM      1  C   UNL     1      -3.976 -11.122  20.390  1.00  0.00     0.000 C 
ENDROOT
BRANCH   1   2
ATOM      2  C   UNL     1      -3.090 -10.667  21.563  1.00  0.00    -0.000 C 
BRANCH   2   3
ATOM      3  C   UNL     1      -2.250  -9.426  21.222  1.00  0.00    -0.000 C 
BRANCH   3   4
ATOM      4  C   UNL     1      -0.935  -9.776  20.507  1.00  0.00    -0.000 C 
BRANCH   4   5
ATOM      5  C   UNL     1      -0.114 -10.777  21.329  1.00  0.00    -0.000 C 
BRANCH   5   6
ATOM      6  C   UNL     1       0.991 -11.413  20.477  1.00  0.00    -0.003 C 
ATOM      7  C   UNL     1       1.264 -10.589  19.223  1.00  0.00     0.004 C 
ENDBRANCH   5   6
ENDBRANCH   4   5
ENDBRANCH   3   4
ENDBRANCH   2   3
ENDBRANCH   1   2
BRANCH   1   8
ATOM      8  C   UNL     1      -3.893 -12.636  20.138  1.00  0.00     0.000 C 
BRANCH   8   9
ATOM      9  C   UNL     1      -2.781 -13.314  20.953  1.00  0.00     0.000 C 
BRANCH   9  10
ATOM     10  C   UNL     1      -1.695 -13.884  20.028  1.00  0.00     0.002 C 
BRANCH  10  11
ATOM     11  C   UNL     1      -2.103 -15.213  19.368  1.00  0.00     0.028 C 
BRANCH  11  12
ATOM     12  C   UNL     1      -1.314 -16.420  19.887  1.00  0.00     0.156 C 
BRANCH  12  13
ATOM     13  O   UNL     1      -0.186 -16.646  19.088  1.00  0.00    -0.396 OA
ATOM     14  H   UNL     1      -0.158 -15.900  18.434  1.00  0.00     0.210 HD
ENDBRANCH  12  13
ENDBRANCH  11  12
ENDBRANCH  10  11
ENDBRANCH   9  10
ENDBRANCH   8   9
ENDBRANCH   1   8
TORSDOF 11
ENDMDL
MODEL 8
REMARK VINA RESULT:    -4.114      2.567      3.641
REMARK INTER + INTRA:          -7.191
REMARK INTER:                  -6.133
REMARK INTRA:                  -1.059
REMARK UNBOUND:                -0.552
REMARK SMILES CCCCCCCCCCCCO
REMARK SMILES IDX 7 1 6 2 5 3 4 4 3 5 2 6 1 7 8 8 9 9 10 10 11 11 12 12 13 13
REMARK H PARENT 13 14
REMARK Flexibility Score: inf
ROOT
ATOM      1  C   UNL     1      -2.994 -11.776  22.506  1.00  0.00     0.000 C 
ENDROOT
BRANCH   1   2
ATOM      2  C   UNL     1      -2.132 -10.844  21.638  1.00  0.00    -0.000 C 
BRANCH   2   3
ATOM      3  C   UNL     1      -2.842  -9.521  21.306  1.00  0.00    -0.000 C 
BRANCH   3   4
ATOM      4  C   UNL     1      -4.076  -9.272  22.186  1.00  0.00    -0.000 C 
BRANCH   4   5
ATOM      5  C   UNL     1      -5.315  -8.990  21.327  1.00  0.00    -0.000 C 
BRANCH   5   6
ATOM      6  C   UNL     1      -6.135 -10.267  21.107  1.00  0.00    -0.003 C 
ATOM      7  C   UNL     1      -5.872 -10.861  19.727  1.00  0.00     0.004 C 
ENDBRANCH   5   6
ENDBRANCH   4   5
ENDBRANCH   3   4
ENDBRANCH   2   3
ENDBRANCH   1   2
BRANCH   1   8
ATOM      8  C   UNL     1      -3.212 -13.153  21.859  1.00  0.00     0.000 C 
BRANCH   8   9
ATOM      9  C   UNL     1      -3.088 -13.117  20.328  1.00  0.00     0.000 C 
BRANCH   9  10
ATOM     10  C   UNL     1      -1.951 -14.031  19.848  1.00  0.00     0.002 C 
BRANCH  10  11
ATOM     11  C   UNL     1      -1.927 -15.390  20.570  1.00  0.00     0.028 C 
BRANCH  11  12
ATOM     12  C   UNL     1      -1.375 -16.531  19.707  1.00  0.00     0.156 C 
BRANCH  12  13
ATOM     13  O   UNL     1      -0.126 -16.182  19.179  1.00  0.00    -0.396 OA
ATOM     14  H   UNL     1       0.375 -17.032  19.071  1.00  0.00     0.210 HD
ENDBRANCH  12  13
ENDBRANCH  11  12
ENDBRANCH  10  11
ENDBRANCH   9  10
ENDBRANCH   8   9
ENDBRANCH   1   8
TORSDOF 11
ENDMDL
MODEL 9
REMARK VINA RESULT:    -3.993      5.380      7.620
REMARK INTER + INTRA:          -6.997
REMARK INTER:                  -6.567
REMARK INTRA:                  -0.429
REMARK UNBOUND:                -0.552
REMARK SMILES CCCCCCCCCCCCO
REMARK SMILES IDX 7 1 6 2 5 3 4 4 3 5 2 6 1 7 8 8 9 9 10 10 11 11 12 12 13 13
REMARK H PARENT 13 14
REMARK Flexibility Score: inf
ROOT
ATOM      1  C   UNL     1       1.659 -12.354  18.940  1.00  0.00     0.000 C 
ENDROOT
BRANCH   1   2
ATOM      2  C   UNL     1       2.023 -11.296  17.884  1.00  0.00    -0.000 C 
BRANCH   2   3
ATOM      3  C   UNL     1       3.540 -11.183  17.660  1.00  0.00    -0.000 C 
BRANCH   3   4
ATOM      4  C   UNL     1       4.084 -12.269  16.718  1.00  0.00    -0.000 C 
BRANCH   4   5
ATOM      5  C   UNL     1       5.541 -12.607  17.055  1.00  0.00    -0.000 C 
BRANCH   5   6
ATOM      6  C   UNL     1       6.482 -11.476  16.626  1.00  0.00    -0.003 C 
ATOM      7  C   UNL     1       7.306 -10.967  17.805  1.00  0.00     0.004 C 
ENDBRANCH   5   6
ENDBRANCH   4   5
ENDBRANCH   3   4
ENDBRANCH   2   3
ENDBRANCH   1   2
BRANCH   1   8
ATOM      8  C   UNL     1       0.702 -11.812  20.014  1.00  0.00     0.000 C 
BRANCH   8   9
ATOM      9  C   UNL     1      -0.611 -12.606  20.095  1.00  0.00     0.000 C 
BRANCH   9  10
ATOM     10  C   UNL     1      -0.481 -13.954  19.372  1.00  0.00     0.002 C 
BRANCH  10  11
ATOM     11  C   UNL     1      -1.698 -14.872  19.587  1.00  0.00     0.028 C 
BRANCH  11  12
ATOM     12  C   UNL     1      -1.323 -16.344  19.795  1.00  0.00     0.156 C 
BRANCH  12  13
ATOM     13  O   UNL     1      -0.107 -16.632  19.164  1.00  0.00    -0.396 OA
ATOM     14  H   UNL     1       0.500 -15.877  19.377  1.00  0.00     0.210 HD
ENDBRANCH  12  13
ENDBRANCH  11  12
ENDBRANCH  10  11
ENDBRANCH   9  10
ENDBRANCH   8   9
ENDBRANCH   1   8
TORSDOF 11
ENDMDL
