MODEL 1
REMARK VINA RESULT:    14.908      0.000      0.000
REMARK INTER + INTRA:          24.780
REMARK INTER:                  25.366
REMARK INTRA:                  -0.586
REMARK UNBOUND:                -0.586
REMARK SMILES CCCCCCCCCCCCCC(=O)[O-]
REMARK SMILES IDX 8 1 9 2 10 3 11 4 12 5 13 6 14 7 15 8 16 9 7 10 6 11 5 12
REMARK SMILES IDX 4 13 3 14 2 15 1 16
REMARK H PARENT
REMARK Flexibility Score: inf
ROOT
ATOM      1  C   UNL     1     -16.140 -13.370 -22.493  1.00  0.00     0.000 C 
ENDROOT
BRANCH   1   2
ATOM      2  C   UNL     1     -17.059 -13.607 -23.706  1.00  0.00     0.000 C 
BRANCH   2   3
ATOM      3  C   UNL     1     -18.461 -12.974 -23.599  1.00  0.00     0.000 C 
BRANCH   3   4
ATOM      4  C   UNL     1     -19.382 -13.211 -24.813  1.00  0.00     0.000 C 
BRANCH   4   5
ATOM      5  C   UNL     1     -20.875 -12.932 -24.557  1.00  0.00     0.006 C 
BRANCH   5   6
ATOM      6  C   UNL     1     -21.708 -14.213 -24.436  1.00  0.00     0.053 C 
BRANCH   6   7
ATOM      7  C   UNL     1     -22.134 -14.428 -23.018  1.00  0.00     0.041 C 
ATOM      8  O   UNL     1     -22.836 -15.428 -22.713  1.00  0.00    -0.550 OA
ATOM      9  O   UNL     1     -21.798 -13.499 -22.043  1.00  0.00    -0.550 OA
ENDBRANCH   6   7
ENDBRANCH   5   6
ENDBRANCH   4   5
ENDBRANCH   3   4
ENDBRANCH   2   3
ENDBRANCH   1   2
BRANCH   1  10
ATOM     10  C   UNL     1     -15.428 -12.008 -22.541  1.00  0.00     0.000 C 
BRANCH  10  11
ATOM     11  C   UNL     1     -14.306 -11.966 -23.591  1.00  0.00    -0.000 C 
BRANCH  11  12
ATOM     12  C   UNL     1     -13.878 -10.530 -23.945  1.00  0.00    -0.000 C 
BRANCH  12  13
ATOM     13  C   UNL     1     -14.713  -9.466 -23.214  1.00  0.00    -0.000 C 
BRANCH  13  14
ATOM     14  C   UNL     1     -14.299  -8.033 -23.590  1.00  0.00    -0.000 C 
BRANCH  14  15
ATOM     15  C   UNL     1     -15.414  -7.271 -24.325  1.00  0.00    -0.003 C 
ATOM     16  C   UNL     1     -14.889  -6.079 -25.125  1.00  0.00     0.004 C 
ENDBRANCH  14  15
ENDBRANCH  13  14
ENDBRANCH  12  13
ENDBRANCH  11  12
ENDBRANCH  10  11
ENDBRANCH   1  10
TORSDOF 12
ENDMDL
MODEL 2
REMARK VINA RESULT:    14.916      3.318      7.764
REMARK INTER + INTRA:          24.795
REMARK INTER:                  25.409
REMARK INTRA:                  -0.614
REMARK UNBOUND:                -0.586
REMARK SMILES CCCCCCCCCCCCCC(=O)[O-]
REMARK SMILES IDX 8 1 9 2 10 3 11 4 12 5 13 6 14 7 15 8 16 9 7 10 6 11 5 12
REMARK SMILES IDX 4 13 3 14 2 15 1 16
REMARK H PARENT
REMARK Flexibility Score: inf
ROOT
ATOM      1  C   UNL     1     -17.051 -13.730 -22.762  1.00  0.00     0.000 C 
ENDROOT
BRANCH   1   2
ATOM      2  C   UNL     1     -15.776 -12.966 -22.358  1.00  0.00     0.000 C 
BRANCH   2   3
ATOM      3  C   UNL     1     -14.955 -12.395 -23.532  1.00  0.00     0.000 C 
BRANCH   3   4
ATOM      4  C   UNL     1     -13.965 -11.274 -23.157  1.00  0.00     0.000 C 
BRANCH   4   5
ATOM      5  C   UNL     1     -14.051 -10.013 -24.035  1.00  0.00     0.006 C 
BRANCH   5   6
ATOM      6  C   UNL     1     -13.904  -8.716 -23.232  1.00  0.00     0.053 C 
BRANCH   6   7
ATOM      7  C   UNL     1     -15.046  -7.792 -23.515  1.00  0.00     0.041 C 
ATOM      8  O   UNL     1     -14.922  -6.877 -24.371  1.00  0.00    -0.550 OA
ATOM      9  O   UNL     1     -16.230  -7.910 -22.800  1.00  0.00    -0.550 OA
ENDBRANCH   6   7
ENDBRANCH   5   6
ENDBRANCH   4   5
ENDBRANCH   3   4
ENDBRANCH   2   3
ENDBRANCH   1   2
BRANCH   1  10
ATOM     10  C   UNL     1     -17.444 -13.498 -24.230  1.00  0.00     0.000 C 
BRANCH  10  11
ATOM     11  C   UNL     1     -18.718 -12.650 -24.372  1.00  0.00    -0.000 C 
BRANCH  11  12
ATOM     12  C   UNL     1     -19.875 -13.422 -25.032  1.00  0.00    -0.000 C 
BRANCH  12  13
ATOM     13  C   UNL     1     -21.211 -13.231 -24.297  1.00  0.00    -0.000 C 
BRANCH  13  14
ATOM     14  C   UNL     1     -22.039 -14.526 -24.235  1.00  0.00    -0.000 C 
BRANCH  14  15
ATOM     15  C   UNL     1     -22.450 -14.895 -22.800  1.00  0.00    -0.003 C 
ATOM     16  C   UNL     1     -21.958 -13.883 -21.765  1.00  0.00     0.004 C 
ENDBRANCH  14  15
ENDBRANCH  13  14
ENDBRANCH  12  13
ENDBRANCH  11  12
ENDBRANCH  10  11
ENDBRANCH   1  10
TORSDOF 12
ENDMDL
MODEL 3
REMARK VINA RESULT:    15.276     15.331     17.250
REMARK INTER + INTRA:          25.407
REMARK INTER:                  26.038
REMARK INTRA:                  -0.631
REMARK UNBOUND:                -0.586
REMARK SMILES CCCCCCCCCCCCCC(=O)[O-]
REMARK SMILES IDX 8 1 9 2 10 3 11 4 12 5 13 6 14 7 15 8 16 9 7 10 6 11 5 12
REMARK SMILES IDX 4 13 3 14 2 15 1 16
REMARK H PARENT
REMARK Flexibility Score: inf
ROOT
ATOM      1  C   UNL     1     -25.566  -5.078 -11.985  1.00  0.00     0.000 C 
ENDROOT
BRANCH   1   2
ATOM      2  C   UNL     1     -24.878  -3.701 -11.958  1.00  0.00     0.000 C 
BRANCH   2   3
ATOM      3  C   UNL     1     -24.662  -3.049 -13.339  1.00  0.00     0.000 C 
BRANCH   3   4
ATOM      4  C   UNL     1     -25.074  -3.916 -14.546  1.00  0.00     0.000 C 
BRANCH   4   5
ATOM      5  C   UNL     1     -24.633  -3.370 -15.916  1.00  0.00     0.006 C 
BRANCH   5   6
ATOM      6  C   UNL     1     -25.000  -4.305 -17.075  1.00  0.00     0.053 C 
BRANCH   6   7
ATOM      7  C   UNL     1     -23.798  -4.585 -17.921  1.00  0.00     0.041 C 
ATOM      8  O   UNL     1     -23.733  -5.646 -18.596  1.00  0.00    -0.550 OA
ATOM      9  O   UNL     1     -22.729  -3.699 -17.926  1.00  0.00    -0.550 OA
ENDBRANCH   6   7
ENDBRANCH   5   6
ENDBRANCH   4   5
ENDBRANCH   3   4
ENDBRANCH   2   3
ENDBRANCH   1   2
BRANCH   1  10
ATOM     10  C   UNL     1     -27.068  -5.000 -11.666  1.00  0.00     0.000 C 
BRANCH  10  11
ATOM     11  C   UNL     1     -27.495  -3.608 -11.171  1.00  0.00    -0.000 C 
BRANCH  11  12
ATOM     12  C   UNL     1     -28.908  -3.219 -11.642  1.00  0.00    -0.000 C 
BRANCH  12  13
ATOM     13  C   UNL     1     -29.953  -3.314 -10.519  1.00  0.00    -0.000 C 
BRANCH  13  14
ATOM     14  C   UNL     1     -30.139  -4.754 -10.008  1.00  0.00    -0.000 C 
BRANCH  14  15
ATOM     15  C   UNL     1     -29.743  -4.910  -8.531  1.00  0.00    -0.003 C 
ATOM     16  C   UNL     1     -30.925  -5.283  -7.636  1.00  0.00     0.004 C 
ENDBRANCH  14  15
ENDBRANCH  13  14
ENDBRANCH  12  13
ENDBRANCH  11  12
ENDBRANCH  10  11
ENDBRANCH   1  10
TORSDOF 12
ENDMDL
MODEL 4
REMARK VINA RESULT:    15.370      1.654      2.541
REMARK INTER + INTRA:          25.567
REMARK INTER:                  26.124
REMARK INTRA:                  -0.557
REMARK UNBOUND:                -0.586
REMARK SMILES CCCCCCCCCCCCCC(=O)[O-]
REMARK SMILES IDX 8 1 9 2 10 3 11 4 12 5 13 6 14 7 15 8 16 9 7 10 6 11 5 12
REMARK SMILES IDX 4 13 3 14 2 15 1 16
REMARK H PARENT
REMARK Flexibility Score: inf
ROOT
ATOM      1  C   UNL     1     -15.463 -12.277 -22.495  1.00  0.00     0.000 C 
ENDROOT
BRANCH   1   2
ATOM      2  C   UNL     1     -16.173 -13.620 -22.742  1.00  0.00     0.000 C 
BRANCH   2   3
ATOM      3  C   UNL     1     -17.109 -13.651 -23.968  1.00  0.00     0.000 C 
BRANCH   3   4
ATOM      4  C   UNL     1     -18.436 -12.886 -23.800  1.00  0.00     0.000 C 
BRANCH   4   5
ATOM      5  C   UNL     1     -19.568 -13.337 -24.740  1.00  0.00     0.006 C 
BRANCH   5   6
ATOM      6  C   UNL     1     -20.935 -12.768 -24.343  1.00  0.00     0.053 C 
BRANCH   6   7
ATOM      7  C   UNL     1     -21.721 -13.782 -23.573  1.00  0.00     0.041 C 
ATOM      8  O   UNL     1     -21.860 -13.661 -22.327  1.00  0.00    -0.550 OA
ATOM      9  O   UNL     1     -22.256 -14.886 -24.222  1.00  0.00    -0.550 OA
ENDBRANCH   6   7
ENDBRANCH   5   6
ENDBRANCH   4   5
ENDBRANCH   3   4
ENDBRANCH   2   3
ENDBRANCH   1   2
BRANCH   1  10
ATOM     10  C   UNL     1     -14.471 -11.913 -23.612  1.00  0.00     0.000 C 
BRANCH  10  11
ATOM     11  C   UNL     1     -13.667 -10.641 -23.296  1.00  0.00    -0.000 C 
BRANCH  11  12
ATOM     12  C   UNL     1     -14.409  -9.354 -23.703  1.00  0.00    -0.000 C 
BRANCH  12  13
ATOM     13  C   UNL     1     -13.966  -8.131 -22.884  1.00  0.00    -0.000 C 
BRANCH  13  14
ATOM     14  C   UNL     1     -12.906  -8.484 -21.826  1.00  0.00    -0.000 C 
BRANCH  14  15
ATOM     15  C   UNL     1     -13.106  -7.710 -20.512  1.00  0.00    -0.003 C 
ATOM     16  C   UNL     1     -12.402  -8.366 -19.325  1.00  0.00     0.004 C 
ENDBRANCH  14  15
ENDBRANCH  13  14
ENDBRANCH  12  13
ENDBRANCH  11  12
ENDBRANCH  10  11
ENDBRANCH   1  10
TORSDOF 12
ENDMDL
MODEL 5
REMARK VINA RESULT:    15.500      2.048      2.833
REMARK INTER + INTRA:          25.788
REMARK INTER:                  26.298
REMARK INTRA:                  -0.510
REMARK UNBOUND:                -0.586
REMARK SMILES CCCCCCCCCCCCCC(=O)[O-]
REMARK SMILES IDX 8 1 9 2 10 3 11 4 12 5 13 6 14 7 15 8 16 9 7 10 6 11 5 12
REMARK SMILES IDX 4 13 3 14 2 15 1 16
REMARK H PARENT
REMARK Flexibility Score: inf
ROOT
ATOM      1  C   UNL     1     -15.157 -11.914 -22.579  1.00  0.00     0.000 C 
ENDROOT
BRANCH   1   2
ATOM      2  C   UNL     1     -15.684 -13.188 -23.265  1.00  0.00     0.000 C 
BRANCH   2   3
ATOM      3  C   UNL     1     -17.200 -13.429 -23.125  1.00  0.00     0.000 C 
BRANCH   3   4
ATOM      4  C   UNL     1     -17.976 -13.522 -24.454  1.00  0.00     0.000 C 
BRANCH   4   5
ATOM      5  C   UNL     1     -19.319 -12.769 -24.474  1.00  0.00     0.006 C 
BRANCH   5   6
ATOM      6  C   UNL     1     -20.447 -13.579 -25.123  1.00  0.00     0.053 C 
BRANCH   6   7
ATOM      7  C   UNL     1     -21.518 -13.880 -24.122  1.00  0.00     0.041 C 
ATOM      8  O   UNL     1     -22.405 -14.735 -24.383  1.00  0.00    -0.550 OA
ATOM      9  O   UNL     1     -21.565 -13.182 -22.923  1.00  0.00    -0.550 OA
ENDBRANCH   6   7
ENDBRANCH   5   6
ENDBRANCH   4   5
ENDBRANCH   3   4
ENDBRANCH   2   3
ENDBRANCH   1   2
BRANCH   1  10
ATOM     10  C   UNL     1     -13.844 -11.404 -23.196  1.00  0.00     0.000 C 
BRANCH  10  11
ATOM     11  C   UNL     1     -14.042 -10.130 -24.033  1.00  0.00    -0.000 C 
BRANCH  11  12
ATOM     12  C   UNL     1     -14.206  -8.869 -23.166  1.00  0.00    -0.000 C 
BRANCH  12  13
ATOM     13  C   UNL     1     -12.932  -8.522 -22.379  1.00  0.00    -0.000 C 
BRANCH  13  14
ATOM     14  C   UNL     1     -13.238  -8.005 -20.962  1.00  0.00    -0.000 C 
BRANCH  14  15
ATOM     15  C   UNL     1     -12.355  -8.666 -19.891  1.00  0.00    -0.003 C 
ATOM     16  C   UNL     1     -12.667  -8.171 -18.478  1.00  0.00     0.004 C 
ENDBRANCH  14  15
ENDBRANCH  13  14
ENDBRANCH  12  13
ENDBRANCH  11  12
ENDBRANCH  10  11
ENDBRANCH   1  10
TORSDOF 12
ENDMDL
MODEL 6
REMARK VINA RESULT:    15.904      3.368      6.132
REMARK INTER + INTRA:          26.475
REMARK INTER:                  26.931
REMARK INTRA:                  -0.455
REMARK UNBOUND:                -0.586
REMARK SMILES CCCCCCCCCCCCCC(=O)[O-]
REMARK SMILES IDX 8 1 9 2 10 3 11 4 12 5 13 6 14 7 15 8 16 9 7 10 6 11 5 12
REMARK SMILES IDX 4 13 3 14 2 15 1 16
REMARK H PARENT
REMARK Flexibility Score: inf
ROOT
ATOM      1  C   UNL     1     -16.182 -13.531 -23.192  1.00  0.00     0.000 C 
ENDROOT
BRANCH   1   2
ATOM      2  C   UNL     1     -17.311 -13.905 -24.170  1.00  0.00     0.000 C 
BRANCH   2   3
ATOM      3  C   UNL     1     -18.395 -12.824 -24.363  1.00  0.00     0.000 C 
BRANCH   3   4
ATOM      4  C   UNL     1     -19.702 -13.315 -25.017  1.00  0.00     0.000 C 
BRANCH   4   5
ATOM      5  C   UNL     1     -20.979 -13.027 -24.207  1.00  0.00     0.006 C 
BRANCH   5   6
ATOM      6  C   UNL     1     -21.925 -14.232 -24.139  1.00  0.00     0.053 C 
BRANCH   6   7
ATOM      7  C   UNL     1     -22.261 -14.553 -22.717  1.00  0.00     0.041 C 
ATOM      8  O   UNL     1     -22.902 -15.601 -22.440  1.00  0.00    -0.550 OA
ATOM      9  O   UNL     1     -21.912 -13.671 -21.703  1.00  0.00    -0.550 OA
ENDBRANCH   6   7
ENDBRANCH   5   6
ENDBRANCH   4   5
ENDBRANCH   3   4
ENDBRANCH   2   3
ENDBRANCH   1   2
BRANCH   1  10
ATOM     10  C   UNL     1     -16.662 -13.434 -21.735  1.00  0.00     0.000 C 
BRANCH  10  11
ATOM     11  C   UNL     1     -15.943 -14.427 -20.809  1.00  0.00    -0.000 C 
BRANCH  11  12
ATOM     12  C   UNL     1     -16.920 -15.323 -20.026  1.00  0.00    -0.000 C 
BRANCH  12  13
ATOM     13  C   UNL     1     -16.644 -15.320 -18.514  1.00  0.00    -0.000 C 
BRANCH  13  14
ATOM     14  C   UNL     1     -17.687 -16.130 -17.724  1.00  0.00    -0.000 C 
BRANCH  14  15
ATOM     15  C   UNL     1     -17.671 -15.803 -16.222  1.00  0.00    -0.003 C 
ATOM     16  C   UNL     1     -16.988 -16.886 -15.387  1.00  0.00     0.004 C 
ENDBRANCH  14  15
ENDBRANCH  13  14
ENDBRANCH  12  13
ENDBRANCH  11  12
ENDBRANCH  10  11
ENDBRANCH   1  10
TORSDOF 12
ENDMDL
MODEL 7
REMARK VINA RESULT:    16.047      4.265      8.115
REMARK INTER + INTRA:          26.719
REMARK INTER:                  27.294
REMARK INTRA:                  -0.575
REMARK UNBOUND:                -0.586
REMARK SMILES CCCCCCCCCCCCCC(=O)[O-]
REMARK SMILES IDX 8 1 9 2 10 3 11 4 12 5 13 6 14 7 15 8 16 9 7 10 6 11 5 12
REMARK SMILES IDX 4 13 3 14 2 15 1 16
REMARK H PARENT
REMARK Flexibility Score: inf
ROOT
ATOM      1  C   UNL     1     -15.565 -12.380 -22.487  1.00  0.00     0.000 C 
ENDROOT
BRANCH   1   2
ATOM      2  C   UNL     1     -14.538 -12.078 -23.593  1.00  0.00     0.000 C 
BRANCH   2   3
ATOM      3  C   UNL     1     -13.671 -10.824 -23.358  1.00  0.00     0.000 C 
BRANCH   3   4
ATOM      4  C   UNL     1     -14.424  -9.481 -23.437  1.00  0.00     0.000 C 
BRANCH   4   5
ATOM      5  C   UNL     1     -13.614  -8.257 -22.972  1.00  0.00     0.006 C 
BRANCH   5   6
ATOM      6  C   UNL     1     -12.592  -8.598 -21.882  1.00  0.00     0.053 C 
BRANCH   6   7
ATOM      7  C   UNL     1     -12.962  -7.934 -20.592  1.00  0.00     0.041 C 
ATOM      8  O   UNL     1     -13.701  -6.915 -20.595  1.00  0.00    -0.550 OA
ATOM      9  O   UNL     1     -12.451  -8.411 -19.393  1.00  0.00    -0.550 OA
ENDBRANCH   6   7
ENDBRANCH   5   6
ENDBRANCH   4   5
ENDBRANCH   3   4
ENDBRANCH   2   3
ENDBRANCH   1   2
BRANCH   1  10
ATOM     10  C   UNL     1     -16.350 -13.678 -22.740  1.00  0.00     0.000 C 
BRANCH  10  11
ATOM     11  C   UNL     1     -17.219 -13.604 -24.006  1.00  0.00    -0.000 C 
BRANCH  11  12
ATOM     12  C   UNL     1     -18.605 -12.990 -23.739  1.00  0.00    -0.000 C 
BRANCH  12  13
ATOM     13  C   UNL     1     -19.526 -13.048 -24.968  1.00  0.00    -0.000 C 
BRANCH  13  14
ATOM     14  C   UNL     1     -21.016 -12.968 -24.592  1.00  0.00    -0.000 C 
BRANCH  14  15
ATOM     15  C   UNL     1     -21.561 -14.304 -24.060  1.00  0.00    -0.003 C 
ATOM     16  C   UNL     1     -22.107 -14.196 -22.637  1.00  0.00     0.004 C 
ENDBRANCH  14  15
ENDBRANCH  13  14
ENDBRANCH  12  13
ENDBRANCH  11  12
ENDBRANCH  10  11
ENDBRANCH   1  10
TORSDOF 12
ENDMDL
MODEL 8
REMARK VINA RESULT:    16.390     15.100     16.568
REMARK INTER + INTRA:          27.302
REMARK INTER:                  28.001
REMARK INTRA:                  -0.698
REMARK UNBOUND:                -0.586
REMARK SMILES CCCCCCCCCCCCCC(=O)[O-]
REMARK SMILES IDX 8 1 9 2 10 3 11 4 12 5 13 6 14 7 15 8 16 9 7 10 6 11 5 12
REMARK SMILES IDX 4 13 3 14 2 15 1 16
REMARK H PARENT
REMARK Flexibility Score: inf
ROOT
ATOM      1  C   UNL     1     -25.309  -4.042 -14.143  1.00  0.00     0.000 C 
ENDROOT
BRANCH   1   2
ATOM      2  C   UNL     1     -24.679  -4.066 -12.738  1.00  0.00     0.000 C 
BRANCH   2   3
ATOM      3  C   UNL     1     -25.570  -3.508 -11.610  1.00  0.00     0.000 C 
BRANCH   3   4
ATOM      4  C   UNL     1     -27.029  -4.006 -11.619  1.00  0.00     0.000 C 
BRANCH   4   5
ATOM      5  C   UNL     1     -27.989  -3.214 -10.713  1.00  0.00     0.006 C 
BRANCH   5   6
ATOM      6  C   UNL     1     -29.465  -3.495 -11.019  1.00  0.00     0.053 C 
BRANCH   6   7
ATOM      7  C   UNL     1     -30.003  -4.535 -10.088  1.00  0.00     0.041 C 
ATOM      8  O   UNL     1     -30.869  -5.357 -10.489  1.00  0.00    -0.550 OA
ATOM      9  O   UNL     1     -29.586  -4.566  -8.764  1.00  0.00    -0.550 OA
ENDBRANCH   6   7
ENDBRANCH   5   6
ENDBRANCH   4   5
ENDBRANCH   3   4
ENDBRANCH   2   3
ENDBRANCH   1   2
BRANCH   1  10
ATOM     10  C   UNL     1     -24.701  -2.960 -15.050  1.00  0.00     0.000 C 
BRANCH  10  11
ATOM     11  C   UNL     1     -25.239  -3.026 -16.489  1.00  0.00    -0.000 C 
BRANCH  11  12
ATOM     12  C   UNL     1     -25.438  -4.471 -16.982  1.00  0.00    -0.000 C 
BRANCH  12  13
ATOM     13  C   UNL     1     -26.788  -4.676 -17.688  1.00  0.00    -0.000 C 
BRANCH  13  14
ATOM     14  C   UNL     1     -27.820  -5.383 -16.791  1.00  0.00    -0.000 C 
BRANCH  14  15
ATOM     15  C   UNL     1     -29.245  -5.312 -17.364  1.00  0.00    -0.003 C 
ATOM     16  C   UNL     1     -29.390  -4.259 -18.463  1.00  0.00     0.004 C 
ENDBRANCH  14  15
ENDBRANCH  13  14
ENDBRANCH  12  13
ENDBRANCH  11  12
ENDBRANCH  10  11
ENDBRANCH   1  10
TORSDOF 12
ENDMDL
MODEL 9
REMARK VINA RESULT:    16.689     14.736     16.321
REMARK INTER + INTRA:          27.811
REMARK INTER:                  28.492
REMARK INTRA:                  -0.681
REMARK UNBOUND:                -0.586
REMARK SMILES CCCCCCCCCCCCCC(=O)[O-]
REMARK SMILES IDX 8 1 9 2 10 3 11 4 12 5 13 6 14 7 15 8 16 9 7 10 6 11 5 12
REMARK SMILES IDX 4 13 3 14 2 15 1 16
REMARK H PARENT
REMARK Flexibility Score: inf
ROOT
ATOM      1  C   UNL     1     -25.220  -3.925 -14.148  1.00  0.00     0.000 C 
ENDROOT
BRANCH   1   2
ATOM      2  C   UNL     1     -24.422  -3.171 -15.228  1.00  0.00     0.000 C 
BRANCH   2   3
ATOM      3  C   UNL     1     -25.067  -3.155 -16.628  1.00  0.00     0.000 C 
BRANCH   3   4
ATOM      4  C   UNL     1     -25.480  -4.535 -17.177  1.00  0.00     0.000 C 
BRANCH   4   5
ATOM      5  C   UNL     1     -26.917  -4.612 -17.723  1.00  0.00     0.006 C 
BRANCH   5   6
ATOM      6  C   UNL     1     -27.834  -5.495 -16.868  1.00  0.00     0.053 C 
BRANCH   6   7
ATOM      7  C   UNL     1     -29.270  -5.180 -17.144  1.00  0.00     0.041 C 
ATOM      8  O   UNL     1     -30.095  -5.106 -16.195  1.00  0.00    -0.550 OA
ATOM      9  O   UNL     1     -29.708  -5.016 -18.451  1.00  0.00    -0.550 OA
ENDBRANCH   6   7
ENDBRANCH   5   6
ENDBRANCH   4   5
ENDBRANCH   3   4
ENDBRANCH   2   3
ENDBRANCH   1   2
BRANCH   1  10
ATOM     10  C   UNL     1     -24.645  -3.730 -12.736  1.00  0.00     0.000 C 
BRANCH  10  11
ATOM     11  C   UNL     1     -25.505  -4.398 -11.651  1.00  0.00    -0.000 C 
BRANCH  11  12
ATOM     12  C   UNL     1     -27.009  -4.353 -11.976  1.00  0.00    -0.000 C 
BRANCH  12  13
ATOM     13  C   UNL     1     -27.840  -3.714 -10.851  1.00  0.00    -0.000 C 
BRANCH  13  14
ATOM     14  C   UNL     1     -29.259  -3.337 -11.309  1.00  0.00    -0.000 C 
BRANCH  14  15
ATOM     15  C   UNL     1     -30.350  -3.998 -10.451  1.00  0.00    -0.003 C 
ATOM     16  C   UNL     1     -29.778  -4.845  -9.314  1.00  0.00     0.004 C 
ENDBRANCH  14  15
ENDBRANCH  13  14
ENDBRANCH  12  13
ENDBRANCH  11  12
ENDBRANCH  10  11
ENDBRANCH   1  10
TORSDOF 12
ENDMDL
