MODEL 1
REMARK VINA RESULT:    -4.532      0.000      0.000
REMARK INTER + INTRA:          -5.547
REMARK INTER:                  -5.327
REMARK INTRA:                  -0.221
REMARK UNBOUND:                -0.221
REMARK SMILES O=c1c(O)c(-c2ccc(O)cc2)oc2cc(O)cc(O)c12
REMARK SMILES IDX 5 1 3 2 2 3 1 4 21 5 19 6 18 7 16 8 15 9 14 10 13 11 6 12
REMARK SMILES IDX 7 13 8 14 9 15 12 16 11 17 10 18 4 20 20 22 17 24
REMARK H PARENT 10 19 4 21 20 23 17 25
REMARK Flexibility Score: inf
ROOT
ATOM      1  C   UNL     1      -2.320  10.351   6.514  1.00  0.00     0.180 A 
ATOM      2  C   UNL     1      -2.794  11.007   7.663  1.00  0.00     0.208 A 
ATOM      3  C   UNL     1      -3.928  10.499   8.318  1.00  0.00     0.238 A 
ATOM      4  O   UNL     1      -4.316  11.060   9.375  1.00  0.00    -0.285 OA
ATOM      5  C   UNL     1      -4.582   9.353   7.807  1.00  0.00     0.111 A 
ATOM      6  C   UNL     1      -5.763   8.777   8.366  1.00  0.00     0.134 A 
ATOM      7  C   UNL     1      -6.248   7.566   7.855  1.00  0.00     0.093 A 
ATOM      8  C   UNL     1      -5.635   6.946   6.765  1.00  0.00     0.123 A 
ATOM      9  C   UNL     1      -4.517   7.532   6.174  1.00  0.00     0.094 A 
ATOM     10  C   UNL     1      -3.988   8.721   6.684  1.00  0.00     0.146 A 
ATOM     11  O   UNL     1      -2.915   9.239   6.098  1.00  0.00    -0.452 OA
ENDROOT
BRANCH   1  12
ATOM     12  C   UNL     1      -1.145  10.840   5.757  1.00  0.00     0.021 A 
ATOM     13  C   UNL     1      -1.289  11.468   4.506  1.00  0.00     0.016 A 
ATOM     14  C   UNL     1      -0.163  11.898   3.798  1.00  0.00     0.047 A 
ATOM     15  C   UNL     1       1.120  11.696   4.323  1.00  0.00     0.115 A 
ATOM     16  C   UNL     1       0.146  10.622   6.267  1.00  0.00     0.016 A 
ATOM     17  C   UNL     1       1.271  11.055   5.557  1.00  0.00     0.047 A 
BRANCH  15  18
ATOM     18  O   UNL     1       2.248  12.124   3.627  1.00  0.00    -0.508 OA
ATOM     19  H   UNL     1       3.142  12.245   4.090  1.00  0.00     0.293 HD
ENDBRANCH  15  18
ENDBRANCH   1  12
BRANCH   2  20
ATOM     20  O   UNL     1      -2.121  12.125   8.164  1.00  0.00    -0.502 OA
ATOM     21  H   UNL     1      -2.451  12.644   8.969  1.00  0.00     0.293 HD
ENDBRANCH   2  20
BRANCH   6  22
ATOM     22  O   UNL     1      -6.505   9.362   9.396  1.00  0.00    -0.507 OA
ATOM     23  H   UNL     1      -6.843  10.312   9.392  1.00  0.00     0.293 HD
ENDBRANCH   6  22
BRANCH   8  24
ATOM     24  O   UNL     1      -6.134   5.751   6.254  1.00  0.00    -0.508 OA
ATOM     25  H   UNL     1      -6.574   5.706   5.342  1.00  0.00     0.293 HD
ENDBRANCH   8  24
TORSDOF 5
ENDMDL
MODEL 2
REMARK VINA RESULT:    -4.444      1.890      2.115
REMARK INTER + INTRA:          -5.444
REMARK INTER:                  -5.293
REMARK INTRA:                  -0.151
REMARK UNBOUND:                -0.221
REMARK SMILES O=c1c(O)c(-c2ccc(O)cc2)oc2cc(O)cc(O)c12
REMARK SMILES IDX 5 1 3 2 2 3 1 4 21 5 19 6 18 7 16 8 15 9 14 10 13 11 6 12
REMARK SMILES IDX 7 13 8 14 9 15 12 16 11 17 10 18 4 20 20 22 17 24
REMARK H PARENT 10 19 4 21 20 23 17 25
REMARK Flexibility Score: inf
ROOT
ATOM      1  C   UNL     1      -2.597  10.266   6.830  1.00  0.00     0.180 A 
ATOM      2  C   UNL     1      -3.678  10.947   6.245  1.00  0.00     0.208 A 
ATOM      3  C   UNL     1      -4.985  10.500   6.503  1.00  0.00     0.238 A 
ATOM      4  O   UNL     1      -5.951  11.146   6.019  1.00  0.00    -0.285 OA
ATOM      5  C   UNL     1      -5.193   9.369   7.328  1.00  0.00     0.111 A 
ATOM      6  C   UNL     1      -6.470   8.804   7.623  1.00  0.00     0.134 A 
ATOM      7  C   UNL     1      -6.566   7.765   8.557  1.00  0.00     0.093 A 
ATOM      8  C   UNL     1      -5.425   7.226   9.155  1.00  0.00     0.123 A 
ATOM      9  C   UNL     1      -4.168   7.730   8.828  1.00  0.00     0.094 A 
ATOM     10  C   UNL     1      -4.043   8.792   7.928  1.00  0.00     0.146 A 
ATOM     11  O   UNL     1      -2.828   9.249   7.652  1.00  0.00    -0.452 OA
ENDROOT
BRANCH   1  12
ATOM     12  C   UNL     1      -1.192  10.663   6.586  1.00  0.00     0.021 A 
ATOM     13  C   UNL     1      -0.624  10.596   5.300  1.00  0.00     0.016 A 
ATOM     14  C   UNL     1       0.713  10.952   5.100  1.00  0.00     0.047 A 
ATOM     15  C   UNL     1       1.502  11.366   6.180  1.00  0.00     0.115 A 
ATOM     16  C   UNL     1      -0.387  11.060   7.668  1.00  0.00     0.016 A 
ATOM     17  C   UNL     1       0.949  11.417   7.463  1.00  0.00     0.047 A 
BRANCH  15  18
ATOM     18  O   UNL     1       2.835  11.726   5.991  1.00  0.00    -0.508 OA
ATOM     19  H   UNL     1       3.094  12.506   5.398  1.00  0.00     0.293 HD
ENDBRANCH  15  18
ENDBRANCH   1  12
BRANCH   2  20
ATOM     20  O   UNL     1      -3.453  12.075   5.451  1.00  0.00    -0.502 OA
ATOM     21  H   UNL     1      -4.165  12.465   4.844  1.00  0.00     0.293 HD
ENDBRANCH   2  20
BRANCH   6  22
ATOM     22  O   UNL     1      -7.661   9.206   7.012  1.00  0.00    -0.507 OA
ATOM     23  H   UNL     1      -8.367   8.578   6.659  1.00  0.00     0.293 HD
ENDBRANCH   6  22
BRANCH   8  24
ATOM     24  O   UNL     1      -5.529   6.182  10.070  1.00  0.00    -0.508 OA
ATOM     25  H   UNL     1      -6.429   5.844  10.391  1.00  0.00     0.293 HD
ENDBRANCH   8  24
TORSDOF 5
ENDMDL
MODEL 3
REMARK VINA RESULT:    -4.203      2.104      2.515
REMARK INTER + INTRA:          -5.161
REMARK INTER:                  -4.879
REMARK INTRA:                  -0.282
REMARK UNBOUND:                -0.221
REMARK SMILES O=c1c(O)c(-c2ccc(O)cc2)oc2cc(O)cc(O)c12
REMARK SMILES IDX 5 1 3 2 2 3 1 4 21 5 19 6 18 7 16 8 15 9 14 10 13 11 6 12
REMARK SMILES IDX 7 13 8 14 9 15 12 16 11 17 10 18 4 20 20 22 17 24
REMARK H PARENT 10 19 4 21 20 23 17 25
REMARK Flexibility Score: inf
ROOT
ATOM      1  C   UNL     1      -1.817   9.963   8.350  1.00  0.00     0.180 A 
ATOM      2  C   UNL     1      -2.701  10.952   8.815  1.00  0.00     0.208 A 
ATOM      3  C   UNL     1      -4.084  10.725   8.727  1.00  0.00     0.238 A 
ATOM      4  O   UNL     1      -4.869  11.592   9.193  1.00  0.00    -0.285 OA
ATOM      5  C   UNL     1      -4.566   9.520   8.162  1.00  0.00     0.111 A 
ATOM      6  C   UNL     1      -5.947   9.203   7.985  1.00  0.00     0.134 A 
ATOM      7  C   UNL     1      -6.310   7.928   7.535  1.00  0.00     0.093 A 
ATOM      8  C   UNL     1      -5.341   6.982   7.192  1.00  0.00     0.123 A 
ATOM      9  C   UNL     1      -3.990   7.303   7.304  1.00  0.00     0.094 A 
ATOM     10  C   UNL     1      -3.597   8.555   7.785  1.00  0.00     0.146 A 
ATOM     11  O   UNL     1      -2.299   8.816   7.886  1.00  0.00    -0.452 OA
ENDROOT
BRANCH   1  12
ATOM     12  C   UNL     1      -0.348  10.140   8.387  1.00  0.00     0.021 A 
ATOM     13  C   UNL     1       0.327  10.877   7.397  1.00  0.00     0.016 A 
ATOM     14  C   UNL     1       1.718  11.009   7.440  1.00  0.00     0.047 A 
ATOM     15  C   UNL     1       2.453  10.395   8.462  1.00  0.00     0.115 A 
ATOM     16  C   UNL     1       0.399   9.510   9.398  1.00  0.00     0.016 A 
ATOM     17  C   UNL     1       1.791   9.644   9.438  1.00  0.00     0.047 A 
BRANCH  15  18
ATOM     18  O   UNL     1       3.840  10.522   8.515  1.00  0.00    -0.508 OA
ATOM     19  H   UNL     1       4.446   9.964   7.925  1.00  0.00     0.293 HD
ENDBRANCH  15  18
ENDBRANCH   1  12
BRANCH   2  20
ATOM     20  O   UNL     1      -2.204  12.125   9.390  1.00  0.00    -0.502 OA
ATOM     21  H   UNL     1      -2.756  12.701  10.014  1.00  0.00     0.293 HD
ENDBRANCH   2  20
BRANCH   6  22
ATOM     22  O   UNL     1      -6.989  10.106   8.210  1.00  0.00    -0.507 OA
ATOM     23  H   UNL     1      -7.379  10.320   9.115  1.00  0.00     0.293 HD
ENDBRANCH   6  22
BRANCH   8  24
ATOM     24  O   UNL     1      -5.711   5.721   6.731  1.00  0.00    -0.508 OA
ATOM     25  H   UNL     1      -5.078   4.931   6.780  1.00  0.00     0.293 HD
ENDBRANCH   8  24
TORSDOF 5
ENDMDL
MODEL 4
REMARK VINA RESULT:    -4.055      1.808      6.741
REMARK INTER + INTRA:          -4.987
REMARK INTER:                  -4.687
REMARK INTRA:                  -0.300
REMARK UNBOUND:                -0.221
REMARK SMILES O=c1c(O)c(-c2ccc(O)cc2)oc2cc(O)cc(O)c12
REMARK SMILES IDX 5 1 3 2 2 3 1 4 21 5 19 6 18 7 16 8 15 9 14 10 13 11 6 12
REMARK SMILES IDX 7 13 8 14 9 15 12 16 11 17 10 18 4 20 20 22 17 24
REMARK H PARENT 10 19 4 21 20 23 17 25
REMARK Flexibility Score: inf
ROOT
ATOM      1  C   UNL     1      -2.034   9.956   7.320  1.00  0.00     0.180 A 
ATOM      2  C   UNL     1      -1.215  10.093   8.454  1.00  0.00     0.208 A 
ATOM      3  C   UNL     1       0.091  10.584   8.296  1.00  0.00     0.238 A 
ATOM      4  O   UNL     1       0.800  10.755   9.321  1.00  0.00    -0.285 OA
ATOM      5  C   UNL     1       0.567  10.917   7.005  1.00  0.00     0.111 A 
ATOM      6  C   UNL     1       1.886  11.384   6.723  1.00  0.00     0.134 A 
ATOM      7  C   UNL     1       2.207  11.806   5.427  1.00  0.00     0.093 A 
ATOM      8  C   UNL     1       1.276  11.716   4.389  1.00  0.00     0.123 A 
ATOM      9  C   UNL     1       0.005  11.206   4.642  1.00  0.00     0.094 A 
ATOM     10  C   UNL     1      -0.356  10.810   5.933  1.00  0.00     0.146 A 
ATOM     11  O   UNL     1      -1.581  10.339   6.132  1.00  0.00    -0.452 OA
ENDROOT
BRANCH   1  12
ATOM     12  C   UNL     1      -3.412   9.423   7.404  1.00  0.00     0.021 A 
ATOM     13  C   UNL     1      -3.671   8.042   7.324  1.00  0.00     0.016 A 
ATOM     14  C   UNL     1      -4.984   7.565   7.380  1.00  0.00     0.047 A 
ATOM     15  C   UNL     1      -6.054   8.460   7.503  1.00  0.00     0.115 A 
ATOM     16  C   UNL     1      -4.494  10.315   7.506  1.00  0.00     0.016 A 
ATOM     17  C   UNL     1      -5.806   9.834   7.563  1.00  0.00     0.047 A 
BRANCH  15  18
ATOM     18  O   UNL     1      -7.367   7.994   7.562  1.00  0.00    -0.508 OA
ATOM     19  H   UNL     1      -8.151   8.591   7.328  1.00  0.00     0.293 HD
ENDBRANCH  15  18
ENDBRANCH   1  12
BRANCH   2  20
ATOM     20  O   UNL     1      -1.712   9.780   9.722  1.00  0.00    -0.502 OA
ATOM     21  H   UNL     1      -1.269  10.100  10.575  1.00  0.00     0.293 HD
ENDBRANCH   2  20
BRANCH   6  22
ATOM     22  O   UNL     1       2.917  11.426   7.667  1.00  0.00    -0.507 OA
ATOM     23  H   UNL     1       2.787  11.597   8.652  1.00  0.00     0.293 HD
ENDBRANCH   6  22
BRANCH   8  24
ATOM     24  O   UNL     1       1.609  12.124   3.100  1.00  0.00    -0.508 OA
ATOM     25  H   UNL     1       2.267  12.877   2.935  1.00  0.00     0.293 HD
ENDBRANCH   8  24
TORSDOF 5
ENDMDL
MODEL 5
REMARK VINA RESULT:    -3.919      4.932      8.447
REMARK INTER + INTRA:          -4.827
REMARK INTER:                  -4.551
REMARK INTRA:                  -0.276
REMARK UNBOUND:                -0.221
REMARK SMILES O=c1c(O)c(-c2ccc(O)cc2)oc2cc(O)cc(O)c12
REMARK SMILES IDX 5 1 3 2 2 3 1 4 21 5 19 6 18 7 16 8 15 9 14 10 13 11 6 12
REMARK SMILES IDX 7 13 8 14 9 15 12 16 11 17 10 18 4 20 20 22 17 24
REMARK H PARENT 10 19 4 21 20 23 17 25
REMARK Flexibility Score: inf
ROOT
ATOM      1  C   UNL     1       4.886   9.748   6.865  1.00  0.00     0.180 A 
ATOM      2  C   UNL     1       4.965  10.120   5.512  1.00  0.00     0.208 A 
ATOM      3  C   UNL     1       3.871  10.770   4.919  1.00  0.00     0.238 A 
ATOM      4  O   UNL     1       3.968  11.148   3.723  1.00  0.00    -0.285 OA
ATOM      5  C   UNL     1       2.706  11.026   5.682  1.00  0.00     0.111 A 
ATOM      6  C   UNL     1       1.523  11.641   5.173  1.00  0.00     0.134 A 
ATOM      7  C   UNL     1       0.480  11.963   6.050  1.00  0.00     0.093 A 
ATOM      8  C   UNL     1       0.550  11.632   7.405  1.00  0.00     0.123 A 
ATOM      9  C   UNL     1       1.676  10.977   7.900  1.00  0.00     0.094 A 
ATOM     10  C   UNL     1       2.748  10.675   7.056  1.00  0.00     0.146 A 
ATOM     11  O   UNL     1       3.806  10.061   7.571  1.00  0.00    -0.452 OA
ENDROOT
BRANCH   1  12
ATOM     12  C   UNL     1       5.989   9.038   7.552  1.00  0.00     0.021 A 
ATOM     13  C   UNL     1       7.085   9.734   8.093  1.00  0.00     0.016 A 
ATOM     14  C   UNL     1       8.127   9.038   8.714  1.00  0.00     0.047 A 
ATOM     15  C   UNL     1       8.093   7.640   8.791  1.00  0.00     0.115 A 
ATOM     16  C   UNL     1       5.973   7.633   7.615  1.00  0.00     0.016 A 
ATOM     17  C   UNL     1       7.016   6.941   8.239  1.00  0.00     0.047 A 
BRANCH  15  18
ATOM     18  O   UNL     1       9.125   6.937   9.411  1.00  0.00    -0.508 OA
ATOM     19  H   UNL     1       9.073   5.935   9.552  1.00  0.00     0.293 HD
ENDBRANCH  15  18
ENDBRANCH   1  12
BRANCH   2  20
ATOM     20  O   UNL     1       6.133   9.878   4.783  1.00  0.00    -0.502 OA
ATOM     21  H   UNL     1       6.609  10.604   4.261  1.00  0.00     0.293 HD
ENDBRANCH   2  20
BRANCH   6  22
ATOM     22  O   UNL     1       1.313  11.930   3.821  1.00  0.00    -0.507 OA
ATOM     23  H   UNL     1       0.689  11.420   3.215  1.00  0.00     0.293 HD
ENDBRANCH   6  22
BRANCH   8  24
ATOM     24  O   UNL     1      -0.498  11.942   8.268  1.00  0.00    -0.508 OA
ATOM     25  H   UNL     1      -0.494  12.788   8.826  1.00  0.00     0.293 HD
ENDBRANCH   8  24
TORSDOF 5
ENDMDL
MODEL 6
REMARK VINA RESULT:    -3.850      2.992      3.917
REMARK INTER + INTRA:          -4.746
REMARK INTER:                  -4.489
REMARK INTRA:                  -0.257
REMARK UNBOUND:                -0.221
REMARK SMILES O=c1c(O)c(-c2ccc(O)cc2)oc2cc(O)cc(O)c12
REMARK SMILES IDX 5 1 3 2 2 3 1 4 21 5 19 6 18 7 16 8 15 9 14 10 13 11 6 12
REMARK SMILES IDX 7 13 8 14 9 15 12 16 11 17 10 18 4 20 20 22 17 24
REMARK H PARENT 10 19 4 21 20 23 17 25
REMARK Flexibility Score: inf
ROOT
ATOM      1  C   UNL     1      -0.291  10.239   7.977  1.00  0.00     0.180 A 
ATOM      2  C   UNL     1      -0.729  10.771   6.752  1.00  0.00     0.208 A 
ATOM      3  C   UNL     1      -1.976  10.373   6.244  1.00  0.00     0.238 A 
ATOM      4  O   UNL     1      -2.386  10.892   5.174  1.00  0.00    -0.285 OA
ATOM      5  C   UNL     1      -2.762   9.436   6.959  1.00  0.00     0.111 A 
ATOM      6  C   UNL     1      -4.022   8.931   6.517  1.00  0.00     0.134 A 
ATOM      7  C   UNL     1      -4.771   8.108   7.368  1.00  0.00     0.093 A 
ATOM      8  C   UNL     1      -4.276   7.719   8.614  1.00  0.00     0.123 A 
ATOM      9  C   UNL     1      -3.021   8.159   9.029  1.00  0.00     0.094 A 
ATOM     10  C   UNL     1      -2.266   9.010   8.218  1.00  0.00     0.146 A 
ATOM     11  O   UNL     1      -1.079   9.414   8.656  1.00  0.00    -0.452 OA
ENDROOT
BRANCH   1  12
ATOM     12  C   UNL     1       1.022  10.593   8.564  1.00  0.00     0.021 A 
ATOM     13  C   UNL     1       1.213  11.801   9.259  1.00  0.00     0.016 A 
ATOM     14  C   UNL     1       2.469  12.124   9.782  1.00  0.00     0.047 A 
ATOM     15  C   UNL     1       3.551  11.252   9.606  1.00  0.00     0.115 A 
ATOM     16  C   UNL     1       2.118   9.733   8.374  1.00  0.00     0.016 A 
ATOM     17  C   UNL     1       3.373  10.059   8.899  1.00  0.00     0.047 A 
BRANCH  15  18
ATOM     18  O   UNL     1       4.806  11.563  10.125  1.00  0.00    -0.508 OA
ATOM     19  H   UNL     1       5.627  11.017   9.888  1.00  0.00     0.293 HD
ENDBRANCH  15  18
ENDBRANCH   1  12
BRANCH   2  20
ATOM     20  O   UNL     1       0.051  11.711   6.073  1.00  0.00    -0.502 OA
ATOM     21  H   UNL     1       0.185  11.685   5.069  1.00  0.00     0.293 HD
ENDBRANCH   2  20
BRANCH   6  22
ATOM     22  O   UNL     1      -4.564   9.183   5.254  1.00  0.00    -0.507 OA
ATOM     23  H   UNL     1      -4.334   8.671   4.417  1.00  0.00     0.293 HD
ENDBRANCH   6  22
BRANCH   8  24
ATOM     24  O   UNL     1      -5.022   6.888   9.446  1.00  0.00    -0.508 OA
ATOM     25  H   UNL     1      -4.689   5.969   9.715  1.00  0.00     0.293 HD
ENDBRANCH   8  24
TORSDOF 5
ENDMDL
MODEL 7
REMARK VINA RESULT:    -3.789      2.127      7.394
REMARK INTER + INTRA:          -4.675
REMARK INTER:                  -4.375
REMARK INTRA:                  -0.300
REMARK UNBOUND:                -0.221
REMARK SMILES O=c1c(O)c(-c2ccc(O)cc2)oc2cc(O)cc(O)c12
REMARK SMILES IDX 5 1 3 2 2 3 1 4 21 5 19 6 18 7 16 8 15 9 14 10 13 11 6 12
REMARK SMILES IDX 7 13 8 14 9 15 12 16 11 17 10 18 4 20 20 22 17 24
REMARK H PARENT 10 19 4 21 20 23 17 25
REMARK Flexibility Score: inf
ROOT
ATOM      1  C   UNL     1      -0.876  10.444   6.998  1.00  0.00     0.180 A 
ATOM      2  C   UNL     1      -0.961  10.774   5.635  1.00  0.00     0.208 A 
ATOM      3  C   UNL     1       0.211  11.121   4.943  1.00  0.00     0.238 A 
ATOM      4  O   UNL     1       0.136  11.364   3.711  1.00  0.00    -0.285 OA
ATOM      5  C   UNL     1       1.450  11.150   5.627  1.00  0.00     0.111 A 
ATOM      6  C   UNL     1       2.693  11.527   5.037  1.00  0.00     0.134 A 
ATOM      7  C   UNL     1       3.876  11.392   5.774  1.00  0.00     0.093 A 
ATOM      8  C   UNL     1       3.853  10.958   7.101  1.00  0.00     0.123 A 
ATOM      9  C   UNL     1       2.638  10.645   7.705  1.00  0.00     0.094 A 
ATOM     10  C   UNL     1       1.444  10.734   6.984  1.00  0.00     0.146 A 
ATOM     11  O   UNL     1       0.309  10.416   7.595  1.00  0.00    -0.452 OA
ENDROOT
BRANCH   1  12
ATOM     12  C   UNL     1      -2.071  10.092   7.798  1.00  0.00     0.021 A 
ATOM     13  C   UNL     1      -2.823  11.076   8.467  1.00  0.00     0.016 A 
ATOM     14  C   UNL     1      -3.932  10.716   9.238  1.00  0.00     0.047 A 
ATOM     15  C   UNL     1      -4.296   9.369   9.361  1.00  0.00     0.115 A 
ATOM     16  C   UNL     1      -2.432   8.741   7.945  1.00  0.00     0.016 A 
ATOM     17  C   UNL     1      -3.543   8.384   8.715  1.00  0.00     0.047 A 
BRANCH  15  18
ATOM     18  O   UNL     1      -5.402   8.999  10.125  1.00  0.00    -0.508 OA
ATOM     19  H   UNL     1      -6.222   9.590  10.190  1.00  0.00     0.293 HD
ENDBRANCH  15  18
ENDBRANCH   1  12
BRANCH   2  20
ATOM     20  O   UNL     1      -2.191  10.719   4.972  1.00  0.00    -0.502 OA
ATOM     21  H   UNL     1      -3.053  11.042   5.395  1.00  0.00     0.293 HD
ENDBRANCH   2  20
BRANCH   6  22
ATOM     22  O   UNL     1       2.816  12.060   3.750  1.00  0.00    -0.507 OA
ATOM     23  H   UNL     1       3.590  11.886   3.128  1.00  0.00     0.293 HD
ENDBRANCH   6  22
BRANCH   8  24
ATOM     24  O   UNL     1       5.033  10.842   7.831  1.00  0.00    -0.508 OA
ATOM     25  H   UNL     1       5.214  10.040   8.424  1.00  0.00     0.293 HD
ENDBRANCH   8  24
TORSDOF 5
ENDMDL
