MODEL 1
REMARK VINA RESULT:    -2.174      0.000      0.000
REMARK INTER + INTRA:          -5.003
REMARK INTER:                  -3.446
REMARK INTRA:                  -1.557
REMARK UNBOUND:                -1.557
REMARK SMILES CCCCCCCCCCCC(=O)[O-]
REMARK SMILES IDX 7 1 8 2 9 3 10 4 11 5 12 6 13 7 14 8 6 9 5 10 4 11 3 12 2 13
REMARK SMILES IDX 1 14
REMARK H PARENT
REMARK Flexibility Score: inf
ROOT
ATOM      1  C   UNL     1     175.890 205.828 200.437  1.00  0.00     0.000 C 
ENDROOT
BRANCH   1   2
ATOM      2  C   UNL     1     176.215 206.999 199.497  1.00  0.00     0.000 C 
BRANCH   2   3
ATOM      3  C   UNL     1     177.086 208.045 200.203  1.00  0.00     0.000 C 
BRANCH   3   4
ATOM      4  C   UNL     1     178.575 207.810 199.909  1.00  0.00     0.006 C 
BRANCH   4   5
ATOM      5  C   UNL     1     178.802 207.184 198.527  1.00  0.00     0.053 C 
BRANCH   5   6
ATOM      6  C   UNL     1     180.258 207.124 198.178  1.00  0.00     0.041 C 
ATOM      7  O   UNL     1     181.124 207.018 199.085  1.00  0.00    -0.550 OA
ATOM      8  O   UNL     1     180.655 207.152 196.847  1.00  0.00    -0.550 OA
ENDBRANCH   5   6
ENDBRANCH   4   5
ENDBRANCH   3   4
ENDBRANCH   2   3
ENDBRANCH   1   2
BRANCH   1   9
ATOM      9  C   UNL     1     175.625 206.276 201.886  1.00  0.00     0.000 C 
BRANCH   9  10
ATOM     10  C   UNL     1     176.660 205.792 202.919  1.00  0.00    -0.000 C 
BRANCH  10  11
ATOM     11  C   UNL     1     177.654 204.771 202.339  1.00  0.00    -0.000 C 
BRANCH  11  12
ATOM     12  C   UNL     1     179.118 205.188 202.551  1.00  0.00    -0.000 C 
BRANCH  12  13
ATOM     13  C   UNL     1     180.042 204.699 201.426  1.00  0.00    -0.003 C 
ATOM     14  C   UNL     1     179.245 204.011 200.320  1.00  0.00     0.004 C 
ENDBRANCH  12  13
ENDBRANCH  11  12
ENDBRANCH  10  11
ENDBRANCH   9  10
ENDBRANCH   1   9
TORSDOF 10
ENDMDL
MODEL 2
REMARK VINA RESULT:    -2.114      3.309      4.781
REMARK INTER + INTRA:          -4.908
REMARK INTER:                  -3.319
REMARK INTRA:                  -1.589
REMARK UNBOUND:                -1.557
REMARK SMILES CCCCCCCCCCCC(=O)[O-]
REMARK SMILES IDX 7 1 8 2 9 3 10 4 11 5 12 6 13 7 14 8 6 9 5 10 4 11 3 12 2 13
REMARK SMILES IDX 1 14
REMARK H PARENT
REMARK Flexibility Score: inf
ROOT
ATOM      1  C   UNL     1     178.050 204.675 201.279  1.00  0.00     0.000 C 
ENDROOT
BRANCH   1   2
ATOM      2  C   UNL     1     176.689 205.386 201.250  1.00  0.00     0.000 C 
BRANCH   2   3
ATOM      3  C   UNL     1     176.643 206.527 202.275  1.00  0.00     0.000 C 
BRANCH   3   4
ATOM      4  C   UNL     1     176.255 207.853 201.604  1.00  0.00     0.006 C 
BRANCH   4   5
ATOM      5  C   UNL     1     175.560 207.639 200.253  1.00  0.00     0.053 C 
BRANCH   5   6
ATOM      6  C   UNL     1     174.099 207.964 200.324  1.00  0.00     0.041 C 
ATOM      7  O   UNL     1     173.538 208.125 201.438  1.00  0.00    -0.550 OA
ATOM      8  O   UNL     1     173.365 208.119 199.154  1.00  0.00    -0.550 OA
ENDBRANCH   5   6
ENDBRANCH   4   5
ENDBRANCH   3   4
ENDBRANCH   2   3
ENDBRANCH   1   2
BRANCH   1   9
ATOM      9  C   UNL     1     179.237 205.651 201.368  1.00  0.00     0.000 C 
BRANCH   9  10
ATOM     10  C   UNL     1     179.845 206.066 200.014  1.00  0.00    -0.000 C 
BRANCH  10  11
ATOM     11  C   UNL     1     179.280 207.396 199.487  1.00  0.00    -0.000 C 
BRANCH  11  12
ATOM     12  C   UNL     1     178.649 207.257 198.092  1.00  0.00    -0.000 C 
BRANCH  12  13
ATOM     13  C   UNL     1     178.121 205.840 197.820  1.00  0.00    -0.003 C 
ATOM     14  C   UNL     1     176.692 205.881 197.285  1.00  0.00     0.004 C 
ENDBRANCH  12  13
ENDBRANCH  11  12
ENDBRANCH  10  11
ENDBRANCH   9  10
ENDBRANCH   1   9
TORSDOF 10
ENDMDL
MODEL 3
REMARK VINA RESULT:    -2.100      1.676      2.249
REMARK INTER + INTRA:          -4.885
REMARK INTER:                  -3.541
REMARK INTRA:                  -1.345
REMARK UNBOUND:                -1.557
REMARK SMILES CCCCCCCCCCCC(=O)[O-]
REMARK SMILES IDX 7 1 8 2 9 3 10 4 11 5 12 6 13 7 14 8 6 9 5 10 4 11 3 12 2 13
REMARK SMILES IDX 1 14
REMARK H PARENT
REMARK Flexibility Score: inf
ROOT
ATOM      1  C   UNL     1     176.591 207.364 201.624  1.00  0.00     0.000 C 
ENDROOT
BRANCH   1   2
ATOM      2  C   UNL     1     176.960 207.727 200.178  1.00  0.00     0.000 C 
BRANCH   2   3
ATOM      3  C   UNL     1     178.482 207.809 200.004  1.00  0.00     0.000 C 
BRANCH   3   4
ATOM      4  C   UNL     1     178.907 207.278 198.627  1.00  0.00     0.006 C 
BRANCH   4   5
ATOM      5  C   UNL     1     177.713 206.782 197.802  1.00  0.00     0.053 C 
BRANCH   5   6
ATOM      6  C   UNL     1     177.611 207.496 196.489  1.00  0.00     0.041 C 
ATOM      7  O   UNL     1     176.563 208.124 196.187  1.00  0.00    -0.550 OA
ATOM      8  O   UNL     1     178.689 207.495 195.612  1.00  0.00    -0.550 OA
ENDBRANCH   5   6
ENDBRANCH   4   5
ENDBRANCH   3   4
ENDBRANCH   2   3
ENDBRANCH   1   2
BRANCH   1   9
ATOM      9  C   UNL     1     176.466 205.846 201.850  1.00  0.00     0.000 C 
BRANCH   9  10
ATOM     10  C   UNL     1     177.149 205.317 203.125  1.00  0.00    -0.000 C 
BRANCH  10  11
ATOM     11  C   UNL     1     178.613 204.906 202.893  1.00  0.00    -0.000 C 
BRANCH  11  12
ATOM     12  C   UNL     1     178.877 204.455 201.448  1.00  0.00    -0.000 C 
BRANCH  12  13
ATOM     13  C   UNL     1     180.338 204.664 201.019  1.00  0.00    -0.003 C 
ATOM     14  C   UNL     1     180.973 205.824 201.782  1.00  0.00     0.004 C 
ENDBRANCH  12  13
ENDBRANCH  11  12
ENDBRANCH  10  11
ENDBRANCH   9  10
ENDBRANCH   1   9
TORSDOF 10
ENDMDL
MODEL 4
REMARK VINA RESULT:    -2.033      1.948      3.019
REMARK INTER + INTRA:          -4.779
REMARK INTER:                  -3.206
REMARK INTRA:                  -1.574
REMARK UNBOUND:                -1.557
REMARK SMILES CCCCCCCCCCCC(=O)[O-]
REMARK SMILES IDX 7 1 8 2 9 3 10 4 11 5 12 6 13 7 14 8 6 9 5 10 4 11 3 12 2 13
REMARK SMILES IDX 1 14
REMARK H PARENT
REMARK Flexibility Score: inf
ROOT
ATOM      1  C   UNL     1     173.655 206.252 199.312  1.00  0.00     0.000 C 
ENDROOT
BRANCH   1   2
ATOM      2  C   UNL     1     174.798 206.027 198.310  1.00  0.00     0.000 C 
BRANCH   2   3
ATOM      3  C   UNL     1     175.009 207.264 197.429  1.00  0.00     0.000 C 
BRANCH   3   4
ATOM      4  C   UNL     1     176.446 207.792 197.557  1.00  0.00     0.006 C 
BRANCH   4   5
ATOM      5  C   UNL     1     177.440 206.683 197.925  1.00  0.00     0.053 C 
BRANCH   5   6
ATOM      6  C   UNL     1     178.742 207.245 198.409  1.00  0.00     0.041 C 
ATOM      7  O   UNL     1     179.776 207.153 197.698  1.00  0.00    -0.550 OA
ATOM      8  O   UNL     1     178.804 207.898 199.634  1.00  0.00    -0.550 OA
ENDBRANCH   5   6
ENDBRANCH   4   5
ENDBRANCH   3   4
ENDBRANCH   2   3
ENDBRANCH   1   2
BRANCH   1   9
ATOM      9  C   UNL     1     173.604 207.693 199.852  1.00  0.00     0.000 C 
BRANCH   9  10
ATOM     10  C   UNL     1     174.210 207.886 201.255  1.00  0.00    -0.000 C 
BRANCH  10  11
ATOM     11  C   UNL     1     175.746 207.971 201.239  1.00  0.00    -0.000 C 
BRANCH  11  12
ATOM     12  C   UNL     1     176.402 206.958 202.190  1.00  0.00    -0.000 C 
BRANCH  12  13
ATOM     13  C   UNL     1     176.854 205.677 201.473  1.00  0.00    -0.003 C 
ATOM     14  C   UNL     1     175.898 204.522 201.757  1.00  0.00     0.004 C 
ENDBRANCH  12  13
ENDBRANCH  11  12
ENDBRANCH  10  11
ENDBRANCH   9  10
ENDBRANCH   1   9
TORSDOF 10
ENDMDL
MODEL 5
REMARK VINA RESULT:    -1.949      2.862      4.366
REMARK INTER + INTRA:          -4.646
REMARK INTER:                  -3.341
REMARK INTRA:                  -1.306
REMARK UNBOUND:                -1.557
REMARK SMILES CCCCCCCCCCCC(=O)[O-]
REMARK SMILES IDX 7 1 8 2 9 3 10 4 11 5 12 6 13 7 14 8 6 9 5 10 4 11 3 12 2 13
REMARK SMILES IDX 1 14
REMARK H PARENT
REMARK Flexibility Score: inf
ROOT
ATOM      1  C   UNL     1     175.993 207.858 198.284  1.00  0.00     0.000 C 
ENDROOT
BRANCH   1   2
ATOM      2  C   UNL     1     174.604 207.751 198.931  1.00  0.00     0.000 C 
BRANCH   2   3
ATOM      3  C   UNL     1     174.660 208.125 200.418  1.00  0.00     0.000 C 
BRANCH   3   4
ATOM      4  C   UNL     1     176.106 208.107 200.935  1.00  0.00     0.006 C 
BRANCH   4   5
ATOM      5  C   UNL     1     176.318 207.050 202.027  1.00  0.00     0.053 C 
BRANCH   5   6
ATOM      6  C   UNL     1     175.541 205.800 201.748  1.00  0.00     0.041 C 
ATOM      7  O   UNL     1     174.494 205.546 202.397  1.00  0.00    -0.550 OA
ATOM      8  O   UNL     1     175.959 204.932 200.747  1.00  0.00    -0.550 OA
ENDBRANCH   5   6
ENDBRANCH   4   5
ENDBRANCH   3   4
ENDBRANCH   2   3
ENDBRANCH   1   2
BRANCH   1   9
ATOM      9  C   UNL     1     176.494 206.521 197.709  1.00  0.00     0.000 C 
BRANCH   9  10
ATOM     10  C   UNL     1     177.939 206.147 198.088  1.00  0.00    -0.000 C 
BRANCH  10  11
ATOM     11  C   UNL     1     178.806 207.372 198.426  1.00  0.00    -0.000 C 
BRANCH  11  12
ATOM     12  C   UNL     1     179.553 207.215 199.760  1.00  0.00    -0.000 C 
BRANCH  12  13
ATOM     13  C   UNL     1     179.354 205.828 200.390  1.00  0.00    -0.003 C 
ATOM     14  C   UNL     1     180.272 205.637 201.595  1.00  0.00     0.004 C 
ENDBRANCH  12  13
ENDBRANCH  11  12
ENDBRANCH  10  11
ENDBRANCH   9  10
ENDBRANCH   1   9
TORSDOF 10
ENDMDL
MODEL 6
REMARK VINA RESULT:    -1.942      1.591      2.265
REMARK INTER + INTRA:          -4.634
REMARK INTER:                  -3.213
REMARK INTRA:                  -1.421
REMARK UNBOUND:                -1.557
REMARK SMILES CCCCCCCCCCCC(=O)[O-]
REMARK SMILES IDX 7 1 8 2 9 3 10 4 11 5 12 6 13 7 14 8 6 9 5 10 4 11 3 12 2 13
REMARK SMILES IDX 1 14
REMARK H PARENT
REMARK Flexibility Score: inf
ROOT
ATOM      1  C   UNL     1     175.785 207.022 199.255  1.00  0.00     0.000 C 
ENDROOT
BRANCH   1   2
ATOM      2  C   UNL     1     177.107 207.694 198.852  1.00  0.00     0.000 C 
BRANCH   2   3
ATOM      3  C   UNL     1     177.928 206.783 197.931  1.00  0.00     0.000 C 
BRANCH   3   4
ATOM      4  C   UNL     1     179.433 206.983 198.159  1.00  0.00     0.006 C 
BRANCH   4   5
ATOM      5  C   UNL     1     179.754 207.377 199.607  1.00  0.00     0.053 C 
BRANCH   5   6
ATOM      6  C   UNL     1     180.705 206.413 200.247  1.00  0.00     0.041 C 
ATOM      7  O   UNL     1     181.125 206.617 201.415  1.00  0.00    -0.550 OA
ATOM      8  O   UNL     1     181.102 205.272 199.561  1.00  0.00    -0.550 OA
ENDBRANCH   5   6
ENDBRANCH   4   5
ENDBRANCH   3   4
ENDBRANCH   2   3
ENDBRANCH   1   2
BRANCH   1   9
ATOM      9  C   UNL     1     175.261 207.499 200.621  1.00  0.00     0.000 C 
BRANCH   9  10
ATOM     10  C   UNL     1     176.327 207.611 201.728  1.00  0.00    -0.000 C 
BRANCH  10  11
ATOM     11  C   UNL     1     176.513 206.303 202.515  1.00  0.00    -0.000 C 
BRANCH  11  12
ATOM     12  C   UNL     1     177.796 205.556 202.120  1.00  0.00    -0.000 C 
BRANCH  12  13
ATOM     13  C   UNL     1     177.518 204.320 201.250  1.00  0.00    -0.003 C 
ATOM     14  C   UNL     1     176.035 203.963 201.262  1.00  0.00     0.004 C 
ENDBRANCH  12  13
ENDBRANCH  11  12
ENDBRANCH  10  11
ENDBRANCH   9  10
ENDBRANCH   1   9
TORSDOF 10
ENDMDL
MODEL 7
REMARK VINA RESULT:    -1.937      3.399      4.687
REMARK INTER + INTRA:          -4.627
REMARK INTER:                  -3.025
REMARK INTRA:                  -1.602
REMARK UNBOUND:                -1.557
REMARK SMILES CCCCCCCCCCCC(=O)[O-]
REMARK SMILES IDX 7 1 8 2 9 3 10 4 11 5 12 6 13 7 14 8 6 9 5 10 4 11 3 12 2 13
REMARK SMILES IDX 1 14
REMARK H PARENT
REMARK Flexibility Score: inf
ROOT
ATOM      1  C   UNL     1     178.255 207.372 198.796  1.00  0.00     0.000 C 
ENDROOT
BRANCH   1   2
ATOM      2  C   UNL     1     176.839 207.753 199.252  1.00  0.00     0.000 C 
BRANCH   2   3
ATOM      3  C   UNL     1     176.821 208.119 200.741  1.00  0.00     0.000 C 
BRANCH   3   4
ATOM      4  C   UNL     1     175.420 207.920 201.339  1.00  0.00     0.006 C 
BRANCH   4   5
ATOM      5  C   UNL     1     174.478 207.183 200.379  1.00  0.00     0.053 C 
BRANCH   5   6
ATOM      6  C   UNL     1     173.691 206.119 201.082  1.00  0.00     0.041 C 
ATOM      7  O   UNL     1     172.725 205.558 200.503  1.00  0.00    -0.550 OA
ATOM      8  O   UNL     1     174.047 205.726 202.366  1.00  0.00    -0.550 OA
ENDBRANCH   5   6
ENDBRANCH   4   5
ENDBRANCH   3   4
ENDBRANCH   2   3
ENDBRANCH   1   2
BRANCH   1   9
ATOM      9  C   UNL     1     179.293 207.447 199.930  1.00  0.00     0.000 C 
BRANCH   9  10
ATOM     10  C   UNL     1     180.027 206.127 200.233  1.00  0.00    -0.000 C 
BRANCH  10  11
ATOM     11  C   UNL     1     179.705 205.569 201.630  1.00  0.00    -0.000 C 
BRANCH  11  12
ATOM     12  C   UNL     1     178.840 204.300 201.573  1.00  0.00    -0.000 C 
BRANCH  12  13
ATOM     13  C   UNL     1     177.339 204.610 201.463  1.00  0.00    -0.003 C 
ATOM     14  C   UNL     1     176.764 204.081 200.152  1.00  0.00     0.004 C 
ENDBRANCH  12  13
ENDBRANCH  11  12
ENDBRANCH  10  11
ENDBRANCH   9  10
ENDBRANCH   1   9
TORSDOF 10
ENDMDL
MODEL 8
REMARK VINA RESULT:    -1.927      2.468      3.620
REMARK INTER + INTRA:          -4.611
REMARK INTER:                  -3.452
REMARK INTRA:                  -1.159
REMARK UNBOUND:                -1.557
REMARK SMILES CCCCCCCCCCCC(=O)[O-]
REMARK SMILES IDX 7 1 8 2 9 3 10 4 11 5 12 6 13 7 14 8 6 9 5 10 4 11 3 12 2 13
REMARK SMILES IDX 1 14
REMARK H PARENT
REMARK Flexibility Score: inf
ROOT
ATOM      1  C   UNL     1     176.791 205.660 201.606  1.00  0.00     0.000 C 
ENDROOT
BRANCH   1   2
ATOM      2  C   UNL     1     176.422 206.956 202.344  1.00  0.00     0.000 C 
BRANCH   2   3
ATOM      3  C   UNL     1     176.279 208.125 201.361  1.00  0.00     0.000 C 
BRANCH   3   4
ATOM      4  C   UNL     1     175.313 207.770 200.221  1.00  0.00     0.006 C 
BRANCH   4   5
ATOM      5  C   UNL     1     175.899 208.095 198.841  1.00  0.00     0.053 C 
BRANCH   5   6
ATOM      6  C   UNL     1     175.268 207.269 197.762  1.00  0.00     0.041 C 
ATOM      7  O   UNL     1     174.026 207.065 197.764  1.00  0.00    -0.550 OA
ATOM      8  O   UNL     1     176.050 206.752 196.737  1.00  0.00    -0.550 OA
ENDBRANCH   5   6
ENDBRANCH   4   5
ENDBRANCH   3   4
ENDBRANCH   2   3
ENDBRANCH   1   2
BRANCH   1   9
ATOM      9  C   UNL     1     177.750 204.763 202.410  1.00  0.00     0.000 C 
BRANCH   9  10
ATOM     10  C   UNL     1     179.229 205.191 202.375  1.00  0.00    -0.000 C 
BRANCH  10  11
ATOM     11  C   UNL     1     179.819 205.194 200.955  1.00  0.00    -0.000 C 
BRANCH  11  12
ATOM     12  C   UNL     1     180.427 206.552 200.572  1.00  0.00    -0.000 C 
BRANCH  12  13
ATOM     13  C   UNL     1     179.462 207.424 199.753  1.00  0.00    -0.003 C 
ATOM     14  C   UNL     1     179.466 207.015 198.283  1.00  0.00     0.004 C 
ENDBRANCH  12  13
ENDBRANCH  11  12
ENDBRANCH  10  11
ENDBRANCH   9  10
ENDBRANCH   1   9
TORSDOF 10
ENDMDL
