MODEL 1
REMARK VINA RESULT:    -4.042      0.000      0.000
REMARK INTER + INTRA:          -5.390
REMARK INTER:                  -5.223
REMARK INTRA:                  -0.167
REMARK UNBOUND:                -0.167
REMARK SMILES CCCCCCC(=O)[O-]
REMARK SMILES IDX 5 1 6 2 7 3 8 4 9 5 4 6 3 7 2 8 1 9
REMARK H PARENT
REMARK Flexibility Score: inf
ROOT
ATOM      1  C   UNL     1     -14.186  44.988  23.962  1.00  0.00     0.006 C 
ENDROOT
BRANCH   1   2
ATOM      2  C   UNL     1     -13.193  45.912  24.680  1.00  0.00     0.053 C 
BRANCH   2   3
ATOM      3  C   UNL     1     -13.867  47.130  25.234  1.00  0.00     0.041 C 
ATOM      4  O   UNL     1     -14.687  47.022  26.184  1.00  0.00    -0.550 OA
ATOM      5  O   UNL     1     -13.617  48.379  24.679  1.00  0.00    -0.550 OA
ENDBRANCH   2   3
ENDBRANCH   1   2
BRANCH   1   6
ATOM      6  C   UNL     1     -13.599  44.400  22.667  1.00  0.00     0.000 C 
BRANCH   6   7
ATOM      7  C   UNL     1     -12.334  45.138  22.204  1.00  0.00    -0.000 C 
BRANCH   7   8
ATOM      8  C   UNL     1     -11.786  44.596  20.876  1.00  0.00    -0.003 C 
ATOM      9  C   UNL     1     -10.763  43.489  21.114  1.00  0.00     0.004 C 
ENDBRANCH   7   8
ENDBRANCH   6   7
ENDBRANCH   1   6
TORSDOF 5
ENDMDL
MODEL 2
REMARK VINA RESULT:    -4.036      0.709      1.370
REMARK INTER + INTRA:          -5.382
REMARK INTER:                  -5.199
REMARK INTRA:                  -0.183
REMARK UNBOUND:                -0.167
REMARK SMILES CCCCCCC(=O)[O-]
REMARK SMILES IDX 5 1 6 2 7 3 8 4 9 5 4 6 3 7 2 8 1 9
REMARK H PARENT
REMARK Flexibility Score: inf
ROOT
ATOM      1  C   UNL     1     -12.934  45.788  24.010  1.00  0.00     0.006 C 
ENDROOT
BRANCH   1   2
ATOM      2  C   UNL     1     -13.488  46.112  25.403  1.00  0.00     0.053 C 
BRANCH   2   3
ATOM      3  C   UNL     1     -14.092  47.482  25.457  1.00  0.00     0.041 C 
ATOM      4  O   UNL     1     -13.641  48.401  24.724  1.00  0.00    -0.550 OA
ATOM      5  O   UNL     1     -15.128  47.753  26.342  1.00  0.00    -0.550 OA
ENDBRANCH   2   3
ENDBRANCH   1   2
BRANCH   1   6
ATOM      6  C   UNL     1     -13.800  44.756  23.266  1.00  0.00     0.000 C 
BRANCH   6   7
ATOM      7  C   UNL     1     -13.117  44.213  22.002  1.00  0.00    -0.000 C 
BRANCH   7   8
ATOM      8  C   UNL     1     -11.916  45.065  21.567  1.00  0.00    -0.003 C 
ATOM      9  C   UNL     1     -10.733  44.186  21.172  1.00  0.00     0.004 C 
ENDBRANCH   7   8
ENDBRANCH   6   7
ENDBRANCH   1   6
TORSDOF 5
ENDMDL
MODEL 3
REMARK VINA RESULT:    -3.990      3.097      4.881
REMARK INTER + INTRA:          -5.323
REMARK INTER:                  -5.136
REMARK INTRA:                  -0.187
REMARK UNBOUND:                -0.167
REMARK SMILES CCCCCCC(=O)[O-]
REMARK SMILES IDX 5 1 6 2 7 3 8 4 9 5 4 6 3 7 2 8 1 9
REMARK H PARENT
REMARK Flexibility Score: inf
ROOT
ATOM      1  C   UNL     1     -13.581  43.869  22.307  1.00  0.00     0.006 C 
ENDROOT
BRANCH   1   2
ATOM      2  C   UNL     1     -12.858  44.618  21.179  1.00  0.00     0.053 C 
BRANCH   2   3
ATOM      3  C   UNL     1     -11.381  44.371  21.205  1.00  0.00     0.041 C 
ATOM      4  O   UNL     1     -10.587  45.311  21.479  1.00  0.00    -0.550 OA
ATOM      5  O   UNL     1     -10.878  43.115  20.892  1.00  0.00    -0.550 OA
ENDBRANCH   2   3
ENDBRANCH   1   2
BRANCH   1   6
ATOM      6  C   UNL     1     -14.257  44.830  23.301  1.00  0.00     0.000 C 
BRANCH   6   7
ATOM      7  C   UNL     1     -13.257  45.785  23.972  1.00  0.00    -0.000 C 
BRANCH   7   8
ATOM      8  C   UNL     1     -13.537  45.977  25.469  1.00  0.00    -0.003 C 
ATOM      9  C   UNL     1     -14.885  45.379  25.858  1.00  0.00     0.004 C 
ENDBRANCH   7   8
ENDBRANCH   6   7
ENDBRANCH   1   6
TORSDOF 5
ENDMDL
MODEL 4
REMARK VINA RESULT:    -3.964      3.023      4.730
REMARK INTER + INTRA:          -5.290
REMARK INTER:                  -5.039
REMARK INTRA:                  -0.251
REMARK UNBOUND:                -0.167
REMARK SMILES CCCCCCC(=O)[O-]
REMARK SMILES IDX 5 1 6 2 7 3 8 4 9 5 4 6 3 7 2 8 1 9
REMARK H PARENT
REMARK Flexibility Score: inf
ROOT
ATOM      1  C   UNL     1     -13.751  44.004  21.205  1.00  0.00     0.006 C 
ENDROOT
BRANCH   1   2
ATOM      2  C   UNL     1     -12.469  43.217  20.904  1.00  0.00     0.053 C 
BRANCH   2   3
ATOM      3  C   UNL     1     -11.244  44.059  21.083  1.00  0.00     0.041 C 
ATOM      4  O   UNL     1     -10.140  43.519  21.361  1.00  0.00    -0.550 OA
ATOM      5  O   UNL     1     -11.326  45.442  20.979  1.00  0.00    -0.550 OA
ENDBRANCH   2   3
ENDBRANCH   1   2
BRANCH   1   6
ATOM      6  C   UNL     1     -14.319  43.677  22.598  1.00  0.00     0.000 C 
BRANCH   6   7
ATOM      7  C   UNL     1     -14.584  44.936  23.438  1.00  0.00    -0.000 C 
BRANCH   7   8
ATOM      8  C   UNL     1     -13.294  45.560  23.991  1.00  0.00    -0.003 C 
ATOM      9  C   UNL     1     -13.502  46.089  25.406  1.00  0.00     0.004 C 
ENDBRANCH   7   8
ENDBRANCH   6   7
ENDBRANCH   1   6
TORSDOF 5
ENDMDL
MODEL 5
REMARK VINA RESULT:    -3.785     19.015     20.441
REMARK INTER + INTRA:          -5.058
REMARK INTER:                  -4.825
REMARK INTRA:                  -0.233
REMARK UNBOUND:                -0.167
REMARK SMILES CCCCCCC(=O)[O-]
REMARK SMILES IDX 5 1 6 2 7 3 8 4 9 5 4 6 3 7 2 8 1 9
REMARK H PARENT
REMARK Flexibility Score: inf
ROOT
ATOM      1  C   UNL     1     -23.774  62.719  30.436  1.00  0.00     0.006 C 
ENDROOT
BRANCH   1   2
ATOM      2  C   UNL     1     -25.296  62.525  30.397  1.00  0.00     0.053 C 
BRANCH   2   3
ATOM      3  C   UNL     1     -25.722  61.313  31.168  1.00  0.00     0.041 C 
ATOM      4  O   UNL     1     -26.161  60.300  30.561  1.00  0.00    -0.550 OA
ATOM      5  O   UNL     1     -25.668  61.314  32.556  1.00  0.00    -0.550 OA
ENDBRANCH   2   3
ENDBRANCH   1   2
BRANCH   1   6
ATOM      6  C   UNL     1     -23.027  61.594  29.697  1.00  0.00     0.000 C 
BRANCH   6   7
ATOM      7  C   UNL     1     -23.146  61.710  28.170  1.00  0.00    -0.000 C 
BRANCH   7   8
ATOM      8  C   UNL     1     -21.780  61.706  27.468  1.00  0.00    -0.003 C 
ATOM      9  C   UNL     1     -20.642  61.639  28.482  1.00  0.00     0.004 C 
ENDBRANCH   7   8
ENDBRANCH   6   7
ENDBRANCH   1   6
TORSDOF 5
ENDMDL
MODEL 6
REMARK VINA RESULT:    -3.764      1.577      2.362
REMARK INTER + INTRA:          -5.031
REMARK INTER:                  -4.857
REMARK INTRA:                  -0.174
REMARK UNBOUND:                -0.167
REMARK SMILES CCCCCCC(=O)[O-]
REMARK SMILES IDX 5 1 6 2 7 3 8 4 9 5 4 6 3 7 2 8 1 9
REMARK H PARENT
REMARK Flexibility Score: inf
ROOT
ATOM      1  C   UNL     1     -13.462  45.823  24.867  1.00  0.00     0.006 C 
ENDROOT
BRANCH   1   2
ATOM      2  C   UNL     1     -14.833  45.157  25.041  1.00  0.00     0.053 C 
BRANCH   2   3
ATOM      3  C   UNL     1     -15.428  45.450  26.384  1.00  0.00     0.041 C 
ATOM      4  O   UNL     1     -15.406  46.623  26.843  1.00  0.00    -0.550 OA
ATOM      5  O   UNL     1     -15.974  44.424  27.145  1.00  0.00    -0.550 OA
ENDBRANCH   2   3
ENDBRANCH   1   2
BRANCH   1   6
ATOM      6  C   UNL     1     -12.888  45.610  23.455  1.00  0.00     0.000 C 
BRANCH   6   7
ATOM      7  C   UNL     1     -13.574  44.457  22.707  1.00  0.00    -0.000 C 
BRANCH   7   8
ATOM      8  C   UNL     1     -12.756  43.962  21.505  1.00  0.00    -0.003 C 
ATOM      9  C   UNL     1     -11.728  45.004  21.073  1.00  0.00     0.004 C 
ENDBRANCH   7   8
ENDBRANCH   6   7
ENDBRANCH   1   6
TORSDOF 5
ENDMDL
MODEL 7
REMARK VINA RESULT:    -3.760     19.094     20.721
REMARK INTER + INTRA:          -5.026
REMARK INTER:                  -4.805
REMARK INTRA:                  -0.221
REMARK UNBOUND:                -0.167
REMARK SMILES CCCCCCC(=O)[O-]
REMARK SMILES IDX 5 1 6 2 7 3 8 4 9 5 4 6 3 7 2 8 1 9
REMARK H PARENT
REMARK Flexibility Score: inf
ROOT
ATOM      1  C   UNL     1     -25.447  62.433  31.138  1.00  0.00     0.006 C 
ENDROOT
BRANCH   1   2
ATOM      2  C   UNL     1     -24.947  61.058  31.603  1.00  0.00     0.053 C 
BRANCH   2   3
ATOM      3  C   UNL     1     -25.953  59.981  31.338  1.00  0.00     0.041 C 
ATOM      4  O   UNL     1     -25.895  59.308  30.275  1.00  0.00    -0.550 OA
ATOM      5  O   UNL     1     -26.977  59.744  32.247  1.00  0.00    -0.550 OA
ENDBRANCH   2   3
ENDBRANCH   1   2
BRANCH   1   6
ATOM      6  C   UNL     1     -24.717  62.918  29.872  1.00  0.00     0.000 C 
BRANCH   6   7
ATOM      7  C   UNL     1     -23.478  62.072  29.545  1.00  0.00    -0.000 C 
BRANCH   7   8
ATOM      8  C   UNL     1     -23.375  61.726  28.052  1.00  0.00    -0.003 C 
ATOM      9  C   UNL     1     -21.919  61.660  27.602  1.00  0.00     0.004 C 
ENDBRANCH   7   8
ENDBRANCH   6   7
ENDBRANCH   1   6
TORSDOF 5
ENDMDL
MODEL 8
REMARK VINA RESULT:    -3.710     19.641     20.905
REMARK INTER + INTRA:          -4.962
REMARK INTER:                  -4.574
REMARK INTRA:                  -0.388
REMARK UNBOUND:                -0.167
REMARK SMILES CCCCCCC(=O)[O-]
REMARK SMILES IDX 5 1 6 2 7 3 8 4 9 5 4 6 3 7 2 8 1 9
REMARK H PARENT
REMARK Flexibility Score: inf
ROOT
ATOM      1  C   UNL     1     -24.700  63.123  30.039  1.00  0.00     0.006 C 
ENDROOT
BRANCH   1   2
ATOM      2  C   UNL     1     -23.479  62.199  29.936  1.00  0.00     0.053 C 
BRANCH   2   3
ATOM      3  C   UNL     1     -23.320  61.640  28.556  1.00  0.00     0.041 C 
ATOM      4  O   UNL     1     -24.258  60.987  28.026  1.00  0.00    -0.550 OA
ATOM      5  O   UNL     1     -22.124  61.807  27.869  1.00  0.00    -0.550 OA
ENDBRANCH   2   3
ENDBRANCH   1   2
BRANCH   1   6
ATOM      6  C   UNL     1     -25.681  62.668  31.134  1.00  0.00     0.000 C 
BRANCH   6   7
ATOM      7  C   UNL     1     -25.277  61.328  31.768  1.00  0.00    -0.000 C 
BRANCH   7   8
ATOM      8  C   UNL     1     -26.284  60.207  31.472  1.00  0.00    -0.003 C 
ATOM      9  C   UNL     1     -25.631  59.076  30.684  1.00  0.00     0.004 C 
ENDBRANCH   7   8
ENDBRANCH   6   7
ENDBRANCH   1   6
TORSDOF 5
ENDMDL
MODEL 9
REMARK VINA RESULT:    -3.665     20.465     22.203
REMARK INTER + INTRA:          -4.904
REMARK INTER:                  -4.685
REMARK INTRA:                  -0.218
REMARK UNBOUND:                -0.167
REMARK SMILES CCCCCCC(=O)[O-]
REMARK SMILES IDX 5 1 6 2 7 3 8 4 9 5 4 6 3 7 2 8 1 9
REMARK H PARENT
REMARK Flexibility Score: inf
ROOT
ATOM      1  C   UNL     1     -25.744  61.352  31.516  1.00  0.00     0.006 C 
ENDROOT
BRANCH   1   2
ATOM      2  C   UNL     1     -27.051  60.989  32.234  1.00  0.00     0.053 C 
BRANCH   2   3
ATOM      3  C   UNL     1     -27.076  61.505  33.639  1.00  0.00     0.041 C 
ATOM      4  O   UNL     1     -27.856  62.443  33.955  1.00  0.00    -0.550 OA
ATOM      5  O   UNL     1     -26.214  60.978  34.592  1.00  0.00    -0.550 OA
ENDBRANCH   2   3
ENDBRANCH   1   2
BRANCH   1   6
ATOM      6  C   UNL     1     -25.685  62.843  31.138  1.00  0.00     0.000 C 
BRANCH   6   7
ATOM      7  C   UNL     1     -24.687  63.125  30.004  1.00  0.00    -0.000 C 
BRANCH   7   8
ATOM      8  C   UNL     1     -23.690  61.976  29.795  1.00  0.00    -0.003 C 
ATOM      9  C   UNL     1     -23.571  61.613  28.318  1.00  0.00     0.004 C 
ENDBRANCH   7   8
ENDBRANCH   6   7
ENDBRANCH   1   6
TORSDOF 5
ENDMDL
