MODEL 1
REMARK VINA RESULT:    -6.838      0.000      0.000
REMARK INTER + INTRA:         -11.139
REMARK INTER:                  -9.436
REMARK INTRA:                  -1.704
REMARK UNBOUND:                -1.704
REMARK SMILES O=C([O-])[C@@H]1O[C@H](Oc2cc3oc(-c4ccccc4)cc(=O)c3c(O)c2O)[C@H](O)[C@H](O)[C@@H]1O
REMARK SMILES IDX 7 1 6 2 4 3 31 4 5 5 29 6 27 7 2 8 1 9 3 10 32 11 30 13
REMARK SMILES IDX 28 15 8 17 25 18 9 19 23 20 10 21 22 22 11 23 20 24 12 25
REMARK SMILES IDX 19 26 21 27 26 28 24 30 13 32 14 33 18 34 15 35 17 36 16 37
REMARK H PARENT 32 12 30 14 28 16 26 29 24 31
REMARK Flexibility Score: inf
ROOT
ATOM      1  O   UNL     1      37.965 -21.846  -5.796  1.00  0.00    -0.458 OA
ENDROOT
BRANCH   1   2
ATOM      2  C   UNL     1      36.964 -22.214  -6.753  1.00  0.00     0.339 C 
ATOM      3  C   UNL     1      37.574 -20.543  -8.343  1.00  0.00     0.199 C 
ATOM      4  C   UNL     1      38.121 -21.607  -9.336  1.00  0.00     0.180 C 
ATOM      5  O   UNL     1      36.555 -21.072  -7.498  1.00  0.00    -0.328 OA
ATOM      6  C   UNL     1      38.574 -22.882  -8.610  1.00  0.00     0.181 C 
ATOM      7  C   UNL     1      37.436 -23.354  -7.687  1.00  0.00     0.214 C 
BRANCH   3   8
ATOM      8  C   UNL     1      38.612 -19.775  -7.554  1.00  0.00     0.073 C 
ATOM      9  O   UNL     1      38.240 -18.900  -6.728  1.00  0.00    -0.547 OA
ATOM     10  O   UNL     1      39.973 -19.959  -7.769  1.00  0.00    -0.547 OA
ENDBRANCH   3   8
BRANCH   4  11
ATOM     11  O   UNL     1      39.166 -21.097 -10.125  1.00  0.00    -0.387 OA
ATOM     12  H   UNL     1      39.419 -20.221  -9.732  1.00  0.00     0.211 HD
ENDBRANCH   4  11
BRANCH   6  13
ATOM     13  O   UNL     1      39.744 -22.646  -7.868  1.00  0.00    -0.387 OA
ATOM     14  H   UNL     1      39.471 -22.560  -6.916  1.00  0.00     0.211 HD
ENDBRANCH   6  13
BRANCH   7  15
ATOM     15  O   UNL     1      37.779 -24.518  -6.976  1.00  0.00    -0.384 OA
ATOM     16  H   UNL     1      38.536 -24.305  -6.374  1.00  0.00     0.211 HD
ENDBRANCH   7  15
ENDBRANCH   1   2
BRANCH   1  17
ATOM     17  C   UNL     1      37.817 -21.767  -4.398  1.00  0.00     0.172 A 
ATOM     18  C   UNL     1      37.033 -20.729  -3.885  1.00  0.00     0.201 A 
ATOM     19  C   UNL     1      38.408 -22.684  -3.517  1.00  0.00     0.098 A 
ATOM     20  C   UNL     1      36.830 -20.592  -2.497  1.00  0.00     0.176 A 
ATOM     21  C   UNL     1      38.256 -22.544  -2.137  1.00  0.00     0.146 A 
ATOM     22  C   UNL     1      37.490 -21.480  -1.599  1.00  0.00     0.111 A 
ATOM     23  O   UNL     1      38.856 -23.422  -1.340  1.00  0.00    -0.456 OA
ATOM     24  C   UNL     1      37.469 -21.357  -0.189  1.00  0.00     0.197 A 
ATOM     25  C   UNL     1      38.801 -23.367  -0.014  1.00  0.00     0.138 A 
ATOM     26  C   UNL     1      38.110 -22.314   0.600  1.00  0.00     0.100 A 
ATOM     27  O   UNL     1      36.918 -20.384   0.388  1.00  0.00    -0.289 OA
BRANCH  18  28
ATOM     28  O   UNL     1      36.438 -19.839  -4.783  1.00  0.00    -0.502 OA
ATOM     29  H   UNL     1      35.638 -20.090  -5.350  1.00  0.00     0.293 HD
ENDBRANCH  18  28
BRANCH  20  30
ATOM     30  O   UNL     1      35.952 -19.589  -2.075  1.00  0.00    -0.504 OA
ATOM     31  H   UNL     1      35.089 -19.754  -1.579  1.00  0.00     0.293 HD
ENDBRANCH  20  30
BRANCH  25  32
ATOM     32  C   UNL     1      39.501 -24.412   0.775  1.00  0.00     0.017 A 
ATOM     33  C   UNL     1      40.834 -24.781   0.501  1.00  0.00     0.012 A 
ATOM     34  C   UNL     1      38.832 -25.034   1.846  1.00  0.00     0.012 A 
ATOM     35  C   UNL     1      41.468 -25.763   1.268  1.00  0.00     0.001 A 
ATOM     36  C   UNL     1      39.472 -26.015   2.609  1.00  0.00     0.001 A 
ATOM     37  C   UNL     1      40.788 -26.382   2.319  1.00  0.00     0.000 A 
ENDBRANCH  25  32
ENDBRANCH   1  17
TORSDOF 9
ENDMDL
MODEL 2
REMARK VINA RESULT:    -6.752     15.159     16.649
REMARK INTER + INTRA:         -11.021
REMARK INTER:                  -9.269
REMARK INTRA:                  -1.752
REMARK UNBOUND:                -1.704
REMARK SMILES O=C([O-])[C@@H]1O[C@H](Oc2cc3oc(-c4ccccc4)cc(=O)c3c(O)c2O)[C@H](O)[C@H](O)[C@@H]1O
REMARK SMILES IDX 7 1 6 2 4 3 31 4 5 5 29 6 27 7 2 8 1 9 3 10 32 11 30 13
REMARK SMILES IDX 28 15 8 17 25 18 9 19 23 20 10 21 22 22 11 23 20 24 12 25
REMARK SMILES IDX 19 26 21 27 26 28 24 30 13 32 14 33 18 34 15 35 17 36 16 37
REMARK H PARENT 32 12 30 14 28 16 26 29 24 31
REMARK Flexibility Score: inf
ROOT
ATOM      1  O   UNL     1      52.533 -29.126   1.833  1.00  0.00    -0.458 OA
ENDROOT
BRANCH   1   2
ATOM      2  C   UNL     1      52.278 -29.277   0.431  1.00  0.00     0.339 C 
ATOM      3  C   UNL     1      54.492 -29.984  -0.108  1.00  0.00     0.199 C 
ATOM      4  C   UNL     1      54.014 -31.428  -0.431  1.00  0.00     0.180 C 
ATOM      5  O   UNL     1      53.464 -29.019  -0.314  1.00  0.00    -0.328 OA
ATOM      6  C   UNL     1      52.725 -31.782   0.326  1.00  0.00     0.181 C 
ATOM      7  C   UNL     1      51.692 -30.667   0.087  1.00  0.00     0.214 C 
BRANCH   3   8
ATOM      8  C   UNL     1      55.177 -29.795   1.229  1.00  0.00     0.073 C 
ATOM      9  O   UNL     1      55.585 -28.651   1.560  1.00  0.00    -0.547 OA
ATOM     10  O   UNL     1      55.431 -30.869   2.075  1.00  0.00    -0.547 OA
ENDBRANCH   3   8
BRANCH   4  11
ATOM     11  O   UNL     1      55.012 -32.380  -0.169  1.00  0.00    -0.387 OA
ATOM     12  H   UNL     1      54.716 -32.893   0.628  1.00  0.00     0.211 HD
ENDBRANCH   4  11
BRANCH   6  13
ATOM     13  O   UNL     1      52.978 -31.934   1.700  1.00  0.00    -0.387 OA
ATOM     14  H   UNL     1      52.550 -32.785   1.981  1.00  0.00     0.211 HD
ENDBRANCH   6  13
BRANCH   7  15
ATOM     15  O   UNL     1      50.481 -30.916   0.758  1.00  0.00    -0.384 OA
ATOM     16  H   UNL     1      49.735 -30.776   0.121  1.00  0.00     0.211 HD
ENDBRANCH   7  15
ENDBRANCH   1   2
BRANCH   1  17
ATOM     17  C   UNL     1      51.964 -28.178   2.703  1.00  0.00     0.172 A 
ATOM     18  C   UNL     1      52.502 -26.886   2.699  1.00  0.00     0.201 A 
ATOM     19  C   UNL     1      50.886 -28.472   3.552  1.00  0.00     0.098 A 
ATOM     20  C   UNL     1      51.978 -25.880   3.535  1.00  0.00     0.176 A 
ATOM     21  C   UNL     1      50.379 -27.503   4.418  1.00  0.00     0.146 A 
ATOM     22  C   UNL     1      50.932 -26.199   4.449  1.00  0.00     0.111 A 
ATOM     23  O   UNL     1      49.374 -27.836   5.222  1.00  0.00    -0.456 OA
ATOM     24  C   UNL     1      50.421 -25.311   5.425  1.00  0.00     0.197 A 
ATOM     25  C   UNL     1      48.834 -27.003   6.105  1.00  0.00     0.138 A 
ATOM     26  C   UNL     1      49.359 -25.711   6.238  1.00  0.00     0.100 A 
ATOM     27  O   UNL     1      50.919 -24.171   5.617  1.00  0.00    -0.289 OA
BRANCH  18  28
ATOM     28  O   UNL     1      53.562 -26.611   1.831  1.00  0.00    -0.502 OA
ATOM     29  H   UNL     1      53.518 -25.879   1.133  1.00  0.00     0.293 HD
ENDBRANCH  18  28
BRANCH  20  30
ATOM     30  O   UNL     1      52.506 -24.593   3.396  1.00  0.00    -0.504 OA
ATOM     31  H   UNL     1      52.034 -23.746   3.675  1.00  0.00     0.293 HD
ENDBRANCH  20  30
BRANCH  25  32
ATOM     32  C   UNL     1      47.705 -27.482   6.942  1.00  0.00     0.017 A 
ATOM     33  C   UNL     1      47.563 -27.090   8.289  1.00  0.00     0.012 A 
ATOM     34  C   UNL     1      46.731 -28.324   6.375  1.00  0.00     0.012 A 
ATOM     35  C   UNL     1      46.483 -27.551   9.050  1.00  0.00     0.001 A 
ATOM     36  C   UNL     1      45.654 -28.781   7.141  1.00  0.00     0.001 A 
ATOM     37  C   UNL     1      45.531 -28.398   8.478  1.00  0.00     0.000 A 
ENDBRANCH  25  32
ENDBRANCH   1  17
TORSDOF 9
ENDMDL
MODEL 3
REMARK VINA RESULT:    -6.689     15.549     18.347
REMARK INTER + INTRA:         -10.934
REMARK INTER:                  -9.184
REMARK INTRA:                  -1.750
REMARK UNBOUND:                -1.704
REMARK SMILES O=C([O-])[C@@H]1O[C@H](Oc2cc3oc(-c4ccccc4)cc(=O)c3c(O)c2O)[C@H](O)[C@H](O)[C@@H]1O
REMARK SMILES IDX 7 1 6 2 4 3 31 4 5 5 29 6 27 7 2 8 1 9 3 10 32 11 30 13
REMARK SMILES IDX 28 15 8 17 25 18 9 19 23 20 10 21 22 22 11 23 20 24 12 25
REMARK SMILES IDX 19 26 21 27 26 28 24 30 13 32 14 33 18 34 15 35 17 36 16 37
REMARK H PARENT 32 12 30 14 28 16 26 29 24 31
REMARK Flexibility Score: inf
ROOT
ATOM      1  O   UNL     1      52.892 -33.641  -6.195  1.00  0.00    -0.458 OA
ENDROOT
BRANCH   1   2
ATOM      2  C   UNL     1      51.947 -34.006  -7.208  1.00  0.00     0.339 C 
ATOM      3  C   UNL     1      53.347 -35.656  -8.213  1.00  0.00     0.199 C 
ATOM      4  C   UNL     1      52.431 -36.813  -7.725  1.00  0.00     0.180 C 
ATOM      5  O   UNL     1      52.628 -34.437  -8.382  1.00  0.00    -0.328 OA
ATOM      6  C   UNL     1      51.646 -36.423  -6.463  1.00  0.00     0.181 C 
ATOM      7  C   UNL     1      50.944 -35.077  -6.717  1.00  0.00     0.214 C 
BRANCH   3   8
ATOM      8  C   UNL     1      54.627 -35.447  -7.432  1.00  0.00     0.073 C 
ATOM      9  O   UNL     1      55.418 -34.528  -7.773  1.00  0.00    -0.547 OA
ATOM     10  O   UNL     1      54.989 -36.290  -6.388  1.00  0.00    -0.547 OA
ENDBRANCH   3   8
BRANCH   4  11
ATOM     11  O   UNL     1      53.156 -37.995  -7.503  1.00  0.00    -0.387 OA
ATOM     12  H   UNL     1      54.085 -37.724  -7.280  1.00  0.00     0.211 HD
ENDBRANCH   4  11
BRANCH   6  13
ATOM     13  O   UNL     1      52.502 -36.330  -5.351  1.00  0.00    -0.387 OA
ATOM     14  H   UNL     1      51.993 -36.664  -4.566  1.00  0.00     0.211 HD
ENDBRANCH   6  13
BRANCH   7  15
ATOM     15  O   UNL     1      50.208 -34.645  -5.599  1.00  0.00    -0.384 OA
ATOM     16  H   UNL     1      49.446 -35.265  -5.468  1.00  0.00     0.211 HD
ENDBRANCH   7  15
ENDBRANCH   1   2
BRANCH   1  17
ATOM     17  C   UNL     1      53.140 -32.351  -5.689  1.00  0.00     0.172 A 
ATOM     18  C   UNL     1      53.947 -31.499  -6.450  1.00  0.00     0.201 A 
ATOM     19  C   UNL     1      52.607 -31.893  -4.475  1.00  0.00     0.098 A 
ATOM     20  C   UNL     1      54.231 -30.189  -6.013  1.00  0.00     0.176 A 
ATOM     21  C   UNL     1      52.908 -30.616  -4.003  1.00  0.00     0.146 A 
ATOM     22  C   UNL     1      53.749 -29.750  -4.746  1.00  0.00     0.111 A 
ATOM     23  O   UNL     1      52.400 -30.234  -2.835  1.00  0.00    -0.456 OA
ATOM     24  C   UNL     1      54.080 -28.511  -4.147  1.00  0.00     0.197 A 
ATOM     25  C   UNL     1      52.645 -29.054  -2.279  1.00  0.00     0.138 A 
ATOM     26  C   UNL     1      53.511 -28.159  -2.922  1.00  0.00     0.100 A 
ATOM     27  O   UNL     1      54.910 -27.719  -4.665  1.00  0.00    -0.289 OA
BRANCH  18  28
ATOM     28  O   UNL     1      54.451 -31.969  -7.665  1.00  0.00    -0.502 OA
ATOM     29  H   UNL     1      55.121 -32.726  -7.720  1.00  0.00     0.293 HD
ENDBRANCH  18  28
BRANCH  20  30
ATOM     30  O   UNL     1      54.960 -29.369  -6.880  1.00  0.00    -0.504 OA
ATOM     31  H   UNL     1      54.882 -28.364  -6.922  1.00  0.00     0.293 HD
ENDBRANCH  20  30
BRANCH  25  32
ATOM     32  C   UNL     1      52.011 -28.732  -0.975  1.00  0.00     0.017 A 
ATOM     33  C   UNL     1      51.588 -27.424  -0.659  1.00  0.00     0.012 A 
ATOM     34  C   UNL     1      51.795 -29.759  -0.038  1.00  0.00     0.012 A 
ATOM     35  C   UNL     1      50.985 -27.154   0.574  1.00  0.00     0.001 A 
ATOM     36  C   UNL     1      51.192 -29.482   1.192  1.00  0.00     0.001 A 
ATOM     37  C   UNL     1      50.789 -28.181   1.500  1.00  0.00     0.000 A 
ENDBRANCH  25  32
ENDBRANCH   1  17
TORSDOF 9
ENDMDL
MODEL 4
REMARK VINA RESULT:    -6.604     15.054     16.164
REMARK INTER + INTRA:         -10.817
REMARK INTER:                  -9.157
REMARK INTRA:                  -1.659
REMARK UNBOUND:                -1.704
REMARK SMILES O=C([O-])[C@@H]1O[C@H](Oc2cc3oc(-c4ccccc4)cc(=O)c3c(O)c2O)[C@H](O)[C@H](O)[C@@H]1O
REMARK SMILES IDX 7 1 6 2 4 3 31 4 5 5 29 6 27 7 2 8 1 9 3 10 32 11 30 13
REMARK SMILES IDX 28 15 8 17 25 18 9 19 23 20 10 21 22 22 11 23 20 24 12 25
REMARK SMILES IDX 19 26 21 27 26 28 24 30 13 32 14 33 18 34 15 35 17 36 16 37
REMARK H PARENT 32 12 30 14 28 16 26 29 24 31
REMARK Flexibility Score: inf
ROOT
ATOM      1  O   UNL     1      51.946 -28.428   2.327  1.00  0.00    -0.458 OA
ENDROOT
BRANCH   1   2
ATOM      2  C   UNL     1      51.295 -29.513   1.654  1.00  0.00     0.339 C 
ATOM      3  C   UNL     1      52.495 -29.240  -0.390  1.00  0.00     0.199 C 
ATOM      4  C   UNL     1      53.273 -30.569  -0.177  1.00  0.00     0.180 C 
ATOM      5  O   UNL     1      51.225 -29.252   0.256  1.00  0.00    -0.328 OA
ATOM      6  C   UNL     1      53.382 -30.932   1.311  1.00  0.00     0.181 C 
ATOM      7  C   UNL     1      51.977 -30.873   1.937  1.00  0.00     0.214 C 
BRANCH   3   8
ATOM      8  C   UNL     1      53.261 -27.968  -0.093  1.00  0.00     0.073 C 
ATOM      9  O   UNL     1      52.689 -26.854  -0.228  1.00  0.00    -0.547 OA
ATOM     10  O   UNL     1      54.606 -27.993   0.256  1.00  0.00    -0.547 OA
ENDBRANCH   3   8
BRANCH   4  11
ATOM     11  O   UNL     1      54.548 -30.529  -0.765  1.00  0.00    -0.387 OA
ATOM     12  H   UNL     1      54.657 -31.377  -1.269  1.00  0.00     0.211 HD
ENDBRANCH   4  11
BRANCH   6  13
ATOM     13  O   UNL     1      54.255 -30.054   1.977  1.00  0.00    -0.387 OA
ATOM     14  H   UNL     1      53.692 -29.355   2.403  1.00  0.00     0.211 HD
ENDBRANCH   6  13
BRANCH   7  15
ATOM     15  O   UNL     1      51.994 -31.186   3.308  1.00  0.00    -0.384 OA
ATOM     16  H   UNL     1      52.227 -32.144   3.407  1.00  0.00     0.211 HD
ENDBRANCH   7  15
ENDBRANCH   1   2
BRANCH   1  17
ATOM     17  C   UNL     1      51.409 -27.611   3.339  1.00  0.00     0.172 A 
ATOM     18  C   UNL     1      51.955 -26.333   3.500  1.00  0.00     0.201 A 
ATOM     19  C   UNL     1      50.355 -28.019   4.170  1.00  0.00     0.098 A 
ATOM     20  C   UNL     1      51.462 -25.453   4.485  1.00  0.00     0.176 A 
ATOM     21  C   UNL     1      49.879 -27.181   5.179  1.00  0.00     0.146 A 
ATOM     22  C   UNL     1      50.441 -25.895   5.376  1.00  0.00     0.111 A 
ATOM     23  O   UNL     1      48.896 -27.621   5.958  1.00  0.00    -0.456 OA
ATOM     24  C   UNL     1      49.964 -25.152   6.483  1.00  0.00     0.197 A 
ATOM     25  C   UNL     1      48.387 -26.920   6.965  1.00  0.00     0.138 A 
ATOM     26  C   UNL     1      48.924 -25.661   7.262  1.00  0.00     0.100 A 
ATOM     27  O   UNL     1      50.475 -24.052   6.818  1.00  0.00    -0.289 OA
BRANCH  18  28
ATOM     28  O   UNL     1      52.991 -25.940   2.649  1.00  0.00    -0.502 OA
ATOM     29  H   UNL     1      53.242 -24.970   2.509  1.00  0.00     0.293 HD
ENDBRANCH  18  28
BRANCH  20  30
ATOM     30  O   UNL     1      51.994 -24.161   4.513  1.00  0.00    -0.504 OA
ATOM     31  H   UNL     1      51.642 -23.383   3.974  1.00  0.00     0.293 HD
ENDBRANCH  20  30
BRANCH  25  32
ATOM     32  C   UNL     1      47.280 -27.509   7.760  1.00  0.00     0.017 A 
ATOM     33  C   UNL     1      47.188 -27.322   9.154  1.00  0.00     0.012 A 
ATOM     34  C   UNL     1      46.277 -28.249   7.107  1.00  0.00     0.012 A 
ATOM     35  C   UNL     1      46.128 -27.883   9.874  1.00  0.00     0.001 A 
ATOM     36  C   UNL     1      45.220 -28.806   7.833  1.00  0.00     0.001 A 
ATOM     37  C   UNL     1      45.146 -28.626   9.215  1.00  0.00     0.000 A 
ENDBRANCH  25  32
ENDBRANCH   1  17
TORSDOF 9
ENDMDL
MODEL 5
REMARK VINA RESULT:    -6.581     15.671     18.625
REMARK INTER + INTRA:         -10.785
REMARK INTER:                  -9.034
REMARK INTRA:                  -1.752
REMARK UNBOUND:                -1.704
REMARK SMILES O=C([O-])[C@@H]1O[C@H](Oc2cc3oc(-c4ccccc4)cc(=O)c3c(O)c2O)[C@H](O)[C@H](O)[C@@H]1O
REMARK SMILES IDX 7 1 6 2 4 3 31 4 5 5 29 6 27 7 2 8 1 9 3 10 32 11 30 13
REMARK SMILES IDX 28 15 8 17 25 18 9 19 23 20 10 21 22 22 11 23 20 24 12 25
REMARK SMILES IDX 19 26 21 27 26 28 24 30 13 32 14 33 18 34 15 35 17 36 16 37
REMARK H PARENT 32 12 30 14 28 16 26 29 24 31
REMARK Flexibility Score: inf
ROOT
ATOM      1  O   UNL     1      52.583 -30.751  -1.239  1.00  0.00    -0.458 OA
ENDROOT
BRANCH   1   2
ATOM      2  C   UNL     1      53.592 -30.903  -0.233  1.00  0.00     0.339 C 
ATOM      3  C   UNL     1      52.920 -28.990   1.025  1.00  0.00     0.199 C 
ATOM      4  C   UNL     1      52.405 -29.872   2.197  1.00  0.00     0.180 C 
ATOM      5  O   UNL     1      53.960 -29.631   0.289  1.00  0.00    -0.328 OA
ATOM      6  C   UNL     1      51.997 -31.273   1.718  1.00  0.00     0.181 C 
ATOM      7  C   UNL     1      53.154 -31.867   0.895  1.00  0.00     0.214 C 
BRANCH   3   8
ATOM      8  C   UNL     1      51.860 -28.414   0.111  1.00  0.00     0.073 C 
ATOM      9  O   UNL     1      52.208 -27.721  -0.881  1.00  0.00    -0.547 OA
ATOM     10  O   UNL     1      50.505 -28.572   0.377  1.00  0.00    -0.547 OA
ENDBRANCH   3   8
BRANCH   4  11
ATOM     11  O   UNL     1      51.341 -29.261   2.881  1.00  0.00    -0.387 OA
ATOM     12  H   UNL     1      51.431 -28.283   2.737  1.00  0.00     0.211 HD
ENDBRANCH   4  11
BRANCH   6  13
ATOM     13  O   UNL     1      50.823 -31.216   0.948  1.00  0.00    -0.387 OA
ATOM     14  H   UNL     1      50.083 -31.543   1.524  1.00  0.00     0.211 HD
ENDBRANCH   6  13
BRANCH   7  15
ATOM     15  O   UNL     1      52.853 -33.153   0.410  1.00  0.00    -0.384 OA
ATOM     16  H   UNL     1      53.704 -33.616   0.202  1.00  0.00     0.211 HD
ENDBRANCH   7  15
ENDBRANCH   1   2
BRANCH   1  17
ATOM     17  C   UNL     1      52.680 -31.096  -2.600  1.00  0.00     0.172 A 
ATOM     18  C   UNL     1      53.294 -30.180  -3.461  1.00  0.00     0.201 A 
ATOM     19  C   UNL     1      52.203 -32.311  -3.114  1.00  0.00     0.098 A 
ATOM     20  C   UNL     1      53.438 -30.461  -4.835  1.00  0.00     0.176 A 
ATOM     21  C   UNL     1      52.297 -32.592  -4.477  1.00  0.00     0.146 A 
ATOM     22  C   UNL     1      52.888 -31.662  -5.368  1.00  0.00     0.111 A 
ATOM     23  O   UNL     1      51.807 -33.745  -4.922  1.00  0.00    -0.456 OA
ATOM     24  C   UNL     1      52.853 -31.987  -6.746  1.00  0.00     0.197 A 
ATOM     25  C   UNL     1      51.817 -34.102  -6.201  1.00  0.00     0.138 A 
ATOM     26  C   UNL     1      52.334 -33.216  -7.156  1.00  0.00     0.100 A 
ATOM     27  O   UNL     1      53.243 -31.182  -7.631  1.00  0.00    -0.289 OA
BRANCH  18  28
ATOM     28  O   UNL     1      53.779 -28.985  -2.924  1.00  0.00    -0.502 OA
ATOM     29  H   UNL     1      53.526 -28.660  -2.000  1.00  0.00     0.293 HD
ENDBRANCH  18  28
BRANCH  20  30
ATOM     30  O   UNL     1      54.152 -29.538  -5.606  1.00  0.00    -0.504 OA
ATOM     31  H   UNL     1      55.155 -29.433  -5.591  1.00  0.00     0.293 HD
ENDBRANCH  20  30
BRANCH  25  32
ATOM     32  C   UNL     1      51.254 -35.423  -6.580  1.00  0.00     0.017 A 
ATOM     33  C   UNL     1      51.387 -35.938  -7.886  1.00  0.00     0.012 A 
ATOM     34  C   UNL     1      50.595 -36.198  -5.609  1.00  0.00     0.012 A 
ATOM     35  C   UNL     1      50.853 -37.190  -8.210  1.00  0.00     0.001 A 
ATOM     36  C   UNL     1      50.063 -37.448  -5.940  1.00  0.00     0.001 A 
ATOM     37  C   UNL     1      50.189 -37.943  -7.239  1.00  0.00     0.000 A 
ENDBRANCH  25  32
ENDBRANCH   1  17
TORSDOF 9
ENDMDL
MODEL 6
REMARK VINA RESULT:    -6.520     16.833     19.252
REMARK INTER + INTRA:         -10.701
REMARK INTER:                  -9.072
REMARK INTRA:                  -1.629
REMARK UNBOUND:                -1.704
REMARK SMILES O=C([O-])[C@@H]1O[C@H](Oc2cc3oc(-c4ccccc4)cc(=O)c3c(O)c2O)[C@H](O)[C@H](O)[C@@H]1O
REMARK SMILES IDX 7 1 6 2 4 3 31 4 5 5 29 6 27 7 2 8 1 9 3 10 32 11 30 13
REMARK SMILES IDX 28 15 8 17 25 18 9 19 23 20 10 21 22 22 11 23 20 24 12 25
REMARK SMILES IDX 19 26 21 27 26 28 24 30 13 32 14 33 18 34 15 35 17 36 16 37
REMARK H PARENT 32 12 30 14 28 16 26 29 24 31
REMARK Flexibility Score: inf
ROOT
ATOM      1  O   UNL     1      52.681 -31.212  -1.585  1.00  0.00    -0.458 OA
ENDROOT
BRANCH   1   2
ATOM      2  C   UNL     1      52.603 -32.156  -0.509  1.00  0.00     0.339 C 
ATOM      3  C   UNL     1      54.691 -31.533   0.465  1.00  0.00     0.199 C 
ATOM      4  C   UNL     1      53.991 -30.904   1.702  1.00  0.00     0.180 C 
ATOM      5  O   UNL     1      53.910 -32.570  -0.124  1.00  0.00    -0.328 OA
ATOM      6  C   UNL     1      52.564 -30.441   1.374  1.00  0.00     0.181 C 
ATOM      7  C   UNL     1      51.812 -31.603   0.700  1.00  0.00     0.214 C 
BRANCH   3   8
ATOM      8  C   UNL     1      55.202 -30.558  -0.575  1.00  0.00     0.073 C 
ATOM      9  O   UNL     1      55.826 -30.994  -1.579  1.00  0.00    -0.547 OA
ATOM     10  O   UNL     1      55.063 -29.185  -0.416  1.00  0.00    -0.547 OA
ENDBRANCH   3   8
BRANCH   4  11
ATOM     11  O   UNL     1      54.737 -29.843   2.242  1.00  0.00    -0.387 OA
ATOM     12  H   UNL     1      55.225 -29.424   1.486  1.00  0.00     0.211 HD
ENDBRANCH   4  11
BRANCH   6  13
ATOM     13  O   UNL     1      52.585 -29.315   0.533  1.00  0.00    -0.387 OA
ATOM     14  H   UNL     1      53.194 -28.651   0.953  1.00  0.00     0.211 HD
ENDBRANCH   6  13
BRANCH   7  15
ATOM     15  O   UNL     1      50.493 -31.253   0.359  1.00  0.00    -0.384 OA
ATOM     16  H   UNL     1      50.350 -30.302   0.600  1.00  0.00     0.211 HD
ENDBRANCH   7  15
ENDBRANCH   1   2
BRANCH   1  17
ATOM     17  C   UNL     1      52.715 -31.495  -2.963  1.00  0.00     0.172 A 
ATOM     18  C   UNL     1      53.244 -30.519  -3.814  1.00  0.00     0.201 A 
ATOM     19  C   UNL     1      52.256 -32.706  -3.504  1.00  0.00     0.098 A 
ATOM     20  C   UNL     1      53.321 -30.736  -5.205  1.00  0.00     0.176 A 
ATOM     21  C   UNL     1      52.283 -32.924  -4.881  1.00  0.00     0.146 A 
ATOM     22  C   UNL     1      52.788 -31.934  -5.761  1.00  0.00     0.111 A 
ATOM     23  O   UNL     1      51.814 -34.076  -5.350  1.00  0.00    -0.456 OA
ATOM     24  C   UNL     1      52.688 -32.201  -7.148  1.00  0.00     0.197 A 
ATOM     25  C   UNL     1      51.766 -34.378  -6.643  1.00  0.00     0.138 A 
ATOM     26  C   UNL     1      52.194 -33.432  -7.583  1.00  0.00     0.100 A 
ATOM     27  O   UNL     1      52.996 -31.344  -8.016  1.00  0.00    -0.289 OA
BRANCH  18  28
ATOM     28  O   UNL     1      53.713 -29.330  -3.252  1.00  0.00    -0.502 OA
ATOM     29  H   UNL     1      54.066 -28.564  -3.812  1.00  0.00     0.293 HD
ENDBRANCH  18  28
BRANCH  20  30
ATOM     30  O   UNL     1      53.955 -29.753  -5.971  1.00  0.00    -0.504 OA
ATOM     31  H   UNL     1      53.492 -28.951  -6.374  1.00  0.00     0.293 HD
ENDBRANCH  20  30
BRANCH  25  32
ATOM     32  C   UNL     1      51.232 -35.703  -7.049  1.00  0.00     0.017 A 
ATOM     33  C   UNL     1      50.220 -36.352  -6.313  1.00  0.00     0.012 A 
ATOM     34  C   UNL     1      51.724 -36.319  -8.215  1.00  0.00     0.012 A 
ATOM     35  C   UNL     1      49.731 -37.595  -6.727  1.00  0.00     0.001 A 
ATOM     36  C   UNL     1      51.231 -37.562  -8.622  1.00  0.00     0.001 A 
ATOM     37  C   UNL     1      50.238 -38.202  -7.878  1.00  0.00     0.000 A 
ENDBRANCH  25  32
ENDBRANCH   1  17
TORSDOF 9
ENDMDL
MODEL 7
REMARK VINA RESULT:    -6.515     14.943     17.558
REMARK INTER + INTRA:         -10.694
REMARK INTER:                  -8.835
REMARK INTRA:                  -1.859
REMARK UNBOUND:                -1.704
REMARK SMILES O=C([O-])[C@@H]1O[C@H](Oc2cc3oc(-c4ccccc4)cc(=O)c3c(O)c2O)[C@H](O)[C@H](O)[C@@H]1O
REMARK SMILES IDX 7 1 6 2 4 3 31 4 5 5 29 6 27 7 2 8 1 9 3 10 32 11 30 13
REMARK SMILES IDX 28 15 8 17 25 18 9 19 23 20 10 21 22 22 11 23 20 24 12 25
REMARK SMILES IDX 19 26 21 27 26 28 24 30 13 32 14 33 18 34 15 35 17 36 16 37
REMARK H PARENT 32 12 30 14 28 16 26 29 24 31
REMARK Flexibility Score: inf
ROOT
ATOM      1  O   UNL     1      52.685 -31.837  -6.418  1.00  0.00    -0.458 OA
ENDROOT
BRANCH   1   2
ATOM      2  C   UNL     1      52.692 -33.188  -5.940  1.00  0.00     0.339 C 
ATOM      3  C   UNL     1      51.086 -33.976  -7.519  1.00  0.00     0.199 C 
ATOM      4  C   UNL     1      52.153 -34.823  -8.268  1.00  0.00     0.180 C 
ATOM      5  O   UNL     1      51.417 -33.788  -6.146  1.00  0.00    -0.328 OA
ATOM      6  C   UNL     1      53.565 -34.248  -8.086  1.00  0.00     0.181 C 
ATOM      7  C   UNL     1      53.818 -34.032  -6.583  1.00  0.00     0.214 C 
BRANCH   3   8
ATOM      8  C   UNL     1      50.686 -32.674  -8.181  1.00  0.00     0.073 C 
ATOM      9  O   UNL     1      49.831 -31.934  -7.627  1.00  0.00    -0.547 OA
ATOM     10  O   UNL     1      51.187 -32.306  -9.424  1.00  0.00    -0.547 OA
ENDBRANCH   3   8
BRANCH   4  11
ATOM     11  O   UNL     1      51.852 -34.953  -9.634  1.00  0.00    -0.387 OA
ATOM     12  H   UNL     1      52.163 -35.855  -9.910  1.00  0.00     0.211 HD
ENDBRANCH   4  11
BRANCH   6  13
ATOM     13  O   UNL     1      53.707 -33.038  -8.787  1.00  0.00    -0.387 OA
ATOM     14  H   UNL     1      54.497 -32.572  -8.404  1.00  0.00     0.211 HD
ENDBRANCH   6  13
BRANCH   7  15
ATOM     15  O   UNL     1      55.095 -33.496  -6.332  1.00  0.00    -0.384 OA
ATOM     16  H   UNL     1      55.185 -32.651  -6.842  1.00  0.00     0.211 HD
ENDBRANCH   7  15
ENDBRANCH   1   2
BRANCH   1  17
ATOM     17  C   UNL     1      53.228 -30.707  -5.781  1.00  0.00     0.172 A 
ATOM     18  C   UNL     1      54.355 -30.113  -6.359  1.00  0.00     0.201 A 
ATOM     19  C   UNL     1      52.683 -30.155  -4.612  1.00  0.00     0.098 A 
ATOM     20  C   UNL     1      54.948 -28.971  -5.784  1.00  0.00     0.176 A 
ATOM     21  C   UNL     1      53.278 -29.051  -4.002  1.00  0.00     0.146 A 
ATOM     22  C   UNL     1      54.438 -28.455  -4.557  1.00  0.00     0.111 A 
ATOM     23  O   UNL     1      52.740 -28.579  -2.881  1.00  0.00    -0.456 OA
ATOM     24  C   UNL     1      55.031 -27.402  -3.821  1.00  0.00     0.197 A 
ATOM     25  C   UNL     1      53.241 -27.552  -2.203  1.00  0.00     0.138 A 
ATOM     26  C   UNL     1      54.418 -26.941  -2.654  1.00  0.00     0.100 A 
ATOM     27  O   UNL     1      56.125 -26.883  -4.162  1.00  0.00    -0.289 OA
BRANCH  18  28
ATOM     28  O   UNL     1      54.870 -30.667  -7.534  1.00  0.00    -0.502 OA
ATOM     29  H   UNL     1      55.569 -31.399  -7.530  1.00  0.00     0.293 HD
ENDBRANCH  18  28
BRANCH  20  30
ATOM     30  O   UNL     1      56.008 -28.381  -6.480  1.00  0.00    -0.504 OA
ATOM     31  H   UNL     1      56.826 -27.979  -6.047  1.00  0.00     0.293 HD
ENDBRANCH  20  30
BRANCH  25  32
ATOM     32  C   UNL     1      52.546 -27.103  -0.970  1.00  0.00     0.017 A 
ATOM     33  C   UNL     1      51.339 -27.692  -0.543  1.00  0.00     0.012 A 
ATOM     34  C   UNL     1      53.118 -26.084  -0.186  1.00  0.00     0.012 A 
ATOM     35  C   UNL     1      50.713 -27.253   0.629  1.00  0.00     0.001 A 
ATOM     36  C   UNL     1      52.487 -25.650   0.984  1.00  0.00     0.001 A 
ATOM     37  C   UNL     1      51.284 -26.231   1.390  1.00  0.00     0.000 A 
ENDBRANCH  25  32
ENDBRANCH   1  17
TORSDOF 9
ENDMDL
MODEL 8
REMARK VINA RESULT:    -6.481     15.621     18.469
REMARK INTER + INTRA:         -10.647
REMARK INTER:                  -8.928
REMARK INTRA:                  -1.720
REMARK UNBOUND:                -1.704
REMARK SMILES O=C([O-])[C@@H]1O[C@H](Oc2cc3oc(-c4ccccc4)cc(=O)c3c(O)c2O)[C@H](O)[C@H](O)[C@@H]1O
REMARK SMILES IDX 7 1 6 2 4 3 31 4 5 5 29 6 27 7 2 8 1 9 3 10 32 11 30 13
REMARK SMILES IDX 28 15 8 17 25 18 9 19 23 20 10 21 22 22 11 23 20 24 12 25
REMARK SMILES IDX 19 26 21 27 26 28 24 30 13 32 14 33 18 34 15 35 17 36 16 37
REMARK H PARENT 32 12 30 14 28 16 26 29 24 31
REMARK Flexibility Score: inf
ROOT
ATOM      1  O   UNL     1      52.927 -34.086  -6.027  1.00  0.00    -0.458 OA
ENDROOT
BRANCH   1   2
ATOM      2  C   UNL     1      53.648 -35.240  -5.578  1.00  0.00     0.339 C 
ATOM      3  C   UNL     1      51.817 -36.747  -5.847  1.00  0.00     0.199 C 
ATOM      4  C   UNL     1      52.510 -37.465  -7.039  1.00  0.00     0.180 C 
ATOM      5  O   UNL     1      52.760 -36.161  -4.953  1.00  0.00    -0.328 OA
ATOM      6  C   UNL     1      53.500 -36.540  -7.763  1.00  0.00     0.181 C 
ATOM      7  C   UNL     1      54.443 -35.916  -6.719  1.00  0.00     0.214 C 
BRANCH   3   8
ATOM      8  C   UNL     1      50.711 -35.778  -6.208  1.00  0.00     0.073 C 
ATOM      9  O   UNL     1      50.110 -35.155  -5.293  1.00  0.00    -0.547 OA
ATOM     10  O   UNL     1      50.291 -35.610  -7.522  1.00  0.00    -0.547 OA
ENDBRANCH   3   8
BRANCH   4  11
ATOM     11  O   UNL     1      51.577 -37.989  -7.948  1.00  0.00    -0.387 OA
ATOM     12  H   UNL     1      51.623 -37.423  -8.763  1.00  0.00     0.211 HD
ENDBRANCH   4  11
BRANCH   6  13
ATOM     13  O   UNL     1      52.818 -35.537  -8.473  1.00  0.00    -0.387 OA
ATOM     14  H   UNL     1      51.888 -35.518  -8.125  1.00  0.00     0.211 HD
ENDBRANCH   6  13
BRANCH   7  15
ATOM     15  O   UNL     1      55.379 -35.044  -7.306  1.00  0.00    -0.384 OA
ATOM     16  H   UNL     1      55.424 -35.242  -8.276  1.00  0.00     0.211 HD
ENDBRANCH   7  15
ENDBRANCH   1   2
BRANCH   1  17
ATOM     17  C   UNL     1      53.131 -32.750  -5.636  1.00  0.00     0.172 A 
ATOM     18  C   UNL     1      53.857 -31.923  -6.499  1.00  0.00     0.201 A 
ATOM     19  C   UNL     1      52.629 -32.222  -4.436  1.00  0.00     0.098 A 
ATOM     20  C   UNL     1      54.092 -30.570  -6.180  1.00  0.00     0.176 A 
ATOM     21  C   UNL     1      52.886 -30.898  -4.080  1.00  0.00     0.146 A 
ATOM     22  C   UNL     1      53.646 -30.055  -4.929  1.00  0.00     0.111 A 
ATOM     23  O   UNL     1      52.412 -30.450  -2.922  1.00  0.00    -0.456 OA
ATOM     24  C   UNL     1      53.940 -28.758  -4.444  1.00  0.00     0.197 A 
ATOM     25  C   UNL     1      52.620 -29.218  -2.471  1.00  0.00     0.138 A 
ATOM     26  C   UNL     1      53.409 -28.337  -3.223  1.00  0.00     0.100 A 
ATOM     27  O   UNL     1      54.703 -27.971  -5.062  1.00  0.00    -0.289 OA
BRANCH  18  28
ATOM     28  O   UNL     1      54.330 -32.464  -7.697  1.00  0.00    -0.502 OA
ATOM     29  H   UNL     1      54.414 -31.919  -8.546  1.00  0.00     0.293 HD
ENDBRANCH  18  28
BRANCH  20  30
ATOM     30  O   UNL     1      54.739 -29.789  -7.142  1.00  0.00    -0.504 OA
ATOM     31  H   UNL     1      55.334 -29.000  -6.936  1.00  0.00     0.293 HD
ENDBRANCH  20  30
BRANCH  25  32
ATOM     32  C   UNL     1      52.029 -28.824  -1.167  1.00  0.00     0.017 A 
ATOM     33  C   UNL     1      51.700 -27.484  -0.877  1.00  0.00     0.012 A 
ATOM     34  C   UNL     1      51.761 -29.811  -0.202  1.00  0.00     0.012 A 
ATOM     35  C   UNL     1      51.136 -27.145   0.357  1.00  0.00     0.001 A 
ATOM     36  C   UNL     1      51.197 -29.466   1.030  1.00  0.00     0.001 A 
ATOM     37  C   UNL     1      50.887 -28.134   1.311  1.00  0.00     0.000 A 
ENDBRANCH  25  32
ENDBRANCH   1  17
TORSDOF 9
ENDMDL
MODEL 9
REMARK VINA RESULT:    -6.445     15.019     16.885
REMARK INTER + INTRA:         -10.598
REMARK INTER:                  -8.946
REMARK INTRA:                  -1.652
REMARK UNBOUND:                -1.704
REMARK SMILES O=C([O-])[C@@H]1O[C@H](Oc2cc3oc(-c4ccccc4)cc(=O)c3c(O)c2O)[C@H](O)[C@H](O)[C@@H]1O
REMARK SMILES IDX 7 1 6 2 4 3 31 4 5 5 29 6 27 7 2 8 1 9 3 10 32 11 30 13
REMARK SMILES IDX 28 15 8 17 25 18 9 19 23 20 10 21 22 22 11 23 20 24 12 25
REMARK SMILES IDX 19 26 21 27 26 28 24 30 13 32 14 33 18 34 15 35 17 36 16 37
REMARK H PARENT 32 12 30 14 28 16 26 29 24 31
REMARK Flexibility Score: inf
ROOT
ATOM      1  O   UNL     1      52.992 -29.429   1.797  1.00  0.00    -0.458 OA
ENDROOT
BRANCH   1   2
ATOM      2  C   UNL     1      53.846 -30.456   2.314  1.00  0.00     0.339 C 
ATOM      3  C   UNL     1      53.114 -32.127   0.775  1.00  0.00     0.199 C 
ATOM      4  C   UNL     1      54.484 -32.131   0.040  1.00  0.00     0.180 C 
ATOM      5  O   UNL     1      53.239 -31.733   2.139  1.00  0.00    -0.328 OA
ATOM      6  C   UNL     1      55.214 -30.788   0.191  1.00  0.00     0.181 C 
ATOM      7  C   UNL     1      55.259 -30.417   1.684  1.00  0.00     0.214 C 
BRANCH   3   8
ATOM      8  C   UNL     1      51.989 -31.391   0.080  1.00  0.00     0.073 C 
ATOM      9  O   UNL     1      50.885 -31.249   0.669  1.00  0.00    -0.547 OA
ATOM     10  O   UNL     1      52.119 -30.926  -1.223  1.00  0.00    -0.547 OA
ENDBRANCH   3   8
BRANCH   4  11
ATOM     11  O   UNL     1      54.348 -32.462  -1.318  1.00  0.00    -0.387 OA
ATOM     12  H   UNL     1      53.643 -33.159  -1.373  1.00  0.00     0.211 HD
ENDBRANCH   4  11
BRANCH   6  13
ATOM     13  O   UNL     1      54.567 -29.782  -0.547  1.00  0.00    -0.387 OA
ATOM     14  H   UNL     1      53.594 -29.871  -0.367  1.00  0.00     0.211 HD
ENDBRANCH   6  13
BRANCH   7  15
ATOM     15  O   UNL     1      55.907 -29.189   1.906  1.00  0.00    -0.384 OA
ATOM     16  H   UNL     1      56.433 -28.963   1.097  1.00  0.00     0.211 HD
ENDBRANCH   7  15
ENDBRANCH   1   2
BRANCH   1  17
ATOM     17  C   UNL     1      52.350 -28.410   2.526  1.00  0.00     0.172 A 
ATOM     18  C   UNL     1      52.831 -27.104   2.380  1.00  0.00     0.201 A 
ATOM     19  C   UNL     1      51.256 -28.651   3.369  1.00  0.00     0.098 A 
ATOM     20  C   UNL     1      52.232 -26.030   3.069  1.00  0.00     0.176 A 
ATOM     21  C   UNL     1      50.674 -27.610   4.093  1.00  0.00     0.146 A 
ATOM     22  C   UNL     1      51.168 -26.286   3.981  1.00  0.00     0.111 A 
ATOM     23  O   UNL     1      49.655 -27.890   4.900  1.00  0.00    -0.456 OA
ATOM     24  C   UNL     1      50.582 -25.312   4.825  1.00  0.00     0.197 A 
ATOM     25  C   UNL     1      49.046 -26.984   5.656  1.00  0.00     0.138 A 
ATOM     26  C   UNL     1      49.509 -25.661   5.646  1.00  0.00     0.100 A 
ATOM     27  O   UNL     1      51.022 -24.135   4.890  1.00  0.00    -0.289 OA
BRANCH  18  28
ATOM     28  O   UNL     1      53.909 -26.885   1.519  1.00  0.00    -0.502 OA
ATOM     29  H   UNL     1      54.771 -26.452   1.825  1.00  0.00     0.293 HD
ENDBRANCH  18  28
BRANCH  20  30
ATOM     30  O   UNL     1      52.708 -24.746   2.790  1.00  0.00    -0.504 OA
ATOM     31  H   UNL     1      53.658 -24.440   2.940  1.00  0.00     0.293 HD
ENDBRANCH  20  30
BRANCH  25  32
ATOM     32  C   UNL     1      47.909 -27.411   6.510  1.00  0.00     0.017 A 
ATOM     33  C   UNL     1      47.837 -27.068   7.875  1.00  0.00     0.012 A 
ATOM     34  C   UNL     1      46.857 -28.152   5.941  1.00  0.00     0.012 A 
ATOM     35  C   UNL     1      46.747 -27.478   8.651  1.00  0.00     0.001 A 
ATOM     36  C   UNL     1      45.771 -28.559   6.722  1.00  0.00     0.001 A 
ATOM     37  C   UNL     1      45.717 -28.224   8.076  1.00  0.00     0.000 A 
ENDBRANCH  25  32
ENDBRANCH   1  17
TORSDOF 9
ENDMDL
