MODEL 1
REMARK VINA RESULT:    -3.399      0.000      0.000
REMARK INTER + INTRA:          -3.803
REMARK INTER:                  -3.796
REMARK INTRA:                  -0.007
REMARK UNBOUND:                -0.007
REMARK SMILES CCCC(=O)[O-]
REMARK SMILES IDX 3 1 4 2 5 3 6 4 2 5 1 6
REMARK H PARENT
REMARK Flexibility Score: inf
ROOT
ATOM      1  C   UNL     1       6.967  26.227 109.341  1.00  0.00     0.052 C 
ENDROOT
BRANCH   1   2
ATOM      2  C   UNL     1       7.750  26.597 110.563  1.00  0.00     0.041 C 
ATOM      3  O   UNL     1       7.478  27.652 111.195  1.00  0.00    -0.550 OA
ATOM      4  O   UNL     1       8.803  25.795 110.983  1.00  0.00    -0.550 OA
ENDBRANCH   1   2
BRANCH   1   5
ATOM      5  C   UNL     1       7.866  25.635 108.247  1.00  0.00     0.003 C 
ATOM      6  C   UNL     1       7.384  25.996 106.843  1.00  0.00     0.004 C 
ENDBRANCH   1   5
TORSDOF 2
ENDMDL
MODEL 2
REMARK VINA RESULT:    -3.376      0.079      1.324
REMARK INTER + INTRA:          -3.778
REMARK INTER:                  -3.770
REMARK INTRA:                  -0.008
REMARK UNBOUND:                -0.007
REMARK SMILES CCCC(=O)[O-]
REMARK SMILES IDX 3 1 4 2 5 3 6 4 2 5 1 6
REMARK H PARENT
REMARK Flexibility Score: inf
ROOT
ATOM      1  C   UNL     1       7.024  26.185 109.316  1.00  0.00     0.052 C 
ENDROOT
BRANCH   1   2
ATOM      2  C   UNL     1       7.817  26.570 110.527  1.00  0.00     0.041 C 
ATOM      3  O   UNL     1       8.778  25.853 110.910  1.00  0.00    -0.550 OA
ATOM      4  O   UNL     1       7.472  27.703 111.253  1.00  0.00    -0.550 OA
ENDBRANCH   1   2
BRANCH   1   5
ATOM      5  C   UNL     1       7.925  25.654 108.193  1.00  0.00     0.003 C 
ATOM      6  C   UNL     1       7.405  26.030 106.806  1.00  0.00     0.004 C 
ENDBRANCH   1   5
TORSDOF 2
ENDMDL
MODEL 3
REMARK VINA RESULT:    -3.211      1.200      1.644
REMARK INTER + INTRA:          -3.594
REMARK INTER:                  -3.587
REMARK INTRA:                  -0.007
REMARK UNBOUND:                -0.007
REMARK SMILES CCCC(=O)[O-]
REMARK SMILES IDX 3 1 4 2 5 3 6 4 2 5 1 6
REMARK H PARENT
REMARK Flexibility Score: inf
ROOT
ATOM      1  C   UNL     1       7.321  25.987 109.365  1.00  0.00     0.052 C 
ENDROOT
BRANCH   1   2
ATOM      2  C   UNL     1       7.727  25.120 110.517  1.00  0.00     0.041 C 
ATOM      3  O   UNL     1       7.148  24.020 110.716  1.00  0.00    -0.550 OA
ATOM      4  O   UNL     1       8.720  25.543 111.390  1.00  0.00    -0.550 OA
ENDBRANCH   1   2
BRANCH   1   5
ATOM      5  C   UNL     1       8.053  25.596 108.074  1.00  0.00     0.003 C 
ATOM      6  C   UNL     1       7.301  26.047 106.822  1.00  0.00     0.004 C 
ENDBRANCH   1   5
TORSDOF 2
ENDMDL
MODEL 4
REMARK VINA RESULT:    -3.035      1.996      2.412
REMARK INTER + INTRA:          -3.397
REMARK INTER:                  -3.366
REMARK INTRA:                  -0.030
REMARK UNBOUND:                -0.007
REMARK SMILES CCCC(=O)[O-]
REMARK SMILES IDX 3 1 4 2 5 3 6 4 2 5 1 6
REMARK H PARENT
REMARK Flexibility Score: inf
ROOT
ATOM      1  C   UNL     1       7.870  26.077 111.156  1.00  0.00     0.052 C 
ENDROOT
BRANCH   1   2
ATOM      2  C   UNL     1       8.031  24.863 112.017  1.00  0.00     0.041 C 
ATOM      3  O   UNL     1       7.172  23.944 111.983  1.00  0.00    -0.550 OA
ATOM      4  O   UNL     1       9.112  24.763 112.883  1.00  0.00    -0.550 OA
ENDBRANCH   1   2
BRANCH   1   5
ATOM      5  C   UNL     1       8.584  25.916 109.807  1.00  0.00     0.003 C 
ATOM      6  C   UNL     1       7.604  25.821 108.639  1.00  0.00     0.004 C 
ENDBRANCH   1   5
TORSDOF 2
ENDMDL
MODEL 5
REMARK VINA RESULT:    -2.976      2.581      3.611
REMARK INTER + INTRA:          -3.331
REMARK INTER:                  -3.298
REMARK INTRA:                  -0.033
REMARK UNBOUND:                -0.007
REMARK SMILES CCCC(=O)[O-]
REMARK SMILES IDX 3 1 4 2 5 3 6 4 2 5 1 6
REMARK H PARENT
REMARK Flexibility Score: inf
ROOT
ATOM      1  C   UNL     1       7.806  25.613 108.672  1.00  0.00     0.052 C 
ENDROOT
BRANCH   1   2
ATOM      2  C   UNL     1       7.014  26.184 107.536  1.00  0.00     0.041 C 
ATOM      3  O   UNL     1       7.415  26.045 106.351  1.00  0.00    -0.550 OA
ATOM      4  O   UNL     1       5.851  26.899 107.790  1.00  0.00    -0.550 OA
ENDBRANCH   1   2
BRANCH   1   5
ATOM      5  C   UNL     1       7.074  25.772 110.012  1.00  0.00     0.003 C 
ATOM      6  C   UNL     1       7.624  26.935 110.838  1.00  0.00     0.004 C 
ENDBRANCH   1   5
TORSDOF 2
ENDMDL
MODEL 6
REMARK VINA RESULT:    -2.891      2.243      3.115
REMARK INTER + INTRA:          -3.237
REMARK INTER:                  -3.170
REMARK INTRA:                  -0.066
REMARK UNBOUND:                -0.007
REMARK SMILES CCCC(=O)[O-]
REMARK SMILES IDX 3 1 4 2 5 3 6 4 2 5 1 6
REMARK H PARENT
REMARK Flexibility Score: inf
ROOT
ATOM      1  C   UNL     1       8.096  25.442 111.096  1.00  0.00     0.052 C 
ENDROOT
BRANCH   1   2
ATOM      2  C   UNL     1       7.395  26.683 110.637  1.00  0.00     0.041 C 
ATOM      3  O   UNL     1       7.291  27.674 111.408  1.00  0.00    -0.550 OA
ATOM      4  O   UNL     1       6.828  26.734 109.371  1.00  0.00    -0.550 OA
ENDBRANCH   1   2
BRANCH   1   5
ATOM      5  C   UNL     1       7.311  24.722 112.202  1.00  0.00     0.003 C 
ATOM      6  C   UNL     1       6.029  24.077 111.677  1.00  0.00     0.004 C 
ENDBRANCH   1   5
TORSDOF 2
ENDMDL
MODEL 7
REMARK VINA RESULT:    -2.720      3.952      4.589
REMARK INTER + INTRA:          -3.045
REMARK INTER:                  -3.006
REMARK INTRA:                  -0.038
REMARK UNBOUND:                -0.007
REMARK SMILES CCCC(=O)[O-]
REMARK SMILES IDX 3 1 4 2 5 3 6 4 2 5 1 6
REMARK H PARENT
REMARK Flexibility Score: inf
ROOT
ATOM      1  C   UNL     1       3.335  25.720 110.696  1.00  0.00     0.052 C 
ENDROOT
BRANCH   1   2
ATOM      2  C   UNL     1       3.991  26.897 110.043  1.00  0.00     0.041 C 
ATOM      3  O   UNL     1       3.481  28.044 110.145  1.00  0.00    -0.550 OA
ATOM      4  O   UNL     1       5.147  26.722 109.293  1.00  0.00    -0.550 OA
ENDBRANCH   1   2
BRANCH   1   5
ATOM      5  C   UNL     1       4.036  25.332 112.004  1.00  0.00     0.003 C 
ATOM      6  C   UNL     1       5.041  24.198 111.810  1.00  0.00     0.004 C 
ENDBRANCH   1   5
TORSDOF 2
ENDMDL
MODEL 8
REMARK VINA RESULT:    -2.680      2.413      3.241
REMARK INTER + INTRA:          -3.000
REMARK INTER:                  -2.984
REMARK INTRA:                  -0.016
REMARK UNBOUND:                -0.007
REMARK SMILES CCCC(=O)[O-]
REMARK SMILES IDX 3 1 4 2 5 3 6 4 2 5 1 6
REMARK H PARENT
REMARK Flexibility Score: inf
ROOT
ATOM      1  C   UNL     1       5.815  26.237 110.493  1.00  0.00     0.052 C 
ENDROOT
BRANCH   1   2
ATOM      2  C   UNL     1       6.766  26.893 111.447  1.00  0.00     0.041 C 
ATOM      3  O   UNL     1       7.641  27.691 111.021  1.00  0.00    -0.550 OA
ATOM      4  O   UNL     1       6.706  26.597 112.802  1.00  0.00    -0.550 OA
ENDBRANCH   1   2
BRANCH   1   5
ATOM      5  C   UNL     1       4.661  25.543 111.228  1.00  0.00     0.003 C 
ATOM      6  C   UNL     1       3.300  25.882 110.621  1.00  0.00     0.004 C 
ENDBRANCH   1   5
TORSDOF 2
ENDMDL
MODEL 9
REMARK VINA RESULT:    -2.624      3.187      4.023
REMARK INTER + INTRA:          -2.937
REMARK INTER:                  -2.899
REMARK INTRA:                  -0.038
REMARK UNBOUND:                -0.007
REMARK SMILES CCCC(=O)[O-]
REMARK SMILES IDX 3 1 4 2 5 3 6 4 2 5 1 6
REMARK H PARENT
REMARK Flexibility Score: inf
ROOT
ATOM      1  C   UNL     1       6.028  25.262 111.997  1.00  0.00     0.052 C 
ENDROOT
BRANCH   1   2
ATOM      2  C   UNL     1       7.519  25.158 112.096  1.00  0.00     0.041 C 
ATOM      3  O   UNL     1       8.248  26.092 111.671  1.00  0.00    -0.550 OA
ATOM      4  O   UNL     1       8.102  24.016 112.627  1.00  0.00    -0.550 OA
ENDBRANCH   1   2
BRANCH   1   5
ATOM      5  C   UNL     1       5.375  23.889 111.793  1.00  0.00     0.003 C 
ATOM      6  C   UNL     1       4.512  23.473 112.984  1.00  0.00     0.004 C 
ENDBRANCH   1   5
TORSDOF 2
ENDMDL
