MODEL 1
REMARK VINA RESULT:    -4.479      0.000      0.000
REMARK INTER + INTRA:          -5.110
REMARK INTER:                  -4.871
REMARK INTRA:                  -0.239
REMARK UNBOUND:                -0.239
REMARK SMILES O=C([O-])c1ccccc1O
REMARK SMILES IDX 4 1 9 2 5 3 8 4 6 5 7 6 2 7 1 8 3 9 10 10
REMARK H PARENT 10 11
REMARK Flexibility Score: inf
ROOT
ATOM      1  C   UNL     1      17.958   1.848  30.253  1.00  0.00     0.039 A 
ATOM      2  C   UNL     1      18.216   2.990  31.054  1.00  0.00     0.124 A 
ATOM      3  C   UNL     1      16.815   1.072  30.520  1.00  0.00     0.014 A 
ATOM      4  C   UNL     1      17.368   3.287  32.129  1.00  0.00     0.047 A 
ATOM      5  C   UNL     1      15.968   1.395  31.584  1.00  0.00     0.001 A 
ATOM      6  C   UNL     1      16.251   2.495  32.393  1.00  0.00     0.004 A 
ENDROOT
BRANCH   1   7
ATOM      7  C   UNL     1      18.859   1.413  29.162  1.00  0.00     0.075 C 
ATOM      8  O   UNL     1      18.415   1.193  28.004  1.00  0.00    -0.545 OA
ATOM      9  O   UNL     1      20.228   1.312  29.389  1.00  0.00    -0.545 OA
ENDBRANCH   1   7
BRANCH   2  10
ATOM     10  O   UNL     1      19.271   3.869  30.800  1.00  0.00    -0.507 OA
ATOM     11  H   UNL     1      20.031   4.031  31.446  1.00  0.00     0.293 HD
ENDBRANCH   2  10
TORSDOF 2
ENDMDL
MODEL 2
REMARK VINA RESULT:    -4.397      1.008      2.421
REMARK INTER + INTRA:          -5.021
REMARK INTER:                  -4.769
REMARK INTRA:                  -0.252
REMARK UNBOUND:                -0.239
REMARK SMILES O=C([O-])c1ccccc1O
REMARK SMILES IDX 4 1 9 2 5 3 8 4 6 5 7 6 2 7 1 8 3 9 10 10
REMARK H PARENT 10 11
REMARK Flexibility Score: inf
ROOT
ATOM      1  C   UNL     1      17.938   2.099  29.943  1.00  0.00     0.039 A 
ATOM      2  C   UNL     1      17.089   1.025  30.319  1.00  0.00     0.124 A 
ATOM      3  C   UNL     1      17.946   3.267  30.729  1.00  0.00     0.014 A 
ATOM      4  C   UNL     1      16.236   1.170  31.421  1.00  0.00     0.047 A 
ATOM      5  C   UNL     1      17.104   3.386  31.837  1.00  0.00     0.001 A 
ATOM      6  C   UNL     1      16.243   2.343  32.176  1.00  0.00     0.004 A 
ENDROOT
BRANCH   1   7
ATOM      7  C   UNL     1      18.795   2.060  28.737  1.00  0.00     0.075 C 
ATOM      8  O   UNL     1      19.984   2.473  28.775  1.00  0.00    -0.545 OA
ATOM      9  O   UNL     1      18.314   1.497  27.560  1.00  0.00    -0.545 OA
ENDBRANCH   1   7
BRANCH   2  10
ATOM     10  O   UNL     1      17.087  -0.203  29.655  1.00  0.00    -0.507 OA
ATOM     11  H   UNL     1      17.460  -0.336  28.725  1.00  0.00     0.293 HD
ENDBRANCH   2  10
TORSDOF 2
ENDMDL
MODEL 3
REMARK VINA RESULT:    -4.385      1.369      1.994
REMARK INTER + INTRA:          -5.009
REMARK INTER:                  -4.764
REMARK INTRA:                  -0.245
REMARK UNBOUND:                -0.239
REMARK SMILES O=C([O-])c1ccccc1O
REMARK SMILES IDX 4 1 9 2 5 3 8 4 6 5 7 6 2 7 1 8 3 9 10 10
REMARK H PARENT 10 11
REMARK Flexibility Score: inf
ROOT
ATOM      1  C   UNL     1      18.135   2.722  30.561  1.00  0.00     0.039 A 
ATOM      2  C   UNL     1      17.321   3.200  31.622  1.00  0.00     0.124 A 
ATOM      3  C   UNL     1      17.841   1.471  29.988  1.00  0.00     0.014 A 
ATOM      4  C   UNL     1      16.287   2.395  32.117  1.00  0.00     0.047 A 
ATOM      5  C   UNL     1      16.792   0.690  30.482  1.00  0.00     0.001 A 
ATOM      6  C   UNL     1      16.023   1.148  31.551  1.00  0.00     0.004 A 
ENDROOT
BRANCH   1   7
ATOM      7  C   UNL     1      19.305   3.469  30.049  1.00  0.00     0.075 C 
ATOM      8  O   UNL     1      19.206   4.682  29.724  1.00  0.00    -0.545 OA
ATOM      9  O   UNL     1      20.550   2.854  29.987  1.00  0.00    -0.545 OA
ENDBRANCH   1   7
BRANCH   2  10
ATOM     10  O   UNL     1      17.481   4.468  32.184  1.00  0.00    -0.507 OA
ATOM     11  H   UNL     1      17.990   5.218  31.736  1.00  0.00     0.293 HD
ENDBRANCH   2  10
TORSDOF 2
ENDMDL
MODEL 4
REMARK VINA RESULT:    -4.371     12.668     13.497
REMARK INTER + INTRA:          -4.994
REMARK INTER:                  -4.746
REMARK INTRA:                  -0.247
REMARK UNBOUND:                -0.239
REMARK SMILES O=C([O-])c1ccccc1O
REMARK SMILES IDX 4 1 9 2 5 3 8 4 6 5 7 6 2 7 1 8 3 9 10 10
REMARK H PARENT 10 11
REMARK Flexibility Score: inf
ROOT
ATOM      1  C   UNL     1      14.724  13.369  24.419  1.00  0.00     0.039 A 
ATOM      2  C   UNL     1      15.443  12.971  25.577  1.00  0.00     0.124 A 
ATOM      3  C   UNL     1      15.428  13.947  23.346  1.00  0.00     0.014 A 
ATOM      4  C   UNL     1      16.819  13.218  25.656  1.00  0.00     0.047 A 
ATOM      5  C   UNL     1      16.805  14.167  23.434  1.00  0.00     0.001 A 
ATOM      6  C   UNL     1      17.497  13.812  24.591  1.00  0.00     0.004 A 
ENDROOT
BRANCH   1   7
ATOM      7  C   UNL     1      13.256  13.231  24.300  1.00  0.00     0.075 C 
ATOM      8  O   UNL     1      12.682  12.147  24.585  1.00  0.00    -0.545 OA
ATOM      9  O   UNL     1      12.481  14.328  23.937  1.00  0.00    -0.545 OA
ENDBRANCH   1   7
BRANCH   2  10
ATOM     10  O   UNL     1      14.842  12.304  26.646  1.00  0.00    -0.507 OA
ATOM     11  H   UNL     1      13.848  12.130  26.709  1.00  0.00     0.293 HD
ENDBRANCH   2  10
TORSDOF 2
ENDMDL
MODEL 5
REMARK VINA RESULT:    -4.241      8.594      9.625
REMARK INTER + INTRA:          -4.852
REMARK INTER:                  -4.643
REMARK INTRA:                  -0.209
REMARK UNBOUND:                -0.239
REMARK SMILES O=C([O-])c1ccccc1O
REMARK SMILES IDX 4 1 9 2 5 3 8 4 6 5 7 6 2 7 1 8 3 9 10 10
REMARK H PARENT 10 11
REMARK Flexibility Score: inf
ROOT
ATOM      1  C   UNL     1      14.427   3.196  22.130  1.00  0.00     0.039 A 
ATOM      2  C   UNL     1      13.279   2.568  22.680  1.00  0.00     0.124 A 
ATOM      3  C   UNL     1      14.255   4.301  21.276  1.00  0.00     0.014 A 
ATOM      4  C   UNL     1      12.003   3.017  22.315  1.00  0.00     0.047 A 
ATOM      5  C   UNL     1      12.975   4.748  20.938  1.00  0.00     0.001 A 
ATOM      6  C   UNL     1      11.851   4.100  21.450  1.00  0.00     0.004 A 
ENDROOT
BRANCH   1   7
ATOM      7  C   UNL     1      15.804   2.719  22.390  1.00  0.00     0.075 C 
ATOM      8  O   UNL     1      16.143   1.538  22.112  1.00  0.00    -0.545 OA
ATOM      9  O   UNL     1      16.763   3.597  22.883  1.00  0.00    -0.545 OA
ENDBRANCH   1   7
BRANCH   2  10
ATOM     10  O   UNL     1      13.359   1.529  23.610  1.00  0.00    -0.507 OA
ATOM     11  H   UNL     1      13.595   0.577  23.366  1.00  0.00     0.293 HD
ENDBRANCH   2  10
TORSDOF 2
ENDMDL
MODEL 6
REMARK VINA RESULT:    -4.191      2.531      3.809
REMARK INTER + INTRA:          -4.797
REMARK INTER:                  -4.549
REMARK INTRA:                  -0.248
REMARK UNBOUND:                -0.239
REMARK SMILES O=C([O-])c1ccccc1O
REMARK SMILES IDX 4 1 9 2 5 3 8 4 6 5 7 6 2 7 1 8 3 9 10 10
REMARK H PARENT 10 11
REMARK Flexibility Score: inf
ROOT
ATOM      1  C   UNL     1      17.421   3.420  30.241  1.00  0.00     0.039 A 
ATOM      2  C   UNL     1      17.435   4.799  29.906  1.00  0.00     0.124 A 
ATOM      3  C   UNL     1      17.665   2.471  29.230  1.00  0.00     0.014 A 
ATOM      4  C   UNL     1      17.629   5.185  28.573  1.00  0.00     0.047 A 
ATOM      5  C   UNL     1      17.877   2.876  27.910  1.00  0.00     0.001 A 
ATOM      6  C   UNL     1      17.848   4.230  27.581  1.00  0.00     0.004 A 
ENDROOT
BRANCH   1   7
ATOM      7  C   UNL     1      17.127   2.929  31.606  1.00  0.00     0.075 C 
ATOM      8  O   UNL     1      17.689   3.439  32.611  1.00  0.00    -0.545 OA
ATOM      9  O   UNL     1      16.169   1.941  31.799  1.00  0.00    -0.545 OA
ENDBRANCH   1   7
BRANCH   2  10
ATOM     10  O   UNL     1      17.298   5.809  30.860  1.00  0.00    -0.507 OA
ATOM     11  H   UNL     1      16.491   6.414  30.922  1.00  0.00     0.293 HD
ENDBRANCH   2  10
TORSDOF 2
ENDMDL
MODEL 7
REMARK VINA RESULT:    -4.190     12.147     13.070
REMARK INTER + INTRA:          -4.796
REMARK INTER:                  -4.629
REMARK INTRA:                  -0.167
REMARK UNBOUND:                -0.239
REMARK SMILES O=C([O-])c1ccccc1O
REMARK SMILES IDX 4 1 9 2 5 3 8 4 6 5 7 6 2 7 1 8 3 9 10 10
REMARK H PARENT 10 11
REMARK Flexibility Score: inf
ROOT
ATOM      1  C   UNL     1      17.123  13.523  25.013  1.00  0.00     0.039 A 
ATOM      2  C   UNL     1      15.803  13.124  25.346  1.00  0.00     0.124 A 
ATOM      3  C   UNL     1      17.354  14.144  23.771  1.00  0.00     0.014 A 
ATOM      4  C   UNL     1      14.771  13.297  24.414  1.00  0.00     0.047 A 
ATOM      5  C   UNL     1      16.309  14.327  22.862  1.00  0.00     0.001 A 
ATOM      6  C   UNL     1      15.022  13.895  23.180  1.00  0.00     0.004 A 
ENDROOT
BRANCH   1   7
ATOM      7  C   UNL     1      18.282  13.285  25.903  1.00  0.00     0.075 C 
ATOM      8  O   UNL     1      18.900  14.248  26.430  1.00  0.00    -0.545 OA
ATOM      9  O   UNL     1      18.658  11.986  26.223  1.00  0.00    -0.545 OA
ENDBRANCH   1   7
BRANCH   2  10
ATOM     10  O   UNL     1      15.467  12.589  26.592  1.00  0.00    -0.507 OA
ATOM     11  H   UNL     1      15.236  11.616  26.739  1.00  0.00     0.293 HD
ENDBRANCH   2  10
TORSDOF 2
ENDMDL
MODEL 8
REMARK VINA RESULT:    -4.189      2.243      3.881
REMARK INTER + INTRA:          -4.795
REMARK INTER:                  -4.547
REMARK INTRA:                  -0.248
REMARK UNBOUND:                -0.239
REMARK SMILES O=C([O-])c1ccccc1O
REMARK SMILES IDX 4 1 9 2 5 3 8 4 6 5 7 6 2 7 1 8 3 9 10 10
REMARK H PARENT 10 11
REMARK Flexibility Score: inf
ROOT
ATOM      1  C   UNL     1      17.727   2.158  30.382  1.00  0.00     0.039 A 
ATOM      2  C   UNL     1      17.065   0.907  30.499  1.00  0.00     0.124 A 
ATOM      3  C   UNL     1      18.817   2.271  29.500  1.00  0.00     0.014 A 
ATOM      4  C   UNL     1      17.545  -0.199  29.785  1.00  0.00     0.047 A 
ATOM      5  C   UNL     1      19.269   1.162  28.780  1.00  0.00     0.001 A 
ATOM      6  C   UNL     1      18.640  -0.073  28.931  1.00  0.00     0.004 A 
ENDROOT
BRANCH   1   7
ATOM      7  C   UNL     1      17.342   3.346  31.175  1.00  0.00     0.075 C 
ATOM      8  O   UNL     1      17.045   3.241  32.395  1.00  0.00    -0.545 OA
ATOM      9  O   UNL     1      17.371   4.609  30.595  1.00  0.00    -0.545 OA
ENDBRANCH   1   7
BRANCH   2  10
ATOM     10  O   UNL     1      15.919   0.730  31.276  1.00  0.00    -0.507 OA
ATOM     11  H   UNL     1      15.640   1.362  32.014  1.00  0.00     0.293 HD
ENDBRANCH   2  10
TORSDOF 2
ENDMDL
MODEL 9
REMARK VINA RESULT:    -4.145      2.165      3.950
REMARK INTER + INTRA:          -4.748
REMARK INTER:                  -4.502
REMARK INTRA:                  -0.246
REMARK UNBOUND:                -0.239
REMARK SMILES O=C([O-])c1ccccc1O
REMARK SMILES IDX 4 1 9 2 5 3 8 4 6 5 7 6 2 7 1 8 3 9 10 10
REMARK H PARENT 10 11
REMARK Flexibility Score: inf
ROOT
ATOM      1  C   UNL     1      17.395   2.520  30.241  1.00  0.00     0.039 A 
ATOM      2  C   UNL     1      17.739   1.288  29.625  1.00  0.00     0.124 A 
ATOM      3  C   UNL     1      17.544   3.712  29.509  1.00  0.00     0.014 A 
ATOM      4  C   UNL     1      18.277   1.288  28.332  1.00  0.00     0.047 A 
ATOM      5  C   UNL     1      18.063   3.691  28.211  1.00  0.00     0.001 A 
ATOM      6  C   UNL     1      18.439   2.481  27.628  1.00  0.00     0.004 A 
ENDROOT
BRANCH   1   7
ATOM      7  C   UNL     1      16.912   2.611  31.637  1.00  0.00     0.075 C 
ATOM      8  O   UNL     1      15.977   1.874  32.048  1.00  0.00    -0.545 OA
ATOM      9  O   UNL     1      17.539   3.468  32.535  1.00  0.00    -0.545 OA
ENDBRANCH   1   7
BRANCH   2  10
ATOM     10  O   UNL     1      17.533   0.052  30.241  1.00  0.00    -0.507 OA
ATOM     11  H   UNL     1      16.635  -0.409  30.282  1.00  0.00     0.293 HD
ENDBRANCH   2  10
TORSDOF 2
ENDMDL
