MODEL 1
REMARK VINA RESULT:    -4.557      0.000      0.000
REMARK INTER + INTRA:          -7.658
REMARK INTER:                  -6.955
REMARK INTRA:                  -0.703
REMARK UNBOUND:                -0.703
REMARK SMILES O=C([O-])CCCCCCCCC(=O)[O-]
REMARK SMILES IDX 7 1 6 2 5 3 4 4 2 5 1 6 3 7 8 8 9 9 10 10 11 11 12 12 13 13
REMARK SMILES IDX 14 14
REMARK H PARENT
REMARK Flexibility Score: inf
ROOT
ATOM      1  C   UNL     1       5.927 -12.472  -4.175  1.00  0.00     0.000 C 
ENDROOT
BRANCH   1   2
ATOM      2  C   UNL     1       7.204 -13.315  -4.037  1.00  0.00     0.000 C 
BRANCH   2   3
ATOM      3  C   UNL     1       7.484 -13.733  -2.585  1.00  0.00     0.006 C 
BRANCH   3   4
ATOM      4  C   UNL     1       6.866 -12.770  -1.563  1.00  0.00     0.053 C 
BRANCH   4   5
ATOM      5  C   UNL     1       7.936 -11.994  -0.864  1.00  0.00     0.041 C 
ATOM      6  O   UNL     1       8.769 -12.584  -0.126  1.00  0.00    -0.550 OA
ATOM      7  O   UNL     1       7.984 -10.611  -0.987  1.00  0.00    -0.550 OA
ENDBRANCH   4   5
ENDBRANCH   3   4
ENDBRANCH   2   3
ENDBRANCH   1   2
BRANCH   1   8
ATOM      8  C   UNL     1       5.085 -12.943  -5.370  1.00  0.00     0.000 C 
BRANCH   8   9
ATOM      9  C   UNL     1       3.741 -13.566  -4.949  1.00  0.00     0.000 C 
BRANCH   9  10
ATOM     10  C   UNL     1       3.509 -13.652  -3.426  1.00  0.00     0.006 C 
BRANCH  10  11
ATOM     11  C   UNL     1       2.866 -14.966  -2.953  1.00  0.00     0.053 C 
BRANCH  11  12
ATOM     12  C   UNL     1       3.006 -15.159  -1.475  1.00  0.00     0.041 C 
ATOM     13  O   UNL     1       3.709 -14.363  -0.796  1.00  0.00    -0.550 OA
ATOM     14  O   UNL     1       2.389 -16.235  -0.851  1.00  0.00    -0.550 OA
ENDBRANCH  11  12
ENDBRANCH  10  11
ENDBRANCH   9  10
ENDBRANCH   8   9
ENDBRANCH   1   8
TORSDOF 9
ENDMDL
MODEL 2
REMARK VINA RESULT:    -4.470      3.247      6.071
REMARK INTER + INTRA:          -7.524
REMARK INTER:                  -7.153
REMARK INTRA:                  -0.371
REMARK UNBOUND:                -0.703
REMARK SMILES O=C([O-])CCCCCCCCC(=O)[O-]
REMARK SMILES IDX 7 1 6 2 5 3 4 4 2 5 1 6 3 7 8 8 9 9 10 10 11 11 12 12 13 13
REMARK SMILES IDX 14 14
REMARK H PARENT
REMARK Flexibility Score: inf
ROOT
ATOM      1  C   UNL     1       5.980 -12.405  -4.210  1.00  0.00     0.000 C 
ENDROOT
BRANCH   1   2
ATOM      2  C   UNL     1       4.831 -12.968  -5.059  1.00  0.00     0.000 C 
BRANCH   2   3
ATOM      3  C   UNL     1       4.068 -11.874  -5.824  1.00  0.00     0.006 C 
BRANCH   3   4
ATOM      4  C   UNL     1       5.004 -10.875  -6.517  1.00  0.00     0.053 C 
BRANCH   4   5
ATOM      5  C   UNL     1       4.251  -9.644  -6.912  1.00  0.00     0.041 C 
ATOM      6  O   UNL     1       3.789  -8.873  -6.031  1.00  0.00    -0.550 OA
ATOM      7  O   UNL     1       4.017  -9.374  -8.255  1.00  0.00    -0.550 OA
ENDBRANCH   4   5
ENDBRANCH   3   4
ENDBRANCH   2   3
ENDBRANCH   1   2
BRANCH   1   8
ATOM      8  C   UNL     1       7.161 -13.387  -4.164  1.00  0.00     0.000 C 
BRANCH   8   9
ATOM      9  C   UNL     1       7.627 -13.699  -2.731  1.00  0.00     0.000 C 
BRANCH   9  10
ATOM     10  C   UNL     1       7.194 -12.671  -1.664  1.00  0.00     0.006 C 
BRANCH  10  11
ATOM     11  C   UNL     1       8.204 -12.475  -0.522  1.00  0.00     0.053 C 
BRANCH  11  12
ATOM     12  C   UNL     1       8.522 -11.028  -0.297  1.00  0.00     0.041 C 
ATOM     13  O   UNL     1       7.851 -10.135  -0.879  1.00  0.00    -0.550 OA
ATOM     14  O   UNL     1       9.578 -10.668   0.529  1.00  0.00    -0.550 OA
ENDBRANCH  11  12
ENDBRANCH  10  11
ENDBRANCH   9  10
ENDBRANCH   8   9
ENDBRANCH   1   8
TORSDOF 9
ENDMDL
MODEL 3
REMARK VINA RESULT:    -4.463      3.358      5.837
REMARK INTER + INTRA:          -7.514
REMARK INTER:                  -7.071
REMARK INTRA:                  -0.443
REMARK UNBOUND:                -0.703
REMARK SMILES O=C([O-])CCCCCCCCC(=O)[O-]
REMARK SMILES IDX 7 1 6 2 5 3 4 4 2 5 1 6 3 7 8 8 9 9 10 10 11 11 12 12 13 13
REMARK SMILES IDX 14 14
REMARK H PARENT
REMARK Flexibility Score: inf
ROOT
ATOM      1  C   UNL     1       5.027 -13.010  -5.193  1.00  0.00     0.000 C 
ENDROOT
BRANCH   1   2
ATOM      2  C   UNL     1       4.103 -11.975  -5.852  1.00  0.00     0.000 C 
BRANCH   2   3
ATOM      3  C   UNL     1       4.711 -10.563  -5.866  1.00  0.00     0.006 C 
BRANCH   3   4
ATOM      4  C   UNL     1       4.417  -9.806  -7.168  1.00  0.00     0.053 C 
BRANCH   4   5
ATOM      5  C   UNL     1       4.612  -8.336  -6.971  1.00  0.00     0.041 C 
ATOM      6  O   UNL     1       3.828  -7.686  -6.230  1.00  0.00    -0.550 OA
ATOM      7  O   UNL     1       5.630  -7.673  -7.646  1.00  0.00    -0.550 OA
ENDBRANCH   4   5
ENDBRANCH   3   4
ENDBRANCH   2   3
ENDBRANCH   1   2
BRANCH   1   8
ATOM      8  C   UNL     1       6.053 -12.326  -4.277  1.00  0.00     0.000 C 
BRANCH   8   9
ATOM      9  C   UNL     1       7.295 -13.196  -4.012  1.00  0.00     0.000 C 
BRANCH   9  10
ATOM     10  C   UNL     1       7.429 -13.724  -2.568  1.00  0.00     0.006 C 
BRANCH  10  11
ATOM     11  C   UNL     1       6.862 -12.786  -1.491  1.00  0.00     0.053 C 
BRANCH  11  12
ATOM     12  C   UNL     1       7.913 -11.882  -0.925  1.00  0.00     0.041 C 
ATOM     13  O   UNL     1       7.971 -10.675  -1.281  1.00  0.00    -0.550 OA
ATOM     14  O   UNL     1       8.850 -12.380  -0.028  1.00  0.00    -0.550 OA
ENDBRANCH  11  12
ENDBRANCH  10  11
ENDBRANCH   9  10
ENDBRANCH   8   9
ENDBRANCH   1   8
TORSDOF 9
ENDMDL
MODEL 4
REMARK VINA RESULT:    -4.444      2.684      3.963
REMARK INTER + INTRA:          -7.485
REMARK INTER:                  -6.746
REMARK INTRA:                  -0.740
REMARK UNBOUND:                -0.703
REMARK SMILES O=C([O-])CCCCCCCCC(=O)[O-]
REMARK SMILES IDX 7 1 6 2 5 3 4 4 2 5 1 6 3 7 8 8 9 9 10 10 11 11 12 12 13 13
REMARK SMILES IDX 14 14
REMARK H PARENT
REMARK Flexibility Score: inf
ROOT
ATOM      1  C   UNL     1       7.222 -12.957  -1.265  1.00  0.00     0.000 C 
ENDROOT
BRANCH   1   2
ATOM      2  C   UNL     1       8.476 -12.537  -0.485  1.00  0.00     0.000 C 
BRANCH   2   3
ATOM      3  C   UNL     1       8.627 -11.011  -0.382  1.00  0.00     0.006 C 
BRANCH   3   4
ATOM      4  C   UNL     1       7.734 -10.260  -1.378  1.00  0.00     0.053 C 
BRANCH   4   5
ATOM      5  C   UNL     1       6.893  -9.249  -0.666  1.00  0.00     0.041 C 
ATOM      6  O   UNL     1       6.298  -8.349  -1.314  1.00  0.00    -0.550 OA
ATOM      7  O   UNL     1       6.805  -9.272   0.721  1.00  0.00    -0.550 OA
ENDBRANCH   4   5
ENDBRANCH   3   4
ENDBRANCH   2   3
ENDBRANCH   1   2
BRANCH   1   8
ATOM      8  C   UNL     1       7.599 -13.728  -2.539  1.00  0.00     0.000 C 
BRANCH   8   9
ATOM      9  C   UNL     1       7.323 -12.931  -3.827  1.00  0.00     0.000 C 
BRANCH   9  10
ATOM     10  C   UNL     1       5.994 -13.270  -4.534  1.00  0.00     0.006 C 
BRANCH  10  11
ATOM     11  C   UNL     1       4.735 -12.886  -3.742  1.00  0.00     0.053 C 
BRANCH  11  12
ATOM     12  C   UNL     1       4.626 -11.405  -3.545  1.00  0.00     0.041 C 
ATOM     13  O   UNL     1       4.276 -10.939  -2.428  1.00  0.00    -0.550 OA
ATOM     14  O   UNL     1       4.878 -10.541  -4.602  1.00  0.00    -0.550 OA
ENDBRANCH  11  12
ENDBRANCH  10  11
ENDBRANCH   9  10
ENDBRANCH   8   9
ENDBRANCH   1   8
TORSDOF 9
ENDMDL
MODEL 5
REMARK VINA RESULT:    -4.436      3.154      4.680
REMARK INTER + INTRA:          -7.472
REMARK INTER:                  -7.069
REMARK INTRA:                  -0.403
REMARK UNBOUND:                -0.703
REMARK SMILES O=C([O-])CCCCCCCCC(=O)[O-]
REMARK SMILES IDX 7 1 6 2 5 3 4 4 2 5 1 6 3 7 8 8 9 9 10 10 11 11 12 12 13 13
REMARK SMILES IDX 14 14
REMARK H PARENT
REMARK Flexibility Score: inf
ROOT
ATOM      1  C   UNL     1       6.571 -12.689  -4.373  1.00  0.00     0.000 C 
ENDROOT
BRANCH   1   2
ATOM      2  C   UNL     1       7.247 -13.409  -3.197  1.00  0.00     0.000 C 
BRANCH   2   3
ATOM      3  C   UNL     1       6.847 -12.823  -1.833  1.00  0.00     0.006 C 
BRANCH   3   4
ATOM      4  C   UNL     1       8.033 -12.706  -0.868  1.00  0.00     0.053 C 
BRANCH   4   5
ATOM      5  C   UNL     1       8.362 -11.268  -0.617  1.00  0.00     0.041 C 
ATOM      6  O   UNL     1       9.196 -10.954   0.272  1.00  0.00    -0.550 OA
ATOM      7  O   UNL     1       7.709 -10.271  -1.332  1.00  0.00    -0.550 OA
ENDBRANCH   4   5
ENDBRANCH   3   4
ENDBRANCH   2   3
ENDBRANCH   1   2
BRANCH   1   8
ATOM      8  C   UNL     1       5.178 -13.275  -4.647  1.00  0.00     0.000 C 
BRANCH   8   9
ATOM      9  C   UNL     1       4.274 -12.324  -5.452  1.00  0.00     0.000 C 
BRANCH   9  10
ATOM     10  C   UNL     1       5.016 -11.215  -6.228  1.00  0.00     0.006 C 
BRANCH  10  11
ATOM     11  C   UNL     1       4.108 -10.104  -6.776  1.00  0.00     0.053 C 
BRANCH  11  12
ATOM     12  C   UNL     1       4.619  -8.739  -6.428  1.00  0.00     0.041 C 
ATOM     13  O   UNL     1       5.354  -8.113  -7.237  1.00  0.00    -0.550 OA
ATOM     14  O   UNL     1       4.311  -8.173  -5.198  1.00  0.00    -0.550 OA
ENDBRANCH  11  12
ENDBRANCH  10  11
ENDBRANCH   9  10
ENDBRANCH   8   9
ENDBRANCH   1   8
TORSDOF 9
ENDMDL
MODEL 6
REMARK VINA RESULT:    -4.434      2.603      5.924
REMARK INTER + INTRA:          -7.470
REMARK INTER:                  -6.835
REMARK INTRA:                  -0.635
REMARK UNBOUND:                -0.703
REMARK SMILES O=C([O-])CCCCCCCCC(=O)[O-]
REMARK SMILES IDX 7 1 6 2 5 3 4 4 2 5 1 6 3 7 8 8 9 9 10 10 11 11 12 12 13 13
REMARK SMILES IDX 14 14
REMARK H PARENT
REMARK Flexibility Score: inf
ROOT
ATOM      1  C   UNL     1       7.409 -12.972  -1.246  1.00  0.00     0.000 C 
ENDROOT
BRANCH   1   2
ATOM      2  C   UNL     1       7.828 -13.854  -2.432  1.00  0.00     0.000 C 
BRANCH   2   3
ATOM      3  C   UNL     1       7.300 -13.330  -3.776  1.00  0.00     0.006 C 
BRANCH   3   4
ATOM      4  C   UNL     1       6.049 -12.455  -3.620  1.00  0.00     0.053 C 
BRANCH   4   5
ATOM      5  C   UNL     1       4.831 -13.205  -4.057  1.00  0.00     0.041 C 
ATOM      6  O   UNL     1       4.135 -13.832  -3.216  1.00  0.00    -0.550 OA
ATOM      7  O   UNL     1       4.490 -13.251  -5.404  1.00  0.00    -0.550 OA
ENDBRANCH   4   5
ENDBRANCH   3   4
ENDBRANCH   2   3
ENDBRANCH   1   2
BRANCH   1   8
ATOM      8  C   UNL     1       8.627 -12.582  -0.394  1.00  0.00     0.000 C 
BRANCH   8   9
ATOM      9  C   UNL     1       8.731 -11.066  -0.153  1.00  0.00     0.000 C 
BRANCH   9  10
ATOM     10  C   UNL     1       7.636 -10.218  -0.836  1.00  0.00     0.006 C 
BRANCH  10  11
ATOM     11  C   UNL     1       7.292  -8.912  -0.103  1.00  0.00     0.053 C 
BRANCH  11  12
ATOM     12  C   UNL     1       6.184  -8.165  -0.778  1.00  0.00     0.041 C 
ATOM     13  O   UNL     1       5.636  -7.187  -0.202  1.00  0.00    -0.550 OA
ATOM     14  O   UNL     1       5.733  -8.567  -2.028  1.00  0.00    -0.550 OA
ENDBRANCH  11  12
ENDBRANCH  10  11
ENDBRANCH   9  10
ENDBRANCH   8   9
ENDBRANCH   1   8
TORSDOF 9
ENDMDL
MODEL 7
REMARK VINA RESULT:    -4.410      3.385      5.071
REMARK INTER + INTRA:          -7.434
REMARK INTER:                  -7.048
REMARK INTRA:                  -0.386
REMARK UNBOUND:                -0.703
REMARK SMILES O=C([O-])CCCCCCCCC(=O)[O-]
REMARK SMILES IDX 7 1 6 2 5 3 4 4 2 5 1 6 3 7 8 8 9 9 10 10 11 11 12 12 13 13
REMARK SMILES IDX 14 14
REMARK H PARENT
REMARK Flexibility Score: inf
ROOT
ATOM      1  C   UNL     1       5.343 -13.348  -4.039  1.00  0.00     0.000 C 
ENDROOT
BRANCH   1   2
ATOM      2  C   UNL     1       6.868 -13.374  -4.218  1.00  0.00     0.000 C 
BRANCH   2   3
ATOM      3  C   UNL     1       7.620 -13.483  -2.882  1.00  0.00     0.006 C 
BRANCH   3   4
ATOM      4  C   UNL     1       6.904 -12.751  -1.740  1.00  0.00     0.053 C 
BRANCH   4   5
ATOM      5  C   UNL     1       7.898 -12.057  -0.862  1.00  0.00     0.041 C 
ATOM      6  O   UNL     1       8.706 -12.726  -0.167  1.00  0.00    -0.550 OA
ATOM      7  O   UNL     1       7.899 -10.670  -0.775  1.00  0.00    -0.550 OA
ENDBRANCH   4   5
ENDBRANCH   3   4
ENDBRANCH   2   3
ENDBRANCH   1   2
BRANCH   1   8
ATOM      8  C   UNL     1       4.641 -12.985  -5.357  1.00  0.00     0.000 C 
BRANCH   8   9
ATOM      9  C   UNL     1       4.320 -11.484  -5.473  1.00  0.00     0.000 C 
BRANCH   9  10
ATOM     10  C   UNL     1       5.023 -10.753  -6.636  1.00  0.00     0.006 C 
BRANCH  10  11
ATOM     11  C   UNL     1       4.160  -9.691  -7.335  1.00  0.00     0.053 C 
BRANCH  11  12
ATOM     12  C   UNL     1       4.683  -8.305  -7.109  1.00  0.00     0.041 C 
ATOM     13  O   UNL     1       5.109  -7.623  -8.079  1.00  0.00    -0.550 OA
ATOM     14  O   UNL     1       4.730  -7.780  -5.825  1.00  0.00    -0.550 OA
ENDBRANCH  11  12
ENDBRANCH  10  11
ENDBRANCH   9  10
ENDBRANCH   8   9
ENDBRANCH   1   8
TORSDOF 9
ENDMDL
MODEL 8
REMARK VINA RESULT:    -4.386      1.361      5.401
REMARK INTER + INTRA:          -7.397
REMARK INTER:                  -6.898
REMARK INTRA:                  -0.498
REMARK UNBOUND:                -0.703
REMARK SMILES O=C([O-])CCCCCCCCC(=O)[O-]
REMARK SMILES IDX 7 1 6 2 5 3 4 4 2 5 1 6 3 7 8 8 9 9 10 10 11 11 12 12 13 13
REMARK SMILES IDX 14 14
REMARK H PARENT
REMARK Flexibility Score: inf
ROOT
ATOM      1  C   UNL     1       7.223 -12.760  -3.552  1.00  0.00     0.000 C 
ENDROOT
BRANCH   1   2
ATOM      2  C   UNL     1       5.910 -13.199  -4.216  1.00  0.00     0.000 C 
BRANCH   2   3
ATOM      3  C   UNL     1       4.673 -12.844  -3.375  1.00  0.00     0.006 C 
BRANCH   3   4
ATOM      4  C   UNL     1       3.773 -14.056  -3.107  1.00  0.00     0.053 C 
BRANCH   4   5
ATOM      5  C   UNL     1       3.696 -14.334  -1.639  1.00  0.00     0.041 C 
ATOM      6  O   UNL     1       3.223 -15.424  -1.223  1.00  0.00    -0.550 OA
ATOM      7  O   UNL     1       4.101 -13.366  -0.727  1.00  0.00    -0.550 OA
ENDBRANCH   4   5
ENDBRANCH   3   4
ENDBRANCH   2   3
ENDBRANCH   1   2
BRANCH   1   8
ATOM      8  C   UNL     1       7.582 -13.685  -2.379  1.00  0.00     0.000 C 
BRANCH   8   9
ATOM      9  C   UNL     1       7.506 -12.979  -1.013  1.00  0.00     0.000 C 
BRANCH   9  10
ATOM     10  C   UNL     1       8.819 -12.317  -0.545  1.00  0.00     0.006 C 
BRANCH  10  11
ATOM     11  C   UNL     1       8.627 -11.063   0.323  1.00  0.00     0.053 C 
BRANCH  11  12
ATOM     12  C   UNL     1       7.650 -10.105  -0.285  1.00  0.00     0.041 C 
ATOM     13  O   UNL     1       7.694  -9.853  -1.519  1.00  0.00    -0.550 OA
ATOM     14  O   UNL     1       6.712  -9.465   0.515  1.00  0.00    -0.550 OA
ENDBRANCH  11  12
ENDBRANCH  10  11
ENDBRANCH   9  10
ENDBRANCH   8   9
ENDBRANCH   1   8
TORSDOF 9
ENDMDL
MODEL 9
REMARK VINA RESULT:    -4.309      3.063      4.103
REMARK INTER + INTRA:          -7.279
REMARK INTER:                  -6.621
REMARK INTRA:                  -0.659
REMARK UNBOUND:                -0.703
REMARK SMILES O=C([O-])CCCCCCCCC(=O)[O-]
REMARK SMILES IDX 7 1 6 2 5 3 4 4 2 5 1 6 3 7 8 8 9 9 10 10 11 11 12 12 13 13
REMARK SMILES IDX 14 14
REMARK H PARENT
REMARK Flexibility Score: inf
ROOT
ATOM      1  C   UNL     1       5.949 -12.849  -2.211  1.00  0.00     0.000 C 
ENDROOT
BRANCH   1   2
ATOM      2  C   UNL     1       6.045 -11.318  -2.131  1.00  0.00     0.000 C 
BRANCH   2   3
ATOM      3  C   UNL     1       7.495 -10.820  -2.022  1.00  0.00     0.006 C 
BRANCH   3   4
ATOM      4  C   UNL     1       7.845 -10.323  -0.614  1.00  0.00     0.053 C 
BRANCH   4   5
ATOM      5  C   UNL     1       8.880 -11.207   0.008  1.00  0.00     0.041 C 
ATOM      6  O   UNL     1       9.851 -10.704   0.633  1.00  0.00    -0.550 OA
ATOM      7  O   UNL     1       8.799 -12.586  -0.145  1.00  0.00    -0.550 OA
ENDBRANCH   4   5
ENDBRANCH   3   4
ENDBRANCH   2   3
ENDBRANCH   1   2
BRANCH   1   8
ATOM      8  C   UNL     1       6.783 -13.391  -3.381  1.00  0.00     0.000 C 
BRANCH   8   9
ATOM      9  C   UNL     1       6.410 -12.752  -4.731  1.00  0.00     0.000 C 
BRANCH   9  10
ATOM     10  C   UNL     1       5.002 -13.103  -5.255  1.00  0.00     0.006 C 
BRANCH  10  11
ATOM     11  C   UNL     1       3.983 -11.956  -5.165  1.00  0.00     0.053 C 
BRANCH  11  12
ATOM     12  C   UNL     1       4.537 -10.671  -5.699  1.00  0.00     0.041 C 
ATOM     13  O   UNL     1       4.536  -9.635  -4.983  1.00  0.00    -0.550 OA
ATOM     14  O   UNL     1       5.024 -10.609  -6.998  1.00  0.00    -0.550 OA
ENDBRANCH  11  12
ENDBRANCH  10  11
ENDBRANCH   9  10
ENDBRANCH   8   9
ENDBRANCH   1   8
TORSDOF 9
ENDMDL
