MODEL 1
REMARK VINA RESULT:    -4.209      0.000      0.000
REMARK INTER + INTRA:          -4.455
REMARK INTER:                  -4.455
REMARK INTRA:                   0.000
REMARK UNBOUND:                 0.000
REMARK SMILES Cc1cc(O)c(C)c(C)c1O
REMARK SMILES IDX 1 1 2 2 3 3 4 4 6 5 8 6 10 7 9 8 7 9 11 10 5 12
REMARK H PARENT 11 11 5 13
REMARK Flexibility Score: inf
ROOT
ATOM      1  C   UNL     1     -13.012  81.055 -12.709  1.00  0.00     0.048 C 
ATOM      2  C   UNL     1     -12.625  81.714 -11.411  1.00  0.00    -0.005 A 
ATOM      3  C   UNL     1     -11.473  81.285 -10.745  1.00  0.00     0.053 A 
ATOM      4  C   UNL     1     -11.083  81.859  -9.536  1.00  0.00     0.119 A 
ATOM      5  C   UNL     1     -11.866  82.880  -8.949  1.00  0.00    -0.003 A 
ATOM      6  C   UNL     1     -13.004  83.369  -9.648  1.00  0.00    -0.002 A 
ATOM      7  C   UNL     1     -13.393  82.765 -10.866  1.00  0.00     0.121 A 
ATOM      8  C   UNL     1     -13.821  84.515  -9.093  1.00  0.00     0.049 C 
ATOM      9  C   UNL     1     -11.457  83.446  -7.606  1.00  0.00     0.049 C 
ENDROOT
BRANCH   7  10
ATOM     10  O   UNL     1     -14.545  83.220 -11.517  1.00  0.00    -0.507 OA
ATOM     11  H   UNL     1     -15.190  83.886 -11.111  1.00  0.00     0.293 HD
ENDBRANCH   7  10
BRANCH   4  12
ATOM     12  O   UNL     1      -9.903  81.393  -8.949  1.00  0.00    -0.508 OA
ATOM     13  H   UNL     1      -9.245  80.785  -9.420  1.00  0.00     0.293 HD
ENDBRANCH   4  12
TORSDOF 2
ENDMDL
MODEL 2
REMARK VINA RESULT:    -3.975      1.842      3.311
REMARK INTER + INTRA:          -4.208
REMARK INTER:                  -4.208
REMARK INTRA:                   0.000
REMARK UNBOUND:                 0.000
REMARK SMILES Cc1cc(O)c(C)c(C)c1O
REMARK SMILES IDX 1 1 2 2 3 3 4 4 6 5 8 6 10 7 9 8 7 9 11 10 5 12
REMARK H PARENT 11 11 5 13
REMARK Flexibility Score: inf
ROOT
ATOM      1  C   UNL     1     -12.249  80.987 -11.537  1.00  0.00     0.048 C 
ATOM      2  C   UNL     1     -12.929  81.880 -10.535  1.00  0.00    -0.005 A 
ATOM      3  C   UNL     1     -13.402  83.131 -10.945  1.00  0.00     0.053 A 
ATOM      4  C   UNL     1     -14.029  83.995 -10.048  1.00  0.00     0.119 A 
ATOM      5  C   UNL     1     -14.177  83.625  -8.691  1.00  0.00    -0.003 A 
ATOM      6  C   UNL     1     -13.759  82.330  -8.276  1.00  0.00    -0.002 A 
ATOM      7  C   UNL     1     -13.113  81.473  -9.196  1.00  0.00     0.121 A 
ATOM      8  C   UNL     1     -13.975  81.866  -6.852  1.00  0.00     0.049 C 
ATOM      9  C   UNL     1     -14.806  84.604  -7.723  1.00  0.00     0.049 C 
ENDROOT
BRANCH   7  10
ATOM     10  O   UNL     1     -12.658  80.223  -8.760  1.00  0.00    -0.507 OA
ATOM     11  H   UNL     1     -13.139  79.663  -8.068  1.00  0.00     0.293 HD
ENDBRANCH   7  10
BRANCH   4  12
ATOM     12  O   UNL     1     -14.498  85.214 -10.545  1.00  0.00    -0.508 OA
ATOM     13  H   UNL     1     -15.377  85.632 -10.267  1.00  0.00     0.293 HD
ENDBRANCH   4  12
TORSDOF 2
ENDMDL
MODEL 3
REMARK VINA RESULT:    -3.844      6.127      7.689
REMARK INTER + INTRA:          -4.069
REMARK INTER:                  -4.069
REMARK INTRA:                   0.000
REMARK UNBOUND:                 0.000
REMARK SMILES Cc1cc(O)c(C)c(C)c1O
REMARK SMILES IDX 1 1 2 2 3 3 4 4 6 5 8 6 10 7 9 8 7 9 11 10 5 12
REMARK H PARENT 11 11 5 13
REMARK Flexibility Score: inf
ROOT
ATOM      1  C   UNL     1      -7.794  84.013  -9.796  1.00  0.00     0.048 C 
ATOM      2  C   UNL     1      -6.529  83.431  -9.223  1.00  0.00    -0.005 A 
ATOM      3  C   UNL     1      -5.508  83.031 -10.091  1.00  0.00     0.053 A 
ATOM      4  C   UNL     1      -4.324  82.479  -9.605  1.00  0.00     0.119 A 
ATOM      5  C   UNL     1      -4.145  82.292  -8.214  1.00  0.00    -0.003 A 
ATOM      6  C   UNL     1      -5.149  82.754  -7.319  1.00  0.00    -0.002 A 
ATOM      7  C   UNL     1      -6.349  83.299  -7.830  1.00  0.00     0.121 A 
ATOM      8  C   UNL     1      -4.959  82.647  -5.821  1.00  0.00     0.049 C 
ATOM      9  C   UNL     1      -2.878  81.634  -7.714  1.00  0.00     0.049 C 
ENDROOT
BRANCH   7  10
ATOM     10  O   UNL     1      -7.350  83.700  -6.938  1.00  0.00    -0.507 OA
ATOM     11  H   UNL     1      -7.931  83.053  -6.421  1.00  0.00     0.293 HD
ENDBRANCH   7  10
BRANCH   4  12
ATOM     12  O   UNL     1      -3.342  82.132 -10.537  1.00  0.00    -0.508 OA
ATOM     13  H   UNL     1      -3.462  81.408 -11.234  1.00  0.00     0.293 HD
ENDBRANCH   4  12
TORSDOF 2
ENDMDL
MODEL 4
REMARK VINA RESULT:    -3.832     11.918     12.211
REMARK INTER + INTRA:          -4.056
REMARK INTER:                  -4.056
REMARK INTRA:                   0.000
REMARK UNBOUND:                 0.000
REMARK SMILES Cc1cc(O)c(C)c(C)c1O
REMARK SMILES IDX 1 1 2 2 3 3 4 4 6 5 8 6 10 7 9 8 7 9 11 10 5 12
REMARK H PARENT 11 11 5 13
REMARK Flexibility Score: inf
ROOT
ATOM      1  C   UNL     1      -3.804  90.748 -16.517  1.00  0.00     0.048 C 
ATOM      2  C   UNL     1      -4.152  90.919 -15.062  1.00  0.00    -0.005 A 
ATOM      3  C   UNL     1      -3.676  92.039 -14.373  1.00  0.00     0.053 A 
ATOM      4  C   UNL     1      -3.965  92.232 -13.024  1.00  0.00     0.119 A 
ATOM      5  C   UNL     1      -4.734  91.277 -12.317  1.00  0.00    -0.003 A 
ATOM      6  C   UNL     1      -5.277  90.168 -13.022  1.00  0.00    -0.002 A 
ATOM      7  C   UNL     1      -4.962  89.981 -14.388  1.00  0.00     0.121 A 
ATOM      8  C   UNL     1      -6.172  89.168 -12.322  1.00  0.00     0.049 C 
ATOM      9  C   UNL     1      -4.983  91.477 -10.838  1.00  0.00     0.049 C 
ENDROOT
BRANCH   7  10
ATOM     10  O   UNL     1      -5.459  88.855 -15.055  1.00  0.00    -0.507 OA
ATOM     11  H   UNL     1      -5.883  88.067 -14.582  1.00  0.00     0.293 HD
ENDBRANCH   7  10
BRANCH   4  12
ATOM     12  O   UNL     1      -3.476  93.392 -12.417  1.00  0.00    -0.508 OA
ATOM     13  H   UNL     1      -2.495  93.638 -12.387  1.00  0.00     0.293 HD
ENDBRANCH   4  12
TORSDOF 2
ENDMDL
MODEL 5
REMARK VINA RESULT:    -3.831      7.776      9.094
REMARK INTER + INTRA:          -4.055
REMARK INTER:                  -4.055
REMARK INTRA:                   0.000
REMARK UNBOUND:                 0.000
REMARK SMILES Cc1cc(O)c(C)c(C)c1O
REMARK SMILES IDX 1 1 2 2 3 3 4 4 6 5 8 6 10 7 9 8 7 9 11 10 5 12
REMARK H PARENT 11 11 5 13
REMARK Flexibility Score: inf
ROOT
ATOM      1  C   UNL     1      -2.953  81.706  -8.514  1.00  0.00     0.048 C 
ATOM      2  C   UNL     1      -3.421  83.136  -8.463  1.00  0.00    -0.005 A 
ATOM      3  C   UNL     1      -2.975  83.964  -7.429  1.00  0.00     0.053 A 
ATOM      4  C   UNL     1      -3.391  85.292  -7.338  1.00  0.00     0.119 A 
ATOM      5  C   UNL     1      -4.297  85.819  -8.287  1.00  0.00    -0.003 A 
ATOM      6  C   UNL     1      -4.707  85.006  -9.380  1.00  0.00    -0.002 A 
ATOM      7  C   UNL     1      -4.286  83.658  -9.448  1.00  0.00     0.121 A 
ATOM      8  C   UNL     1      -5.610  85.559 -10.461  1.00  0.00     0.049 C 
ATOM      9  C   UNL     1      -4.782  87.244  -8.133  1.00  0.00     0.049 C 
ENDROOT
BRANCH   7  10
ATOM     10  O   UNL     1      -4.741  82.854 -10.500  1.00  0.00    -0.507 OA
ATOM     11  H   UNL     1      -5.592  83.036 -11.015  1.00  0.00     0.293 HD
ENDBRANCH   7  10
BRANCH   4  12
ATOM     12  O   UNL     1      -2.876  86.060  -6.290  1.00  0.00    -0.508 OA
ATOM     13  H   UNL     1      -3.438  86.415  -5.527  1.00  0.00     0.293 HD
ENDBRANCH   4  12
TORSDOF 2
ENDMDL
MODEL 6
REMARK VINA RESULT:    -3.814      1.464      3.041
REMARK INTER + INTRA:          -4.036
REMARK INTER:                  -4.036
REMARK INTRA:                   0.000
REMARK UNBOUND:                 0.000
REMARK SMILES Cc1cc(O)c(C)c(C)c1O
REMARK SMILES IDX 1 1 2 2 3 3 4 4 6 5 8 6 10 7 9 8 7 9 11 10 5 12
REMARK H PARENT 11 11 5 13
REMARK Flexibility Score: inf
ROOT
ATOM      1  C   UNL     1     -14.185  85.897 -10.123  1.00  0.00     0.048 C 
ATOM      2  C   UNL     1     -13.197  84.791  -9.861  1.00  0.00    -0.005 A 
ATOM      3  C   UNL     1     -12.105  85.035  -9.023  1.00  0.00     0.053 A 
ATOM      4  C   UNL     1     -11.161  84.044  -8.762  1.00  0.00     0.119 A 
ATOM      5  C   UNL     1     -11.283  82.769  -9.364  1.00  0.00    -0.003 A 
ATOM      6  C   UNL     1     -12.424  82.489 -10.165  1.00  0.00    -0.002 A 
ATOM      7  C   UNL     1     -13.364  83.511 -10.431  1.00  0.00     0.121 A 
ATOM      8  C   UNL     1     -12.633  81.113 -10.760  1.00  0.00     0.049 C 
ATOM      9  C   UNL     1     -10.213  81.729  -9.114  1.00  0.00     0.049 C 
ENDROOT
BRANCH   7  10
ATOM     10  O   UNL     1     -14.453  83.236 -11.266  1.00  0.00    -0.507 OA
ATOM     11  H   UNL     1     -14.359  82.967 -12.237  1.00  0.00     0.293 HD
ENDBRANCH   7  10
BRANCH   4  12
ATOM     12  O   UNL     1     -10.115  84.360  -7.891  1.00  0.00    -0.508 OA
ATOM     13  H   UNL     1     -10.253  84.754  -6.969  1.00  0.00     0.293 HD
ENDBRANCH   4  12
TORSDOF 2
ENDMDL
MODEL 7
REMARK VINA RESULT:    -3.786      6.434      8.054
REMARK INTER + INTRA:          -4.007
REMARK INTER:                  -4.007
REMARK INTRA:                   0.000
REMARK UNBOUND:                 0.000
REMARK SMILES Cc1cc(O)c(C)c(C)c1O
REMARK SMILES IDX 1 1 2 2 3 3 4 4 6 5 8 6 10 7 9 8 7 9 11 10 5 12
REMARK H PARENT 11 11 5 13
REMARK Flexibility Score: inf
ROOT
ATOM      1  C   UNL     1      -3.928  82.131  -9.382  1.00  0.00     0.048 C 
ATOM      2  C   UNL     1      -4.751  83.391  -9.365  1.00  0.00    -0.005 A 
ATOM      3  C   UNL     1      -6.085  83.341  -9.781  1.00  0.00     0.053 A 
ATOM      4  C   UNL     1      -6.881  84.486  -9.791  1.00  0.00     0.119 A 
ATOM      5  C   UNL     1      -6.338  85.732  -9.398  1.00  0.00    -0.003 A 
ATOM      6  C   UNL     1      -5.003  85.784  -8.911  1.00  0.00    -0.002 A 
ATOM      7  C   UNL     1      -4.206  84.615  -8.922  1.00  0.00     0.121 A 
ATOM      8  C   UNL     1      -4.412  87.082  -8.405  1.00  0.00     0.049 C 
ATOM      9  C   UNL     1      -7.203  86.972  -9.475  1.00  0.00     0.049 C 
ENDROOT
BRANCH   7  10
ATOM     10  O   UNL     1      -2.877  84.692  -8.492  1.00  0.00    -0.507 OA
ATOM     11  H   UNL     1      -2.220  85.385  -8.826  1.00  0.00     0.293 HD
ENDBRANCH   7  10
BRANCH   4  12
ATOM     12  O   UNL     1      -8.212  84.345 -10.193  1.00  0.00    -0.508 OA
ATOM     13  H   UNL     1      -8.890  83.782  -9.697  1.00  0.00     0.293 HD
ENDBRANCH   4  12
TORSDOF 2
ENDMDL
MODEL 8
REMARK VINA RESULT:    -3.766      7.401      8.708
REMARK INTER + INTRA:          -3.986
REMARK INTER:                  -3.986
REMARK INTRA:                   0.000
REMARK UNBOUND:                 0.000
REMARK SMILES Cc1cc(O)c(C)c(C)c1O
REMARK SMILES IDX 1 1 2 2 3 3 4 4 6 5 8 6 10 7 9 8 7 9 11 10 5 12
REMARK H PARENT 11 11 5 13
REMARK Flexibility Score: inf
ROOT
ATOM      1  C   UNL     1      -6.203  86.893 -10.208  1.00  0.00     0.048 C 
ATOM      2  C   UNL     1      -5.436  85.717  -9.662  1.00  0.00    -0.005 A 
ATOM      3  C   UNL     1      -5.592  84.463 -10.263  1.00  0.00     0.053 A 
ATOM      4  C   UNL     1      -4.910  83.345  -9.785  1.00  0.00     0.119 A 
ATOM      5  C   UNL     1      -4.059  83.459  -8.660  1.00  0.00    -0.003 A 
ATOM      6  C   UNL     1      -3.843  84.740  -8.082  1.00  0.00    -0.002 A 
ATOM      7  C   UNL     1      -4.554  85.860  -8.571  1.00  0.00     0.121 A 
ATOM      8  C   UNL     1      -2.878  84.917  -6.930  1.00  0.00     0.049 C 
ATOM      9  C   UNL     1      -3.377  82.220  -8.121  1.00  0.00     0.049 C 
ENDROOT
BRANCH   7  10
ATOM     10  O   UNL     1      -4.372  87.105  -7.957  1.00  0.00    -0.507 OA
ATOM     11  H   UNL     1      -4.021  87.218  -7.015  1.00  0.00     0.293 HD
ENDBRANCH   7  10
BRANCH   4  12
ATOM     12  O   UNL     1      -5.099  82.136 -10.458  1.00  0.00    -0.508 OA
ATOM     13  H   UNL     1      -5.866  81.503 -10.271  1.00  0.00     0.293 HD
ENDBRANCH   4  12
TORSDOF 2
ENDMDL
MODEL 9
REMARK VINA RESULT:    -3.732     11.444     11.861
REMARK INTER + INTRA:          -3.950
REMARK INTER:                  -3.950
REMARK INTRA:                   0.000
REMARK UNBOUND:                 0.000
REMARK SMILES Cc1cc(O)c(C)c(C)c1O
REMARK SMILES IDX 1 1 2 2 3 3 4 4 6 5 8 6 10 7 9 8 7 9 11 10 5 12
REMARK H PARENT 11 11 5 13
REMARK Flexibility Score: inf
ROOT
ATOM      1  C   UNL     1      -6.793  88.602 -12.057  1.00  0.00     0.048 C 
ATOM      2  C   UNL     1      -5.967  89.480 -12.960  1.00  0.00    -0.005 A 
ATOM      3  C   UNL     1      -5.871  89.164 -14.318  1.00  0.00     0.053 A 
ATOM      4  C   UNL     1      -5.110  89.943 -15.188  1.00  0.00     0.119 A 
ATOM      5  C   UNL     1      -4.398  91.064 -14.699  1.00  0.00    -0.003 A 
ATOM      6  C   UNL     1      -4.540  91.433 -13.333  1.00  0.00    -0.002 A 
ATOM      7  C   UNL     1      -5.305  90.623 -12.463  1.00  0.00     0.121 A 
ATOM      8  C   UNL     1      -3.861  92.672 -12.791  1.00  0.00     0.049 C 
ATOM      9  C   UNL     1      -3.529  91.859 -15.650  1.00  0.00     0.049 C 
ENDROOT
BRANCH   7  10
ATOM     10  O   UNL     1      -5.392  90.968 -11.109  1.00  0.00    -0.507 OA
ATOM     11  H   UNL     1      -5.686  90.325 -10.386  1.00  0.00     0.293 HD
ENDBRANCH   7  10
BRANCH   4  12
ATOM     12  O   UNL     1      -5.089  89.576 -16.536  1.00  0.00    -0.508 OA
ATOM     13  H   UNL     1      -5.867  89.136 -17.009  1.00  0.00     0.293 HD
ENDBRANCH   4  12
TORSDOF 2
ENDMDL
