MODEL 1
REMARK VINA RESULT:    -6.829      0.000      0.000
REMARK INTER + INTRA:          -8.344
REMARK INTER:                  -8.027
REMARK INTRA:                  -0.318
REMARK UNBOUND:                -0.318
REMARK SMILES O=c1c(O)c(-c2ccc(O)c(O)c2)oc2cc(O)ccc12
REMARK SMILES IDX 5 1 3 2 2 3 1 4 21 5 15 6 14 7 16 8 17 9 19 10 20 11 6 12
REMARK SMILES IDX 7 13 8 14 9 15 13 16 11 17 10 18 12 20 4 22 18 24
REMARK H PARENT 10 19 12 21 4 23 18 25
REMARK Flexibility Score: inf
ROOT
ATOM      1  C   UNL     1      21.190   6.018  31.493  1.00  0.00     0.180 A 
ATOM      2  C   UNL     1      19.827   6.354  31.620  1.00  0.00     0.208 A 
ATOM      3  C   UNL     1      19.252   7.216  30.673  1.00  0.00     0.235 A 
ATOM      4  O   UNL     1      18.037   7.541  30.771  1.00  0.00    -0.285 OA
ATOM      5  C   UNL     1      20.037   7.703  29.616  1.00  0.00     0.069 A 
ATOM      6  C   UNL     1      21.388   7.301  29.546  1.00  0.00     0.142 A 
ATOM      7  O   UNL     1      21.897   6.490  30.468  1.00  0.00    -0.452 OA
ATOM      8  C   UNL     1      22.201   7.756  28.502  1.00  0.00     0.094 A 
ATOM      9  C   UNL     1      21.680   8.615  27.525  1.00  0.00     0.119 A 
ATOM     10  C   UNL     1      20.341   9.017  27.595  1.00  0.00     0.047 A 
ATOM     11  C   UNL     1      19.521   8.565  28.633  1.00  0.00     0.020 A 
ENDROOT
BRANCH   1  12
ATOM     12  C   UNL     1      21.875   5.130  32.461  1.00  0.00     0.025 A 
ATOM     13  C   UNL     1      22.581   5.651  33.559  1.00  0.00     0.016 A 
ATOM     14  C   UNL     1      23.239   4.795  34.446  1.00  0.00     0.051 A 
ATOM     15  C   UNL     1      23.212   3.409  34.241  1.00  0.00     0.157 A 
ATOM     16  C   UNL     1      21.868   3.742  32.249  1.00  0.00     0.062 A 
ATOM     17  C   UNL     1      22.529   2.882  33.139  1.00  0.00     0.158 A 
BRANCH  15  18
ATOM     18  O   UNL     1      23.866   2.551  35.124  1.00  0.00    -0.504 OA
ATOM     19  H   UNL     1      24.726   2.080  34.867  1.00  0.00     0.293 HD
ENDBRANCH  15  18
BRANCH  17  20
ATOM     20  O   UNL     1      22.509   1.503  32.933  1.00  0.00    -0.504 OA
ATOM     21  H   UNL     1      23.244   1.033  32.418  1.00  0.00     0.293 HD
ENDBRANCH  17  20
ENDBRANCH   1  12
BRANCH   2  22
ATOM     22  O   UNL     1      19.058   5.815  32.654  1.00  0.00    -0.502 OA
ATOM     23  H   UNL     1      19.429   5.665  33.584  1.00  0.00     0.293 HD
ENDBRANCH   2  22
BRANCH   9  24
ATOM     24  O   UNL     1      22.481   9.074  26.483  1.00  0.00    -0.508 OA
ATOM     25  H   UNL     1      23.339   9.584  26.661  1.00  0.00     0.293 HD
ENDBRANCH   9  24
TORSDOF 5
ENDMDL
MODEL 2
REMARK VINA RESULT:    -6.660      0.636      1.455
REMARK INTER + INTRA:          -8.145
REMARK INTER:                  -7.864
REMARK INTRA:                  -0.281
REMARK UNBOUND:                -0.318
REMARK SMILES O=c1c(O)c(-c2ccc(O)c(O)c2)oc2cc(O)ccc12
REMARK SMILES IDX 5 1 3 2 2 3 1 4 21 5 15 6 14 7 16 8 17 9 19 10 20 11 6 12
REMARK SMILES IDX 7 13 8 14 9 15 13 16 11 17 10 18 12 20 4 22 18 24
REMARK H PARENT 10 19 12 21 4 23 18 25
REMARK Flexibility Score: inf
ROOT
ATOM      1  C   UNL     1      21.318   5.755  31.412  1.00  0.00     0.180 A 
ATOM      2  C   UNL     1      19.996   6.178  31.658  1.00  0.00     0.208 A 
ATOM      3  C   UNL     1      19.424   7.138  30.808  1.00  0.00     0.235 A 
ATOM      4  O   UNL     1      18.247   7.542  31.013  1.00  0.00    -0.285 OA
ATOM      5  C   UNL     1      20.170   7.635  29.727  1.00  0.00     0.069 A 
ATOM      6  C   UNL     1      21.479   7.142  29.535  1.00  0.00     0.142 A 
ATOM      7  O   UNL     1      21.986   6.240  30.369  1.00  0.00    -0.452 OA
ATOM      8  C   UNL     1      22.251   7.604  28.464  1.00  0.00     0.094 A 
ATOM      9  C   UNL     1      21.731   8.559  27.579  1.00  0.00     0.119 A 
ATOM     10  C   UNL     1      20.434   9.050  27.770  1.00  0.00     0.047 A 
ATOM     11  C   UNL     1      19.655   8.592  28.836  1.00  0.00     0.020 A 
ENDROOT
BRANCH   1  12
ATOM     12  C   UNL     1      21.997   4.760  32.275  1.00  0.00     0.025 A 
ATOM     13  C   UNL     1      21.740   3.384  32.148  1.00  0.00     0.016 A 
ATOM     14  C   UNL     1      22.376   2.466  32.988  1.00  0.00     0.051 A 
ATOM     15  C   UNL     1      23.264   2.911  33.976  1.00  0.00     0.157 A 
ATOM     16  C   UNL     1      22.874   5.201  33.280  1.00  0.00     0.062 A 
ATOM     17  C   UNL     1      23.511   4.281  34.124  1.00  0.00     0.158 A 
BRANCH  15  18
ATOM     18  O   UNL     1      23.901   1.998  34.816  1.00  0.00    -0.504 OA
ATOM     19  H   UNL     1      24.433   1.219  34.445  1.00  0.00     0.293 HD
ENDBRANCH  15  18
BRANCH  17  20
ATOM     20  O   UNL     1      24.391   4.721  35.112  1.00  0.00    -0.504 OA
ATOM     21  H   UNL     1      24.110   4.780  36.084  1.00  0.00     0.293 HD
ENDBRANCH  17  20
ENDBRANCH   1  12
BRANCH   2  22
ATOM     22  O   UNL     1      19.260   5.630  32.712  1.00  0.00    -0.502 OA
ATOM     23  H   UNL     1      19.397   5.915  33.674  1.00  0.00     0.293 HD
ENDBRANCH   2  22
BRANCH   9  24
ATOM     24  O   UNL     1      22.492   9.025  26.511  1.00  0.00    -0.508 OA
ATOM     25  H   UNL     1      23.501   9.090  26.568  1.00  0.00     0.293 HD
ENDBRANCH   9  24
TORSDOF 5
ENDMDL
MODEL 3
REMARK VINA RESULT:    -6.569     10.320     12.498
REMARK INTER + INTRA:          -8.039
REMARK INTER:                  -7.775
REMARK INTRA:                  -0.264
REMARK UNBOUND:                -0.318
REMARK SMILES O=c1c(O)c(-c2ccc(O)c(O)c2)oc2cc(O)ccc12
REMARK SMILES IDX 5 1 3 2 2 3 1 4 21 5 15 6 14 7 16 8 17 9 19 10 20 11 6 12
REMARK SMILES IDX 7 13 8 14 9 15 13 16 11 17 10 18 12 20 4 22 18 24
REMARK H PARENT 10 19 12 21 4 23 18 25
REMARK Flexibility Score: inf
ROOT
ATOM      1  C   UNL     1      27.112   1.448  23.156  1.00  0.00     0.180 A 
ATOM      2  C   UNL     1      26.550   1.108  21.908  1.00  0.00     0.208 A 
ATOM      3  C   UNL     1      27.049  -0.012  21.224  1.00  0.00     0.235 A 
ATOM      4  O   UNL     1      26.570  -0.330  20.101  1.00  0.00    -0.285 OA
ATOM      5  C   UNL     1      28.074  -0.775  21.805  1.00  0.00     0.069 A 
ATOM      6  C   UNL     1      28.567  -0.382  23.068  1.00  0.00     0.142 A 
ATOM      7  O   UNL     1      28.073   0.690  23.678  1.00  0.00    -0.452 OA
ATOM      8  C   UNL     1      29.581  -1.123  23.685  1.00  0.00     0.094 A 
ATOM      9  C   UNL     1      30.114  -2.254  23.051  1.00  0.00     0.119 A 
ATOM     10  C   UNL     1      29.628  -2.642  21.798  1.00  0.00     0.047 A 
ATOM     11  C   UNL     1      28.614  -1.910  21.175  1.00  0.00     0.020 A 
ENDROOT
BRANCH   1  12
ATOM     12  C   UNL     1      26.654   2.625  23.930  1.00  0.00     0.025 A 
ATOM     13  C   UNL     1      25.439   2.609  24.637  1.00  0.00     0.016 A 
ATOM     14  C   UNL     1      25.016   3.739  25.341  1.00  0.00     0.051 A 
ATOM     15  C   UNL     1      25.792   4.906  25.336  1.00  0.00     0.157 A 
ATOM     16  C   UNL     1      27.418   3.804  23.912  1.00  0.00     0.062 A 
ATOM     17  C   UNL     1      26.993   4.939  24.617  1.00  0.00     0.158 A 
BRANCH  15  18
ATOM     18  O   UNL     1      25.374   6.036  26.038  1.00  0.00    -0.504 OA
ATOM     19  H   UNL     1      26.024   6.769  26.297  1.00  0.00     0.293 HD
ENDBRANCH  15  18
BRANCH  17  20
ATOM     20  O   UNL     1      27.760   6.103  24.608  1.00  0.00    -0.504 OA
ATOM     21  H   UNL     1      28.628   6.162  24.089  1.00  0.00     0.293 HD
ENDBRANCH  17  20
ENDBRANCH   1  12
BRANCH   2  22
ATOM     22  O   UNL     1      25.497   1.857  21.378  1.00  0.00    -0.502 OA
ATOM     23  H   UNL     1      25.199   2.737  21.783  1.00  0.00     0.293 HD
ENDBRANCH   2  22
BRANCH   9  24
ATOM     24  O   UNL     1      31.125  -2.996  23.657  1.00  0.00    -0.508 OA
ATOM     25  H   UNL     1      31.750  -3.580  23.114  1.00  0.00     0.293 HD
ENDBRANCH   9  24
TORSDOF 5
ENDMDL
MODEL 4
REMARK VINA RESULT:    -6.539     11.136     13.337
REMARK INTER + INTRA:          -8.004
REMARK INTER:                  -7.687
REMARK INTRA:                  -0.317
REMARK UNBOUND:                -0.318
REMARK SMILES O=c1c(O)c(-c2ccc(O)c(O)c2)oc2cc(O)ccc12
REMARK SMILES IDX 5 1 3 2 2 3 1 4 21 5 15 6 14 7 16 8 17 9 19 10 20 11 6 12
REMARK SMILES IDX 7 13 8 14 9 15 13 16 11 17 10 18 12 20 4 22 18 24
REMARK H PARENT 10 19 12 21 4 23 18 25
REMARK Flexibility Score: inf
ROOT
ATOM      1  C   UNL     1      28.112   0.931  22.789  1.00  0.00     0.180 A 
ATOM      2  C   UNL     1      28.161   0.796  21.386  1.00  0.00     0.208 A 
ATOM      3  C   UNL     1      28.830  -0.309  20.837  1.00  0.00     0.235 A 
ATOM      4  O   UNL     1      28.898  -0.447  19.585  1.00  0.00    -0.285 OA
ATOM      5  C   UNL     1      29.414  -1.258  21.691  1.00  0.00     0.069 A 
ATOM      6  C   UNL     1      29.301  -1.062  23.084  1.00  0.00     0.142 A 
ATOM      7  O   UNL     1      28.666   0.002  23.564  1.00  0.00    -0.452 OA
ATOM      8  C   UNL     1      29.859  -1.990  23.970  1.00  0.00     0.094 A 
ATOM      9  C   UNL     1      30.536  -3.115  23.478  1.00  0.00     0.119 A 
ATOM     10  C   UNL     1      30.651  -3.309  22.096  1.00  0.00     0.047 A 
ATOM     11  C   UNL     1      30.094  -2.388  21.205  1.00  0.00     0.020 A 
ENDROOT
BRANCH   1  12
ATOM     12  C   UNL     1      27.441   2.078  23.445  1.00  0.00     0.025 A 
ATOM     13  C   UNL     1      28.099   3.307  23.623  1.00  0.00     0.016 A 
ATOM     14  C   UNL     1      27.454   4.367  24.266  1.00  0.00     0.051 A 
ATOM     15  C   UNL     1      26.149   4.209  24.752  1.00  0.00     0.157 A 
ATOM     16  C   UNL     1      26.140   1.919  23.952  1.00  0.00     0.062 A 
ATOM     17  C   UNL     1      25.493   2.982  24.598  1.00  0.00     0.158 A 
BRANCH  15  18
ATOM     18  O   UNL     1      25.502   5.264  25.393  1.00  0.00    -0.504 OA
ATOM     19  H   UNL     1      24.571   5.558  25.121  1.00  0.00     0.293 HD
ENDBRANCH  15  18
BRANCH  17  20
ATOM     20  O   UNL     1      24.197   2.825  25.089  1.00  0.00    -0.504 OA
ATOM     21  H   UNL     1      23.938   3.145  26.014  1.00  0.00     0.293 HD
ENDBRANCH  17  20
ENDBRANCH   1  12
BRANCH   2  22
ATOM     22  O   UNL     1      27.528   1.729  20.562  1.00  0.00    -0.502 OA
ATOM     23  H   UNL     1      27.879   2.672  20.441  1.00  0.00     0.293 HD
ENDBRANCH   2  22
BRANCH   9  24
ATOM     24  O   UNL     1      31.097  -4.044  24.351  1.00  0.00    -0.508 OA
ATOM     25  H   UNL     1      31.752  -3.764  25.072  1.00  0.00     0.293 HD
ENDBRANCH   9  24
TORSDOF 5
ENDMDL
MODEL 5
REMARK VINA RESULT:    -6.487      1.521      6.865
REMARK INTER + INTRA:          -7.942
REMARK INTER:                  -7.623
REMARK INTRA:                  -0.320
REMARK UNBOUND:                -0.318
REMARK SMILES O=c1c(O)c(-c2ccc(O)c(O)c2)oc2cc(O)ccc12
REMARK SMILES IDX 5 1 3 2 2 3 1 4 21 5 15 6 14 7 16 8 17 9 19 10 20 11 6 12
REMARK SMILES IDX 7 13 8 14 9 15 13 16 11 17 10 18 12 20 4 22 18 24
REMARK H PARENT 10 19 12 21 4 23 18 25
REMARK Flexibility Score: inf
ROOT
ATOM      1  C   UNL     1      21.669   7.023  31.099  1.00  0.00     0.180 A 
ATOM      2  C   UNL     1      22.218   7.803  32.138  1.00  0.00     0.208 A 
ATOM      3  C   UNL     1      22.746   7.154  33.265  1.00  0.00     0.235 A 
ATOM      4  O   UNL     1      23.232   7.830  34.212  1.00  0.00    -0.285 OA
ATOM      5  C   UNL     1      22.737   5.752  33.321  1.00  0.00     0.069 A 
ATOM      6  C   UNL     1      22.191   5.042  32.229  1.00  0.00     0.142 A 
ATOM      7  O   UNL     1      21.692   5.695  31.185  1.00  0.00    -0.452 OA
ATOM      8  C   UNL     1      22.172   3.643  32.243  1.00  0.00     0.094 A 
ATOM      9  C   UNL     1      22.691   2.941  33.339  1.00  0.00     0.119 A 
ATOM     10  C   UNL     1      23.230   3.643  34.423  1.00  0.00     0.047 A 
ATOM     11  C   UNL     1      23.255   5.041  34.418  1.00  0.00     0.020 A 
ENDROOT
BRANCH   1  12
ATOM     12  C   UNL     1      21.075   7.634  29.887  1.00  0.00     0.025 A 
ATOM     13  C   UNL     1      19.699   7.905  29.803  1.00  0.00     0.016 A 
ATOM     14  C   UNL     1      19.158   8.459  28.641  1.00  0.00     0.051 A 
ATOM     15  C   UNL     1      19.981   8.736  27.541  1.00  0.00     0.157 A 
ATOM     16  C   UNL     1      21.892   7.895  28.774  1.00  0.00     0.062 A 
ATOM     17  C   UNL     1      21.349   8.450  27.607  1.00  0.00     0.158 A 
BRANCH  15  18
ATOM     18  O   UNL     1      19.444   9.290  26.379  1.00  0.00    -0.504 OA
ATOM     19  H   UNL     1      18.556   9.777  26.386  1.00  0.00     0.293 HD
ENDBRANCH  15  18
BRANCH  17  20
ATOM     20  O   UNL     1      22.165   8.721  26.509  1.00  0.00    -0.504 OA
ATOM     21  H   UNL     1      23.175   8.699  26.580  1.00  0.00     0.293 HD
ENDBRANCH  17  20
ENDBRANCH   1  12
BRANCH   2  22
ATOM     22  O   UNL     1      22.258   9.196  32.032  1.00  0.00    -0.502 OA
ATOM     23  H   UNL     1      21.465   9.780  32.264  1.00  0.00     0.293 HD
ENDBRANCH   2  22
BRANCH   9  24
ATOM     24  O   UNL     1      22.675   1.549  33.362  1.00  0.00    -0.508 OA
ATOM     25  H   UNL     1      21.823   1.026  33.199  1.00  0.00     0.293 HD
ENDBRANCH   9  24
TORSDOF 5
ENDMDL
MODEL 6
REMARK VINA RESULT:    -6.050     11.387     13.244
REMARK INTER + INTRA:          -7.428
REMARK INTER:                  -7.130
REMARK INTRA:                  -0.299
REMARK UNBOUND:                -0.318
REMARK SMILES O=c1c(O)c(-c2ccc(O)c(O)c2)oc2cc(O)ccc12
REMARK SMILES IDX 5 1 3 2 2 3 1 4 21 5 15 6 14 7 16 8 17 9 19 10 20 11 6 12
REMARK SMILES IDX 7 13 8 14 9 15 13 16 11 17 10 18 12 20 4 22 18 24
REMARK H PARENT 10 19 12 21 4 23 18 25
REMARK Flexibility Score: inf
ROOT
ATOM      1  C   UNL     1      28.258   0.880  22.028  1.00  0.00     0.180 A 
ATOM      2  C   UNL     1      29.235   1.895  21.973  1.00  0.00     0.208 A 
ATOM      3  C   UNL     1      29.020   3.082  22.690  1.00  0.00     0.235 A 
ATOM      4  O   UNL     1      29.875   4.009  22.648  1.00  0.00    -0.285 OA
ATOM      5  C   UNL     1      27.854   3.222  23.459  1.00  0.00     0.069 A 
ATOM      6  C   UNL     1      26.935   2.150  23.482  1.00  0.00     0.142 A 
ATOM      7  O   UNL     1      27.172   1.047  22.781  1.00  0.00    -0.452 OA
ATOM      8  C   UNL     1      25.766   2.247  24.244  1.00  0.00     0.094 A 
ATOM      9  C   UNL     1      25.501   3.406  24.986  1.00  0.00     0.119 A 
ATOM     10  C   UNL     1      26.410   4.470  24.962  1.00  0.00     0.047 A 
ATOM     11  C   UNL     1      27.581   4.382  24.205  1.00  0.00     0.020 A 
ENDROOT
BRANCH   1  12
ATOM     12  C   UNL     1      28.402  -0.392  21.285  1.00  0.00     0.025 A 
ATOM     13  C   UNL     1      29.176  -1.452  21.789  1.00  0.00     0.016 A 
ATOM     14  C   UNL     1      29.317  -2.635  21.059  1.00  0.00     0.051 A 
ATOM     15  C   UNL     1      28.701  -2.770  19.808  1.00  0.00     0.157 A 
ATOM     16  C   UNL     1      27.803  -0.526  20.021  1.00  0.00     0.062 A 
ATOM     17  C   UNL     1      27.945  -1.712  19.287  1.00  0.00     0.158 A 
BRANCH  15  18
ATOM     18  O   UNL     1      28.838  -3.949  19.077  1.00  0.00    -0.504 OA
ATOM     19  H   UNL     1      29.718  -4.451  19.042  1.00  0.00     0.293 HD
ENDBRANCH  15  18
BRANCH  17  20
ATOM     20  O   UNL     1      27.338  -1.847  18.039  1.00  0.00    -0.504 OA
ATOM     21  H   UNL     1      26.343  -1.703  17.915  1.00  0.00     0.293 HD
ENDBRANCH  17  20
ENDBRANCH   1  12
BRANCH   2  22
ATOM     22  O   UNL     1      30.409   1.708  21.239  1.00  0.00    -0.502 OA
ATOM     23  H   UNL     1      30.469   1.051  20.470  1.00  0.00     0.293 HD
ENDBRANCH   2  22
BRANCH   9  24
ATOM     24  O   UNL     1      24.339   3.512  25.746  1.00  0.00    -0.508 OA
ATOM     25  H   UNL     1      23.470   3.839  25.342  1.00  0.00     0.293 HD
ENDBRANCH   9  24
TORSDOF 5
ENDMDL
MODEL 7
REMARK VINA RESULT:    -6.029      1.707      2.178
REMARK INTER + INTRA:          -7.404
REMARK INTER:                  -7.377
REMARK INTRA:                  -0.027
REMARK UNBOUND:                -0.318
REMARK SMILES O=c1c(O)c(-c2ccc(O)c(O)c2)oc2cc(O)ccc12
REMARK SMILES IDX 5 1 3 2 2 3 1 4 21 5 15 6 14 7 16 8 17 9 19 10 20 11 6 12
REMARK SMILES IDX 7 13 8 14 9 15 13 16 11 17 10 18 12 20 4 22 18 24
REMARK H PARENT 10 19 12 21 4 23 18 25
REMARK Flexibility Score: inf
ROOT
ATOM      1  C   UNL     1      22.140   5.996  31.796  1.00  0.00     0.180 A 
ATOM      2  C   UNL     1      21.665   7.054  32.598  1.00  0.00     0.208 A 
ATOM      3  C   UNL     1      21.466   8.313  32.010  1.00  0.00     0.235 A 
ATOM      4  O   UNL     1      21.052   9.277  32.709  1.00  0.00    -0.285 OA
ATOM      5  C   UNL     1      21.723   8.483  30.640  1.00  0.00     0.069 A 
ATOM      6  C   UNL     1      22.174   7.369  29.901  1.00  0.00     0.142 A 
ATOM      7  O   UNL     1      22.358   6.196  30.498  1.00  0.00    -0.452 OA
ATOM      8  C   UNL     1      22.432   7.495  28.531  1.00  0.00     0.094 A 
ATOM      9  C   UNL     1      22.246   8.727  27.889  1.00  0.00     0.119 A 
ATOM     10  C   UNL     1      21.801   9.833  28.622  1.00  0.00     0.047 A 
ATOM     11  C   UNL     1      21.540   9.716  29.990  1.00  0.00     0.020 A 
ENDROOT
BRANCH   1  12
ATOM     12  C   UNL     1      22.393   4.644  32.346  1.00  0.00     0.025 A 
ATOM     13  C   UNL     1      21.770   3.506  31.806  1.00  0.00     0.016 A 
ATOM     14  C   UNL     1      22.005   2.243  32.356  1.00  0.00     0.051 A 
ATOM     15  C   UNL     1      22.854   2.103  33.462  1.00  0.00     0.157 A 
ATOM     16  C   UNL     1      23.227   4.499  33.467  1.00  0.00     0.062 A 
ATOM     17  C   UNL     1      23.463   3.233  34.020  1.00  0.00     0.158 A 
BRANCH  15  18
ATOM     18  O   UNL     1      23.092   0.844  34.014  1.00  0.00    -0.504 OA
ATOM     19  H   UNL     1      23.806   0.229  33.640  1.00  0.00     0.293 HD
ENDBRANCH  15  18
BRANCH  17  20
ATOM     20  O   UNL     1      24.302   3.091  35.125  1.00  0.00    -0.504 OA
ATOM     21  H   UNL     1      25.108   3.690  35.259  1.00  0.00     0.293 HD
ENDBRANCH  17  20
ENDBRANCH   1  12
BRANCH   2  22
ATOM     22  O   UNL     1      21.370   6.842  33.947  1.00  0.00    -0.502 OA
ATOM     23  H   UNL     1      20.473   7.082  34.350  1.00  0.00     0.293 HD
ENDBRANCH   2  22
BRANCH   9  24
ATOM     24  O   UNL     1      22.501   8.862  26.527  1.00  0.00    -0.508 OA
ATOM     25  H   UNL     1      23.007   9.660  26.160  1.00  0.00     0.293 HD
ENDBRANCH   9  24
TORSDOF 5
ENDMDL
MODEL 8
REMARK VINA RESULT:    -6.008      3.174      5.749
REMARK INTER + INTRA:          -7.379
REMARK INTER:                  -7.064
REMARK INTRA:                  -0.315
REMARK UNBOUND:                -0.318
REMARK SMILES O=c1c(O)c(-c2ccc(O)c(O)c2)oc2cc(O)ccc12
REMARK SMILES IDX 5 1 3 2 2 3 1 4 21 5 15 6 14 7 16 8 17 9 19 10 20 11 6 12
REMARK SMILES IDX 7 13 8 14 9 15 13 16 11 17 10 18 12 20 4 22 18 24
REMARK H PARENT 10 19 12 21 4 23 18 25
REMARK Flexibility Score: inf
ROOT
ATOM      1  C   UNL     1      22.934   8.396  29.757  1.00  0.00     0.180 A 
ATOM      2  C   UNL     1      22.144   8.846  28.680  1.00  0.00     0.208 A 
ATOM      3  C   UNL     1      20.773   8.541  28.673  1.00  0.00     0.235 A 
ATOM      4  O   UNL     1      20.047   8.923  27.715  1.00  0.00    -0.285 OA
ATOM      5  C   UNL     1      20.221   7.819  29.742  1.00  0.00     0.069 A 
ATOM      6  C   UNL     1      21.075   7.425  30.794  1.00  0.00     0.142 A 
ATOM      7  O   UNL     1      22.369   7.725  30.759  1.00  0.00    -0.452 OA
ATOM      8  C   UNL     1      20.562   6.712  31.884  1.00  0.00     0.094 A 
ATOM      9  C   UNL     1      19.200   6.384  31.933  1.00  0.00     0.119 A 
ATOM     10  C   UNL     1      18.352   6.772  30.889  1.00  0.00     0.047 A 
ATOM     11  C   UNL     1      18.856   7.486  29.798  1.00  0.00     0.020 A 
ENDROOT
BRANCH   1  12
ATOM     12  C   UNL     1      24.390   8.660  29.828  1.00  0.00     0.025 A 
ATOM     13  C   UNL     1      24.896   9.806  30.465  1.00  0.00     0.016 A 
ATOM     14  C   UNL     1      26.272  10.046  30.499  1.00  0.00     0.051 A 
ATOM     15  C   UNL     1      27.160   9.154  29.885  1.00  0.00     0.157 A 
ATOM     16  C   UNL     1      25.283   7.779  29.197  1.00  0.00     0.062 A 
ATOM     17  C   UNL     1      26.664   8.020  29.230  1.00  0.00     0.158 A 
BRANCH  15  18
ATOM     18  O   UNL     1      28.534   9.389  29.918  1.00  0.00    -0.504 OA
ATOM     19  H   UNL     1      29.029   9.511  30.793  1.00  0.00     0.293 HD
ENDBRANCH  15  18
BRANCH  17  20
ATOM     20  O   UNL     1      27.550   7.137  28.614  1.00  0.00    -0.504 OA
ATOM     21  H   UNL     1      28.109   7.416  27.817  1.00  0.00     0.293 HD
ENDBRANCH  17  20
ENDBRANCH   1  12
BRANCH   2  22
ATOM     22  O   UNL     1      22.711   9.606  27.654  1.00  0.00    -0.502 OA
ATOM     23  H   UNL     1      22.679   9.316  26.684  1.00  0.00     0.293 HD
ENDBRANCH   2  22
BRANCH   9  24
ATOM     24  O   UNL     1      18.680   5.674  33.012  1.00  0.00    -0.508 OA
ATOM     25  H   UNL     1      19.270   5.097  33.600  1.00  0.00     0.293 HD
ENDBRANCH   9  24
TORSDOF 5
ENDMDL
MODEL 9
REMARK VINA RESULT:    -5.896     10.376     12.083
REMARK INTER + INTRA:          -7.248
REMARK INTER:                  -6.929
REMARK INTRA:                  -0.319
REMARK UNBOUND:                -0.318
REMARK SMILES O=c1c(O)c(-c2ccc(O)c(O)c2)oc2cc(O)ccc12
REMARK SMILES IDX 5 1 3 2 2 3 1 4 21 5 15 6 14 7 16 8 17 9 19 10 20 11 6 12
REMARK SMILES IDX 7 13 8 14 9 15 13 16 11 17 10 18 12 20 4 22 18 24
REMARK H PARENT 10 19 12 21 4 23 18 25
REMARK Flexibility Score: inf
ROOT
ATOM      1  C   UNL     1      27.882   1.374  22.983  1.00  0.00     0.180 A 
ATOM      2  C   UNL     1      28.535   2.615  22.834  1.00  0.00     0.208 A 
ATOM      3  C   UNL     1      28.001   3.742  23.479  1.00  0.00     0.235 A 
ATOM      4  O   UNL     1      28.561   4.865  23.353  1.00  0.00    -0.285 OA
ATOM      5  C   UNL     1      26.850   3.604  24.270  1.00  0.00     0.069 A 
ATOM      6  C   UNL     1      26.269   2.323  24.387  1.00  0.00     0.142 A 
ATOM      7  O   UNL     1      26.800   1.283  23.753  1.00  0.00    -0.452 OA
ATOM      8  C   UNL     1      25.126   2.142  25.175  1.00  0.00     0.094 A 
ATOM      9  C   UNL     1      24.553   3.230  25.847  1.00  0.00     0.119 A 
ATOM     10  C   UNL     1      25.127   4.501  25.729  1.00  0.00     0.047 A 
ATOM     11  C   UNL     1      26.269   4.691  24.946  1.00  0.00     0.020 A 
ENDROOT
BRANCH   1  12
ATOM     12  C   UNL     1      28.371   0.144  22.319  1.00  0.00     0.025 A 
ATOM     13  C   UNL     1      28.028  -0.157  20.990  1.00  0.00     0.016 A 
ATOM     14  C   UNL     1      28.483  -1.335  20.392  1.00  0.00     0.051 A 
ATOM     15  C   UNL     1      29.272  -2.237  21.119  1.00  0.00     0.157 A 
ATOM     16  C   UNL     1      29.146  -0.773  23.049  1.00  0.00     0.062 A 
ATOM     17  C   UNL     1      29.601  -1.956  22.450  1.00  0.00     0.158 A 
BRANCH  15  18
ATOM     18  O   UNL     1      29.728  -3.413  20.526  1.00  0.00    -0.504 OA
ATOM     19  H   UNL     1      30.093  -4.179  21.080  1.00  0.00     0.293 HD
ENDBRANCH  15  18
BRANCH  17  20
ATOM     20  O   UNL     1      30.381  -2.858  23.173  1.00  0.00    -0.504 OA
ATOM     21  H   UNL     1      30.469  -2.795  24.180  1.00  0.00     0.293 HD
ENDBRANCH  17  20
ENDBRANCH   1  12
BRANCH   2  22
ATOM     22  O   UNL     1      29.707   2.712  22.081  1.00  0.00    -0.502 OA
ATOM     23  H   UNL     1      30.566   2.250  22.353  1.00  0.00     0.293 HD
ENDBRANCH   2  22
BRANCH   9  24
ATOM     24  O   UNL     1      23.415   3.060  26.631  1.00  0.00    -0.508 OA
ATOM     25  H   UNL     1      23.410   2.434  27.428  1.00  0.00     0.293 HD
ENDBRANCH   9  24
TORSDOF 5
ENDMDL
