MODEL 1
REMARK VINA RESULT:    -6.603      0.000      0.000
REMARK INTER + INTRA:         -11.502
REMARK INTER:                 -10.271
REMARK INTRA:                  -1.232
REMARK UNBOUND:                -1.232
REMARK SMILES C[C@@]12C[C@@]3(O)O[C@@H](O1)[C@]1(COC(=O)c4ccccc4)[C@H]3C[C@@]12O[C@H]1O[C@@H](CO)[C@H](O)[C@@H](O)[C@@H]1O
REMARK SMILES IDX 1 1 2 2 3 3 4 4 20 5 21 6 22 7 9 8 7 9 8 10 6 11 23 12 24 13
REMARK SMILES IDX 33 14 25 15 31 16 26 17 29 18 34 19 32 21 27 23 28 24 30 26
REMARK SMILES IDX 5 28 10 30 11 31 12 32 13 33 14 34 15 35 19 36 16 37 18 38
REMARK SMILES IDX 17 39
REMARK H PARENT 34 20 32 22 28 25 30 27 5 29
REMARK Flexibility Score: inf
ROOT
ATOM      1  C   UNL     1      16.250  12.952  -0.362  1.00  0.00     0.046 C 
ATOM      2  C   UNL     1      14.867  12.452  -0.813  1.00  0.00     0.104 C 
ATOM      3  C   UNL     1      13.988  12.254   0.470  1.00  0.00     0.104 C 
ATOM      4  C   UNL     1      12.632  11.657  -0.119  1.00  0.00     0.175 C 
ATOM      5  C   UNL     1      12.926  10.507  -1.144  1.00  0.00     0.070 C 
ATOM      6  C   UNL     1      14.366   9.944  -1.022  1.00  0.00     0.050 C 
ATOM      7  C   UNL     1      14.832  11.203  -1.811  1.00  0.00     0.115 C 
ATOM      8  C   UNL     1      13.353  11.374  -2.336  1.00  0.00     0.096 C 
ATOM      9  C   UNL     1      12.972  12.775  -2.007  1.00  0.00     0.267 C 
ATOM     10  O   UNL     1      14.128  13.423  -1.547  1.00  0.00    -0.342 OA
ATOM     11  O   UNL     1      12.001  12.631  -0.968  1.00  0.00    -0.320 OA
ENDROOT
BRANCH   7  12
ATOM     12  O   UNL     1      15.841  11.152  -2.852  1.00  0.00    -0.339 OA
BRANCH  12  13
ATOM     13  C   UNL     1      16.446  12.386  -3.206  1.00  0.00     0.282 C 
ATOM     14  C   UNL     1      15.815  13.167  -4.428  1.00  0.00     0.202 C 
ATOM     15  O   UNL     1      17.862  12.197  -3.210  1.00  0.00    -0.341 OA
ATOM     16  C   UNL     1      16.542  12.991  -5.776  1.00  0.00     0.179 C 
ATOM     17  C   UNL     1      18.495  11.867  -4.447  1.00  0.00     0.178 C 
ATOM     18  C   UNL     1      18.107  12.897  -5.552  1.00  0.00     0.177 C 
BRANCH  14  19
ATOM     19  O   UNL     1      15.825  14.527  -4.017  1.00  0.00    -0.385 OA
ATOM     20  H   UNL     1      15.665  14.577  -3.032  1.00  0.00     0.211 HD
ENDBRANCH  14  19
BRANCH  16  21
ATOM     21  O   UNL     1      16.038  11.934  -6.513  1.00  0.00    -0.387 OA
ATOM     22  H   UNL     1      15.047  11.916  -6.420  1.00  0.00     0.211 HD
ENDBRANCH  16  21
BRANCH  17  23
ATOM     23  C   UNL     1      18.520  10.236  -4.697  1.00  0.00     0.191 C 
BRANCH  23  24
ATOM     24  O   UNL     1      17.210   9.797  -5.096  1.00  0.00    -0.394 OA
ATOM     25  H   UNL     1      16.948   9.070  -4.473  1.00  0.00     0.210 HD
ENDBRANCH  23  24
ENDBRANCH  17  23
BRANCH  18  26
ATOM     26  O   UNL     1      18.544  14.188  -5.148  1.00  0.00    -0.387 OA
ATOM     27  H   UNL     1      17.896  14.903  -5.423  1.00  0.00     0.211 HD
ENDBRANCH  18  26
ENDBRANCH  12  13
ENDBRANCH   7  12
BRANCH   4  28
ATOM     28  O   UNL     1      11.773  11.199   0.882  1.00  0.00    -0.365 OA
ATOM     29  H   UNL     1      10.935  10.892   0.414  1.00  0.00     0.214 HD
ENDBRANCH   4  28
BRANCH   8  30
ATOM     30  C   UNL     1      12.690  10.800  -3.650  1.00  0.00     0.249 C 
BRANCH  30  31
ATOM     31  O   UNL     1      12.031  11.878  -4.323  1.00  0.00    -0.461 OA
BRANCH  31  32
ATOM     32  C   UNL     1      11.078  11.686  -5.323  1.00  0.00     0.338 C 
ATOM     33  O   UNL     1       9.881  11.424  -4.971  1.00  0.00    -0.246 OA
BRANCH  32  34
ATOM     34  C   UNL     1      11.408  11.900  -6.746  1.00  0.00     0.060 A 
ATOM     35  C   UNL     1      10.381  11.900  -7.729  1.00  0.00     0.015 A 
ATOM     36  C   UNL     1      12.742  12.111  -7.154  1.00  0.00     0.015 A 
ATOM     37  C   UNL     1      10.699  12.094  -9.070  1.00  0.00     0.001 A 
ATOM     38  C   UNL     1      13.057  12.305  -8.504  1.00  0.00     0.001 A 
ATOM     39  C   UNL     1      12.033  12.301  -9.459  1.00  0.00     0.000 A 
ENDBRANCH  32  34
ENDBRANCH  31  32
ENDBRANCH  30  31
ENDBRANCH   8  30
TORSDOF 12
ENDMDL
MODEL 2
REMARK VINA RESULT:    -6.551      1.552      5.297
REMARK INTER + INTRA:         -11.421
REMARK INTER:                  -9.744
REMARK INTRA:                  -1.677
REMARK UNBOUND:                -1.232
REMARK SMILES C[C@@]12C[C@@]3(O)O[C@@H](O1)[C@]1(COC(=O)c4ccccc4)[C@H]3C[C@@]12O[C@H]1O[C@@H](CO)[C@H](O)[C@@H](O)[C@@H]1O
REMARK SMILES IDX 1 1 2 2 3 3 4 4 20 5 21 6 22 7 9 8 7 9 8 10 6 11 23 12 24 13
REMARK SMILES IDX 33 14 25 15 31 16 26 17 29 18 34 19 32 21 27 23 28 24 30 26
REMARK SMILES IDX 5 28 10 30 11 31 12 32 13 33 14 34 15 35 19 36 16 37 18 38
REMARK SMILES IDX 17 39
REMARK H PARENT 34 20 32 22 28 25 30 27 5 29
REMARK Flexibility Score: inf
ROOT
ATOM      1  C   UNL     1      16.965  10.607  -1.821  1.00  0.00     0.046 C 
ATOM      2  C   UNL     1      16.591  11.445  -3.056  1.00  0.00     0.104 C 
ATOM      3  C   UNL     1      17.858  12.267  -3.477  1.00  0.00     0.104 C 
ATOM      4  C   UNL     1      17.320  13.147  -4.692  1.00  0.00     0.175 C 
ATOM      5  C   UNL     1      15.945  13.812  -4.336  1.00  0.00     0.070 C 
ATOM      6  C   UNL     1      15.657  13.823  -2.813  1.00  0.00     0.050 C 
ATOM      7  C   UNL     1      15.259  12.325  -2.965  1.00  0.00     0.115 C 
ATOM      8  C   UNL     1      15.050  12.578  -4.510  1.00  0.00     0.096 C 
ATOM      9  C   UNL     1      15.870  11.544  -5.199  1.00  0.00     0.267 C 
ATOM     10  O   UNL     1      16.334  10.658  -4.214  1.00  0.00    -0.342 OA
ATOM     11  O   UNL     1      16.940  12.289  -5.783  1.00  0.00    -0.320 OA
ENDROOT
BRANCH   7  12
ATOM     12  O   UNL     1      14.118  11.740  -2.288  1.00  0.00    -0.339 OA
BRANCH  12  13
ATOM     13  C   UNL     1      13.776  12.297  -1.028  1.00  0.00     0.282 C 
ATOM     14  C   UNL     1      14.024  11.392   0.244  1.00  0.00     0.202 C 
ATOM     15  O   UNL     1      12.496  12.917  -1.153  1.00  0.00    -0.341 OA
ATOM     16  C   UNL     1      12.782  10.658   0.789  1.00  0.00     0.179 C 
ATOM     17  C   UNL     1      11.340  12.155  -0.801  1.00  0.00     0.178 C 
ATOM     18  C   UNL     1      11.492  11.564   0.635  1.00  0.00     0.177 C 
BRANCH  14  19
ATOM     19  O   UNL     1      14.553  12.286   1.213  1.00  0.00    -0.385 OA
ATOM     20  H   UNL     1      15.239  12.871   0.784  1.00  0.00     0.211 HD
ENDBRANCH  14  19
BRANCH  16  21
ATOM     21  O   UNL     1      12.627   9.400   0.232  1.00  0.00    -0.387 OA
ATOM     22  H   UNL     1      11.693   9.092   0.378  1.00  0.00     0.211 HD
ENDBRANCH  16  21
BRANCH  17  23
ATOM     23  C   UNL     1      10.775  11.284  -2.083  1.00  0.00     0.191 C 
BRANCH  23  24
ATOM     24  O   UNL     1      11.217  11.899  -3.305  1.00  0.00    -0.394 OA
ATOM     25  H   UNL     1      10.864  11.345  -4.051  1.00  0.00     0.210 HD
ENDBRANCH  23  24
ENDBRANCH  17  23
BRANCH  18  26
ATOM     26  O   UNL     1      11.629  12.635   1.559  1.00  0.00    -0.387 OA
ATOM     27  H   UNL     1      12.269  13.333   1.227  1.00  0.00     0.211 HD
ENDBRANCH  18  26
ENDBRANCH  12  13
ENDBRANCH   7  12
BRANCH   4  28
ATOM     28  O   UNL     1      18.237  14.123  -5.088  1.00  0.00    -0.365 OA
ATOM     29  H   UNL     1      18.229  14.123  -6.097  1.00  0.00     0.214 HD
ENDBRANCH   4  28
BRANCH   8  30
ATOM     30  C   UNL     1      13.738  13.001  -5.281  1.00  0.00     0.249 C 
BRANCH  30  31
ATOM     31  O   UNL     1      13.116  11.815  -5.785  1.00  0.00    -0.461 OA
BRANCH  31  32
ATOM     32  C   UNL     1      12.045  11.835  -6.679  1.00  0.00     0.338 C 
ATOM     33  O   UNL     1      10.863  11.845  -6.201  1.00  0.00    -0.246 OA
BRANCH  32  34
ATOM     34  C   UNL     1      12.264  11.968  -8.133  1.00  0.00     0.060 A 
ATOM     35  C   UNL     1      11.181  12.291  -8.995  1.00  0.00     0.015 A 
ATOM     36  C   UNL     1      13.546  11.781  -8.690  1.00  0.00     0.015 A 
ATOM     37  C   UNL     1      11.392  12.407 -10.367  1.00  0.00     0.001 A 
ATOM     38  C   UNL     1      13.754  11.898 -10.069  1.00  0.00     0.001 A 
ATOM     39  C   UNL     1      12.676  12.215 -10.905  1.00  0.00     0.000 A 
ENDBRANCH  32  34
ENDBRANCH  31  32
ENDBRANCH  30  31
ENDBRANCH   8  30
TORSDOF 12
ENDMDL
MODEL 3
REMARK VINA RESULT:    -6.515      2.443      8.083
REMARK INTER + INTRA:         -11.364
REMARK INTER:                 -10.130
REMARK INTRA:                  -1.234
REMARK UNBOUND:                -1.232
REMARK SMILES C[C@@]12C[C@@]3(O)O[C@@H](O1)[C@]1(COC(=O)c4ccccc4)[C@H]3C[C@@]12O[C@H]1O[C@@H](CO)[C@H](O)[C@@H](O)[C@@H]1O
REMARK SMILES IDX 1 1 2 2 3 3 4 4 20 5 21 6 22 7 9 8 7 9 8 10 6 11 23 12 24 13
REMARK SMILES IDX 33 14 25 15 31 16 26 17 29 18 34 19 32 21 27 23 28 24 30 26
REMARK SMILES IDX 5 28 10 30 11 31 12 32 13 33 14 34 15 35 19 36 16 37 18 38
REMARK SMILES IDX 17 39
REMARK H PARENT 34 20 32 22 28 25 30 27 5 29
REMARK Flexibility Score: inf
ROOT
ATOM      1  C   UNL     1      15.186  12.650  -6.540  1.00  0.00     0.046 C 
ATOM      2  C   UNL     1      16.631  12.597  -6.013  1.00  0.00     0.104 C 
ATOM      3  C   UNL     1      17.593  12.637  -7.250  1.00  0.00     0.104 C 
ATOM      4  C   UNL     1      19.032  12.487  -6.583  1.00  0.00     0.175 C 
ATOM      5  C   UNL     1      19.042  11.327  -5.528  1.00  0.00     0.070 C 
ATOM      6  C   UNL     1      17.842  10.358  -5.686  1.00  0.00     0.050 C 
ATOM      7  C   UNL     1      16.984  11.440  -4.967  1.00  0.00     0.115 C 
ATOM      8  C   UNL     1      18.317  12.057  -4.389  1.00  0.00     0.096 C 
ATOM      9  C   UNL     1      18.282  13.500  -4.756  1.00  0.00     0.267 C 
ATOM     10  O   UNL     1      17.010  13.762  -5.288  1.00  0.00    -0.342 OA
ATOM     11  O   UNL     1      19.303  13.626  -5.748  1.00  0.00    -0.320 OA
ENDROOT
BRANCH   7  12
ATOM     12  O   UNL     1      15.985  11.117  -3.967  1.00  0.00    -0.339 OA
BRANCH  12  13
ATOM     13  C   UNL     1      15.066  12.147  -3.635  1.00  0.00     0.282 C 
ATOM     14  C   UNL     1      15.482  13.125  -2.464  1.00  0.00     0.202 C 
ATOM     15  O   UNL     1      13.761  11.571  -3.574  1.00  0.00    -0.341 OA
ATOM     16  C   UNL     1      14.866  12.812  -1.086  1.00  0.00     0.179 C 
ATOM     17  C   UNL     1      13.275  11.131  -2.305  1.00  0.00     0.178 C 
ATOM     18  C   UNL     1      13.385  12.276  -1.251  1.00  0.00     0.177 C 
BRANCH  14  19
ATOM     19  O   UNL     1      15.082  14.409  -2.922  1.00  0.00    -0.385 OA
ATOM     20  H   UNL     1      14.144  14.362  -3.262  1.00  0.00     0.211 HD
ENDBRANCH  14  19
BRANCH  16  21
ATOM     21  O   UNL     1      15.664  11.971  -0.331  1.00  0.00    -0.387 OA
ATOM     22  H   UNL     1      16.037  11.261  -0.920  1.00  0.00     0.211 HD
ENDBRANCH  16  21
BRANCH  17  23
ATOM     23  C   UNL     1      13.714   9.571  -1.997  1.00  0.00     0.191 C 
BRANCH  23  24
ATOM     24  O   UNL     1      15.104   9.533  -1.629  1.00  0.00    -0.394 OA
ATOM     25  H   UNL     1      15.403  10.475  -1.535  1.00  0.00     0.210 HD
ENDBRANCH  23  24
ENDBRANCH  17  23
BRANCH  18  26
ATOM     26  O   UNL     1      12.594  13.374  -1.684  1.00  0.00    -0.387 OA
ATOM     27  H   UNL     1      12.896  13.721  -2.576  1.00  0.00     0.211 HD
ENDBRANCH  18  26
ENDBRANCH  12  13
ENDBRANCH   7  12
BRANCH   4  28
ATOM     28  O   UNL     1      20.038  12.282  -7.530  1.00  0.00    -0.365 OA
ATOM     29  H   UNL     1      20.456  13.184  -7.697  1.00  0.00     0.214 HD
ENDBRANCH   4  28
BRANCH   8  30
ATOM     30  C   UNL     1      19.053  11.741  -3.027  1.00  0.00     0.249 C 
BRANCH  30  31
ATOM     31  O   UNL     1      19.311  12.981  -2.362  1.00  0.00    -0.461 OA
BRANCH  31  32
ATOM     32  C   UNL     1      20.365  13.163  -1.466  1.00  0.00     0.338 C 
ATOM     33  O   UNL     1      21.538  13.315  -1.941  1.00  0.00    -0.246 OA
BRANCH  32  34
ATOM     34  C   UNL     1      20.122  13.303  -0.017  1.00  0.00     0.060 A 
ATOM     35  C   UNL     1      18.836  13.032   0.525  1.00  0.00     0.015 A 
ATOM     36  C   UNL     1      21.158  13.701   0.854  1.00  0.00     0.015 A 
ATOM     37  C   UNL     1      18.611  13.173   1.892  1.00  0.00     0.001 A 
ATOM     38  C   UNL     1      20.928  13.842   2.227  1.00  0.00     0.001 A 
ATOM     39  C   UNL     1      19.654  13.573   2.744  1.00  0.00     0.000 A 
ENDBRANCH  32  34
ENDBRANCH  31  32
ENDBRANCH  30  31
ENDBRANCH   8  30
TORSDOF 12
ENDMDL
MODEL 4
REMARK VINA RESULT:    -6.505      1.918      5.504
REMARK INTER + INTRA:         -11.350
REMARK INTER:                  -9.959
REMARK INTRA:                  -1.391
REMARK UNBOUND:                -1.232
REMARK SMILES C[C@@]12C[C@@]3(O)O[C@@H](O1)[C@]1(COC(=O)c4ccccc4)[C@H]3C[C@@]12O[C@H]1O[C@@H](CO)[C@H](O)[C@@H](O)[C@@H]1O
REMARK SMILES IDX 1 1 2 2 3 3 4 4 20 5 21 6 22 7 9 8 7 9 8 10 6 11 23 12 24 13
REMARK SMILES IDX 33 14 25 15 31 16 26 17 29 18 34 19 32 21 27 23 28 24 30 26
REMARK SMILES IDX 5 28 10 30 11 31 12 32 13 33 14 34 15 35 19 36 16 37 18 38
REMARK SMILES IDX 17 39
REMARK H PARENT 34 20 32 22 28 25 30 27 5 29
REMARK Flexibility Score: inf
ROOT
ATOM      1  C   UNL     1      16.591   9.605  -0.549  1.00  0.00     0.046 C 
ATOM      2  C   UNL     1      16.918  10.883  -1.343  1.00  0.00     0.104 C 
ATOM      3  C   UNL     1      18.371  11.327  -0.956  1.00  0.00     0.104 C 
ATOM      4  C   UNL     1      18.550  12.689  -1.764  1.00  0.00     0.175 C 
ATOM      5  C   UNL     1      17.295  13.613  -1.588  1.00  0.00     0.070 C 
ATOM      6  C   UNL     1      16.411  13.207  -0.381  1.00  0.00     0.050 C 
ATOM      7  C   UNL     1      15.849  12.070  -1.285  1.00  0.00     0.115 C 
ATOM      8  C   UNL     1      16.345  12.882  -2.545  1.00  0.00     0.096 C 
ATOM      9  C   UNL     1      17.175  11.930  -3.332  1.00  0.00     0.267 C 
ATOM     10  O   UNL     1      17.025  10.664  -2.745  1.00  0.00    -0.342 OA
ATOM     11  O   UNL     1      18.506  12.427  -3.177  1.00  0.00    -0.320 OA
ENDROOT
BRANCH   7  12
ATOM     12  O   UNL     1      14.446  11.708  -1.313  1.00  0.00    -0.339 OA
BRANCH  12  13
ATOM     13  C   UNL     1      13.618  12.305  -0.326  1.00  0.00     0.282 C 
ATOM     14  C   UNL     1      13.311  11.445   0.965  1.00  0.00     0.202 C 
ATOM     15  O   UNL     1      12.508  12.910  -0.989  1.00  0.00    -0.341 OA
ATOM     16  C   UNL     1      11.950  10.721   0.973  1.00  0.00     0.179 C 
ATOM     17  C   UNL     1      11.305  12.152  -1.120  1.00  0.00     0.178 C 
ATOM     18  C   UNL     1      10.846  11.612   0.270  1.00  0.00     0.177 C 
BRANCH  14  19
ATOM     19  O   UNL     1      13.400  12.376   2.034  1.00  0.00    -0.385 OA
ATOM     20  H   UNL     1      13.110  11.935   2.882  1.00  0.00     0.211 HD
ENDBRANCH  14  19
BRANCH  16  21
ATOM     21  O   UNL     1      12.030   9.444   0.445  1.00  0.00    -0.387 OA
ATOM     22  H   UNL     1      12.981   9.151   0.444  1.00  0.00     0.211 HD
ENDBRANCH  16  21
BRANCH  17  23
ATOM     23  C   UNL     1      11.313  11.234  -2.491  1.00  0.00     0.191 C 
BRANCH  23  24
ATOM     24  O   UNL     1      12.144  10.079  -2.283  1.00  0.00    -0.394 OA
ATOM     25  H   UNL     1      11.868   9.678  -1.417  1.00  0.00     0.210 HD
ENDBRANCH  23  24
ENDBRANCH  17  23
BRANCH  18  26
ATOM     26  O   UNL     1      10.597  12.715   1.130  1.00  0.00    -0.387 OA
ATOM     27  H   UNL     1      11.428  13.251   1.298  1.00  0.00     0.211 HD
ENDBRANCH  18  26
ENDBRANCH  12  13
ENDBRANCH   7  12
BRANCH   4  28
ATOM     28  O   UNL     1      19.708  13.378  -1.394  1.00  0.00    -0.365 OA
ATOM     29  H   UNL     1      19.407  14.292  -1.092  1.00  0.00     0.214 HD
ENDBRANCH   4  28
BRANCH   8  30
ATOM     30  C   UNL     1      15.567  13.950  -3.411  1.00  0.00     0.249 C 
BRANCH  30  31
ATOM     31  O   UNL     1      15.541  13.492  -4.766  1.00  0.00    -0.461 OA
BRANCH  31  32
ATOM     32  C   UNL     1      14.384  13.029  -5.394  1.00  0.00     0.338 C 
ATOM     33  O   UNL     1      13.291  13.058  -4.738  1.00  0.00    -0.246 OA
BRANCH  32  34
ATOM     34  C   UNL     1      14.391  12.633  -6.816  1.00  0.00     0.060 A 
ATOM     35  C   UNL     1      13.172  12.338  -7.485  1.00  0.00     0.015 A 
ATOM     36  C   UNL     1      15.601  12.546  -7.535  1.00  0.00     0.015 A 
ATOM     37  C   UNL     1      13.185  11.958  -8.824  1.00  0.00     0.001 A 
ATOM     38  C   UNL     1      15.611  12.162  -8.882  1.00  0.00     0.001 A 
ATOM     39  C   UNL     1      14.401  11.873  -9.525  1.00  0.00     0.000 A 
ENDBRANCH  32  34
ENDBRANCH  31  32
ENDBRANCH  30  31
ENDBRANCH   8  30
TORSDOF 12
ENDMDL
MODEL 5
REMARK VINA RESULT:    -6.500      2.561      6.261
REMARK INTER + INTRA:         -11.342
REMARK INTER:                  -9.784
REMARK INTRA:                  -1.557
REMARK UNBOUND:                -1.232
REMARK SMILES C[C@@]12C[C@@]3(O)O[C@@H](O1)[C@]1(COC(=O)c4ccccc4)[C@H]3C[C@@]12O[C@H]1O[C@@H](CO)[C@H](O)[C@@H](O)[C@@H]1O
REMARK SMILES IDX 1 1 2 2 3 3 4 4 20 5 21 6 22 7 9 8 7 9 8 10 6 11 23 12 24 13
REMARK SMILES IDX 33 14 25 15 31 16 26 17 29 18 34 19 32 21 27 23 28 24 30 26
REMARK SMILES IDX 5 28 10 30 11 31 12 32 13 33 14 34 15 35 19 36 16 37 18 38
REMARK SMILES IDX 17 39
REMARK H PARENT 34 20 32 22 28 25 30 27 5 29
REMARK Flexibility Score: inf
ROOT
ATOM      1  C   UNL     1      18.445  13.318  -3.469  1.00  0.00     0.046 C 
ATOM      2  C   UNL     1      18.330  12.959  -1.977  1.00  0.00     0.104 C 
ATOM      3  C   UNL     1      19.769  13.025  -1.358  1.00  0.00     0.104 C 
ATOM      4  C   UNL     1      19.529  12.552   0.145  1.00  0.00     0.175 C 
ATOM      5  C   UNL     1      18.634  11.265   0.190  1.00  0.00     0.070 C 
ATOM      6  C   UNL     1      18.561  10.533  -1.174  1.00  0.00     0.050 C 
ATOM      7  C   UNL     1      17.536  11.622  -1.607  1.00  0.00     0.115 C 
ATOM      8  C   UNL     1      17.277  11.929  -0.079  1.00  0.00     0.096 C 
ATOM      9  C   UNL     1      17.477  13.396   0.073  1.00  0.00     0.267 C 
ATOM     10  O   UNL     1      17.622  13.932  -1.216  1.00  0.00    -0.342 OA
ATOM     11  O   UNL     1      18.688  13.500   0.825  1.00  0.00    -0.320 OA
ENDROOT
BRANCH   7  12
ATOM     12  O   UNL     1      16.342  11.321  -2.373  1.00  0.00    -0.339 OA
BRANCH  12  13
ATOM     13  C   UNL     1      15.912  12.316  -3.290  1.00  0.00     0.282 C 
ATOM     14  C   UNL     1      14.749  13.275  -2.810  1.00  0.00     0.202 C 
ATOM     15  O   UNL     1      15.767  11.703  -4.571  1.00  0.00    -0.341 OA
ATOM     16  C   UNL     1      13.337  12.909  -3.310  1.00  0.00     0.179 C 
ATOM     17  C   UNL     1      14.478  11.216  -4.945  1.00  0.00     0.178 C 
ATOM     18  C   UNL     1      13.404  12.336  -4.784  1.00  0.00     0.177 C 
BRANCH  14  19
ATOM     19  O   UNL     1      15.139  14.558  -3.277  1.00  0.00    -0.385 OA
ATOM     20  H   UNL     1      15.580  14.467  -4.168  1.00  0.00     0.211 HD
ENDBRANCH  14  19
BRANCH  16  21
ATOM     21  O   UNL     1      12.670  12.070  -2.433  1.00  0.00    -0.387 OA
ATOM     22  H   UNL     1      12.160  12.621  -1.781  1.00  0.00     0.211 HD
ENDBRANCH  16  21
BRANCH  17  23
ATOM     23  C   UNL     1      14.249   9.661  -4.444  1.00  0.00     0.191 C 
BRANCH  23  24
ATOM     24  O   UNL     1      13.986   9.653  -3.030  1.00  0.00    -0.394 OA
ATOM     25  H   UNL     1      14.530  10.382  -2.632  1.00  0.00     0.210 HD
ENDBRANCH  23  24
ENDBRANCH  17  23
BRANCH  18  26
ATOM     26  O   UNL     1      13.743  13.422  -5.634  1.00  0.00    -0.387 OA
ATOM     27  H   UNL     1      13.981  14.244  -5.110  1.00  0.00     0.211 HD
ENDBRANCH  18  26
ENDBRANCH  12  13
ENDBRANCH   7  12
BRANCH   4  28
ATOM     28  O   UNL     1      20.726  12.328   0.830  1.00  0.00    -0.365 OA
ATOM     29  H   UNL     1      20.723  11.353   1.089  1.00  0.00     0.214 HD
ENDBRANCH   4  28
BRANCH   8  30
ATOM     30  C   UNL     1      16.199  11.305   0.893  1.00  0.00     0.249 C 
BRANCH  30  31
ATOM     31  O   UNL     1      15.000  12.079   0.783  1.00  0.00    -0.461 OA
BRANCH  31  32
ATOM     32  C   UNL     1      13.742  11.513   0.578  1.00  0.00     0.338 C 
ATOM     33  O   UNL     1      13.627  10.608  -0.314  1.00  0.00    -0.246 OA
BRANCH  32  34
ATOM     34  C   UNL     1      12.598  11.854   1.447  1.00  0.00     0.060 A 
ATOM     35  C   UNL     1      11.280  11.891   0.916  1.00  0.00     0.015 A 
ATOM     36  C   UNL     1      12.791  12.143   2.814  1.00  0.00     0.015 A 
ATOM     37  C   UNL     1      10.206  12.221   1.738  1.00  0.00     0.001 A 
ATOM     38  C   UNL     1      11.708  12.475   3.637  1.00  0.00     0.001 A 
ATOM     39  C   UNL     1      10.417  12.509   3.098  1.00  0.00     0.000 A 
ENDBRANCH  32  34
ENDBRANCH  31  32
ENDBRANCH  30  31
ENDBRANCH   8  30
TORSDOF 12
ENDMDL
MODEL 6
REMARK VINA RESULT:    -6.482      2.793      6.109
REMARK INTER + INTRA:         -11.314
REMARK INTER:                  -9.876
REMARK INTRA:                  -1.438
REMARK UNBOUND:                -1.232
REMARK SMILES C[C@@]12C[C@@]3(O)O[C@@H](O1)[C@]1(COC(=O)c4ccccc4)[C@H]3C[C@@]12O[C@H]1O[C@@H](CO)[C@H](O)[C@@H](O)[C@@H]1O
REMARK SMILES IDX 1 1 2 2 3 3 4 4 20 5 21 6 22 7 9 8 7 9 8 10 6 11 23 12 24 13
REMARK SMILES IDX 33 14 25 15 31 16 26 17 29 18 34 19 32 21 27 23 28 24 30 26
REMARK SMILES IDX 5 28 10 30 11 31 12 32 13 33 14 34 15 35 19 36 16 37 18 38
REMARK SMILES IDX 17 39
REMARK H PARENT 34 20 32 22 28 25 30 27 5 29
REMARK Flexibility Score: inf
ROOT
ATOM      1  C   UNL     1      18.941   9.857  -3.408  1.00  0.00     0.046 C 
ATOM      2  C   UNL     1      18.074  10.881  -4.160  1.00  0.00     0.104 C 
ATOM      3  C   UNL     1      18.626  10.991  -5.624  1.00  0.00     0.104 C 
ATOM      4  C   UNL     1      17.712  12.131  -6.261  1.00  0.00     0.175 C 
ATOM      5  C   UNL     1      17.596  13.360  -5.294  1.00  0.00     0.070 C 
ATOM      6  C   UNL     1      18.692  13.371  -4.197  1.00  0.00     0.050 C 
ATOM      7  C   UNL     1      17.841  12.298  -3.457  1.00  0.00     0.115 C 
ATOM      8  C   UNL     1      16.590  12.766  -4.299  1.00  0.00     0.096 C 
ATOM      9  C   UNL     1      16.045  11.529  -4.925  1.00  0.00     0.267 C 
ATOM     10  O   UNL     1      16.735  10.442  -4.367  1.00  0.00    -0.342 OA
ATOM     11  O   UNL     1      16.346  11.687  -6.313  1.00  0.00    -0.320 OA
ENDROOT
BRANCH   7  12
ATOM     12  O   UNL     1      17.640  12.305  -2.021  1.00  0.00    -0.339 OA
BRANCH  12  13
ATOM     13  C   UNL     1      18.512  13.130  -1.265  1.00  0.00     0.282 C 
ATOM     14  C   UNL     1      19.925  12.525  -0.891  1.00  0.00     0.202 C 
ATOM     15  O   UNL     1      17.754  13.723  -0.209  1.00  0.00    -0.341 OA
ATOM     16  C   UNL     1      20.043  11.945   0.532  1.00  0.00     0.179 C 
ATOM     17  C   UNL     1      17.743  13.072   1.061  1.00  0.00     0.178 C 
ATOM     18  C   UNL     1      19.200  12.811   1.555  1.00  0.00     0.177 C 
BRANCH  14  19
ATOM     19  O   UNL     1      20.829  13.604  -1.079  1.00  0.00    -0.385 OA
ATOM     20  H   UNL     1      20.336  14.388  -1.452  1.00  0.00     0.211 HD
ENDBRANCH  14  19
BRANCH  16  21
ATOM     21  O   UNL     1      19.731  10.597   0.579  1.00  0.00    -0.387 OA
ATOM     22  H   UNL     1      18.786  10.492   0.871  1.00  0.00     0.211 HD
ENDBRANCH  16  21
BRANCH  17  23
ATOM     23  C   UNL     1      16.539  11.947   1.155  1.00  0.00     0.191 C 
BRANCH  23  24
ATOM     24  O   UNL     1      15.265  12.610   1.103  1.00  0.00    -0.394 OA
ATOM     25  H   UNL     1      15.344  13.431   1.657  1.00  0.00     0.210 HD
ENDBRANCH  23  24
ENDBRANCH  17  23
BRANCH  18  26
ATOM     26  O   UNL     1      19.868  14.057   1.689  1.00  0.00    -0.387 OA
ATOM     27  H   UNL     1      20.264  14.171   2.604  1.00  0.00     0.211 HD
ENDBRANCH  18  26
ENDBRANCH  12  13
ENDBRANCH   7  12
BRANCH   4  28
ATOM     28  O   UNL     1      18.176  12.547  -7.511  1.00  0.00    -0.365 OA
ATOM     29  H   UNL     1      19.067  12.991  -7.347  1.00  0.00     0.214 HD
ENDBRANCH   4  28
BRANCH   8  30
ATOM     30  C   UNL     1      15.507  13.861  -3.949  1.00  0.00     0.249 C 
BRANCH  30  31
ATOM     31  O   UNL     1      14.267  13.194  -3.690  1.00  0.00    -0.461 OA
BRANCH  31  32
ATOM     32  C   UNL     1      13.790  12.940  -2.404  1.00  0.00     0.338 C 
ATOM     33  O   UNL     1      14.500  13.318  -1.414  1.00  0.00    -0.246 OA
BRANCH  32  34
ATOM     34  C   UNL     1      12.449  12.364  -2.184  1.00  0.00     0.060 A 
ATOM     35  C   UNL     1      11.935  12.224  -0.867  1.00  0.00     0.015 A 
ATOM     36  C   UNL     1      11.655  11.947  -3.274  1.00  0.00     0.015 A 
ATOM     37  C   UNL     1      10.672  11.673  -0.665  1.00  0.00     0.001 A 
ATOM     38  C   UNL     1      10.387  11.392  -3.067  1.00  0.00     0.001 A 
ATOM     39  C   UNL     1       9.896  11.261  -1.762  1.00  0.00     0.000 A 
ENDBRANCH  32  34
ENDBRANCH  31  32
ENDBRANCH  30  31
ENDBRANCH   8  30
TORSDOF 12
ENDMDL
MODEL 7
REMARK VINA RESULT:    -6.450      2.867      6.945
REMARK INTER + INTRA:         -11.264
REMARK INTER:                  -9.562
REMARK INTRA:                  -1.702
REMARK UNBOUND:                -1.232
REMARK SMILES C[C@@]12C[C@@]3(O)O[C@@H](O1)[C@]1(COC(=O)c4ccccc4)[C@H]3C[C@@]12O[C@H]1O[C@@H](CO)[C@H](O)[C@@H](O)[C@@H]1O
REMARK SMILES IDX 1 1 2 2 3 3 4 4 20 5 21 6 22 7 9 8 7 9 8 10 6 11 23 12 24 13
REMARK SMILES IDX 33 14 25 15 31 16 26 17 29 18 34 19 32 21 27 23 28 24 30 26
REMARK SMILES IDX 5 28 10 30 11 31 12 32 13 33 14 34 15 35 19 36 16 37 18 38
REMARK SMILES IDX 17 39
REMARK H PARENT 34 20 32 22 28 25 30 27 5 29
REMARK Flexibility Score: inf
ROOT
ATOM      1  C   UNL     1      15.022  10.325  -4.926  1.00  0.00     0.046 C 
ATOM      2  C   UNL     1      15.106  11.242  -3.693  1.00  0.00     0.104 C 
ATOM      3  C   UNL     1      13.644  11.653  -3.303  1.00  0.00     0.104 C 
ATOM      4  C   UNL     1      13.872  12.658  -2.088  1.00  0.00     0.175 C 
ATOM      5  C   UNL     1      14.994  13.700  -2.427  1.00  0.00     0.070 C 
ATOM      6  C   UNL     1      15.296  13.789  -3.945  1.00  0.00     0.050 C 
ATOM      7  C   UNL     1      16.117  12.478  -3.771  1.00  0.00     0.115 C 
ATOM      8  C   UNL     1      16.212  12.789  -2.225  1.00  0.00     0.096 C 
ATOM      9  C   UNL     1      15.723  11.562  -1.540  1.00  0.00     0.267 C 
ATOM     10  O   UNL     1      15.562  10.573  -2.523  1.00  0.00    -0.342 OA
ATOM     11  O   UNL     1      14.468  11.958  -0.982  1.00  0.00    -0.320 OA
ENDROOT
BRANCH   7  12
ATOM     12  O   UNL     1      17.394  12.256  -4.421  1.00  0.00    -0.339 OA
BRANCH  12  13
ATOM     13  C   UNL     1      17.589  12.904  -5.669  1.00  0.00     0.282 C 
ATOM     14  C   UNL     1      17.607  11.986  -6.956  1.00  0.00     0.202 C 
ATOM     15  O   UNL     1      18.656  13.841  -5.517  1.00  0.00    -0.341 OA
ATOM     16  C   UNL     1      19.006  11.619  -7.491  1.00  0.00     0.179 C 
ATOM     17  C   UNL     1      19.977  13.421  -5.861  1.00  0.00     0.178 C 
ATOM     18  C   UNL     1      20.005  12.834  -7.307  1.00  0.00     0.177 C 
BRANCH  14  19
ATOM     19  O   UNL     1      16.869  12.722  -7.921  1.00  0.00    -0.385 OA
ATOM     20  H   UNL     1      16.089  12.179  -8.228  1.00  0.00     0.211 HD
ENDBRANCH  14  19
BRANCH  16  21
ATOM     21  O   UNL     1      19.484  10.439  -6.947  1.00  0.00    -0.387 OA
ATOM     22  H   UNL     1      18.715   9.872  -6.673  1.00  0.00     0.211 HD
ENDBRANCH  16  21
BRANCH  17  23
ATOM     23  C   UNL     1      20.739  12.712  -4.581  1.00  0.00     0.191 C 
BRANCH  23  24
ATOM     24  O   UNL     1      20.183  13.221  -3.357  1.00  0.00    -0.394 OA
ATOM     25  H   UNL     1      20.247  12.491  -2.686  1.00  0.00     0.210 HD
ENDBRANCH  23  24
ENDBRANCH  17  23
BRANCH  18  26
ATOM     26  O   UNL     1      19.597  13.845  -8.219  1.00  0.00    -0.387 OA
ATOM     27  H   UNL     1      18.655  14.143  -8.047  1.00  0.00     0.211 HD
ENDBRANCH  18  26
ENDBRANCH  12  13
ENDBRANCH   7  12
BRANCH   4  28
ATOM     28  O   UNL     1      12.699  13.319  -1.717  1.00  0.00    -0.365 OA
ATOM     29  H   UNL     1      12.378  13.805  -2.541  1.00  0.00     0.214 HD
ENDBRANCH   4  28
BRANCH   8  30
ATOM     30  C   UNL     1      17.324  13.587  -1.436  1.00  0.00     0.249 C 
BRANCH  30  31
ATOM     31  O   UNL     1      18.336  12.660  -1.033  1.00  0.00    -0.461 OA
BRANCH  31  32
ATOM     32  C   UNL     1      19.311  12.958  -0.081  1.00  0.00     0.338 C 
ATOM     33  O   UNL     1      20.451  13.357  -0.491  1.00  0.00    -0.246 OA
BRANCH  32  34
ATOM     34  C   UNL     1      19.002  12.938   1.362  1.00  0.00     0.060 A 
ATOM     35  C   UNL     1      17.885  12.205   1.847  1.00  0.00     0.015 A 
ATOM     36  C   UNL     1      19.809  13.638   2.283  1.00  0.00     0.015 A 
ATOM     37  C   UNL     1      17.594  12.195   3.209  1.00  0.00     0.001 A 
ATOM     38  C   UNL     1      19.514  13.627   3.651  1.00  0.00     0.001 A 
ATOM     39  C   UNL     1      18.408  12.901   4.112  1.00  0.00     0.000 A 
ENDBRANCH  32  34
ENDBRANCH  31  32
ENDBRANCH  30  31
ENDBRANCH   8  30
TORSDOF 12
ENDMDL
MODEL 8
REMARK VINA RESULT:    -6.352      2.504      5.278
REMARK INTER + INTRA:         -11.111
REMARK INTER:                  -9.629
REMARK INTRA:                  -1.481
REMARK UNBOUND:                -1.232
REMARK SMILES C[C@@]12C[C@@]3(O)O[C@@H](O1)[C@]1(COC(=O)c4ccccc4)[C@H]3C[C@@]12O[C@H]1O[C@@H](CO)[C@H](O)[C@@H](O)[C@@H]1O
REMARK SMILES IDX 1 1 2 2 3 3 4 4 20 5 21 6 22 7 9 8 7 9 8 10 6 11 23 12 24 13
REMARK SMILES IDX 33 14 25 15 31 16 26 17 29 18 34 19 32 21 27 23 28 24 30 26
REMARK SMILES IDX 5 28 10 30 11 31 12 32 13 33 14 34 15 35 19 36 16 37 18 38
REMARK SMILES IDX 17 39
REMARK H PARENT 34 20 32 22 28 25 30 27 5 29
REMARK Flexibility Score: inf
ROOT
ATOM      1  C   UNL     1      12.494  12.330  -2.612  1.00  0.00     0.046 C 
ATOM      2  C   UNL     1      12.987  12.161  -4.060  1.00  0.00     0.104 C 
ATOM      3  C   UNL     1      11.733  11.902  -4.965  1.00  0.00     0.104 C 
ATOM      4  C   UNL     1      12.379  11.658  -6.402  1.00  0.00     0.175 C 
ATOM      5  C   UNL     1      13.590  10.665  -6.309  1.00  0.00     0.070 C 
ATOM      6  C   UNL     1      13.601   9.849  -4.991  1.00  0.00     0.050 C 
ATOM      7  C   UNL     1      14.179  11.124  -4.308  1.00  0.00     0.115 C 
ATOM      8  C   UNL     1      14.630  11.635  -5.733  1.00  0.00     0.096 C 
ATOM      9  C   UNL     1      14.061  13.004  -5.864  1.00  0.00     0.267 C 
ATOM     10  O   UNL     1      13.529  13.355  -4.614  1.00  0.00    -0.342 OA
ATOM     11  O   UNL     1      13.036  12.856  -6.850  1.00  0.00    -0.320 OA
ENDROOT
BRANCH   7  12
ATOM     12  O   UNL     1      15.239  11.077  -3.320  1.00  0.00    -0.339 OA
BRANCH  12  13
ATOM     13  C   UNL     1      15.476  12.271  -2.589  1.00  0.00     0.282 C 
ATOM     14  C   UNL     1      16.492  13.305  -3.220  1.00  0.00     0.202 C 
ATOM     15  O   UNL     1      15.666  11.918  -1.219  1.00  0.00    -0.341 OA
ATOM     16  C   UNL     1      17.924  13.260  -2.651  1.00  0.00     0.179 C 
ATOM     17  C   UNL     1      17.001  11.715  -0.753  1.00  0.00     0.178 C 
ATOM     18  C   UNL     1      17.894  12.947  -1.099  1.00  0.00     0.177 C 
BRANCH  14  19
ATOM     19  O   UNL     1      15.891  14.571  -2.989  1.00  0.00    -0.385 OA
ATOM     20  H   UNL     1      16.445  15.087  -2.338  1.00  0.00     0.211 HD
ENDBRANCH  14  19
BRANCH  16  21
ATOM     21  O   UNL     1      18.746  12.400  -3.360  1.00  0.00    -0.387 OA
ATOM     22  H   UNL     1      18.443  12.367  -4.307  1.00  0.00     0.211 HD
ENDBRANCH  16  21
BRANCH  17  23
ATOM     23  C   UNL     1      17.487  10.153  -0.971  1.00  0.00     0.191 C 
BRANCH  23  24
ATOM     24  O   UNL     1      17.795   9.942  -2.359  1.00  0.00    -0.394 OA
ATOM     25  H   UNL     1      17.701   8.968  -2.530  1.00  0.00     0.210 HD
ENDBRANCH  23  24
ENDBRANCH  17  23
BRANCH  18  26
ATOM     26  O   UNL     1      17.358  14.095  -0.457  1.00  0.00    -0.387 OA
ATOM     27  H   UNL     1      17.967  14.888  -0.544  1.00  0.00     0.211 HD
ENDBRANCH  18  26
ENDBRANCH  12  13
ENDBRANCH   7  12
BRANCH   4  28
ATOM     28  O   UNL     1      11.447  11.193  -7.332  1.00  0.00    -0.365 OA
ATOM     29  H   UNL     1      10.538  11.398  -6.945  1.00  0.00     0.214 HD
ENDBRANCH   4  28
BRANCH   8  30
ATOM     30  C   UNL     1      16.004  11.416  -6.481  1.00  0.00     0.249 C 
BRANCH  30  31
ATOM     31  O   UNL     1      16.530  12.701  -6.830  1.00  0.00    -0.461 OA
BRANCH  31  32
ATOM     32  C   UNL     1      17.884  12.932  -7.069  1.00  0.00     0.338 C 
ATOM     33  O   UNL     1      18.595  13.389  -6.113  1.00  0.00    -0.246 OA
BRANCH  32  34
ATOM     34  C   UNL     1      18.513  12.544  -8.347  1.00  0.00     0.060 A 
ATOM     35  C   UNL     1      17.766  12.581  -9.555  1.00  0.00     0.015 A 
ATOM     36  C   UNL     1      19.863  12.136  -8.393  1.00  0.00     0.015 A 
ATOM     37  C   UNL     1      18.362  12.207 -10.757  1.00  0.00     0.001 A 
ATOM     38  C   UNL     1      20.458  11.760  -9.603  1.00  0.00     0.001 A 
ATOM     39  C   UNL     1      19.707  11.801 -10.783  1.00  0.00     0.000 A 
ENDBRANCH  32  34
ENDBRANCH  31  32
ENDBRANCH  30  31
ENDBRANCH   8  30
TORSDOF 12
ENDMDL
MODEL 9
REMARK VINA RESULT:    -6.326      2.236      4.478
REMARK INTER + INTRA:         -11.070
REMARK INTER:                  -9.530
REMARK INTRA:                  -1.540
REMARK UNBOUND:                -1.232
REMARK SMILES C[C@@]12C[C@@]3(O)O[C@@H](O1)[C@]1(COC(=O)c4ccccc4)[C@H]3C[C@@]12O[C@H]1O[C@@H](CO)[C@H](O)[C@@H](O)[C@@H]1O
REMARK SMILES IDX 1 1 2 2 3 3 4 4 20 5 21 6 22 7 9 8 7 9 8 10 6 11 23 12 24 13
REMARK SMILES IDX 33 14 25 15 31 16 26 17 29 18 34 19 32 21 27 23 28 24 30 26
REMARK SMILES IDX 5 28 10 30 11 31 12 32 13 33 14 34 15 35 19 36 16 37 18 38
REMARK SMILES IDX 17 39
REMARK H PARENT 34 20 32 22 28 25 30 27 5 29
REMARK Flexibility Score: inf
ROOT
ATOM      1  C   UNL     1      12.584  12.379  -2.625  1.00  0.00     0.046 C 
ATOM      2  C   UNL     1      13.053  12.199  -4.079  1.00  0.00     0.104 C 
ATOM      3  C   UNL     1      11.783  11.936  -4.962  1.00  0.00     0.104 C 
ATOM      4  C   UNL     1      12.405  11.681  -6.407  1.00  0.00     0.175 C 
ATOM      5  C   UNL     1      13.616  10.687  -6.328  1.00  0.00     0.070 C 
ATOM      6  C   UNL     1      13.649   9.881  -5.004  1.00  0.00     0.050 C 
ATOM      7  C   UNL     1      14.239  11.160  -4.340  1.00  0.00     0.115 C 
ATOM      8  C   UNL     1      14.666  11.660  -5.776  1.00  0.00     0.096 C 
ATOM      9  C   UNL     1      14.096  13.029  -5.908  1.00  0.00     0.267 C 
ATOM     10  O   UNL     1      13.585  13.390  -4.651  1.00  0.00    -0.342 OA
ATOM     11  O   UNL     1      13.055  12.875  -6.875  1.00  0.00    -0.320 OA
ENDROOT
BRANCH   7  12
ATOM     12  O   UNL     1      15.316  11.119  -3.370  1.00  0.00    -0.339 OA
BRANCH  12  13
ATOM     13  C   UNL     1      15.534  12.303  -2.617  1.00  0.00     0.282 C 
ATOM     14  C   UNL     1      16.530  13.367  -3.232  1.00  0.00     0.202 C 
ATOM     15  O   UNL     1      15.736  11.928  -1.254  1.00  0.00    -0.341 OA
ATOM     16  C   UNL     1      17.965  13.337  -2.669  1.00  0.00     0.179 C 
ATOM     17  C   UNL     1      17.075  11.740  -0.797  1.00  0.00     0.178 C 
ATOM     18  C   UNL     1      17.945  12.994  -1.123  1.00  0.00     0.177 C 
BRANCH  14  19
ATOM     19  O   UNL     1      15.907  14.618  -2.975  1.00  0.00    -0.385 OA
ATOM     20  H   UNL     1      14.916  14.510  -3.018  1.00  0.00     0.211 HD
ENDBRANCH  14  19
BRANCH  16  21
ATOM     21  O   UNL     1      18.799  12.505  -3.396  1.00  0.00    -0.387 OA
ATOM     22  H   UNL     1      18.464  12.446  -4.331  1.00  0.00     0.211 HD
ENDBRANCH  16  21
BRANCH  17  23
ATOM     23  C   UNL     1      17.589  10.192  -1.046  1.00  0.00     0.191 C 
BRANCH  23  24
ATOM     24  O   UNL     1      17.672   9.942  -2.460  1.00  0.00    -0.394 OA
ATOM     25  H   UNL     1      18.512  10.366  -2.778  1.00  0.00     0.210 HD
ENDBRANCH  23  24
ENDBRANCH  17  23
BRANCH  18  26
ATOM     26  O   UNL     1      17.392  14.121  -0.457  1.00  0.00    -0.387 OA
ATOM     27  H   UNL     1      17.893  14.338   0.385  1.00  0.00     0.211 HD
ENDBRANCH  18  26
ENDBRANCH  12  13
ENDBRANCH   7  12
BRANCH   4  28
ATOM     28  O   UNL     1      11.457  11.209  -7.318  1.00  0.00    -0.365 OA
ATOM     29  H   UNL     1      11.693  11.622  -8.207  1.00  0.00     0.214 HD
ENDBRANCH   4  28
BRANCH   8  30
ATOM     30  C   UNL     1      16.027  11.436  -6.545  1.00  0.00     0.249 C 
BRANCH  30  31
ATOM     31  O   UNL     1      16.160  12.469  -7.527  1.00  0.00    -0.461 OA
BRANCH  31  32
ATOM     32  C   UNL     1      16.255  12.215  -8.895  1.00  0.00     0.338 C 
ATOM     33  O   UNL     1      17.303  12.605  -9.508  1.00  0.00    -0.246 OA
BRANCH  32  34
ATOM     34  C   UNL     1      15.236  11.409  -9.596  1.00  0.00     0.060 A 
ATOM     35  C   UNL     1      13.954  11.957  -9.874  1.00  0.00     0.015 A 
ATOM     36  C   UNL     1      15.516  10.088 -10.005  1.00  0.00     0.015 A 
ATOM     37  C   UNL     1      12.994  11.189 -10.529  1.00  0.00     0.001 A 
ATOM     38  C   UNL     1      14.548   9.320 -10.663  1.00  0.00     0.001 A 
ATOM     39  C   UNL     1      13.290   9.875 -10.927  1.00  0.00     0.000 A 
ENDBRANCH  32  34
ENDBRANCH  31  32
ENDBRANCH  30  31
ENDBRANCH   8  30
TORSDOF 12
ENDMDL
