MODEL 1
REMARK VINA RESULT:    -6.021      0.000      0.000
REMARK INTER + INTRA:          -7.020
REMARK INTER:                  -6.901
REMARK INTRA:                  -0.120
REMARK UNBOUND:                -0.120
REMARK SMILES COc1cc(C(C)=O)ccc1O
REMARK SMILES IDX 5 1 4 2 3 3 11 4 10 5 9 6 6 7 7 8 8 9 2 10 1 11 12 12
REMARK H PARENT 12 13
REMARK Flexibility Score: inf
ROOT
ATOM      1  C   UNL     1     -27.906  23.316  13.600  1.00  0.00     0.021 A 
ATOM      2  C   UNL     1     -29.089  22.751  13.087  1.00  0.00     0.062 A 
ATOM      3  C   UNL     1     -29.858  23.430  12.120  1.00  0.00     0.161 A 
ATOM      4  C   UNL     1     -29.432  24.690  11.667  1.00  0.00     0.157 A 
ATOM      5  C   UNL     1     -28.259  25.255  12.172  1.00  0.00     0.051 A 
ATOM      6  C   UNL     1     -27.501  24.578  13.129  1.00  0.00     0.016 A 
ENDROOT
BRANCH   1   7
ATOM      7  C   UNL     1     -27.109  22.581  14.621  1.00  0.00     0.159 C 
ATOM      8  C   UNL     1     -25.873  23.167  15.235  1.00  0.00     0.093 C 
ATOM      9  O   UNL     1     -27.471  21.430  14.989  1.00  0.00    -0.295 OA
ENDBRANCH   1   7
BRANCH   3  10
ATOM     10  O   UNL     1     -31.041  22.887  11.594  1.00  0.00    -0.493 OA
ATOM     11  C   UNL     1     -32.012  22.173  12.353  1.00  0.00     0.278 C 
ENDBRANCH   3  10
BRANCH   4  12
ATOM     12  O   UNL     1     -30.161  25.398  10.711  1.00  0.00    -0.504 OA
ATOM     13  H   UNL     1     -31.160  25.276  10.596  1.00  0.00     0.293 HD
ENDBRANCH   4  12
TORSDOF 3
ENDMDL
MODEL 2
REMARK VINA RESULT:    -5.876      2.034      4.038
REMARK INTER + INTRA:          -6.855
REMARK INTER:                  -6.755
REMARK INTRA:                  -0.100
REMARK UNBOUND:                -0.120
REMARK SMILES COc1cc(C(C)=O)ccc1O
REMARK SMILES IDX 5 1 4 2 3 3 11 4 10 5 9 6 6 7 7 8 8 9 2 10 1 11 12 12
REMARK H PARENT 12 13
REMARK Flexibility Score: inf
ROOT
ATOM      1  C   UNL     1     -28.046  23.236  12.965  1.00  0.00     0.021 A 
ATOM      2  C   UNL     1     -29.146  22.511  13.463  1.00  0.00     0.062 A 
ATOM      3  C   UNL     1     -29.198  22.108  14.813  1.00  0.00     0.161 A 
ATOM      4  C   UNL     1     -28.133  22.438  15.669  1.00  0.00     0.157 A 
ATOM      5  C   UNL     1     -27.040  23.157  15.180  1.00  0.00     0.051 A 
ATOM      6  C   UNL     1     -26.993  23.554  13.843  1.00  0.00     0.016 A 
ENDROOT
BRANCH   1   7
ATOM      7  C   UNL     1     -28.011  23.652  11.536  1.00  0.00     0.159 C 
ATOM      8  C   UNL     1     -27.933  25.093  11.130  1.00  0.00     0.093 C 
ATOM      9  O   UNL     1     -28.048  22.777  10.628  1.00  0.00    -0.295 OA
ENDBRANCH   1   7
BRANCH   3  10
ATOM     10  O   UNL     1     -30.284  21.385  15.332  1.00  0.00    -0.493 OA
ATOM     11  C   UNL     1     -30.353  19.964  15.400  1.00  0.00     0.278 C 
ENDBRANCH   3  10
BRANCH   4  12
ATOM     12  O   UNL     1     -28.143  22.060  17.012  1.00  0.00    -0.504 OA
ATOM     13  H   UNL     1     -27.332  22.166  17.608  1.00  0.00     0.293 HD
ENDBRANCH   4  12
TORSDOF 3
ENDMDL
MODEL 3
REMARK VINA RESULT:    -5.856     16.072     17.778
REMARK INTER + INTRA:          -6.831
REMARK INTER:                  -6.713
REMARK INTRA:                  -0.119
REMARK UNBOUND:                -0.120
REMARK SMILES COc1cc(C(C)=O)ccc1O
REMARK SMILES IDX 5 1 4 2 3 3 11 4 10 5 9 6 6 7 7 8 8 9 2 10 1 11 12 12
REMARK H PARENT 12 13
REMARK Flexibility Score: inf
ROOT
ATOM      1  C   UNL     1     -18.587  36.359  13.020  1.00  0.00     0.021 A 
ATOM      2  C   UNL     1     -17.488  37.082  13.522  1.00  0.00     0.062 A 
ATOM      3  C   UNL     1     -17.434  37.474  14.875  1.00  0.00     0.161 A 
ATOM      4  C   UNL     1     -18.497  37.135  15.730  1.00  0.00     0.157 A 
ATOM      5  C   UNL     1     -19.589  36.418  15.237  1.00  0.00     0.051 A 
ATOM      6  C   UNL     1     -19.638  36.032  13.896  1.00  0.00     0.016 A 
ENDROOT
BRANCH   1   7
ATOM      7  C   UNL     1     -18.624  35.955  11.587  1.00  0.00     0.159 C 
ATOM      8  C   UNL     1     -18.544  34.518  11.165  1.00  0.00     0.093 C 
ATOM      9  O   UNL     1     -18.723  36.836  10.691  1.00  0.00    -0.295 OA
ENDBRANCH   1   7
BRANCH   3  10
ATOM     10  O   UNL     1     -16.349  38.195  15.399  1.00  0.00    -0.493 OA
ATOM     11  C   UNL     1     -16.218  39.612  15.347  1.00  0.00     0.278 C 
ENDBRANCH   3  10
BRANCH   4  12
ATOM     12  O   UNL     1     -18.485  37.502  17.076  1.00  0.00    -0.504 OA
ATOM     13  H   UNL     1     -17.811  38.158  17.450  1.00  0.00     0.293 HD
ENDBRANCH   4  12
TORSDOF 3
ENDMDL
MODEL 4
REMARK VINA RESULT:    -5.850     15.813     17.363
REMARK INTER + INTRA:          -6.825
REMARK INTER:                  -6.729
REMARK INTRA:                  -0.096
REMARK UNBOUND:                -0.120
REMARK SMILES COc1cc(C(C)=O)ccc1O
REMARK SMILES IDX 5 1 4 2 3 3 11 4 10 5 9 6 6 7 7 8 8 9 2 10 1 11 12 12
REMARK H PARENT 12 13
REMARK Flexibility Score: inf
ROOT
ATOM      1  C   UNL     1     -18.441  36.197  14.100  1.00  0.00     0.021 A 
ATOM      2  C   UNL     1     -17.118  36.556  13.783  1.00  0.00     0.062 A 
ATOM      3  C   UNL     1     -16.469  36.013  12.654  1.00  0.00     0.161 A 
ATOM      4  C   UNL     1     -17.160  35.100  11.840  1.00  0.00     0.157 A 
ATOM      5  C   UNL     1     -18.473  34.740  12.151  1.00  0.00     0.051 A 
ATOM      6  C   UNL     1     -19.111  35.281  13.269  1.00  0.00     0.016 A 
ENDROOT
BRANCH   1   7
ATOM      7  C   UNL     1     -19.107  36.782  15.296  1.00  0.00     0.159 C 
ATOM      8  C   UNL     1     -18.409  37.760  16.194  1.00  0.00     0.093 C 
ATOM      9  O   UNL     1     -20.292  36.454  15.577  1.00  0.00    -0.295 OA
ENDBRANCH   1   7
BRANCH   3  10
ATOM     10  O   UNL     1     -15.150  36.357  12.317  1.00  0.00    -0.493 OA
ATOM     11  C   UNL     1     -14.589  37.658  12.464  1.00  0.00     0.278 C 
ENDBRANCH   3  10
BRANCH   4  12
ATOM     12  O   UNL     1     -16.557  34.538  10.714  1.00  0.00    -0.504 OA
ATOM     13  H   UNL     1     -15.551  34.477  10.615  1.00  0.00     0.293 HD
ENDBRANCH   4  12
TORSDOF 3
ENDMDL
MODEL 5
REMARK VINA RESULT:    -5.770     16.163     17.574
REMARK INTER + INTRA:          -6.733
REMARK INTER:                  -6.627
REMARK INTRA:                  -0.106
REMARK UNBOUND:                -0.120
REMARK SMILES COc1cc(C(C)=O)ccc1O
REMARK SMILES IDX 5 1 4 2 3 3 11 4 10 5 9 6 6 7 7 8 8 9 2 10 1 11 12 12
REMARK H PARENT 12 13
REMARK Flexibility Score: inf
ROOT
ATOM      1  C   UNL     1     -17.997  36.838  14.268  1.00  0.00     0.021 A 
ATOM      2  C   UNL     1     -18.416  36.471  12.976  1.00  0.00     0.062 A 
ATOM      3  C   UNL     1     -17.513  36.466  11.893  1.00  0.00     0.161 A 
ATOM      4  C   UNL     1     -16.175  36.835  12.115  1.00  0.00     0.157 A 
ATOM      5  C   UNL     1     -15.754  37.201  13.396  1.00  0.00     0.051 A 
ATOM      6  C   UNL     1     -16.652  37.204  14.464  1.00  0.00     0.016 A 
ENDROOT
BRANCH   1   7
ATOM      7  C   UNL     1     -18.968  36.837  15.397  1.00  0.00     0.159 C 
ATOM      8  C   UNL     1     -20.346  36.262  15.258  1.00  0.00     0.093 C 
ATOM      9  O   UNL     1     -18.636  37.332  16.509  1.00  0.00    -0.295 OA
ENDBRANCH   1   7
BRANCH   3  10
ATOM     10  O   UNL     1     -17.908  36.103  10.596  1.00  0.00    -0.493 OA
ATOM     11  C   UNL     1     -18.928  36.757   9.847  1.00  0.00     0.278 C 
ENDBRANCH   3  10
BRANCH   4  12
ATOM     12  O   UNL     1     -15.247  36.844  11.073  1.00  0.00    -0.504 OA
ATOM     13  H   UNL     1     -15.319  37.485  10.293  1.00  0.00     0.293 HD
ENDBRANCH   4  12
TORSDOF 3
ENDMDL
MODEL 6
REMARK VINA RESULT:    -5.731     17.079     18.379
REMARK INTER + INTRA:          -6.688
REMARK INTER:                  -6.583
REMARK INTRA:                  -0.105
REMARK UNBOUND:                -0.120
REMARK SMILES COc1cc(C(C)=O)ccc1O
REMARK SMILES IDX 5 1 4 2 3 3 11 4 10 5 9 6 6 7 7 8 8 9 2 10 1 11 12 12
REMARK H PARENT 12 13
REMARK Flexibility Score: inf
ROOT
ATOM      1  C   UNL     1     -16.948  38.074  14.775  1.00  0.00     0.021 A 
ATOM      2  C   UNL     1     -16.954  36.718  14.400  1.00  0.00     0.062 A 
ATOM      3  C   UNL     1     -16.926  36.339  13.042  1.00  0.00     0.161 A 
ATOM      4  C   UNL     1     -16.893  37.337  12.053  1.00  0.00     0.157 A 
ATOM      5  C   UNL     1     -16.887  38.685  12.420  1.00  0.00     0.051 A 
ATOM      6  C   UNL     1     -16.915  39.054  13.766  1.00  0.00     0.016 A 
ENDROOT
BRANCH   1   7
ATOM      7  C   UNL     1     -16.979  38.452  16.215  1.00  0.00     0.159 C 
ATOM      8  C   UNL     1     -18.164  38.160  17.087  1.00  0.00     0.093 C 
ATOM      9  O   UNL     1     -15.987  39.035  16.731  1.00  0.00    -0.295 OA
ENDBRANCH   1   7
BRANCH   3  10
ATOM     10  O   UNL     1     -16.931  34.993  12.644  1.00  0.00    -0.493 OA
ATOM     11  C   UNL     1     -18.105  34.217  12.425  1.00  0.00     0.278 C 
ENDBRANCH   3  10
BRANCH   4  12
ATOM     12  O   UNL     1     -16.864  37.009  10.698  1.00  0.00    -0.504 OA
ATOM     13  H   UNL     1     -16.601  36.087  10.371  1.00  0.00     0.293 HD
ENDBRANCH   4  12
TORSDOF 3
ENDMDL
MODEL 7
REMARK VINA RESULT:    -5.723      2.364      3.445
REMARK INTER + INTRA:          -6.679
REMARK INTER:                  -6.574
REMARK INTRA:                  -0.104
REMARK UNBOUND:                -0.120
REMARK SMILES COc1cc(C(C)=O)ccc1O
REMARK SMILES IDX 5 1 4 2 3 3 11 4 10 5 9 6 6 7 7 8 8 9 2 10 1 11 12 12
REMARK H PARENT 12 13
REMARK Flexibility Score: inf
ROOT
ATOM      1  C   UNL     1     -29.806  21.335  14.787  1.00  0.00     0.021 A 
ATOM      2  C   UNL     1     -29.808  22.695  14.423  1.00  0.00     0.062 A 
ATOM      3  C   UNL     1     -29.839  23.084  13.068  1.00  0.00     0.161 A 
ATOM      4  C   UNL     1     -29.866  22.094  12.071  1.00  0.00     0.157 A 
ATOM      5  C   UNL     1     -29.864  20.743  12.427  1.00  0.00     0.051 A 
ATOM      6  C   UNL     1     -29.834  20.363  13.769  1.00  0.00     0.016 A 
ENDROOT
BRANCH   1   7
ATOM      7  C   UNL     1     -29.773  20.946  16.224  1.00  0.00     0.159 C 
ATOM      8  C   UNL     1     -28.552  21.146  17.072  1.00  0.00     0.093 C 
ATOM      9  O   UNL     1     -30.794  20.432  16.757  1.00  0.00    -0.295 OA
ENDBRANCH   1   7
BRANCH   3  10
ATOM     10  O   UNL     1     -29.843  24.434  12.681  1.00  0.00    -0.493 OA
ATOM     11  C   UNL     1     -28.673  25.218  12.467  1.00  0.00     0.278 C 
ENDBRANCH   3  10
BRANCH   4  12
ATOM     12  O   UNL     1     -29.897  22.433  10.719  1.00  0.00    -0.504 OA
ATOM     13  H   UNL     1     -30.197  21.780  10.005  1.00  0.00     0.293 HD
ENDBRANCH   4  12
TORSDOF 3
ENDMDL
MODEL 8
REMARK VINA RESULT:    -5.718      1.195      2.683
REMARK INTER + INTRA:          -6.673
REMARK INTER:                  -6.581
REMARK INTRA:                  -0.092
REMARK UNBOUND:                -0.120
REMARK SMILES COc1cc(C(C)=O)ccc1O
REMARK SMILES IDX 5 1 4 2 3 3 11 4 10 5 9 6 6 7 7 8 8 9 2 10 1 11 12 12
REMARK H PARENT 12 13
REMARK Flexibility Score: inf
ROOT
ATOM      1  C   UNL     1     -28.777  22.705  14.355  1.00  0.00     0.021 A 
ATOM      2  C   UNL     1     -28.584  23.589  13.276  1.00  0.00     0.062 A 
ATOM      3  C   UNL     1     -29.546  23.703  12.251  1.00  0.00     0.161 A 
ATOM      4  C   UNL     1     -30.710  22.918  12.312  1.00  0.00     0.157 A 
ATOM      5  C   UNL     1     -30.905  22.039  13.380  1.00  0.00     0.051 A 
ATOM      6  C   UNL     1     -29.951  21.930  14.392  1.00  0.00     0.016 A 
ENDROOT
BRANCH   1   7
ATOM      7  C   UNL     1     -27.749  22.601  15.427  1.00  0.00     0.159 C 
ATOM      8  C   UNL     1     -26.381  23.196  15.275  1.00  0.00     0.093 C 
ATOM      9  O   UNL     1     -28.021  21.995  16.499  1.00  0.00    -0.295 OA
ENDBRANCH   1   7
BRANCH   3  10
ATOM     10  O   UNL     1     -29.376  24.578  11.166  1.00  0.00    -0.493 OA
ATOM     11  C   UNL     1     -28.135  25.162  10.782  1.00  0.00     0.278 C 
ENDBRANCH   3  10
BRANCH   4  12
ATOM     12  O   UNL     1     -31.687  22.999  11.319  1.00  0.00    -0.504 OA
ATOM     13  H   UNL     1     -32.298  23.801  11.228  1.00  0.00     0.293 HD
ENDBRANCH   4  12
TORSDOF 3
ENDMDL
MODEL 9
REMARK VINA RESULT:    -5.544      1.687      2.393
REMARK INTER + INTRA:          -6.474
REMARK INTER:                  -6.345
REMARK INTRA:                  -0.129
REMARK UNBOUND:                -0.120
REMARK SMILES COc1cc(C(C)=O)ccc1O
REMARK SMILES IDX 5 1 4 2 3 3 11 4 10 5 9 6 6 7 7 8 8 9 2 10 1 11 12 12
REMARK H PARENT 12 13
REMARK Flexibility Score: inf
ROOT
ATOM      1  C   UNL     1     -27.961  23.303  13.800  1.00  0.00     0.021 A 
ATOM      2  C   UNL     1     -27.437  23.343  12.495  1.00  0.00     0.062 A 
ATOM      3  C   UNL     1     -28.103  24.042  11.466  1.00  0.00     0.161 A 
ATOM      4  C   UNL     1     -29.307  24.705  11.756  1.00  0.00     0.157 A 
ATOM      5  C   UNL     1     -29.831  24.669  13.050  1.00  0.00     0.051 A 
ATOM      6  C   UNL     1     -29.169  23.976  14.065  1.00  0.00     0.016 A 
ENDROOT
BRANCH   1   7
ATOM      7  C   UNL     1     -27.243  22.559  14.871  1.00  0.00     0.159 C 
ATOM      8  C   UNL     1     -27.967  21.935  16.027  1.00  0.00     0.093 C 
ATOM      9  O   UNL     1     -25.988  22.442  14.819  1.00  0.00    -0.295 OA
ENDBRANCH   1   7
BRANCH   3  10
ATOM     10  O   UNL     1     -27.599  24.096  10.157  1.00  0.00    -0.493 OA
ATOM     11  C   UNL     1     -27.855  23.122   9.149  1.00  0.00     0.278 C 
ENDBRANCH   3  10
BRANCH   4  12
ATOM     12  O   UNL     1     -29.998  25.409  10.770  1.00  0.00    -0.504 OA
ATOM     13  H   UNL     1     -30.016  26.421  10.742  1.00  0.00     0.293 HD
ENDBRANCH   4  12
TORSDOF 3
ENDMDL
