MODEL 1
REMARK VINA RESULT:    -3.926      0.000      0.000
REMARK INTER + INTRA:          -7.895
REMARK INTER:                  -6.680
REMARK INTRA:                  -1.216
REMARK UNBOUND:                -1.216
REMARK SMILES CCCCCCCCCCCCCC(=O)[O-]
REMARK SMILES IDX 8 1 9 2 10 3 11 4 12 5 13 6 14 7 15 8 16 9 7 10 6 11 5 12
REMARK SMILES IDX 4 13 3 14 2 15 1 16
REMARK H PARENT
REMARK Flexibility Score: inf
ROOT
ATOM      1  C   UNL     1      33.587  18.112 -18.568  1.00  0.00     0.000 C 
ENDROOT
BRANCH   1   2
ATOM      2  C   UNL     1      32.436  17.265 -19.131  1.00  0.00     0.000 C 
BRANCH   2   3
ATOM      3  C   UNL     1      31.055  17.719 -18.624  1.00  0.00     0.000 C 
BRANCH   3   4
ATOM      4  C   UNL     1      29.993  16.604 -18.532  1.00  0.00     0.000 C 
BRANCH   4   5
ATOM      5  C   UNL     1      28.637  17.039 -17.950  1.00  0.00     0.006 C 
BRANCH   5   6
ATOM      6  C   UNL     1      28.548  18.554 -17.720  1.00  0.00     0.053 C 
BRANCH   6   7
ATOM      7  C   UNL     1      27.200  19.064 -18.121  1.00  0.00     0.041 C 
ATOM      8  O   UNL     1      27.061  20.259 -18.494  1.00  0.00    -0.550 OA
ATOM      9  O   UNL     1      26.089  18.235 -18.035  1.00  0.00    -0.550 OA
ENDBRANCH   6   7
ENDBRANCH   5   6
ENDBRANCH   4   5
ENDBRANCH   3   4
ENDBRANCH   2   3
ENDBRANCH   1   2
BRANCH   1  10
ATOM     10  C   UNL     1      34.650  17.222 -17.909  1.00  0.00     0.000 C 
BRANCH  10  11
ATOM     11  C   UNL     1      34.235  15.743 -17.854  1.00  0.00    -0.000 C 
BRANCH  11  12
ATOM     12  C   UNL     1      34.697  15.046 -16.565  1.00  0.00    -0.000 C 
BRANCH  12  13
ATOM     13  C   UNL     1      33.686  13.974 -16.131  1.00  0.00    -0.000 C 
BRANCH  13  14
ATOM     14  C   UNL     1      32.303  14.169 -16.770  1.00  0.00    -0.000 C 
BRANCH  14  15
ATOM     15  C   UNL     1      31.173  13.533 -15.945  1.00  0.00    -0.003 C 
ATOM     16  C   UNL     1      30.191  14.590 -15.451  1.00  0.00     0.004 C 
ENDBRANCH  14  15
ENDBRANCH  13  14
ENDBRANCH  12  13
ENDBRANCH  11  12
ENDBRANCH  10  11
ENDBRANCH   1  10
TORSDOF 12
ENDMDL
MODEL 2
REMARK VINA RESULT:    -3.904      2.231      4.334
REMARK INTER + INTRA:          -7.859
REMARK INTER:                  -6.468
REMARK INTRA:                  -1.391
REMARK UNBOUND:                -1.216
REMARK SMILES CCCCCCCCCCCCCC(=O)[O-]
REMARK SMILES IDX 8 1 9 2 10 3 11 4 12 5 13 6 14 7 15 8 16 9 7 10 6 11 5 12
REMARK SMILES IDX 4 13 3 14 2 15 1 16
REMARK H PARENT
REMARK Flexibility Score: inf
ROOT
ATOM      1  C   UNL     1      34.794  14.732 -16.489  1.00  0.00     0.000 C 
ENDROOT
BRANCH   1   2
ATOM      2  C   UNL     1      33.801  13.642 -16.059  1.00  0.00     0.000 C 
BRANCH   2   3
ATOM      3  C   UNL     1      32.333  14.092 -16.168  1.00  0.00     0.000 C 
BRANCH   3   4
ATOM      4  C   UNL     1      31.289  12.997 -15.867  1.00  0.00     0.000 C 
BRANCH   4   5
ATOM      5  C   UNL     1      30.012  13.488 -15.162  1.00  0.00     0.006 C 
BRANCH   5   6
ATOM      6  C   UNL     1      28.812  13.592 -16.112  1.00  0.00     0.053 C 
BRANCH   6   7
ATOM      7  C   UNL     1      27.977  14.785 -15.768  1.00  0.00     0.041 C 
ATOM      8  O   UNL     1      26.722  14.726 -15.856  1.00  0.00    -0.550 OA
ATOM      9  O   UNL     1      28.586  15.977 -15.398  1.00  0.00    -0.550 OA
ENDBRANCH   6   7
ENDBRANCH   5   6
ENDBRANCH   4   5
ENDBRANCH   3   4
ENDBRANCH   2   3
ENDBRANCH   1   2
BRANCH   1  10
ATOM     10  C   UNL     1      34.213  15.584 -17.627  1.00  0.00     0.000 C 
BRANCH  10  11
ATOM     11  C   UNL     1      34.831  16.990 -17.689  1.00  0.00    -0.000 C 
BRANCH  11  12
ATOM     12  C   UNL     1      33.929  18.002 -18.412  1.00  0.00    -0.000 C 
BRANCH  12  13
ATOM     13  C   UNL     1      32.798  17.286 -19.166  1.00  0.00    -0.000 C 
BRANCH  13  14
ATOM     14  C   UNL     1      31.402  17.751 -18.721  1.00  0.00    -0.000 C 
BRANCH  14  15
ATOM     15  C   UNL     1      30.482  16.581 -18.340  1.00  0.00    -0.003 C 
ATOM     16  C   UNL     1      30.790  15.344 -19.178  1.00  0.00     0.004 C 
ENDBRANCH  14  15
ENDBRANCH  13  14
ENDBRANCH  12  13
ENDBRANCH  11  12
ENDBRANCH  10  11
ENDBRANCH   1  10
TORSDOF 12
ENDMDL
MODEL 3
REMARK VINA RESULT:    -3.856      0.824      3.127
REMARK INTER + INTRA:          -7.777
REMARK INTER:                  -6.434
REMARK INTRA:                  -1.343
REMARK UNBOUND:                -1.216
REMARK SMILES CCCCCCCCCCCCCC(=O)[O-]
REMARK SMILES IDX 8 1 9 2 10 3 11 4 12 5 13 6 14 7 15 8 16 9 7 10 6 11 5 12
REMARK SMILES IDX 4 13 3 14 2 15 1 16
REMARK H PARENT
REMARK Flexibility Score: inf
ROOT
ATOM      1  C   UNL     1      31.220  14.429 -16.066  1.00  0.00     0.000 C 
ENDROOT
BRANCH   1   2
ATOM      2  C   UNL     1      30.176  14.878 -17.099  1.00  0.00     0.000 C 
BRANCH   2   3
ATOM      3  C   UNL     1      30.714  15.947 -18.069  1.00  0.00     0.000 C 
BRANCH   3   4
ATOM      4  C   UNL     1      29.743  17.106 -18.368  1.00  0.00     0.000 C 
BRANCH   4   5
ATOM      5  C   UNL     1      28.518  17.187 -17.439  1.00  0.00     0.006 C 
BRANCH   5   6
ATOM      6  C   UNL     1      28.104  18.631 -17.126  1.00  0.00     0.053 C 
BRANCH   6   7
ATOM      7  C   UNL     1      27.069  19.101 -18.099  1.00  0.00     0.041 C 
ATOM      8  O   UNL     1      27.330  20.039 -18.897  1.00  0.00    -0.550 OA
ATOM      9  O   UNL     1      25.801  18.535 -18.092  1.00  0.00    -0.550 OA
ENDBRANCH   6   7
ENDBRANCH   5   6
ENDBRANCH   4   5
ENDBRANCH   3   4
ENDBRANCH   2   3
ENDBRANCH   1   2
BRANCH   1  10
ATOM     10  C   UNL     1      32.376  13.681 -16.745  1.00  0.00     0.000 C 
BRANCH  10  11
ATOM     11  C   UNL     1      33.740  13.993 -16.109  1.00  0.00    -0.000 C 
BRANCH  11  12
ATOM     12  C   UNL     1      34.529  15.055 -16.889  1.00  0.00    -0.000 C 
BRANCH  12  13
ATOM     13  C   UNL     1      34.298  14.908 -18.401  1.00  0.00    -0.000 C 
BRANCH  13  14
ATOM     14  C   UNL     1      34.199  16.262 -19.120  1.00  0.00    -0.000 C 
BRANCH  14  15
ATOM     15  C   UNL     1      34.331  17.454 -18.160  1.00  0.00    -0.003 C 
ATOM     16  C   UNL     1      33.345  18.561 -18.520  1.00  0.00     0.004 C 
ENDBRANCH  14  15
ENDBRANCH  13  14
ENDBRANCH  12  13
ENDBRANCH  11  12
ENDBRANCH  10  11
ENDBRANCH   1  10
TORSDOF 12
ENDMDL
MODEL 4
REMARK VINA RESULT:    -3.847      1.768      4.194
REMARK INTER + INTRA:          -7.762
REMARK INTER:                  -6.372
REMARK INTRA:                  -1.390
REMARK UNBOUND:                -1.216
REMARK SMILES CCCCCCCCCCCCCC(=O)[O-]
REMARK SMILES IDX 8 1 9 2 10 3 11 4 12 5 13 6 14 7 15 8 16 9 7 10 6 11 5 12
REMARK SMILES IDX 4 13 3 14 2 15 1 16
REMARK H PARENT
REMARK Flexibility Score: inf
ROOT
ATOM      1  C   UNL     1      34.238  15.578 -17.954  1.00  0.00     0.000 C 
ENDROOT
BRANCH   1   2
ATOM      2  C   UNL     1      34.505  14.906 -16.599  1.00  0.00     0.000 C 
BRANCH   2   3
ATOM      3  C   UNL     1      33.309  14.076 -16.096  1.00  0.00     0.000 C 
BRANCH   3   4
ATOM      4  C   UNL     1      31.972  14.354 -16.813  1.00  0.00     0.000 C 
BRANCH   4   5
ATOM      5  C   UNL     1      30.756  14.521 -15.886  1.00  0.00     0.006 C 
BRANCH   5   6
ATOM      6  C   UNL     1      29.421  14.450 -16.638  1.00  0.00     0.053 C 
BRANCH   6   7
ATOM      7  C   UNL     1      28.414  15.354 -16.000  1.00  0.00     0.041 C 
ATOM      8  O   UNL     1      28.755  16.118 -15.059  1.00  0.00    -0.550 OA
ATOM      9  O   UNL     1      27.087  15.317 -16.411  1.00  0.00    -0.550 OA
ENDBRANCH   6   7
ENDBRANCH   5   6
ENDBRANCH   4   5
ENDBRANCH   3   4
ENDBRANCH   2   3
ENDBRANCH   1   2
BRANCH   1  10
ATOM     10  C   UNL     1      34.642  17.058 -17.920  1.00  0.00     0.000 C 
BRANCH  10  11
ATOM     11  C   UNL     1      33.533  17.988 -18.439  1.00  0.00    -0.000 C 
BRANCH  11  12
ATOM     12  C   UNL     1      33.055  17.611 -19.849  1.00  0.00    -0.000 C 
BRANCH  12  13
ATOM     13  C   UNL     1      31.623  17.059 -19.812  1.00  0.00    -0.000 C 
BRANCH  13  14
ATOM     14  C   UNL     1      30.810  17.597 -18.625  1.00  0.00    -0.000 C 
BRANCH  14  15
ATOM     15  C   UNL     1      29.310  17.713 -18.938  1.00  0.00    -0.003 C 
ATOM     16  C   UNL     1      28.572  18.451 -17.825  1.00  0.00     0.004 C 
ENDBRANCH  14  15
ENDBRANCH  13  14
ENDBRANCH  12  13
ENDBRANCH  11  12
ENDBRANCH  10  11
ENDBRANCH   1  10
TORSDOF 12
ENDMDL
MODEL 5
REMARK VINA RESULT:    -3.811      1.088      2.406
REMARK INTER + INTRA:          -7.700
REMARK INTER:                  -6.518
REMARK INTRA:                  -1.182
REMARK UNBOUND:                -1.216
REMARK SMILES CCCCCCCCCCCCCC(=O)[O-]
REMARK SMILES IDX 8 1 9 2 10 3 11 4 12 5 13 6 14 7 15 8 16 9 7 10 6 11 5 12
REMARK SMILES IDX 4 13 3 14 2 15 1 16
REMARK H PARENT
REMARK Flexibility Score: inf
ROOT
ATOM      1  C   UNL     1      34.045  15.763 -17.915  1.00  0.00     0.000 C 
ENDROOT
BRANCH   1   2
ATOM      2  C   UNL     1      34.556  17.211 -17.934  1.00  0.00     0.000 C 
BRANCH   2   3
ATOM      3  C   UNL     1      33.572  18.185 -18.606  1.00  0.00     0.000 C 
BRANCH   3   4
ATOM      4  C   UNL     1      32.374  17.519 -19.314  1.00  0.00     0.000 C 
BRANCH   4   5
ATOM      5  C   UNL     1      31.032  17.630 -18.568  1.00  0.00     0.006 C 
BRANCH   5   6
ATOM      6  C   UNL     1      29.829  17.709 -19.518  1.00  0.00     0.053 C 
BRANCH   6   7
ATOM      7  C   UNL     1      28.602  18.128 -18.773  1.00  0.00     0.041 C 
ATOM      8  O   UNL     1      28.700  18.855 -17.749  1.00  0.00    -0.550 OA
ATOM      9  O   UNL     1      27.353  17.675 -19.178  1.00  0.00    -0.550 OA
ENDBRANCH   6   7
ENDBRANCH   5   6
ENDBRANCH   4   5
ENDBRANCH   3   4
ENDBRANCH   2   3
ENDBRANCH   1   2
BRANCH   1  10
ATOM     10  C   UNL     1      34.658  14.981 -16.744  1.00  0.00     0.000 C 
BRANCH  10  11
ATOM     11  C   UNL     1      33.632  14.091 -16.024  1.00  0.00    -0.000 C 
BRANCH  11  12
ATOM     12  C   UNL     1      32.221  14.213 -16.618  1.00  0.00    -0.000 C 
BRANCH  12  13
ATOM     13  C   UNL     1      31.260  13.213 -15.956  1.00  0.00    -0.000 C 
BRANCH  13  14
ATOM     14  C   UNL     1      29.937  13.861 -15.521  1.00  0.00    -0.000 C 
BRANCH  14  15
ATOM     15  C   UNL     1      29.563  15.079 -16.380  1.00  0.00    -0.003 C 
ATOM     16  C   UNL     1      28.630  16.019 -15.624  1.00  0.00     0.004 C 
ENDBRANCH  14  15
ENDBRANCH  13  14
ENDBRANCH  12  13
ENDBRANCH  11  12
ENDBRANCH  10  11
ENDBRANCH   1  10
TORSDOF 12
ENDMDL
MODEL 6
REMARK VINA RESULT:    -3.783      2.455      5.668
REMARK INTER + INTRA:          -7.653
REMARK INTER:                  -6.541
REMARK INTRA:                  -1.112
REMARK UNBOUND:                -1.216
REMARK SMILES CCCCCCCCCCCCCC(=O)[O-]
REMARK SMILES IDX 8 1 9 2 10 3 11 4 12 5 13 6 14 7 15 8 16 9 7 10 6 11 5 12
REMARK SMILES IDX 4 13 3 14 2 15 1 16
REMARK H PARENT
REMARK Flexibility Score: inf
ROOT
ATOM      1  C   UNL     1      32.980  18.242 -18.585  1.00  0.00     0.000 C 
ENDROOT
BRANCH   1   2
ATOM      2  C   UNL     1      34.250  17.462 -18.217  1.00  0.00     0.000 C 
BRANCH   2   3
ATOM      3  C   UNL     1      34.040  15.937 -18.223  1.00  0.00     0.000 C 
BRANCH   3   4
ATOM      4  C   UNL     1      34.541  15.202 -16.963  1.00  0.00     0.000 C 
BRANCH   4   5
ATOM      5  C   UNL     1      33.471  14.388 -16.213  1.00  0.00     0.006 C 
BRANCH   5   6
ATOM      6  C   UNL     1      32.118  14.378 -16.936  1.00  0.00     0.053 C 
BRANCH   6   7
ATOM      7  C   UNL     1      31.020  14.025 -15.982  1.00  0.00     0.041 C 
ATOM      8  O   UNL     1      30.972  12.876 -15.470  1.00  0.00    -0.550 OA
ATOM      9  O   UNL     1      30.023  14.948 -15.697  1.00  0.00    -0.550 OA
ENDBRANCH   6   7
ENDBRANCH   5   6
ENDBRANCH   4   5
ENDBRANCH   3   4
ENDBRANCH   2   3
ENDBRANCH   1   2
BRANCH   1  10
ATOM     10  C   UNL     1      31.859  17.289 -19.023  1.00  0.00     0.000 C 
BRANCH  10  11
ATOM     11  C   UNL     1      30.457  17.847 -18.731  1.00  0.00    -0.000 C 
BRANCH  11  12
ATOM     12  C   UNL     1      29.367  16.766 -18.775  1.00  0.00    -0.000 C 
BRANCH  12  13
ATOM     13  C   UNL     1      28.175  17.154 -17.888  1.00  0.00    -0.000 C 
BRANCH  13  14
ATOM     14  C   UNL     1      28.255  18.604 -17.387  1.00  0.00    -0.000 C 
BRANCH  14  15
ATOM     15  C   UNL     1      26.971  19.400 -17.668  1.00  0.00    -0.003 C 
ATOM     16  C   UNL     1      27.017  20.048 -19.048  1.00  0.00     0.004 C 
ENDBRANCH  14  15
ENDBRANCH  13  14
ENDBRANCH  12  13
ENDBRANCH  11  12
ENDBRANCH  10  11
ENDBRANCH   1  10
TORSDOF 12
ENDMDL
MODEL 7
REMARK VINA RESULT:    -3.769     12.217     14.251
REMARK INTER + INTRA:          -7.628
REMARK INTER:                  -5.952
REMARK INTRA:                  -1.676
REMARK UNBOUND:                -1.216
REMARK SMILES CCCCCCCCCCCCCC(=O)[O-]
REMARK SMILES IDX 8 1 9 2 10 3 11 4 12 5 13 6 14 7 15 8 16 9 7 10 6 11 5 12
REMARK SMILES IDX 4 13 3 14 2 15 1 16
REMARK H PARENT
REMARK Flexibility Score: inf
ROOT
ATOM      1  C   UNL     1      27.590  28.522 -18.284  1.00  0.00     0.000 C 
ENDROOT
BRANCH   1   2
ATOM      2  C   UNL     1      28.079  29.948 -18.576  1.00  0.00     0.000 C 
BRANCH   2   3
ATOM      3  C   UNL     1      27.107  30.744 -19.467  1.00  0.00     0.000 C 
BRANCH   3   4
ATOM      4  C   UNL     1      25.654  30.809 -18.955  1.00  0.00     0.000 C 
BRANCH   4   5
ATOM      5  C   UNL     1      25.478  31.467 -17.575  1.00  0.00     0.006 C 
BRANCH   5   6
ATOM      6  C   UNL     1      24.235  32.365 -17.499  1.00  0.00     0.053 C 
BRANCH   6   7
ATOM      7  C   UNL     1      23.088  31.617 -16.898  1.00  0.00     0.041 C 
ATOM      8  O   UNL     1      22.966  31.543 -15.647  1.00  0.00    -0.550 OA
ATOM      9  O   UNL     1      22.179  30.961 -17.718  1.00  0.00    -0.550 OA
ENDBRANCH   6   7
ENDBRANCH   5   6
ENDBRANCH   4   5
ENDBRANCH   3   4
ENDBRANCH   2   3
ENDBRANCH   1   2
BRANCH   1  10
ATOM     10  C   UNL     1      27.529  27.689 -19.572  1.00  0.00     0.000 C 
BRANCH  10  11
ATOM     11  C   UNL     1      26.383  26.664 -19.562  1.00  0.00    -0.000 C 
BRANCH  11  12
ATOM     12  C   UNL     1      24.997  27.324 -19.577  1.00  0.00    -0.000 C 
BRANCH  12  13
ATOM     13  C   UNL     1      24.188  26.927 -18.333  1.00  0.00    -0.000 C 
BRANCH  13  14
ATOM     14  C   UNL     1      24.188  28.019 -17.252  1.00  0.00    -0.000 C 
BRANCH  14  15
ATOM     15  C   UNL     1      25.146  27.706 -16.093  1.00  0.00    -0.003 C 
ATOM     16  C   UNL     1      24.944  28.679 -14.935  1.00  0.00     0.004 C 
ENDBRANCH  14  15
ENDBRANCH  13  14
ENDBRANCH  12  13
ENDBRANCH  11  12
ENDBRANCH  10  11
ENDBRANCH   1  10
TORSDOF 12
ENDMDL
MODEL 8
REMARK VINA RESULT:    -3.640      2.628      5.464
REMARK INTER + INTRA:          -7.409
REMARK INTER:                  -5.928
REMARK INTRA:                  -1.481
REMARK UNBOUND:                -1.216
REMARK SMILES CCCCCCCCCCCCCC(=O)[O-]
REMARK SMILES IDX 8 1 9 2 10 3 11 4 12 5 13 6 14 7 15 8 16 9 7 10 6 11 5 12
REMARK SMILES IDX 4 13 3 14 2 15 1 16
REMARK H PARENT
REMARK Flexibility Score: inf
ROOT
ATOM      1  C   UNL     1      32.415  12.876 -16.265  1.00  0.00     0.000 C 
ENDROOT
BRANCH   1   2
ATOM      2  C   UNL     1      33.125  14.210 -15.989  1.00  0.00     0.000 C 
BRANCH   2   3
ATOM      3  C   UNL     1      34.366  14.423 -16.874  1.00  0.00     0.000 C 
BRANCH   3   4
ATOM      4  C   UNL     1      34.082  14.516 -18.387  1.00  0.00     0.000 C 
BRANCH   4   5
ATOM      5  C   UNL     1      34.585  15.802 -19.067  1.00  0.00     0.006 C 
BRANCH   5   6
ATOM      6  C   UNL     1      34.436  17.043 -18.177  1.00  0.00     0.053 C 
BRANCH   6   7
ATOM      7  C   UNL     1      33.690  18.118 -18.903  1.00  0.00     0.041 C 
ATOM      8  O   UNL     1      33.417  17.985 -20.125  1.00  0.00    -0.550 OA
ATOM      9  O   UNL     1      33.339  19.288 -18.242  1.00  0.00    -0.550 OA
ENDBRANCH   6   7
ENDBRANCH   5   6
ENDBRANCH   4   5
ENDBRANCH   3   4
ENDBRANCH   2   3
ENDBRANCH   1   2
BRANCH   1  10
ATOM     10  C   UNL     1      30.890  13.055 -16.256  1.00  0.00     0.000 C 
BRANCH  10  11
ATOM     11  C   UNL     1      30.427  14.151 -15.283  1.00  0.00    -0.000 C 
BRANCH  11  12
ATOM     12  C   UNL     1      29.576  15.231 -15.969  1.00  0.00    -0.000 C 
BRANCH  12  13
ATOM     13  C   UNL     1      29.692  15.130 -17.497  1.00  0.00    -0.000 C 
BRANCH  13  14
ATOM     14  C   UNL     1      30.716  16.115 -18.081  1.00  0.00    -0.000 C 
BRANCH  14  15
ATOM     15  C   UNL     1      30.089  17.100 -19.080  1.00  0.00    -0.003 C 
ATOM     16  C   UNL     1      29.086  18.019 -18.390  1.00  0.00     0.004 C 
ENDBRANCH  14  15
ENDBRANCH  13  14
ENDBRANCH  12  13
ENDBRANCH  11  12
ENDBRANCH  10  11
ENDBRANCH   1  10
TORSDOF 12
ENDMDL
MODEL 9
REMARK VINA RESULT:    -3.630      1.179      3.794
REMARK INTER + INTRA:          -7.393
REMARK INTER:                  -5.977
REMARK INTRA:                  -1.416
REMARK UNBOUND:                -1.216
REMARK SMILES CCCCCCCCCCCCCC(=O)[O-]
REMARK SMILES IDX 8 1 9 2 10 3 11 4 12 5 13 6 14 7 15 8 16 9 7 10 6 11 5 12
REMARK SMILES IDX 4 13 3 14 2 15 1 16
REMARK H PARENT
REMARK Flexibility Score: inf
ROOT
ATOM      1  C   UNL     1      31.154  12.888 -16.360  1.00  0.00     0.000 C 
ENDROOT
BRANCH   1   2
ATOM      2  C   UNL     1      30.521  13.831 -15.326  1.00  0.00     0.000 C 
BRANCH   2   3
ATOM      3  C   UNL     1      29.808  15.034 -15.970  1.00  0.00     0.000 C 
BRANCH   3   4
ATOM      4  C   UNL     1      29.893  15.097 -17.509  1.00  0.00     0.000 C 
BRANCH   4   5
ATOM      5  C   UNL     1      30.197  16.490 -18.089  1.00  0.00     0.006 C 
BRANCH   5   6
ATOM      6  C   UNL     1      29.011  17.084 -18.861  1.00  0.00     0.053 C 
BRANCH   6   7
ATOM      7  C   UNL     1      28.046  17.730 -17.919  1.00  0.00     0.041 C 
ATOM      8  O   UNL     1      26.895  17.244 -17.760  1.00  0.00    -0.550 OA
ATOM      9  O   UNL     1      28.398  18.897 -17.254  1.00  0.00    -0.550 OA
ENDBRANCH   6   7
ENDBRANCH   5   6
ENDBRANCH   4   5
ENDBRANCH   3   4
ENDBRANCH   2   3
ENDBRANCH   1   2
BRANCH   1  10
ATOM     10  C   UNL     1      32.685  12.897 -16.244  1.00  0.00     0.000 C 
BRANCH  10  11
ATOM     11  C   UNL     1      33.254  14.304 -16.001  1.00  0.00    -0.000 C 
BRANCH  11  12
ATOM     12  C   UNL     1      34.286  14.718 -17.061  1.00  0.00    -0.000 C 
BRANCH  12  13
ATOM     13  C   UNL     1      33.597  15.083 -18.384  1.00  0.00    -0.000 C 
BRANCH  13  14
ATOM     14  C   UNL     1      34.236  16.300 -19.070  1.00  0.00    -0.000 C 
BRANCH  14  15
ATOM     15  C   UNL     1      34.386  17.502 -18.125  1.00  0.00    -0.003 C 
ATOM     16  C   UNL     1      33.368  18.590 -18.455  1.00  0.00     0.004 C 
ENDBRANCH  14  15
ENDBRANCH  13  14
ENDBRANCH  12  13
ENDBRANCH  11  12
ENDBRANCH  10  11
ENDBRANCH   1  10
TORSDOF 12
ENDMDL
