MODEL 1
REMARK VINA RESULT:    -3.298      0.000      0.000
REMARK INTER + INTRA:          -6.281
REMARK INTER:                  -5.033
REMARK INTRA:                  -1.248
REMARK UNBOUND:                -1.248
REMARK SMILES CC(=O)CCC=C(C)CCC=C(C)CCC=C(C)C
REMARK SMILES IDX 10 1 11 2 12 3 13 4 14 5 15 6 16 7 18 8 17 9 19 10 9 11 7 12
REMARK SMILES IDX 6 13 8 14 5 15 4 16 2 17 3 18 1 19
REMARK H PARENT
REMARK Flexibility Score: inf
ROOT
ATOM      1  C   UNL     1      25.853  23.646  25.002  1.00  0.00     0.032 C 
ENDROOT
BRANCH   1   2
ATOM      2  C   UNL     1      25.957  23.307  26.469  1.00  0.00    -0.028 C 
ATOM      3  C   UNL     1      24.908  23.132  27.306  1.00  0.00    -0.077 C 
ATOM      4  C   UNL     1      25.197  22.875  28.763  1.00  0.00     0.039 C 
BRANCH   3   5
ATOM      5  C   UNL     1      23.460  23.148  26.850  1.00  0.00     0.034 C 
BRANCH   5   6
ATOM      6  C   UNL     1      22.604  24.102  27.693  1.00  0.00     0.032 C 
BRANCH   6   7
ATOM      7  C   UNL     1      23.258  25.457  27.828  1.00  0.00    -0.028 C 
ATOM      8  C   UNL     1      23.423  27.863  28.290  1.00  0.00     0.039 C 
ATOM      9  C   UNL     1      22.645  26.573  28.281  1.00  0.00    -0.080 C 
ATOM     10  C   UNL     1      21.218  26.563  28.772  1.00  0.00     0.039 C 
ENDBRANCH   6   7
ENDBRANCH   5   6
ENDBRANCH   3   5
ENDBRANCH   1   2
BRANCH   1  11
ATOM     11  C   UNL     1      26.698  24.876  24.639  1.00  0.00     0.034 C 
BRANCH  11  12
ATOM     12  C   UNL     1      28.169  24.661  24.950  1.00  0.00    -0.077 C 
ATOM     13  C   UNL     1      28.885  25.497  25.735  1.00  0.00    -0.028 C 
ATOM     14  C   UNL     1      28.877  23.486  24.328  1.00  0.00     0.039 C 
BRANCH  13  15
ATOM     15  C   UNL     1      28.316  26.677  26.490  1.00  0.00     0.035 C 
BRANCH  15  16
ATOM     16  C   UNL     1      29.123  27.955  26.228  1.00  0.00     0.079 C 
BRANCH  16  17
ATOM     17  C   UNL     1      28.277  29.023  25.584  1.00  0.00     0.130 C 
ATOM     18  O   UNL     1      28.593  30.197  25.706  1.00  0.00    -0.300 OA
ATOM     19  C   UNL     1      27.053  28.674  24.790  1.00  0.00     0.087 C 
ENDBRANCH  16  17
ENDBRANCH  15  16
ENDBRANCH  13  15
ENDBRANCH  11  12
ENDBRANCH   1  11
TORSDOF 9
ENDMDL
MODEL 2
REMARK VINA RESULT:    -3.257      1.997      3.927
REMARK INTER + INTRA:          -6.219
REMARK INTER:                  -5.294
REMARK INTRA:                  -0.924
REMARK UNBOUND:                -1.248
REMARK SMILES CC(=O)CCC=C(C)CCC=C(C)CCC=C(C)C
REMARK SMILES IDX 10 1 11 2 12 3 13 4 14 5 15 6 16 7 18 8 17 9 19 10 9 11 7 12
REMARK SMILES IDX 6 13 8 14 5 15 4 16 2 17 3 18 1 19
REMARK H PARENT
REMARK Flexibility Score: inf
ROOT
ATOM      1  C   UNL     1      28.381  26.497  25.308  1.00  0.00     0.032 C 
ENDROOT
BRANCH   1   2
ATOM      2  C   UNL     1      27.486  25.531  24.570  1.00  0.00    -0.028 C 
ATOM      3  C   UNL     1      26.935  24.415  25.101  1.00  0.00    -0.077 C 
ATOM      4  C   UNL     1      26.130  23.520  24.194  1.00  0.00     0.039 C 
BRANCH   3   5
ATOM      5  C   UNL     1      27.056  24.036  26.566  1.00  0.00     0.034 C 
BRANCH   5   6
ATOM      6  C   UNL     1      25.796  23.330  27.081  1.00  0.00     0.032 C 
BRANCH   6   7
ATOM      7  C   UNL     1      24.785  24.319  27.611  1.00  0.00    -0.028 C 
ATOM      8  C   UNL     1      22.575  25.307  28.027  1.00  0.00     0.039 C 
ATOM      9  C   UNL     1      23.444  24.192  27.504  1.00  0.00    -0.080 C 
ATOM     10  C   UNL     1      22.799  22.979  26.881  1.00  0.00     0.039 C 
ENDBRANCH   6   7
ENDBRANCH   5   6
ENDBRANCH   3   5
ENDBRANCH   1   2
BRANCH   1  11
ATOM     11  C   UNL     1      27.572  27.536  26.099  1.00  0.00     0.034 C 
BRANCH  11  12
ATOM     12  C   UNL     1      28.429  28.717  26.517  1.00  0.00    -0.077 C 
ATOM     13  C   UNL     1      28.664  29.778  25.712  1.00  0.00    -0.028 C 
ATOM     14  C   UNL     1      29.082  28.695  27.875  1.00  0.00     0.039 C 
BRANCH  13  15
ATOM     15  C   UNL     1      28.034  29.991  24.355  1.00  0.00     0.035 C 
BRANCH  15  16
ATOM     16  C   UNL     1      29.039  30.572  23.352  1.00  0.00     0.079 C 
BRANCH  16  17
ATOM     17  C   UNL     1      28.978  32.078  23.314  1.00  0.00     0.130 C 
ATOM     18  O   UNL     1      28.802  32.647  22.247  1.00  0.00    -0.300 OA
ATOM     19  C   UNL     1      29.125  32.896  24.563  1.00  0.00     0.087 C 
ENDBRANCH  16  17
ENDBRANCH  15  16
ENDBRANCH  13  15
ENDBRANCH  11  12
ENDBRANCH   1  11
TORSDOF 9
ENDMDL
MODEL 3
REMARK VINA RESULT:    -2.224      1.628      5.699
REMARK INTER + INTRA:          -4.643
REMARK INTER:                  -3.819
REMARK INTRA:                  -0.824
REMARK UNBOUND:                -1.248
REMARK SMILES CC(=O)CCC=C(C)CCC=C(C)CCC=C(C)C
REMARK SMILES IDX 10 1 11 2 12 3 13 4 14 5 15 6 16 7 18 8 17 9 19 10 9 11 7 12
REMARK SMILES IDX 6 13 8 14 5 15 4 16 2 17 3 18 1 19
REMARK H PARENT
REMARK Flexibility Score: inf
ROOT
ATOM      1  C   UNL     1      25.015  23.354  27.408  1.00  0.00     0.032 C 
ENDROOT
BRANCH   1   2
ATOM      2  C   UNL     1      25.563  23.248  26.005  1.00  0.00    -0.028 C 
ATOM      3  C   UNL     1      26.542  24.025  25.489  1.00  0.00    -0.077 C 
ATOM      4  C   UNL     1      26.911  23.833  24.040  1.00  0.00     0.039 C 
BRANCH   3   5
ATOM      5  C   UNL     1      27.312  25.052  26.299  1.00  0.00     0.034 C 
BRANCH   5   6
ATOM      6  C   UNL     1      28.117  26.003  25.403  1.00  0.00     0.032 C 
BRANCH   6   7
ATOM      7  C   UNL     1      28.592  27.214  26.170  1.00  0.00    -0.028 C 
ATOM      8  C   UNL     1      28.855  29.592  26.726  1.00  0.00     0.039 C 
ATOM      9  C   UNL     1      28.235  28.490  25.906  1.00  0.00    -0.080 C 
ATOM     10  C   UNL     1      27.243  28.839  24.823  1.00  0.00     0.039 C 
ENDBRANCH   6   7
ENDBRANCH   5   6
ENDBRANCH   3   5
ENDBRANCH   1   2
BRANCH   1  11
ATOM     11  C   UNL     1      24.178  24.627  27.599  1.00  0.00     0.034 C 
BRANCH  11  12
ATOM     12  C   UNL     1      22.689  24.327  27.604  1.00  0.00    -0.077 C 
ATOM     13  C   UNL     1      21.744  25.292  27.663  1.00  0.00    -0.028 C 
ATOM     14  C   UNL     1      22.239  22.889  27.583  1.00  0.00     0.039 C 
BRANCH  13  15
ATOM     15  C   UNL     1      22.019  26.777  27.619  1.00  0.00     0.035 C 
BRANCH  15  16
ATOM     16  C   UNL     1      22.542  27.293  28.966  1.00  0.00     0.079 C 
BRANCH  16  17
ATOM     17  C   UNL     1      23.496  28.446  28.787  1.00  0.00     0.130 C 
ATOM     18  O   UNL     1      23.892  28.731  27.667  1.00  0.00    -0.300 OA
ATOM     19  C   UNL     1      23.969  29.256  29.958  1.00  0.00     0.087 C 
ENDBRANCH  16  17
ENDBRANCH  15  16
ENDBRANCH  13  15
ENDBRANCH  11  12
ENDBRANCH   1  11
TORSDOF 9
ENDMDL
MODEL 4
REMARK VINA RESULT:    -1.829      2.527      6.265
REMARK INTER + INTRA:          -4.040
REMARK INTER:                  -3.124
REMARK INTRA:                  -0.915
REMARK UNBOUND:                -1.248
REMARK SMILES CC(=O)CCC=C(C)CCC=C(C)CCC=C(C)C
REMARK SMILES IDX 10 1 11 2 12 3 13 4 14 5 15 6 16 7 18 8 17 9 19 10 9 11 7 12
REMARK SMILES IDX 6 13 8 14 5 15 4 16 2 17 3 18 1 19
REMARK H PARENT
REMARK Flexibility Score: inf
ROOT
ATOM      1  C   UNL     1      27.300  24.956  26.149  1.00  0.00     0.032 C 
ENDROOT
BRANCH   1   2
ATOM      2  C   UNL     1      26.638  26.291  26.395  1.00  0.00    -0.028 C 
ATOM      3  C   UNL     1      27.283  27.476  26.490  1.00  0.00    -0.077 C 
ATOM      4  C   UNL     1      26.470  28.702  26.819  1.00  0.00     0.039 C 
BRANCH   3   5
ATOM      5  C   UNL     1      28.772  27.642  26.249  1.00  0.00     0.034 C 
BRANCH   5   6
ATOM      6  C   UNL     1      29.079  28.018  24.793  1.00  0.00     0.032 C 
BRANCH   6   7
ATOM      7  C   UNL     1      29.125  29.517  24.608  1.00  0.00    -0.028 C 
ATOM      8  C   UNL     1      28.397  31.734  23.845  1.00  0.00     0.039 C 
ATOM      9  C   UNL     1      28.164  30.255  24.010  1.00  0.00    -0.080 C 
ATOM     10  C   UNL     1      26.879  29.645  23.507  1.00  0.00     0.039 C 
ENDBRANCH   6   7
ENDBRANCH   5   6
ENDBRANCH   3   5
ENDBRANCH   1   2
BRANCH   1  11
ATOM     11  C   UNL     1      26.496  23.798  26.758  1.00  0.00     0.034 C 
BRANCH  11  12
ATOM     12  C   UNL     1      25.466  23.254  25.784  1.00  0.00    -0.077 C 
ATOM     13  C   UNL     1      24.181  23.014  26.128  1.00  0.00    -0.028 C 
ATOM     14  C   UNL     1      25.900  22.927  24.378  1.00  0.00     0.039 C 
BRANCH  13  15
ATOM     15  C   UNL     1      23.567  23.349  27.468  1.00  0.00     0.035 C 
BRANCH  15  16
ATOM     16  C   UNL     1      23.765  24.828  27.825  1.00  0.00     0.079 C 
BRANCH  16  17
ATOM     17  C   UNL     1      22.450  25.557  27.922  1.00  0.00     0.130 C 
ATOM     18  O   UNL     1      21.407  24.944  27.749  1.00  0.00    -0.300 OA
ATOM     19  C   UNL     1      22.393  27.024  28.232  1.00  0.00     0.087 C 
ENDBRANCH  16  17
ENDBRANCH  15  16
ENDBRANCH  13  15
ENDBRANCH  11  12
ENDBRANCH   1  11
TORSDOF 9
ENDMDL
MODEL 5
REMARK VINA RESULT:    -1.760      4.667      9.004
REMARK INTER + INTRA:          -3.935
REMARK INTER:                  -3.748
REMARK INTRA:                  -0.187
REMARK UNBOUND:                -1.248
REMARK SMILES CC(=O)CCC=C(C)CCC=C(C)CCC=C(C)C
REMARK SMILES IDX 10 1 11 2 12 3 13 4 14 5 15 6 16 7 18 8 17 9 19 10 9 11 7 12
REMARK SMILES IDX 6 13 8 14 5 15 4 16 2 17 3 18 1 19
REMARK H PARENT
REMARK Flexibility Score: inf
ROOT
ATOM      1  C   UNL     1      27.769  29.611  23.834  1.00  0.00     0.032 C 
ENDROOT
BRANCH   1   2
ATOM      2  C   UNL     1      28.153  30.855  24.596  1.00  0.00    -0.028 C 
ATOM      3  C   UNL     1      28.691  31.970  24.051  1.00  0.00    -0.077 C 
ATOM      4  C   UNL     1      29.089  33.092  24.975  1.00  0.00     0.039 C 
BRANCH   3   5
ATOM      5  C   UNL     1      28.883  32.164  22.558  1.00  0.00     0.034 C 
BRANCH   5   6
ATOM      6  C   UNL     1      29.096  33.639  22.193  1.00  0.00     0.032 C 
BRANCH   6   7
ATOM      7  C   UNL     1      28.937  33.870  20.709  1.00  0.00    -0.028 C 
ATOM      8  C   UNL     1      28.683  35.139  18.622  1.00  0.00     0.039 C 
ATOM      9  C   UNL     1      28.919  35.081  20.109  1.00  0.00    -0.080 C 
ATOM     10  C   UNL     1      29.123  36.362  20.880  1.00  0.00     0.039 C 
ENDBRANCH   6   7
ENDBRANCH   5   6
ENDBRANCH   3   5
ENDBRANCH   1   2
BRANCH   1  11
ATOM     11  C   UNL     1      27.274  28.497  24.768  1.00  0.00     0.034 C 
BRANCH  11  12
ATOM     12  C   UNL     1      28.216  28.286  25.940  1.00  0.00    -0.077 C 
ATOM     13  C   UNL     1      28.936  27.155  26.111  1.00  0.00    -0.028 C 
ATOM     14  C   UNL     1      28.327  29.366  26.986  1.00  0.00     0.039 C 
BRANCH  13  15
ATOM     15  C   UNL     1      28.995  26.009  25.127  1.00  0.00     0.035 C 
BRANCH  15  16
ATOM     16  C   UNL     1      28.596  24.681  25.783  1.00  0.00     0.079 C 
BRANCH  16  17
ATOM     17  C   UNL     1      27.217  24.245  25.359  1.00  0.00     0.130 C 
ATOM     18  O   UNL     1      27.046  23.794  24.236  1.00  0.00    -0.300 OA
ATOM     19  C   UNL     1      26.045  24.350  26.290  1.00  0.00     0.087 C 
ENDBRANCH  16  17
ENDBRANCH  15  16
ENDBRANCH  13  15
ENDBRANCH  11  12
ENDBRANCH   1  11
TORSDOF 9
ENDMDL
MODEL 6
REMARK VINA RESULT:    -0.583      1.837      3.568
REMARK INTER + INTRA:          -2.137
REMARK INTER:                  -1.144
REMARK INTRA:                  -0.993
REMARK UNBOUND:                -1.248
REMARK SMILES CC(=O)CCC=C(C)CCC=C(C)CCC=C(C)C
REMARK SMILES IDX 10 1 11 2 12 3 13 4 14 5 15 6 16 7 18 8 17 9 19 10 9 11 7 12
REMARK SMILES IDX 6 13 8 14 5 15 4 16 2 17 3 18 1 19
REMARK H PARENT
REMARK Flexibility Score: inf
ROOT
ATOM      1  C   UNL     1      24.719  25.242  27.627  1.00  0.00     0.032 C 
ENDROOT
BRANCH   1   2
ATOM      2  C   UNL     1      23.239  25.109  27.891  1.00  0.00    -0.028 C 
ATOM      3  C   UNL     1      22.378  26.141  28.050  1.00  0.00    -0.077 C 
ATOM      4  C   UNL     1      20.944  25.824  28.389  1.00  0.00     0.039 C 
BRANCH   3   5
ATOM      5  C   UNL     1      22.772  27.596  27.872  1.00  0.00     0.034 C 
BRANCH   5   6
ATOM      6  C   UNL     1      22.995  28.299  29.217  1.00  0.00     0.032 C 
BRANCH   6   7
ATOM      7  C   UNL     1      24.350  28.963  29.276  1.00  0.00    -0.028 C 
ATOM      8  C   UNL     1      26.283  30.096  30.282  1.00  0.00     0.039 C 
ATOM      9  C   UNL     1      24.957  29.390  30.405  1.00  0.00    -0.080 C 
ATOM     10  C   UNL     1      24.350  29.184  31.771  1.00  0.00     0.039 C 
ENDBRANCH   6   7
ENDBRANCH   5   6
ENDBRANCH   3   5
ENDBRANCH   1   2
BRANCH   1  11
ATOM     11  C   UNL     1      25.371  23.883  27.332  1.00  0.00     0.034 C 
BRANCH  11  12
ATOM     12  C   UNL     1      25.845  23.787  25.893  1.00  0.00    -0.077 C 
ATOM     13  C   UNL     1      26.929  24.449  25.428  1.00  0.00    -0.028 C 
ATOM     14  C   UNL     1      25.053  22.947  24.923  1.00  0.00     0.039 C 
BRANCH  13  15
ATOM     15  C   UNL     1      27.869  25.273  26.277  1.00  0.00     0.035 C 
BRANCH  15  16
ATOM     16  C   UNL     1      28.591  26.340  25.444  1.00  0.00     0.079 C 
BRANCH  16  17
ATOM     17  C   UNL     1      28.049  27.720  25.720  1.00  0.00     0.130 C 
ATOM     18  O   UNL     1      27.181  28.182  24.996  1.00  0.00    -0.300 OA
ATOM     19  C   UNL     1      28.554  28.539  26.872  1.00  0.00     0.087 C 
ENDBRANCH  16  17
ENDBRANCH  15  16
ENDBRANCH  13  15
ENDBRANCH  11  12
ENDBRANCH   1  11
TORSDOF 9
ENDMDL
MODEL 7
REMARK VINA RESULT:    -0.445      2.487      5.188
REMARK INTER + INTRA:          -1.928
REMARK INTER:                  -0.860
REMARK INTRA:                  -1.068
REMARK UNBOUND:                -1.248
REMARK SMILES CC(=O)CCC=C(C)CCC=C(C)CCC=C(C)C
REMARK SMILES IDX 10 1 11 2 12 3 13 4 14 5 15 6 16 7 18 8 17 9 19 10 9 11 7 12
REMARK SMILES IDX 6 13 8 14 5 15 4 16 2 17 3 18 1 19
REMARK H PARENT
REMARK Flexibility Score: inf
ROOT
ATOM      1  C   UNL     1      26.978  30.034  28.829  1.00  0.00     0.032 C 
ENDROOT
BRANCH   1   2
ATOM      2  C   UNL     1      26.356  29.664  30.154  1.00  0.00    -0.028 C 
ATOM      3  C   UNL     1      25.034  29.483  30.372  1.00  0.00    -0.077 C 
ATOM      4  C   UNL     1      24.580  29.195  31.780  1.00  0.00     0.039 C 
BRANCH   3   5
ATOM      5  C   UNL     1      23.989  29.521  29.271  1.00  0.00     0.034 C 
BRANCH   5   6
ATOM      6  C   UNL     1      24.037  28.265  28.392  1.00  0.00     0.032 C 
BRANCH   6   7
ATOM      7  C   UNL     1      22.688  27.590  28.318  1.00  0.00    -0.028 C 
ATOM      8  C   UNL     1      21.074  25.767  28.000  1.00  0.00     0.039 C 
ATOM      9  C   UNL     1      22.490  26.269  28.117  1.00  0.00    -0.080 C 
ATOM     10  C   UNL     1      23.636  25.293  28.005  1.00  0.00     0.039 C 
ENDBRANCH   6   7
ENDBRANCH   5   6
ENDBRANCH   3   5
ENDBRANCH   1   2
BRANCH   1  11
ATOM     11  C   UNL     1      27.969  28.966  28.344  1.00  0.00     0.034 C 
BRANCH  11  12
ATOM     12  C   UNL     1      28.366  29.182  26.895  1.00  0.00    -0.077 C 
ATOM     13  C   UNL     1      28.114  28.280  25.920  1.00  0.00    -0.028 C 
ATOM     14  C   UNL     1      29.111  30.440  26.527  1.00  0.00     0.039 C 
BRANCH  13  15
ATOM     15  C   UNL     1      27.321  27.006  26.103  1.00  0.00     0.035 C 
BRANCH  15  16
ATOM     16  C   UNL     1      27.942  25.839  25.324  1.00  0.00     0.079 C 
BRANCH  16  17
ATOM     17  C   UNL     1      27.114  24.585  25.450  1.00  0.00     0.130 C 
ATOM     18  O   UNL     1      26.689  24.252  26.546  1.00  0.00    -0.300 OA
ATOM     19  C   UNL     1      26.799  23.736  24.254  1.00  0.00     0.087 C 
ENDBRANCH  16  17
ENDBRANCH  15  16
ENDBRANCH  13  15
ENDBRANCH  11  12
ENDBRANCH   1  11
TORSDOF 9
ENDMDL
