MODEL 1
REMARK VINA RESULT:    -5.361      0.000      0.000
REMARK INTER + INTRA:          -7.816
REMARK INTER:                  -6.772
REMARK INTRA:                  -1.044
REMARK UNBOUND:                -1.044
REMARK SMILES O=C(C=Cc1ccc(O)cc1)c1ccc(O)cc1O
REMARK SMILES IDX 4 1 3 2 5 3 6 4 7 5 8 6 11 7 10 8 9 9 2 11 1 12 12 13 18 14
REMARK SMILES IDX 13 15 17 16 14 17 15 18 19 19 16 21
REMARK H PARENT 9 10 19 20 16 22
REMARK Flexibility Score: inf
ROOT
ATOM      1  C   UNL     1      27.895  37.145  20.554  1.00  0.00     0.012 C 
ATOM      2  C   UNL     1      28.601  38.136  19.986  1.00  0.00     0.053 C 
ENDROOT
BRANCH   1   3
ATOM      3  C   UNL     1      26.514  36.763  20.197  1.00  0.00    -0.025 A 
ATOM      4  C   UNL     1      25.415  37.210  20.952  1.00  0.00     0.012 A 
ATOM      5  C   UNL     1      24.113  36.877  20.568  1.00  0.00     0.047 A 
ATOM      6  C   UNL     1      23.892  36.115  19.416  1.00  0.00     0.115 A 
ATOM      7  C   UNL     1      26.285  36.024  19.026  1.00  0.00     0.012 A 
ATOM      8  C   UNL     1      24.982  35.692  18.644  1.00  0.00     0.047 A 
BRANCH   6   9
ATOM      9  O   UNL     1      22.589  35.789  19.047  1.00  0.00    -0.508 OA
ATOM     10  H   UNL     1      22.393  35.003  18.436  1.00  0.00     0.293 HD
ENDBRANCH   6   9
ENDBRANCH   1   3
BRANCH   2  11
ATOM     11  C   UNL     1      28.058  39.138  19.035  1.00  0.00     0.189 C 
ATOM     12  O   UNL     1      28.007  38.875  17.802  1.00  0.00    -0.289 OA
BRANCH  11  13
ATOM     13  C   UNL     1      27.536  40.441  19.510  1.00  0.00     0.064 A 
ATOM     14  C   UNL     1      27.688  41.602  18.721  1.00  0.00     0.130 A 
ATOM     15  C   UNL     1      26.863  40.537  20.743  1.00  0.00     0.020 A 
ATOM     16  C   UNL     1      27.178  42.828  19.173  1.00  0.00     0.093 A 
ATOM     17  C   UNL     1      26.361  41.763  21.185  1.00  0.00     0.047 A 
ATOM     18  C   UNL     1      26.516  42.910  20.404  1.00  0.00     0.119 A 
BRANCH  14  19
ATOM     19  O   UNL     1      28.357  41.540  17.499  1.00  0.00    -0.507 OA
ATOM     20  H   UNL     1      29.340  41.300  17.442  1.00  0.00     0.293 HD
ENDBRANCH  14  19
BRANCH  18  21
ATOM     21  O   UNL     1      26.009  44.125  20.859  1.00  0.00    -0.508 OA
ATOM     22  H   UNL     1      25.033  44.232  21.106  1.00  0.00     0.293 HD
ENDBRANCH  18  21
ENDBRANCH  11  13
ENDBRANCH   2  11
TORSDOF 6
ENDMDL
MODEL 2
REMARK VINA RESULT:    -5.273      3.777      6.869
REMARK INTER + INTRA:          -7.704
REMARK INTER:                  -7.262
REMARK INTRA:                  -0.442
REMARK UNBOUND:                -1.044
REMARK SMILES O=C(C=Cc1ccc(O)cc1)c1ccc(O)cc1O
REMARK SMILES IDX 4 1 3 2 5 3 6 4 7 5 8 6 11 7 10 8 9 9 2 11 1 12 12 13 18 14
REMARK SMILES IDX 13 15 17 16 14 17 15 18 19 19 16 21
REMARK H PARENT 9 10 19 20 16 22
REMARK Flexibility Score: inf
ROOT
ATOM      1  C   UNL     1      26.417  36.359  19.011  1.00  0.00     0.012 C 
ATOM      2  C   UNL     1      27.323  35.427  19.346  1.00  0.00     0.053 C 
ENDROOT
BRANCH   1   3
ATOM      3  C   UNL     1      26.360  37.732  19.554  1.00  0.00    -0.025 A 
ATOM      4  C   UNL     1      26.939  38.813  18.865  1.00  0.00     0.012 A 
ATOM      5  C   UNL     1      26.832  40.111  19.372  1.00  0.00     0.047 A 
ATOM      6  C   UNL     1      26.126  40.348  20.557  1.00  0.00     0.115 A 
ATOM      7  C   UNL     1      25.628  37.980  20.726  1.00  0.00     0.012 A 
ATOM      8  C   UNL     1      25.522  39.278  21.231  1.00  0.00     0.047 A 
BRANCH   6   9
ATOM      9  O   UNL     1      26.029  41.647  21.051  1.00  0.00    -0.508 OA
ATOM     10  H   UNL     1      26.848  42.154  21.369  1.00  0.00     0.293 HD
ENDBRANCH   6   9
ENDBRANCH   1   3
BRANCH   2  11
ATOM     11  C   UNL     1      28.308  35.547  20.450  1.00  0.00     0.189 C 
ATOM     12  O   UNL     1      29.120  36.512  20.470  1.00  0.00    -0.289 OA
BRANCH  11  13
ATOM     13  C   UNL     1      28.335  34.566  21.561  1.00  0.00     0.064 A 
ATOM     14  C   UNL     1      28.758  33.238  21.331  1.00  0.00     0.130 A 
ATOM     15  C   UNL     1      27.963  34.948  22.864  1.00  0.00     0.020 A 
ATOM     16  C   UNL     1      28.794  32.321  22.392  1.00  0.00     0.093 A 
ATOM     17  C   UNL     1      28.000  34.026  23.912  1.00  0.00     0.047 A 
ATOM     18  C   UNL     1      28.415  32.713  23.681  1.00  0.00     0.119 A 
BRANCH  14  19
ATOM     19  O   UNL     1      29.125  32.828  20.050  1.00  0.00    -0.507 OA
ATOM     20  H   UNL     1      28.556  32.184  19.514  1.00  0.00     0.293 HD
ENDBRANCH  14  19
BRANCH  18  21
ATOM     21  O   UNL     1      28.447  31.806  24.738  1.00  0.00    -0.508 OA
ATOM     22  H   UNL     1      27.610  31.329  25.052  1.00  0.00     0.293 HD
ENDBRANCH  18  21
ENDBRANCH  11  13
ENDBRANCH   2  11
TORSDOF 6
ENDMDL
MODEL 3
REMARK VINA RESULT:    -5.215      4.054      6.993
REMARK INTER + INTRA:          -7.631
REMARK INTER:                  -6.909
REMARK INTRA:                  -0.722
REMARK UNBOUND:                -1.044
REMARK SMILES O=C(C=Cc1ccc(O)cc1)c1ccc(O)cc1O
REMARK SMILES IDX 4 1 3 2 5 3 6 4 7 5 8 6 11 7 10 8 9 9 2 11 1 12 12 13 18 14
REMARK SMILES IDX 13 15 17 16 14 17 15 18 19 19 16 21
REMARK H PARENT 9 10 19 20 16 22
REMARK Flexibility Score: inf
ROOT
ATOM      1  C   UNL     1      26.546  35.834  19.016  1.00  0.00     0.012 C 
ATOM      2  C   UNL     1      27.560  35.029  19.373  1.00  0.00     0.053 C 
ENDROOT
BRANCH   1   3
ATOM      3  C   UNL     1      26.203  37.118  19.661  1.00  0.00    -0.025 A 
ATOM      4  C   UNL     1      25.397  37.163  20.813  1.00  0.00     0.012 A 
ATOM      5  C   UNL     1      25.124  38.384  21.435  1.00  0.00     0.047 A 
ATOM      6  C   UNL     1      25.671  39.569  20.930  1.00  0.00     0.115 A 
ATOM      7  C   UNL     1      26.773  38.305  19.177  1.00  0.00     0.012 A 
ATOM      8  C   UNL     1      26.499  39.525  19.801  1.00  0.00     0.047 A 
BRANCH   6   9
ATOM      9  O   UNL     1      25.389  40.779  21.560  1.00  0.00    -0.508 OA
ATOM     10  H   UNL     1      24.930  41.537  21.068  1.00  0.00     0.293 HD
ENDBRANCH   6   9
ENDBRANCH   1   3
BRANCH   2  11
ATOM     11  C   UNL     1      28.397  35.193  20.587  1.00  0.00     0.189 C 
ATOM     12  O   UNL     1      29.026  36.270  20.780  1.00  0.00    -0.289 OA
BRANCH  11  13
ATOM     13  C   UNL     1      28.483  34.122  21.608  1.00  0.00     0.064 A 
ATOM     14  C   UNL     1      27.974  34.331  22.908  1.00  0.00     0.130 A 
ATOM     15  C   UNL     1      29.054  32.875  21.291  1.00  0.00     0.020 A 
ATOM     16  C   UNL     1      28.048  33.307  23.863  1.00  0.00     0.093 A 
ATOM     17  C   UNL     1      29.125  31.862  22.250  1.00  0.00     0.047 A 
ATOM     18  C   UNL     1      28.623  32.073  23.536  1.00  0.00     0.119 A 
BRANCH  14  19
ATOM     19  O   UNL     1      27.410  35.560  23.254  1.00  0.00    -0.507 OA
ATOM     20  H   UNL     1      27.335  35.857  24.219  1.00  0.00     0.293 HD
ENDBRANCH  14  19
BRANCH  18  21
ATOM     21  O   UNL     1      28.701  31.053  24.481  1.00  0.00    -0.508 OA
ATOM     22  H   UNL     1      28.944  30.105  24.218  1.00  0.00     0.293 HD
ENDBRANCH  18  21
ENDBRANCH  11  13
ENDBRANCH   2  11
TORSDOF 6
ENDMDL
MODEL 4
REMARK VINA RESULT:    -5.101      1.915      5.591
REMARK INTER + INTRA:          -7.487
REMARK INTER:                  -6.091
REMARK INTRA:                  -1.396
REMARK UNBOUND:                -1.044
REMARK SMILES O=C(C=Cc1ccc(O)cc1)c1ccc(O)cc1O
REMARK SMILES IDX 4 1 3 2 5 3 6 4 7 5 8 6 11 7 10 8 9 9 2 11 1 12 12 13 18 14
REMARK SMILES IDX 13 15 17 16 14 17 15 18 19 19 16 21
REMARK H PARENT 9 10 19 20 16 22
REMARK Flexibility Score: inf
ROOT
ATOM      1  C   UNL     1      29.099  38.900  19.034  1.00  0.00     0.012 C 
ATOM      2  C   UNL     1      29.078  37.567  19.188  1.00  0.00     0.053 C 
ENDROOT
BRANCH   1   3
ATOM      3  C   UNL     1      28.434  39.876  19.922  1.00  0.00    -0.025 A 
ATOM      4  C   UNL     1      27.176  40.416  19.600  1.00  0.00     0.012 A 
ATOM      5  C   UNL     1      26.543  41.301  20.477  1.00  0.00     0.047 A 
ATOM      6  C   UNL     1      27.146  41.637  21.694  1.00  0.00     0.115 A 
ATOM      7  C   UNL     1      29.019  40.193  21.157  1.00  0.00     0.012 A 
ATOM      8  C   UNL     1      28.385  41.078  22.033  1.00  0.00     0.047 A 
BRANCH   6   9
ATOM      9  O   UNL     1      26.503  42.522  22.558  1.00  0.00    -0.508 OA
ATOM     10  H   UNL     1      26.533  42.394  23.564  1.00  0.00     0.293 HD
ENDBRANCH   6   9
ENDBRANCH   1   3
BRANCH   2  11
ATOM     11  C   UNL     1      28.235  36.830  20.163  1.00  0.00     0.189 C 
ATOM     12  O   UNL     1      28.760  36.306  21.183  1.00  0.00    -0.289 OA
BRANCH  11  13
ATOM     13  C   UNL     1      26.767  36.726  19.981  1.00  0.00     0.064 A 
ATOM     14  C   UNL     1      25.888  37.299  20.925  1.00  0.00     0.130 A 
ATOM     15  C   UNL     1      26.229  36.074  18.855  1.00  0.00     0.020 A 
ATOM     16  C   UNL     1      24.501  37.208  20.738  1.00  0.00     0.093 A 
ATOM     17  C   UNL     1      24.847  35.986  18.679  1.00  0.00     0.047 A 
ATOM     18  C   UNL     1      23.980  36.551  19.616  1.00  0.00     0.119 A 
BRANCH  14  19
ATOM     19  O   UNL     1      26.392  37.944  22.055  1.00  0.00    -0.507 OA
ATOM     20  H   UNL     1      25.782  38.403  22.722  1.00  0.00     0.293 HD
ENDBRANCH  14  19
BRANCH  18  21
ATOM     21  O   UNL     1      22.603  36.455  19.425  1.00  0.00    -0.508 OA
ATOM     22  H   UNL     1      22.147  35.558  19.301  1.00  0.00     0.293 HD
ENDBRANCH  18  21
ENDBRANCH  11  13
ENDBRANCH   2  11
TORSDOF 6
ENDMDL
MODEL 5
REMARK VINA RESULT:    -4.890      2.027      2.707
REMARK INTER + INTRA:          -7.220
REMARK INTER:                  -6.337
REMARK INTRA:                  -0.884
REMARK UNBOUND:                -1.044
REMARK SMILES O=C(C=Cc1ccc(O)cc1)c1ccc(O)cc1O
REMARK SMILES IDX 4 1 3 2 5 3 6 4 7 5 8 6 11 7 10 8 9 9 2 11 1 12 12 13 18 14
REMARK SMILES IDX 13 15 17 16 14 17 15 18 19 19 16 21
REMARK H PARENT 9 10 19 20 16 22
REMARK Flexibility Score: inf
ROOT
ATOM      1  C   UNL     1      26.121  36.925  18.710  1.00  0.00     0.012 C 
ATOM      2  C   UNL     1      26.286  38.198  18.318  1.00  0.00     0.053 C 
ENDROOT
BRANCH   1   3
ATOM      3  C   UNL     1      26.918  36.238  19.747  1.00  0.00    -0.025 A 
ATOM      4  C   UNL     1      26.802  36.584  21.105  1.00  0.00     0.012 A 
ATOM      5  C   UNL     1      27.529  35.889  22.075  1.00  0.00     0.047 A 
ATOM      6  C   UNL     1      28.361  34.827  21.704  1.00  0.00     0.115 A 
ATOM      7  C   UNL     1      27.731  35.153  19.384  1.00  0.00     0.012 A 
ATOM      8  C   UNL     1      28.457  34.459  20.355  1.00  0.00     0.047 A 
BRANCH   6   9
ATOM      9  O   UNL     1      29.082  34.144  22.681  1.00  0.00    -0.508 OA
ATOM     10  H   UNL     1      29.062  34.435  23.652  1.00  0.00     0.293 HD
ENDBRANCH   6   9
ENDBRANCH   1   3
BRANCH   2  11
ATOM     11  C   UNL     1      27.412  39.079  18.718  1.00  0.00     0.189 C 
ATOM     12  O   UNL     1      28.600  38.739  18.468  1.00  0.00    -0.289 OA
BRANCH  11  13
ATOM     13  C   UNL     1      27.166  40.381  19.382  1.00  0.00     0.064 A 
ATOM     14  C   UNL     1      27.571  41.585  18.765  1.00  0.00     0.130 A 
ATOM     15  C   UNL     1      26.507  40.439  20.625  1.00  0.00     0.020 A 
ATOM     16  C   UNL     1      27.321  42.814  19.394  1.00  0.00     0.093 A 
ATOM     17  C   UNL     1      26.265  41.668  21.244  1.00  0.00     0.047 A 
ATOM     18  C   UNL     1      26.670  42.856  20.633  1.00  0.00     0.119 A 
BRANCH  14  19
ATOM     19  O   UNL     1      28.233  41.559  17.538  1.00  0.00    -0.507 OA
ATOM     20  H   UNL     1      28.664  42.389  17.148  1.00  0.00     0.293 HD
ENDBRANCH  14  19
BRANCH  18  21
ATOM     21  O   UNL     1      26.422  44.073  21.264  1.00  0.00    -0.508 OA
ATOM     22  H   UNL     1      25.904  44.812  20.803  1.00  0.00     0.293 HD
ENDBRANCH  18  21
ENDBRANCH  11  13
ENDBRANCH   2  11
TORSDOF 6
ENDMDL
MODEL 6
REMARK VINA RESULT:    -4.853      1.678      2.620
REMARK INTER + INTRA:          -7.174
REMARK INTER:                  -6.097
REMARK INTRA:                  -1.078
REMARK UNBOUND:                -1.044
REMARK SMILES O=C(C=Cc1ccc(O)cc1)c1ccc(O)cc1O
REMARK SMILES IDX 4 1 3 2 5 3 6 4 7 5 8 6 11 7 10 8 9 9 2 11 1 12 12 13 18 14
REMARK SMILES IDX 13 15 17 16 14 17 15 18 19 19 16 21
REMARK H PARENT 9 10 19 20 16 22
REMARK Flexibility Score: inf
ROOT
ATOM      1  C   UNL     1      26.383  37.014  21.050  1.00  0.00     0.012 C 
ATOM      2  C   UNL     1      26.626  38.239  21.543  1.00  0.00     0.053 C 
ENDROOT
BRANCH   1   3
ATOM      3  C   UNL     1      25.505  36.712  19.901  1.00  0.00    -0.025 A 
ATOM      4  C   UNL     1      24.168  36.320  20.089  1.00  0.00     0.012 A 
ATOM      5  C   UNL     1      23.340  36.085  18.987  1.00  0.00     0.047 A 
ATOM      6  C   UNL     1      23.831  36.261  17.689  1.00  0.00     0.115 A 
ATOM      7  C   UNL     1      25.983  36.915  18.597  1.00  0.00     0.012 A 
ATOM      8  C   UNL     1      25.154  36.679  17.497  1.00  0.00     0.047 A 
BRANCH   6   9
ATOM      9  O   UNL     1      22.995  36.021  16.600  1.00  0.00    -0.508 OA
ATOM     10  H   UNL     1      23.309  36.174  15.648  1.00  0.00     0.293 HD
ENDBRANCH   6   9
ENDBRANCH   1   3
BRANCH   2  11
ATOM     11  C   UNL     1      25.915  39.479  21.144  1.00  0.00     0.189 C 
ATOM     12  O   UNL     1      24.739  39.692  21.549  1.00  0.00    -0.289 OA
BRANCH  11  13
ATOM     13  C   UNL     1      26.576  40.503  20.299  1.00  0.00     0.064 A 
ATOM     14  C   UNL     1      26.448  41.875  20.608  1.00  0.00     0.130 A 
ATOM     15  C   UNL     1      27.358  40.122  19.192  1.00  0.00     0.020 A 
ATOM     16  C   UNL     1      27.088  42.835  19.811  1.00  0.00     0.093 A 
ATOM     17  C   UNL     1      27.990  41.087  18.404  1.00  0.00     0.047 A 
ATOM     18  C   UNL     1      27.858  42.443  18.710  1.00  0.00     0.119 A 
BRANCH  14  19
ATOM     19  O   UNL     1      25.673  42.283  21.694  1.00  0.00    -0.507 OA
ATOM     20  H   UNL     1      25.431  43.255  21.840  1.00  0.00     0.293 HD
ENDBRANCH  14  19
BRANCH  18  21
ATOM     21  O   UNL     1      28.495  43.392  17.914  1.00  0.00    -0.508 OA
ATOM     22  H   UNL     1      29.445  43.259  17.588  1.00  0.00     0.293 HD
ENDBRANCH  18  21
ENDBRANCH  11  13
ENDBRANCH   2  11
TORSDOF 6
ENDMDL
MODEL 7
REMARK VINA RESULT:    -4.842      2.111      5.613
REMARK INTER + INTRA:          -7.160
REMARK INTER:                  -5.812
REMARK INTRA:                  -1.348
REMARK UNBOUND:                -1.044
REMARK SMILES O=C(C=Cc1ccc(O)cc1)c1ccc(O)cc1O
REMARK SMILES IDX 4 1 3 2 5 3 6 4 7 5 8 6 11 7 10 8 9 9 2 11 1 12 12 13 18 14
REMARK SMILES IDX 13 15 17 16 14 17 15 18 19 19 16 21
REMARK H PARENT 9 10 19 20 16 22
REMARK Flexibility Score: inf
ROOT
ATOM      1  C   UNL     1      28.777  40.250  18.732  1.00  0.00     0.012 C 
ATOM      2  C   UNL     1      28.365  39.088  18.200  1.00  0.00     0.053 C 
ENDROOT
BRANCH   1   3
ATOM      3  C   UNL     1      28.140  40.946  19.869  1.00  0.00    -0.025 A 
ATOM      4  C   UNL     1      28.550  40.706  21.193  1.00  0.00     0.012 A 
ATOM      5  C   UNL     1      27.967  41.410  22.250  1.00  0.00     0.047 A 
ATOM      6  C   UNL     1      26.987  42.376  21.997  1.00  0.00     0.115 A 
ATOM      7  C   UNL     1      27.179  41.937  19.619  1.00  0.00     0.012 A 
ATOM      8  C   UNL     1      26.597  42.640  20.677  1.00  0.00     0.047 A 
BRANCH   6   9
ATOM      9  O   UNL     1      26.414  43.070  23.061  1.00  0.00    -0.508 OA
ATOM     10  H   UNL     1      26.984  43.568  23.735  1.00  0.00     0.293 HD
ENDBRANCH   6   9
ENDBRANCH   1   3
BRANCH   2  11
ATOM     11  C   UNL     1      27.096  38.395  18.535  1.00  0.00     0.189 C 
ATOM     12  O   UNL     1      26.161  38.347  17.690  1.00  0.00    -0.289 OA
BRANCH  11  13
ATOM     13  C   UNL     1      26.915  37.720  19.842  1.00  0.00     0.064 A 
ATOM     14  C   UNL     1      25.877  38.118  20.713  1.00  0.00     0.130 A 
ATOM     15  C   UNL     1      27.759  36.661  20.225  1.00  0.00     0.020 A 
ATOM     16  C   UNL     1      25.704  37.464  21.942  1.00  0.00     0.093 A 
ATOM     17  C   UNL     1      27.580  36.018  21.452  1.00  0.00     0.047 A 
ATOM     18  C   UNL     1      26.555  36.416  22.313  1.00  0.00     0.119 A 
BRANCH  14  19
ATOM     19  O   UNL     1      25.030  39.170  20.365  1.00  0.00    -0.507 OA
ATOM     20  H   UNL     1      25.062  39.598  19.447  1.00  0.00     0.293 HD
ENDBRANCH  14  19
BRANCH  18  21
ATOM     21  O   UNL     1      26.390  35.764  23.532  1.00  0.00    -0.508 OA
ATOM     22  H   UNL     1      25.567  35.912  24.106  1.00  0.00     0.293 HD
ENDBRANCH  18  21
ENDBRANCH  11  13
ENDBRANCH   2  11
TORSDOF 6
ENDMDL
MODEL 8
REMARK VINA RESULT:    -4.745      7.350      8.917
REMARK INTER + INTRA:          -7.038
REMARK INTER:                  -6.723
REMARK INTRA:                  -0.315
REMARK UNBOUND:                -1.044
REMARK SMILES O=C(C=Cc1ccc(O)cc1)c1ccc(O)cc1O
REMARK SMILES IDX 4 1 3 2 5 3 6 4 7 5 8 6 11 7 10 8 9 9 2 11 1 12 12 13 18 14
REMARK SMILES IDX 13 15 17 16 14 17 15 18 19 19 16 21
REMARK H PARENT 9 10 19 20 16 22
REMARK Flexibility Score: inf
ROOT
ATOM      1  C   UNL     1      28.741  29.441  22.934  1.00  0.00     0.012 C 
ATOM      2  C   UNL     1      29.125  30.621  22.421  1.00  0.00     0.053 C 
ENDROOT
BRANCH   1   3
ATOM      3  C   UNL     1      27.931  29.261  24.156  1.00  0.00    -0.025 A 
ATOM      4  C   UNL     1      26.579  29.648  24.198  1.00  0.00     0.012 A 
ATOM      5  C   UNL     1      25.817  29.424  25.348  1.00  0.00     0.047 A 
ATOM      6  C   UNL     1      26.388  28.792  26.458  1.00  0.00     0.115 A 
ATOM      7  C   UNL     1      28.489  28.601  25.261  1.00  0.00     0.012 A 
ATOM      8  C   UNL     1      27.726  28.378  26.410  1.00  0.00     0.047 A 
BRANCH   6   9
ATOM      9  O   UNL     1      25.617  28.577  27.599  1.00  0.00    -0.508 OA
ATOM     10  H   UNL     1      25.095  27.718  27.730  1.00  0.00     0.293 HD
ENDBRANCH   6   9
ENDBRANCH   1   3
BRANCH   2  11
ATOM     11  C   UNL     1      28.963  31.938  23.086  1.00  0.00     0.189 C 
ATOM     12  O   UNL     1      29.106  32.036  24.336  1.00  0.00    -0.289 OA
BRANCH  11  13
ATOM     13  C   UNL     1      28.668  33.161  22.303  1.00  0.00     0.064 A 
ATOM     14  C   UNL     1      28.017  34.258  22.909  1.00  0.00     0.130 A 
ATOM     15  C   UNL     1      29.050  33.256  20.951  1.00  0.00     0.020 A 
ATOM     16  C   UNL     1      27.754  35.416  22.163  1.00  0.00     0.093 A 
ATOM     17  C   UNL     1      28.782  34.413  20.217  1.00  0.00     0.047 A 
ATOM     18  C   UNL     1      28.135  35.494  20.818  1.00  0.00     0.119 A 
BRANCH  14  19
ATOM     19  O   UNL     1      27.619  34.190  24.244  1.00  0.00    -0.507 OA
ATOM     20  H   UNL     1      27.555  35.019  24.823  1.00  0.00     0.293 HD
ENDBRANCH  14  19
BRANCH  18  21
ATOM     21  O   UNL     1      27.875  36.641  20.071  1.00  0.00    -0.508 OA
ATOM     22  H   UNL     1      27.848  37.559  20.501  1.00  0.00     0.293 HD
ENDBRANCH  18  21
ENDBRANCH  11  13
ENDBRANCH   2  11
TORSDOF 6
ENDMDL
MODEL 9
REMARK VINA RESULT:    -4.495     10.508     12.453
REMARK INTER + INTRA:          -6.722
REMARK INTER:                  -6.604
REMARK INTRA:                  -0.118
REMARK UNBOUND:                -1.044
REMARK SMILES O=C(C=Cc1ccc(O)cc1)c1ccc(O)cc1O
REMARK SMILES IDX 4 1 3 2 5 3 6 4 7 5 8 6 11 7 10 8 9 9 2 11 1 12 12 13 18 14
REMARK SMILES IDX 13 15 17 16 14 17 15 18 19 19 16 21
REMARK H PARENT 9 10 19 20 16 22
REMARK Flexibility Score: inf
ROOT
ATOM      1  C   UNL     1      27.293  26.220  26.041  1.00  0.00     0.012 C 
ATOM      2  C   UNL     1      28.377  26.889  25.617  1.00  0.00     0.053 C 
ENDROOT
BRANCH   1   3
ATOM      3  C   UNL     1      26.187  26.795  26.834  1.00  0.00    -0.025 A 
ATOM      4  C   UNL     1      25.850  28.156  26.735  1.00  0.00     0.012 A 
ATOM      5  C   UNL     1      24.769  28.670  27.458  1.00  0.00     0.047 A 
ATOM      6  C   UNL     1      24.001  27.827  28.269  1.00  0.00     0.115 A 
ATOM      7  C   UNL     1      25.395  25.949  27.625  1.00  0.00     0.012 A 
ATOM      8  C   UNL     1      24.315  26.464  28.347  1.00  0.00     0.047 A 
BRANCH   6   9
ATOM      9  O   UNL     1      22.928  28.353  28.985  1.00  0.00    -0.508 OA
ATOM     10  H   UNL     1      23.045  28.709  29.927  1.00  0.00     0.293 HD
ENDBRANCH   6   9
ENDBRANCH   1   3
BRANCH   2  11
ATOM     11  C   UNL     1      28.747  28.266  26.026  1.00  0.00     0.189 C 
ATOM     12  O   UNL     1      29.125  28.495  27.207  1.00  0.00    -0.289 OA
BRANCH  11  13
ATOM     13  C   UNL     1      28.716  29.387  25.055  1.00  0.00     0.064 A 
ATOM     14  C   UNL     1      28.686  30.724  25.509  1.00  0.00     0.130 A 
ATOM     15  C   UNL     1      28.739  29.137  23.671  1.00  0.00     0.020 A 
ATOM     16  C   UNL     1      28.671  31.778  24.584  1.00  0.00     0.093 A 
ATOM     17  C   UNL     1      28.721  30.193  22.757  1.00  0.00     0.047 A 
ATOM     18  C   UNL     1      28.687  31.514  23.209  1.00  0.00     0.119 A 
BRANCH  14  19
ATOM     19  O   UNL     1      28.654  31.003  26.876  1.00  0.00    -0.507 OA
ATOM     20  H   UNL     1      29.503  31.081  27.423  1.00  0.00     0.293 HD
ENDBRANCH  14  19
BRANCH  18  21
ATOM     21  O   UNL     1      28.670  32.556  22.286  1.00  0.00    -0.508 OA
ATOM     22  H   UNL     1      28.807  33.519  22.570  1.00  0.00     0.293 HD
ENDBRANCH  18  21
ENDBRANCH  11  13
ENDBRANCH   2  11
TORSDOF 6
ENDMDL
