MODEL 1
REMARK VINA RESULT:    -5.297      0.000      0.000
REMARK INTER + INTRA:          -9.713
REMARK INTER:                  -8.084
REMARK INTRA:                  -1.629
REMARK UNBOUND:                -1.629
REMARK SMILES CCCCCCCCCC=CC(=O)[O-]
REMARK SMILES IDX 7 1 8 2 9 3 10 4 11 5 12 6 13 7 14 8 6 9 5 10 4 11 3 12 2 13
REMARK SMILES IDX 1 14
REMARK H PARENT
REMARK Flexibility Score: inf
ROOT
ATOM      1  C   UNL     1     -62.515  -2.661   0.111  1.00  0.00     0.000 C 
ENDROOT
BRANCH   1   2
ATOM      2  C   UNL     1     -62.092  -2.540  -1.362  1.00  0.00     0.004 C 
BRANCH   2   3
ATOM      3  C   UNL     1     -63.267  -2.719  -2.334  1.00  0.00     0.027 C 
BRANCH   3   4
ATOM      4  C   UNL     1     -63.791  -1.391  -2.802  1.00  0.00    -0.025 C 
ATOM      5  C   UNL     1     -62.970  -0.358  -3.029  1.00  0.00     0.020 C 
BRANCH   5   6
ATOM      6  C   UNL     1     -63.462   0.956  -3.475  1.00  0.00     0.064 C 
ATOM      7  O   UNL     1     -64.564   1.069  -4.075  1.00  0.00    -0.545 OA
ATOM      8  O   UNL     1     -62.698   2.088  -3.231  1.00  0.00    -0.545 OA
ENDBRANCH   5   6
ENDBRANCH   3   4
ENDBRANCH   2   3
ENDBRANCH   1   2
BRANCH   1   9
ATOM      9  C   UNL     1     -63.866  -3.378   0.278  1.00  0.00     0.000 C 
BRANCH   9  10
ATOM     10  C   UNL     1     -64.980  -2.434   0.763  1.00  0.00     0.000 C 
BRANCH  10  11
ATOM     11  C   UNL     1     -64.453  -1.043   1.145  1.00  0.00    -0.000 C 
BRANCH  11  12
ATOM     12  C   UNL     1     -65.157   0.053   0.329  1.00  0.00    -0.000 C 
BRANCH  12  13
ATOM     13  C   UNL     1     -64.252   1.265   0.063  1.00  0.00    -0.003 C 
ATOM     14  C   UNL     1     -62.797   1.016   0.457  1.00  0.00     0.004 C 
ENDBRANCH  12  13
ENDBRANCH  11  12
ENDBRANCH  10  11
ENDBRANCH   9  10
ENDBRANCH   1   9
TORSDOF 9
ENDMDL
MODEL 2
REMARK VINA RESULT:    -5.221      2.004      3.946
REMARK INTER + INTRA:          -9.597
REMARK INTER:                  -8.183
REMARK INTRA:                  -1.414
REMARK UNBOUND:                -1.629
REMARK SMILES CCCCCCCCCC=CC(=O)[O-]
REMARK SMILES IDX 7 1 8 2 9 3 10 4 11 5 12 6 13 7 14 8 6 9 5 10 4 11 3 12 2 13
REMARK SMILES IDX 1 14
REMARK H PARENT
REMARK Flexibility Score: inf
ROOT
ATOM      1  C   UNL     1     -63.313   2.696  -1.502  1.00  0.00     0.000 C 
ENDROOT
BRANCH   1   2
ATOM      2  C   UNL     1     -64.513   2.586  -2.455  1.00  0.00     0.004 C 
BRANCH   2   3
ATOM      3  C   UNL     1     -64.254   1.630  -3.629  1.00  0.00     0.027 C 
BRANCH   3   4
ATOM      4  C   UNL     1     -64.337   0.196  -3.189  1.00  0.00    -0.025 C 
ATOM      5  C   UNL     1     -63.250  -0.584  -3.143  1.00  0.00     0.020 C 
BRANCH   5   6
ATOM      6  C   UNL     1     -63.308  -1.994  -2.727  1.00  0.00     0.064 C 
ATOM      7  O   UNL     1     -64.382  -2.648  -2.794  1.00  0.00    -0.545 OA
ATOM      8  O   UNL     1     -62.160  -2.614  -2.255  1.00  0.00    -0.545 OA
ENDBRANCH   5   6
ENDBRANCH   3   4
ENDBRANCH   2   3
ENDBRANCH   1   2
BRANCH   1   9
ATOM      9  C   UNL     1     -63.636   2.187  -0.086  1.00  0.00     0.000 C 
BRANCH   9  10
ATOM     10  C   UNL     1     -62.531   1.281   0.483  1.00  0.00     0.000 C 
BRANCH  10  11
ATOM     11  C   UNL     1     -63.012  -0.157   0.731  1.00  0.00    -0.000 C 
BRANCH  11  12
ATOM     12  C   UNL     1     -64.519  -0.284   0.457  1.00  0.00    -0.000 C 
BRANCH  12  13
ATOM     13  C   UNL     1     -65.034  -1.719   0.648  1.00  0.00    -0.003 C 
ATOM     14  C   UNL     1     -63.906  -2.740   0.790  1.00  0.00     0.004 C 
ENDBRANCH  12  13
ENDBRANCH  11  12
ENDBRANCH  10  11
ENDBRANCH   9  10
ENDBRANCH   1   9
TORSDOF 9
ENDMDL
MODEL 3
REMARK VINA RESULT:    -5.195      1.454      3.650
REMARK INTER + INTRA:          -9.557
REMARK INTER:                  -7.896
REMARK INTRA:                  -1.661
REMARK UNBOUND:                -1.629
REMARK SMILES CCCCCCCCCC=CC(=O)[O-]
REMARK SMILES IDX 7 1 8 2 9 3 10 4 11 5 12 6 13 7 14 8 6 9 5 10 4 11 3 12 2 13
REMARK SMILES IDX 1 14
REMARK H PARENT
REMARK Flexibility Score: inf
ROOT
ATOM      1  C   UNL     1     -65.000  -2.578   0.479  1.00  0.00     0.000 C 
ENDROOT
BRANCH   1   2
ATOM      2  C   UNL     1     -64.571  -1.208   1.029  1.00  0.00     0.004 C 
BRANCH   2   3
ATOM      3  C   UNL     1     -65.365  -0.046   0.414  1.00  0.00     0.027 C 
BRANCH   3   4
ATOM      4  C   UNL     1     -64.455   1.077   0.006  1.00  0.00    -0.025 C 
ATOM      5  C   UNL     1     -63.139   1.032   0.248  1.00  0.00     0.020 C 
BRANCH   5   6
ATOM      6  C   UNL     1     -62.230   2.125  -0.131  1.00  0.00     0.064 C 
ATOM      7  O   UNL     1     -62.529   2.930  -1.053  1.00  0.00    -0.545 OA
ATOM      8  O   UNL     1     -61.024   2.272   0.538  1.00  0.00    -0.545 OA
ENDBRANCH   5   6
ENDBRANCH   3   4
ENDBRANCH   2   3
ENDBRANCH   1   2
BRANCH   1   9
ATOM      9  C   UNL     1     -64.245  -2.959  -0.807  1.00  0.00     0.000 C 
BRANCH   9  10
ATOM     10  C   UNL     1     -62.746  -2.624  -0.732  1.00  0.00     0.000 C 
BRANCH  10  11
ATOM     11  C   UNL     1     -62.259  -1.809  -1.940  1.00  0.00    -0.000 C 
BRANCH  11  12
ATOM     12  C   UNL     1     -63.448  -1.298  -2.770  1.00  0.00    -0.000 C 
BRANCH  12  13
ATOM     13  C   UNL     1     -63.177   0.073  -3.407  1.00  0.00    -0.003 C 
ATOM     14  C   UNL     1     -64.456   0.867  -3.670  1.00  0.00     0.004 C 
ENDBRANCH  12  13
ENDBRANCH  11  12
ENDBRANCH  10  11
ENDBRANCH   9  10
ENDBRANCH   1   9
TORSDOF 9
ENDMDL
MODEL 4
REMARK VINA RESULT:    -5.158      2.331      4.351
REMARK INTER + INTRA:          -9.501
REMARK INTER:                  -7.912
REMARK INTRA:                  -1.589
REMARK UNBOUND:                -1.629
REMARK SMILES CCCCCCCCCC=CC(=O)[O-]
REMARK SMILES IDX 7 1 8 2 9 3 10 4 11 5 12 6 13 7 14 8 6 9 5 10 4 11 3 12 2 13
REMARK SMILES IDX 1 14
REMARK H PARENT
REMARK Flexibility Score: inf
ROOT
ATOM      1  C   UNL     1     -64.686   2.669  -3.533  1.00  0.00     0.000 C 
ENDROOT
BRANCH   1   2
ATOM      2  C   UNL     1     -64.288   1.244  -3.950  1.00  0.00     0.004 C 
BRANCH   2   3
ATOM      3  C   UNL     1     -65.142   0.165  -3.268  1.00  0.00     0.027 C 
BRANCH   3   4
ATOM      4  C   UNL     1     -64.290  -0.972  -2.779  1.00  0.00    -0.025 C 
ATOM      5  C   UNL     1     -62.962  -0.970  -2.945  1.00  0.00     0.020 C 
BRANCH   5   6
ATOM      6  C   UNL     1     -62.109  -2.078  -2.485  1.00  0.00     0.064 C 
ATOM      7  O   UNL     1     -60.926  -2.203  -2.898  1.00  0.00    -0.545 OA
ATOM      8  O   UNL     1     -62.617  -3.000  -1.580  1.00  0.00    -0.545 OA
ENDBRANCH   5   6
ENDBRANCH   3   4
ENDBRANCH   2   3
ENDBRANCH   1   2
BRANCH   1   9
ATOM      9  C   UNL     1     -64.255   3.003  -2.094  1.00  0.00     0.000 C 
BRANCH   9  10
ATOM     10  C   UNL     1     -62.786   2.638  -1.817  1.00  0.00     0.000 C 
BRANCH  10  11
ATOM     11  C   UNL     1     -62.562   2.123  -0.388  1.00  0.00    -0.000 C 
BRANCH  11  12
ATOM     12  C   UNL     1     -63.786   1.337   0.109  1.00  0.00    -0.000 C 
BRANCH  12  13
ATOM     13  C   UNL     1     -63.412  -0.045   0.666  1.00  0.00    -0.003 C 
ATOM     14  C   UNL     1     -64.630  -0.938   0.903  1.00  0.00     0.004 C 
ENDBRANCH  12  13
ENDBRANCH  11  12
ENDBRANCH  10  11
ENDBRANCH   9  10
ENDBRANCH   1   9
TORSDOF 9
ENDMDL
MODEL 5
REMARK VINA RESULT:    -5.135      1.195      3.597
REMARK INTER + INTRA:          -9.465
REMARK INTER:                  -8.148
REMARK INTRA:                  -1.317
REMARK UNBOUND:                -1.629
REMARK SMILES CCCCCCCCCC=CC(=O)[O-]
REMARK SMILES IDX 7 1 8 2 9 3 10 4 11 5 12 6 13 7 14 8 6 9 5 10 4 11 3 12 2 13
REMARK SMILES IDX 1 14
REMARK H PARENT
REMARK Flexibility Score: inf
ROOT
ATOM      1  C   UNL     1     -65.097  -2.496   0.541  1.00  0.00     0.000 C 
ENDROOT
BRANCH   1   2
ATOM      2  C   UNL     1     -64.599  -1.153   1.099  1.00  0.00     0.004 C 
BRANCH   2   3
ATOM      3  C   UNL     1     -65.297   0.053   0.454  1.00  0.00     0.027 C 
BRANCH   3   4
ATOM      4  C   UNL     1     -64.488   0.601  -0.687  1.00  0.00    -0.025 C 
ATOM      5  C   UNL     1     -64.723   0.229  -1.951  1.00  0.00     0.020 C 
BRANCH   5   6
ATOM      6  C   UNL     1     -63.935   0.743  -3.083  1.00  0.00     0.064 C 
ATOM      7  O   UNL     1     -64.486   1.043  -4.176  1.00  0.00    -0.545 OA
ATOM      8  O   UNL     1     -62.563   0.899  -2.945  1.00  0.00    -0.545 OA
ENDBRANCH   5   6
ENDBRANCH   3   4
ENDBRANCH   2   3
ENDBRANCH   1   2
BRANCH   1   9
ATOM      9  C   UNL     1     -63.972  -3.315  -0.116  1.00  0.00     0.000 C 
BRANCH   9  10
ATOM     10  C   UNL     1     -62.584  -2.686   0.093  1.00  0.00     0.000 C 
BRANCH  10  11
ATOM     11  C   UNL     1     -61.918  -2.267  -1.226  1.00  0.00    -0.000 C 
BRANCH  11  12
ATOM     12  C   UNL     1     -62.752  -2.730  -2.432  1.00  0.00    -0.000 C 
BRANCH  12  13
ATOM     13  C   UNL     1     -61.996  -2.589  -3.761  1.00  0.00    -0.003 C 
ATOM     14  C   UNL     1     -61.611  -3.937  -4.370  1.00  0.00     0.004 C 
ENDBRANCH  12  13
ENDBRANCH  11  12
ENDBRANCH  10  11
ENDBRANCH   9  10
ENDBRANCH   1   9
TORSDOF 9
ENDMDL
MODEL 6
REMARK VINA RESULT:    -5.079      1.688      3.743
REMARK INTER + INTRA:          -9.381
REMARK INTER:                  -7.842
REMARK INTRA:                  -1.539
REMARK UNBOUND:                -1.629
REMARK SMILES CCCCCCCCCC=CC(=O)[O-]
REMARK SMILES IDX 7 1 8 2 9 3 10 4 11 5 12 6 13 7 14 8 6 9 5 10 4 11 3 12 2 13
REMARK SMILES IDX 1 14
REMARK H PARENT
REMARK Flexibility Score: inf
ROOT
ATOM      1  C   UNL     1     -63.479  -2.675  -1.154  1.00  0.00     0.000 C 
ENDROOT
BRANCH   1   2
ATOM      2  C   UNL     1     -64.640  -2.275  -0.228  1.00  0.00     0.004 C 
BRANCH   2   3
ATOM      3  C   UNL     1     -64.191  -1.376   0.933  1.00  0.00     0.027 C 
BRANCH   3   4
ATOM      4  C   UNL     1     -63.961   0.035   0.469  1.00  0.00    -0.025 C 
ATOM      5  C   UNL     1     -62.736   0.573   0.450  1.00  0.00     0.020 C 
BRANCH   5   6
ATOM      6  C   UNL     1     -62.489   1.956   0.012  1.00  0.00     0.064 C 
ATOM      7  O   UNL     1     -63.103   2.924   0.535  1.00  0.00    -0.545 OA
ATOM      8  O   UNL     1     -61.565   2.197  -0.994  1.00  0.00    -0.545 OA
ENDBRANCH   5   6
ENDBRANCH   3   4
ENDBRANCH   2   3
ENDBRANCH   1   2
BRANCH   1   9
ATOM      9  C   UNL     1     -63.622  -2.083  -2.567  1.00  0.00     0.000 C 
BRANCH   9  10
ATOM     10  C   UNL     1     -62.551  -1.023  -2.874  1.00  0.00     0.000 C 
BRANCH  10  11
ATOM     11  C   UNL     1     -63.123   0.207  -3.595  1.00  0.00    -0.000 C 
BRANCH  11  12
ATOM     12  C   UNL     1     -64.595   0.430  -3.212  1.00  0.00    -0.000 C 
BRANCH  12  13
ATOM     13  C   UNL     1     -64.893   1.890  -2.840  1.00  0.00    -0.003 C 
ATOM     14  C   UNL     1     -63.932   2.878  -3.499  1.00  0.00     0.004 C 
ENDBRANCH  12  13
ENDBRANCH  11  12
ENDBRANCH  10  11
ENDBRANCH   9  10
ENDBRANCH   1   9
TORSDOF 9
ENDMDL
MODEL 7
REMARK VINA RESULT:    -5.038      2.859      4.827
REMARK INTER + INTRA:          -9.317
REMARK INTER:                  -8.135
REMARK INTRA:                  -1.182
REMARK UNBOUND:                -1.629
REMARK SMILES CCCCCCCCCC=CC(=O)[O-]
REMARK SMILES IDX 7 1 8 2 9 3 10 4 11 5 12 6 13 7 14 8 6 9 5 10 4 11 3 12 2 13
REMARK SMILES IDX 1 14
REMARK H PARENT
REMARK Flexibility Score: inf
ROOT
ATOM      1  C   UNL     1     -64.602   2.512  -3.475  1.00  0.00     0.000 C 
ENDROOT
BRANCH   1   2
ATOM      2  C   UNL     1     -64.487   0.988  -3.630  1.00  0.00     0.004 C 
BRANCH   2   3
ATOM      3  C   UNL     1     -65.551   0.227  -2.824  1.00  0.00     0.027 C 
BRANCH   3   4
ATOM      4  C   UNL     1     -64.919  -0.622  -1.758  1.00  0.00    -0.025 C 
ATOM      5  C   UNL     1     -65.127  -0.379  -0.459  1.00  0.00     0.020 C 
BRANCH   5   6
ATOM      6  C   UNL     1     -64.509  -1.189   0.603  1.00  0.00     0.064 C 
ATOM      7  O   UNL     1     -64.968  -2.322   0.908  1.00  0.00    -0.545 OA
ATOM      8  O   UNL     1     -63.402  -0.697   1.280  1.00  0.00    -0.545 OA
ENDBRANCH   5   6
ENDBRANCH   3   4
ENDBRANCH   2   3
ENDBRANCH   1   2
BRANCH   1   9
ATOM      9  C   UNL     1     -63.776   3.049  -2.292  1.00  0.00     0.000 C 
BRANCH   9  10
ATOM     10  C   UNL     1     -62.354   2.465  -2.252  1.00  0.00     0.000 C 
BRANCH  10  11
ATOM     11  C   UNL     1     -62.042   1.754  -0.927  1.00  0.00    -0.000 C 
BRANCH  11  12
ATOM     12  C   UNL     1     -62.608   2.543   0.264  1.00  0.00    -0.000 C 
BRANCH  12  13
ATOM     13  C   UNL     1     -61.584   2.720   1.395  1.00  0.00    -0.003 C 
ATOM     14  C   UNL     1     -61.530   4.152   1.927  1.00  0.00     0.004 C 
ENDBRANCH  12  13
ENDBRANCH  11  12
ENDBRANCH  10  11
ENDBRANCH   9  10
ENDBRANCH   1   9
TORSDOF 9
ENDMDL
MODEL 8
REMARK VINA RESULT:    -5.026      2.128      3.656
REMARK INTER + INTRA:          -9.300
REMARK INTER:                  -8.224
REMARK INTRA:                  -1.076
REMARK UNBOUND:                -1.629
REMARK SMILES CCCCCCCCCC=CC(=O)[O-]
REMARK SMILES IDX 7 1 8 2 9 3 10 4 11 5 12 6 13 7 14 8 6 9 5 10 4 11 3 12 2 13
REMARK SMILES IDX 1 14
REMARK H PARENT
REMARK Flexibility Score: inf
ROOT
ATOM      1  C   UNL     1     -64.062  -0.870   0.835  1.00  0.00     0.000 C 
ENDROOT
BRANCH   1   2
ATOM      2  C   UNL     1     -64.418  -2.366   0.845  1.00  0.00     0.004 C 
BRANCH   2   3
ATOM      3  C   UNL     1     -64.342  -3.003  -0.551  1.00  0.00     0.027 C 
BRANCH   3   4
ATOM      4  C   UNL     1     -63.034  -2.689  -1.220  1.00  0.00    -0.025 C 
ATOM      5  C   UNL     1     -62.933  -2.607  -2.552  1.00  0.00     0.020 C 
BRANCH   5   6
ATOM      6  C   UNL     1     -61.660  -2.313  -3.229  1.00  0.00     0.064 C 
ATOM      7  O   UNL     1     -60.663  -1.892  -2.586  1.00  0.00    -0.545 OA
ATOM      8  O   UNL     1     -61.557  -2.504  -4.600  1.00  0.00    -0.545 OA
ENDBRANCH   5   6
ENDBRANCH   3   4
ENDBRANCH   2   3
ENDBRANCH   1   2
BRANCH   1   9
ATOM      9  C   UNL     1     -65.161  -0.008   0.190  1.00  0.00     0.000 C 
BRANCH   9  10
ATOM     10  C   UNL     1     -64.678   0.710  -1.082  1.00  0.00     0.000 C 
BRANCH  10  11
ATOM     11  C   UNL     1     -65.332   0.160  -2.358  1.00  0.00    -0.000 C 
BRANCH  11  12
ATOM     12  C   UNL     1     -64.709   0.797  -3.610  1.00  0.00    -0.000 C 
BRANCH  12  13
ATOM     13  C   UNL     1     -63.588   1.792  -3.272  1.00  0.00    -0.003 C 
ATOM     14  C   UNL     1     -63.958   3.237  -3.603  1.00  0.00     0.004 C 
ENDBRANCH  12  13
ENDBRANCH  11  12
ENDBRANCH  10  11
ENDBRANCH   9  10
ENDBRANCH   1   9
TORSDOF 9
ENDMDL
MODEL 9
REMARK VINA RESULT:    -5.022      2.612      5.162
REMARK INTER + INTRA:          -9.294
REMARK INTER:                  -7.841
REMARK INTRA:                  -1.452
REMARK UNBOUND:                -1.629
REMARK SMILES CCCCCCCCCC=CC(=O)[O-]
REMARK SMILES IDX 7 1 8 2 9 3 10 4 11 5 12 6 13 7 14 8 6 9 5 10 4 11 3 12 2 13
REMARK SMILES IDX 1 14
REMARK H PARENT
REMARK Flexibility Score: inf
ROOT
ATOM      1  C   UNL     1     -64.179   2.621  -1.366  1.00  0.00     0.000 C 
ENDROOT
BRANCH   1   2
ATOM      2  C   UNL     1     -62.744   2.612  -0.813  1.00  0.00     0.004 C 
BRANCH   2   3
ATOM      3  C   UNL     1     -62.617   1.818   0.496  1.00  0.00     0.027 C 
BRANCH   3   4
ATOM      4  C   UNL     1     -62.758   0.343   0.251  1.00  0.00    -0.025 C 
ATOM      5  C   UNL     1     -63.677  -0.387   0.894  1.00  0.00     0.020 C 
BRANCH   5   6
ATOM      6  C   UNL     1     -63.825  -1.835   0.679  1.00  0.00     0.064 C 
ATOM      7  O   UNL     1     -62.826  -2.562   0.431  1.00  0.00    -0.545 OA
ATOM      8  O   UNL     1     -65.086  -2.411   0.751  1.00  0.00    -0.545 OA
ENDBRANCH   5   6
ENDBRANCH   3   4
ENDBRANCH   2   3
ENDBRANCH   1   2
BRANCH   1   9
ATOM      9  C   UNL     1     -64.219   2.796  -2.894  1.00  0.00     0.000 C 
BRANCH   9  10
ATOM     10  C   UNL     1     -64.627   1.506  -3.626  1.00  0.00     0.000 C 
BRANCH  10  11
ATOM     11  C   UNL     1     -65.202   0.443  -2.678  1.00  0.00    -0.000 C 
BRANCH  11  12
ATOM     12  C   UNL     1     -64.441  -0.885  -2.818  1.00  0.00    -0.000 C 
BRANCH  12  13
ATOM     13  C   UNL     1     -62.976  -0.685  -3.235  1.00  0.00    -0.003 C 
ATOM     14  C   UNL     1     -62.173  -1.984  -3.221  1.00  0.00     0.004 C 
ENDBRANCH  12  13
ENDBRANCH  11  12
ENDBRANCH  10  11
ENDBRANCH   9  10
ENDBRANCH   1   9
TORSDOF 9
ENDMDL
