MODEL 1
REMARK VINA RESULT:    -3.555      0.000      0.000
REMARK INTER + INTRA:          -4.502
REMARK INTER:                  -4.386
REMARK INTRA:                  -0.116
REMARK UNBOUND:                -0.116
REMARK SMILES CCCCCC(=O)[O-]
REMARK SMILES IDX 4 1 5 2 6 3 7 4 8 5 3 6 2 7 1 8
REMARK H PARENT
REMARK Flexibility Score: inf
ROOT
ATOM      1  C   UNL     1       5.918 -29.854 -17.404  1.00  0.00     0.006 C 
ENDROOT
BRANCH   1   2
ATOM      2  C   UNL     1       7.385 -29.412 -17.362  1.00  0.00     0.053 C 
BRANCH   2   3
ATOM      3  C   UNL     1       7.492 -27.936 -17.584  1.00  0.00     0.041 C 
ATOM      4  O   UNL     1       8.543 -27.442 -18.069  1.00  0.00    -0.550 OA
ATOM      5  O   UNL     1       6.410 -27.111 -17.302  1.00  0.00    -0.550 OA
ENDBRANCH   2   3
ENDBRANCH   1   2
BRANCH   1   6
ATOM      6  C   UNL     1       5.678 -31.016 -18.382  1.00  0.00     0.000 C 
BRANCH   6   7
ATOM      7  C   UNL     1       6.978 -31.731 -18.779  1.00  0.00    -0.003 C 
ATOM      8  C   UNL     1       6.710 -32.827 -19.805  1.00  0.00     0.004 C 
ENDBRANCH   6   7
ENDBRANCH   1   6
TORSDOF 4
ENDMDL
MODEL 2
REMARK VINA RESULT:    -3.525     14.768     16.166
REMARK INTER + INTRA:          -4.465
REMARK INTER:                  -4.360
REMARK INTRA:                  -0.104
REMARK UNBOUND:                -0.116
REMARK SMILES CCCCCC(=O)[O-]
REMARK SMILES IDX 4 1 5 2 6 3 7 4 8 5 3 6 2 7 1 8
REMARK H PARENT
REMARK Flexibility Score: inf
ROOT
ATOM      1  C   UNL     1      -0.491 -44.062 -17.470  1.00  0.00     0.006 C 
ENDROOT
BRANCH   1   2
ATOM      2  C   UNL     1      -1.304 -42.866 -17.979  1.00  0.00     0.053 C 
BRANCH   2   3
ATOM      3  C   UNL     1      -0.404 -41.862 -18.629  1.00  0.00     0.041 C 
ATOM      4  O   UNL     1       0.699 -41.564 -18.100  1.00  0.00    -0.550 OA
ATOM      5  O   UNL     1      -0.762 -41.292 -19.844  1.00  0.00    -0.550 OA
ENDBRANCH   2   3
ENDBRANCH   1   2
BRANCH   1   6
ATOM      6  C   UNL     1      -1.360 -45.100 -16.740  1.00  0.00     0.000 C 
BRANCH   6   7
ATOM      7  C   UNL     1      -2.723 -45.310 -17.417  1.00  0.00    -0.003 C 
ATOM      8  C   UNL     1      -2.754 -46.623 -18.193  1.00  0.00     0.004 C 
ENDBRANCH   6   7
ENDBRANCH   1   6
TORSDOF 4
ENDMDL
MODEL 3
REMARK VINA RESULT:    -3.516      2.488      3.964
REMARK INTER + INTRA:          -4.454
REMARK INTER:                  -4.213
REMARK INTRA:                  -0.241
REMARK UNBOUND:                -0.116
REMARK SMILES CCCCCC(=O)[O-]
REMARK SMILES IDX 4 1 5 2 6 3 7 4 8 5 3 6 2 7 1 8
REMARK H PARENT
REMARK Flexibility Score: inf
ROOT
ATOM      1  C   UNL     1       6.885 -29.793 -16.514  1.00  0.00     0.006 C 
ENDROOT
BRANCH   1   2
ATOM      2  C   UNL     1       6.386 -31.179 -16.944  1.00  0.00     0.053 C 
BRANCH   2   3
ATOM      3  C   UNL     1       5.706 -31.099 -18.275  1.00  0.00     0.041 C 
ATOM      4  O   UNL     1       6.121 -31.791 -19.241  1.00  0.00    -0.550 OA
ATOM      5  O   UNL     1       4.583 -30.297 -18.434  1.00  0.00    -0.550 OA
ENDBRANCH   2   3
ENDBRANCH   1   2
BRANCH   1   6
ATOM      6  C   UNL     1       7.815 -29.150 -17.556  1.00  0.00     0.000 C 
BRANCH   6   7
ATOM      7  C   UNL     1       7.688 -27.620 -17.597  1.00  0.00    -0.003 C 
ATOM      8  C   UNL     1       6.232 -27.187 -17.456  1.00  0.00     0.004 C 
ENDBRANCH   6   7
ENDBRANCH   1   6
TORSDOF 4
ENDMDL
MODEL 4
REMARK VINA RESULT:    -3.488      3.532      5.047
REMARK INTER + INTRA:          -4.419
REMARK INTER:                  -4.373
REMARK INTRA:                  -0.045
REMARK UNBOUND:                -0.116
REMARK SMILES CCCCCC(=O)[O-]
REMARK SMILES IDX 4 1 5 2 6 3 7 4 8 5 3 6 2 7 1 8
REMARK H PARENT
REMARK Flexibility Score: inf
ROOT
ATOM      1  C   UNL     1       7.132 -31.507 -18.379  1.00  0.00     0.006 C 
ENDROOT
BRANCH   1   2
ATOM      2  C   UNL     1       6.172 -32.151 -19.387  1.00  0.00     0.053 C 
BRANCH   2   3
ATOM      3  C   UNL     1       6.853 -33.265 -20.118  1.00  0.00     0.041 C 
ATOM      4  O   UNL     1       6.293 -33.810 -21.105  1.00  0.00    -0.550 OA
ATOM      5  O   UNL     1       8.127 -33.668 -19.738  1.00  0.00    -0.550 OA
ENDBRANCH   2   3
ENDBRANCH   1   2
BRANCH   1   6
ATOM      6  C   UNL     1       6.614 -30.162 -17.844  1.00  0.00     0.000 C 
BRANCH   6   7
ATOM      7  C   UNL     1       7.739 -29.137 -17.635  1.00  0.00    -0.003 C 
ATOM      8  C   UNL     1       7.269 -27.976 -16.765  1.00  0.00     0.004 C 
ENDBRANCH   6   7
ENDBRANCH   1   6
TORSDOF 4
ENDMDL
MODEL 5
REMARK VINA RESULT:    -3.441      2.636      4.067
REMARK INTER + INTRA:          -4.361
REMARK INTER:                  -4.141
REMARK INTRA:                  -0.220
REMARK UNBOUND:                -0.116
REMARK SMILES CCCCCC(=O)[O-]
REMARK SMILES IDX 4 1 5 2 6 3 7 4 8 5 3 6 2 7 1 8
REMARK H PARENT
REMARK Flexibility Score: inf
ROOT
ATOM      1  C   UNL     1       4.923 -29.318 -17.215  1.00  0.00     0.006 C 
ENDROOT
BRANCH   1   2
ATOM      2  C   UNL     1       4.794 -30.310 -18.378  1.00  0.00     0.053 C 
BRANCH   2   3
ATOM      3  C   UNL     1       5.888 -31.329 -18.318  1.00  0.00     0.041 C 
ATOM      4  O   UNL     1       6.459 -31.582 -17.225  1.00  0.00    -0.550 OA
ATOM      5  O   UNL     1       6.244 -32.034 -19.461  1.00  0.00    -0.550 OA
ENDBRANCH   2   3
ENDBRANCH   1   2
BRANCH   1   6
ATOM      6  C   UNL     1       5.730 -28.065 -17.593  1.00  0.00     0.000 C 
BRANCH   6   7
ATOM      7  C   UNL     1       7.050 -27.957 -16.816  1.00  0.00    -0.003 C 
ATOM      8  C   UNL     1       8.249 -28.065 -17.753  1.00  0.00     0.004 C 
ENDBRANCH   6   7
ENDBRANCH   1   6
TORSDOF 4
ENDMDL
MODEL 6
REMARK VINA RESULT:    -3.426      2.010      2.655
REMARK INTER + INTRA:          -4.342
REMARK INTER:                  -4.197
REMARK INTRA:                  -0.146
REMARK UNBOUND:                -0.116
REMARK SMILES CCCCCC(=O)[O-]
REMARK SMILES IDX 4 1 5 2 6 3 7 4 8 5 3 6 2 7 1 8
REMARK H PARENT
REMARK Flexibility Score: inf
ROOT
ATOM      1  C   UNL     1       7.118 -28.262 -16.820  1.00  0.00     0.006 C 
ENDROOT
BRANCH   1   2
ATOM      2  C   UNL     1       6.367 -27.116 -17.509  1.00  0.00     0.053 C 
BRANCH   2   3
ATOM      3  C   UNL     1       4.901 -27.413 -17.565  1.00  0.00     0.041 C 
ATOM      4  O   UNL     1       4.337 -28.001 -16.606  1.00  0.00    -0.550 OA
ATOM      5  O   UNL     1       4.149 -26.995 -18.656  1.00  0.00    -0.550 OA
ENDBRANCH   2   3
ENDBRANCH   1   2
BRANCH   1   6
ATOM      6  C   UNL     1       7.514 -29.382 -17.797  1.00  0.00     0.000 C 
BRANCH   6   7
ATOM      7  C   UNL     1       6.723 -30.677 -17.562  1.00  0.00    -0.003 C 
ATOM      8  C   UNL     1       6.928 -31.661 -18.709  1.00  0.00     0.004 C 
ENDBRANCH   6   7
ENDBRANCH   1   6
TORSDOF 4
ENDMDL
MODEL 7
REMARK VINA RESULT:    -3.403     15.287     16.636
REMARK INTER + INTRA:          -4.315
REMARK INTER:                  -4.137
REMARK INTRA:                  -0.178
REMARK UNBOUND:                -0.116
REMARK SMILES CCCCCC(=O)[O-]
REMARK SMILES IDX 4 1 5 2 6 3 7 4 8 5 3 6 2 7 1 8
REMARK H PARENT
REMARK Flexibility Score: inf
ROOT
ATOM      1  C   UNL     1      -0.680 -43.971 -16.249  1.00  0.00     0.006 C 
ENDROOT
BRANCH   1   2
ATOM      2  C   UNL     1      -0.485 -43.385 -17.653  1.00  0.00     0.053 C 
BRANCH   2   3
ATOM      3  C   UNL     1       0.896 -43.674 -18.151  1.00  0.00     0.041 C 
ATOM      4  O   UNL     1       1.208 -44.838 -18.513  1.00  0.00    -0.550 OA
ATOM      5  O   UNL     1       1.824 -42.645 -18.263  1.00  0.00    -0.550 OA
ENDBRANCH   2   3
ENDBRANCH   1   2
BRANCH   1   6
ATOM      6  C   UNL     1      -1.892 -44.914 -16.165  1.00  0.00     0.000 C 
BRANCH   6   7
ATOM      7  C   UNL     1      -2.651 -45.020 -17.496  1.00  0.00    -0.003 C 
ATOM      8  C   UNL     1      -2.593 -46.441 -18.048  1.00  0.00     0.004 C 
ENDBRANCH   6   7
ENDBRANCH   1   6
TORSDOF 4
ENDMDL
MODEL 8
REMARK VINA RESULT:    -3.393     14.673     16.146
REMARK INTER + INTRA:          -4.302
REMARK INTER:                  -4.168
REMARK INTRA:                  -0.134
REMARK UNBOUND:                -0.116
REMARK SMILES CCCCCC(=O)[O-]
REMARK SMILES IDX 4 1 5 2 6 3 7 4 8 5 3 6 2 7 1 8
REMARK H PARENT
REMARK Flexibility Score: inf
ROOT
ATOM      1  C   UNL     1       1.090 -45.510 -18.067  1.00  0.00     0.006 C 
ENDROOT
BRANCH   1   2
ATOM      2  C   UNL     1       1.974 -44.606 -17.198  1.00  0.00     0.053 C 
BRANCH   2   3
ATOM      3  C   UNL     1       2.283 -43.331 -17.918  1.00  0.00     0.041 C 
ATOM      4  O   UNL     1       3.474 -43.032 -18.192  1.00  0.00    -0.550 OA
ATOM      5  O   UNL     1       1.250 -42.498 -18.329  1.00  0.00    -0.550 OA
ENDBRANCH   2   3
ENDBRANCH   1   2
BRANCH   1   6
ATOM      6  C   UNL     1      -0.193 -45.953 -17.344  1.00  0.00     0.000 C 
BRANCH   6   7
ATOM      7  C   UNL     1      -1.324 -44.921 -17.463  1.00  0.00    -0.003 C 
ATOM      8  C   UNL     1      -2.671 -45.605 -17.679  1.00  0.00     0.004 C 
ENDBRANCH   6   7
ENDBRANCH   1   6
TORSDOF 4
ENDMDL
MODEL 9
REMARK VINA RESULT:    -3.387      1.503      2.075
REMARK INTER + INTRA:          -4.295
REMARK INTER:                  -4.034
REMARK INTRA:                  -0.261
REMARK UNBOUND:                -0.116
REMARK SMILES CCCCCC(=O)[O-]
REMARK SMILES IDX 4 1 5 2 6 3 7 4 8 5 3 6 2 7 1 8
REMARK H PARENT
REMARK Flexibility Score: inf
ROOT
ATOM      1  C   UNL     1       5.035 -28.153 -17.138  1.00  0.00     0.006 C 
ENDROOT
BRANCH   1   2
ATOM      2  C   UNL     1       6.326 -27.345 -17.312  1.00  0.00     0.053 C 
BRANCH   2   3
ATOM      3  C   UNL     1       7.522 -28.216 -17.084  1.00  0.00     0.041 C 
ATOM      4  O   UNL     1       8.547 -28.084 -17.802  1.00  0.00    -0.550 OA
ATOM      5  O   UNL     1       7.521 -29.139 -16.046  1.00  0.00    -0.550 OA
ENDBRANCH   2   3
ENDBRANCH   1   2
BRANCH   1   6
ATOM      6  C   UNL     1       4.701 -29.009 -18.371  1.00  0.00     0.000 C 
BRANCH   6   7
ATOM      7  C   UNL     1       4.590 -30.504 -18.040  1.00  0.00    -0.003 C 
ATOM      8  C   UNL     1       5.808 -31.270 -18.549  1.00  0.00     0.004 C 
ENDBRANCH   6   7
ENDBRANCH   1   6
TORSDOF 4
ENDMDL
