MODEL 1
REMARK VINA RESULT:    -4.001      0.000      0.000
REMARK INTER + INTRA:          -4.118
REMARK INTER:                  -4.118
REMARK INTRA:                   0.000
REMARK UNBOUND:                 0.000
REMARK SMILES Nc1ncnc2nc[nH]c12
REMARK SMILES IDX 8 1 7 2 6 3 5 4 4 5 3 6 2 7 10 8 9 9 1 11
REMARK H PARENT 9 10 1 12 1 13
REMARK Flexibility Score: inf
ROOT
ATOM      1  C   UNL     1       0.129  -5.507 -22.003  1.00  0.00     0.199 A 
ATOM      2  N   UNL     1      -1.059  -4.888 -22.243  1.00  0.00    -0.217 NA
ATOM      3  C   UNL     1      -1.857  -5.427 -21.305  1.00  0.00     0.182 A 
ATOM      4  N   UNL     1      -3.168  -5.150 -21.104  1.00  0.00    -0.215 NA
ATOM      5  C   UNL     1      -3.817  -5.805 -20.094  1.00  0.00     0.226 A 
ATOM      6  N   UNL     1      -3.151  -6.714 -19.312  1.00  0.00    -0.217 NA
ATOM      7  C   UNL     1      -1.828  -6.994 -19.515  1.00  0.00     0.152 A 
ATOM      8  C   UNL     1      -1.182  -6.320 -20.547  1.00  0.00     0.127 A 
ATOM      9  N   UNL     1       0.086  -6.389 -20.972  1.00  0.00    -0.340 N 
ATOM     10  H   UNL     1       0.866  -6.977 -20.605  1.00  0.00     0.168 HD
ENDROOT
BRANCH   7  11
ATOM     11  N   UNL     1      -1.156  -7.945 -18.687  1.00  0.00    -0.382 N 
ATOM     12  H   UNL     1      -0.702  -8.782 -19.116  1.00  0.00     0.158 HD
ATOM     13  H   UNL     1      -1.104  -7.824 -17.652  1.00  0.00     0.158 HD
ENDBRANCH   7  11
TORSDOF 1
ENDMDL
MODEL 2
REMARK VINA RESULT:    -3.886      1.028      3.015
REMARK INTER + INTRA:          -3.999
REMARK INTER:                  -3.999
REMARK INTRA:                   0.000
REMARK UNBOUND:                 0.000
REMARK SMILES Nc1ncnc2nc[nH]c12
REMARK SMILES IDX 8 1 7 2 6 3 5 4 4 5 3 6 2 7 10 8 9 9 1 11
REMARK H PARENT 9 10 1 12 1 13
REMARK Flexibility Score: inf
ROOT
ATOM      1  C   UNL     1      -2.128  -7.826 -18.256  1.00  0.00     0.199 A 
ATOM      2  N   UNL     1      -3.255  -7.095 -18.474  1.00  0.00    -0.217 NA
ATOM      3  C   UNL     1      -2.937  -6.402 -19.580  1.00  0.00     0.182 A 
ATOM      4  N   UNL     1      -3.722  -5.509 -20.228  1.00  0.00    -0.215 NA
ATOM      5  C   UNL     1      -3.221  -4.899 -21.344  1.00  0.00     0.226 A 
ATOM      6  N   UNL     1      -1.956  -5.189 -21.788  1.00  0.00    -0.217 NA
ATOM      7  C   UNL     1      -1.161  -6.090 -21.134  1.00  0.00     0.152 A 
ATOM      8  C   UNL     1      -1.686  -6.702 -20.000  1.00  0.00     0.127 A 
ATOM      9  N   UNL     1      -1.151  -7.608 -19.172  1.00  0.00    -0.340 N 
ATOM     10  H   UNL     1      -0.205  -8.049 -19.212  1.00  0.00     0.168 HD
ENDROOT
BRANCH   7  11
ATOM     11  N   UNL     1       0.153  -6.377 -21.615  1.00  0.00    -0.382 N 
ATOM     12  H   UNL     1       0.940  -6.504 -20.941  1.00  0.00     0.158 HD
ATOM     13  H   UNL     1       0.351  -6.465 -22.636  1.00  0.00     0.158 HD
ENDBRANCH   7  11
TORSDOF 1
ENDMDL
MODEL 3
REMARK VINA RESULT:    -3.618      1.451      3.374
REMARK INTER + INTRA:          -3.723
REMARK INTER:                  -3.723
REMARK INTRA:                   0.000
REMARK UNBOUND:                 0.000
REMARK SMILES Nc1ncnc2nc[nH]c12
REMARK SMILES IDX 8 1 7 2 6 3 5 4 4 5 3 6 2 7 10 8 9 9 1 11
REMARK H PARENT 9 10 1 12 1 13
REMARK Flexibility Score: inf
ROOT
ATOM      1  C   UNL     1      -4.935  -5.687 -18.273  1.00  0.00     0.199 A 
ATOM      2  N   UNL     1      -4.471  -4.915 -19.292  1.00  0.00    -0.217 NA
ATOM      3  C   UNL     1      -3.256  -5.442 -19.520  1.00  0.00     0.182 A 
ATOM      4  N   UNL     1      -2.360  -5.035 -20.450  1.00  0.00    -0.215 NA
ATOM      5  C   UNL     1      -1.167  -5.698 -20.532  1.00  0.00     0.226 A 
ATOM      6  N   UNL     1      -0.895  -6.747 -19.690  1.00  0.00    -0.217 NA
ATOM      7  C   UNL     1      -1.798  -7.159 -18.750  1.00  0.00     0.152 A 
ATOM      8  C   UNL     1      -3.007  -6.473 -18.680  1.00  0.00     0.127 A 
ATOM      9  N   UNL     1      -4.063  -6.648 -17.875  1.00  0.00    -0.340 N 
ATOM     10  H   UNL     1      -4.195  -7.355 -17.118  1.00  0.00     0.168 HD
ENDROOT
BRANCH   7  11
ATOM     11  N   UNL     1      -1.493  -8.254 -17.885  1.00  0.00    -0.382 N 
ATOM     12  H   UNL     1      -2.039  -8.394 -17.007  1.00  0.00     0.158 HD
ATOM     13  H   UNL     1      -0.728  -8.928 -18.111  1.00  0.00     0.158 HD
ENDBRANCH   7  11
TORSDOF 1
ENDMDL
MODEL 4
REMARK VINA RESULT:    -3.522      0.796      2.452
REMARK INTER + INTRA:          -3.625
REMARK INTER:                  -3.625
REMARK INTRA:                   0.000
REMARK UNBOUND:                 0.000
REMARK SMILES Nc1ncnc2nc[nH]c12
REMARK SMILES IDX 8 1 7 2 6 3 5 4 4 5 3 6 2 7 10 8 9 9 1 11
REMARK H PARENT 9 10 1 12 1 13
REMARK Flexibility Score: inf
ROOT
ATOM      1  C   UNL     1      -0.235  -5.366 -21.787  1.00  0.00     0.199 A 
ATOM      2  N   UNL     1       0.215  -6.105 -20.737  1.00  0.00    -0.217 NA
ATOM      3  C   UNL     1      -0.921  -6.383 -20.076  1.00  0.00     0.182 A 
ATOM      4  N   UNL     1      -1.037  -7.106 -18.935  1.00  0.00    -0.215 NA
ATOM      5  C   UNL     1      -2.285  -7.281 -18.407  1.00  0.00     0.226 A 
ATOM      6  N   UNL     1      -3.384  -6.738 -19.021  1.00  0.00    -0.217 NA
ATOM      7  C   UNL     1      -3.270  -6.008 -20.171  1.00  0.00     0.152 A 
ATOM      8  C   UNL     1      -1.992  -5.838 -20.697  1.00  0.00     0.127 A 
ATOM      9  N   UNL     1      -1.580  -5.184 -21.790  1.00  0.00    -0.340 N 
ATOM     10  H   UNL     1      -2.150  -4.657 -22.488  1.00  0.00     0.168 HD
ENDROOT
BRANCH   7  11
ATOM     11  N   UNL     1      -4.429  -5.452 -20.793  1.00  0.00    -0.382 N 
ATOM     12  H   UNL     1      -4.752  -5.817 -21.716  1.00  0.00     0.158 HD
ATOM     13  H   UNL     1      -4.970  -4.681 -20.343  1.00  0.00     0.158 HD
ENDBRANCH   7  11
TORSDOF 1
ENDMDL
MODEL 5
REMARK VINA RESULT:    -3.496      1.192      2.882
REMARK INTER + INTRA:          -3.598
REMARK INTER:                  -3.598
REMARK INTRA:                   0.000
REMARK UNBOUND:                 0.000
REMARK SMILES Nc1ncnc2nc[nH]c12
REMARK SMILES IDX 8 1 7 2 6 3 5 4 4 5 3 6 2 7 10 8 9 9 1 11
REMARK H PARENT 9 10 1 12 1 13
REMARK Flexibility Score: inf
ROOT
ATOM      1  C   UNL     1      -3.937  -4.876 -21.266  1.00  0.00     0.199 A 
ATOM      2  N   UNL     1      -4.470  -5.461 -20.159  1.00  0.00    -0.217 NA
ATOM      3  C   UNL     1      -3.413  -6.113 -19.645  1.00  0.00     0.182 A 
ATOM      4  N   UNL     1      -3.400  -6.870 -18.521  1.00  0.00    -0.215 NA
ATOM      5  C   UNL     1      -2.222  -7.460 -18.155  1.00  0.00     0.226 A 
ATOM      6  N   UNL     1      -1.091  -7.285 -18.910  1.00  0.00    -0.217 NA
ATOM      7  C   UNL     1      -1.103  -6.522 -20.045  1.00  0.00     0.152 A 
ATOM      8  C   UNL     1      -2.309  -5.929 -20.405  1.00  0.00     0.127 A 
ATOM      9  N   UNL     1      -2.618  -5.143 -21.444  1.00  0.00    -0.340 N 
ATOM     10  H   UNL     1      -1.999  -4.809 -22.215  1.00  0.00     0.168 HD
ENDROOT
BRANCH   7  11
ATOM     11  N   UNL     1       0.088  -6.354 -20.816  1.00  0.00    -0.382 N 
ATOM     12  H   UNL     1       0.123  -6.691 -21.803  1.00  0.00     0.158 HD
ATOM     13  H   UNL     1       0.935  -5.897 -20.414  1.00  0.00     0.158 HD
ENDBRANCH   7  11
TORSDOF 1
ENDMDL
MODEL 6
REMARK VINA RESULT:    -3.254      0.829      3.655
REMARK INTER + INTRA:          -3.349
REMARK INTER:                  -3.349
REMARK INTRA:                   0.000
REMARK UNBOUND:                 0.000
REMARK SMILES Nc1ncnc2nc[nH]c12
REMARK SMILES IDX 8 1 7 2 6 3 5 4 4 5 3 6 2 7 10 8 9 9 1 11
REMARK H PARENT 9 10 1 12 1 13
REMARK Flexibility Score: inf
ROOT
ATOM      1  C   UNL     1      -2.304  -7.007 -18.137  1.00  0.00     0.199 A 
ATOM      2  N   UNL     1      -1.001  -7.118 -18.514  1.00  0.00    -0.217 NA
ATOM      3  C   UNL     1      -0.995  -6.500 -19.707  1.00  0.00     0.182 A 
ATOM      4  N   UNL     1       0.073  -6.329 -20.523  1.00  0.00    -0.215 NA
ATOM      5  C   UNL     1      -0.118  -5.672 -21.706  1.00  0.00     0.226 A 
ATOM      6  N   UNL     1      -1.360  -5.201 -22.049  1.00  0.00    -0.217 NA
ATOM      7  C   UNL     1      -2.439  -5.374 -21.227  1.00  0.00     0.152 A 
ATOM      8  C   UNL     1      -2.228  -6.045 -20.027  1.00  0.00     0.127 A 
ATOM      9  N   UNL     1      -3.080  -6.356 -19.041  1.00  0.00    -0.340 N 
ATOM     10  H   UNL     1      -4.101  -6.151 -18.973  1.00  0.00     0.168 HD
ENDROOT
BRANCH   7  11
ATOM     11  N   UNL     1      -3.723  -4.875 -21.606  1.00  0.00    -0.382 N 
ATOM     12  H   UNL     1      -4.511  -5.538 -21.777  1.00  0.00     0.158 HD
ATOM     13  H   UNL     1      -3.897  -3.852 -21.716  1.00  0.00     0.158 HD
ENDBRANCH   7  11
TORSDOF 1
ENDMDL
MODEL 7
REMARK VINA RESULT:    -3.133      1.876      3.338
REMARK INTER + INTRA:          -3.225
REMARK INTER:                  -3.225
REMARK INTRA:                   0.000
REMARK UNBOUND:                 0.000
REMARK SMILES Nc1ncnc2nc[nH]c12
REMARK SMILES IDX 8 1 7 2 6 3 5 4 4 5 3 6 2 7 10 8 9 9 1 11
REMARK H PARENT 9 10 1 12 1 13
REMARK Flexibility Score: inf
ROOT
ATOM      1  C   UNL     1      -1.335  -7.537 -18.780  1.00  0.00     0.199 A 
ATOM      2  N   UNL     1      -2.358  -7.437 -17.888  1.00  0.00    -0.217 NA
ATOM      3  C   UNL     1      -3.204  -6.604 -18.518  1.00  0.00     0.182 A 
ATOM      4  N   UNL     1      -4.401  -6.167 -18.056  1.00  0.00    -0.215 NA
ATOM      5  C   UNL     1      -5.124  -5.317 -18.845  1.00  0.00     0.226 A 
ATOM      6  N   UNL     1      -4.644  -4.921 -20.067  1.00  0.00    -0.217 NA
ATOM      7  C   UNL     1      -3.437  -5.361 -20.534  1.00  0.00     0.152 A 
ATOM      8  C   UNL     1      -2.712  -6.226 -19.720  1.00  0.00     0.127 A 
ATOM      9  N   UNL     1      -1.521  -6.808 -19.909  1.00  0.00    -0.340 N 
ATOM     10  H   UNL     1      -0.879  -6.728 -20.729  1.00  0.00     0.168 HD
ENDROOT
BRANCH   7  11
ATOM     11  N   UNL     1      -2.957  -4.937 -21.811  1.00  0.00    -0.382 N 
ATOM     12  H   UNL     1      -3.381  -5.324 -22.683  1.00  0.00     0.158 HD
ATOM     13  H   UNL     1      -2.185  -4.239 -21.897  1.00  0.00     0.158 HD
ENDBRANCH   7  11
TORSDOF 1
ENDMDL
MODEL 8
REMARK VINA RESULT:    -2.922      7.841      8.936
REMARK INTER + INTRA:          -3.007
REMARK INTER:                  -3.007
REMARK INTRA:                   0.000
REMARK UNBOUND:                 0.000
REMARK SMILES Nc1ncnc2nc[nH]c12
REMARK SMILES IDX 8 1 7 2 6 3 5 4 4 5 3 6 2 7 10 8 9 9 1 11
REMARK H PARENT 9 10 1 12 1 13
REMARK Flexibility Score: inf
ROOT
ATOM      1  C   UNL     1      -0.981  -4.875 -30.812  1.00  0.00     0.199 A 
ATOM      2  N   UNL     1      -2.029  -5.496 -31.420  1.00  0.00    -0.217 NA
ATOM      3  C   UNL     1      -2.774  -5.888 -30.372  1.00  0.00     0.182 A 
ATOM      4  N   UNL     1      -3.947  -6.563 -30.424  1.00  0.00    -0.215 NA
ATOM      5  C   UNL     1      -4.562  -6.878 -29.244  1.00  0.00     0.226 A 
ATOM      6  N   UNL     1      -4.000  -6.516 -28.047  1.00  0.00    -0.217 NA
ATOM      7  C   UNL     1      -2.815  -5.835 -27.993  1.00  0.00     0.152 A 
ATOM      8  C   UNL     1      -2.201  -5.523 -29.203  1.00  0.00     0.127 A 
ATOM      9  N   UNL     1      -1.057  -4.875 -29.457  1.00  0.00    -0.340 N 
ATOM     10  H   UNL     1      -0.377  -4.463 -28.781  1.00  0.00     0.168 HD
ENDROOT
BRANCH   7  11
ATOM     11  N   UNL     1      -2.248  -5.468 -26.735  1.00  0.00    -0.382 N 
ATOM     12  H   UNL     1      -1.643  -6.144 -26.218  1.00  0.00     0.158 HD
ATOM     13  H   UNL     1      -2.424  -4.531 -26.312  1.00  0.00     0.158 HD
ENDBRANCH   7  11
TORSDOF 1
ENDMDL
