MODEL 1
REMARK VINA RESULT:    -4.050      0.000      0.000
REMARK INTER + INTRA:          -9.621
REMARK INTER:                  -7.365
REMARK INTRA:                  -2.256
REMARK UNBOUND:                -2.256
REMARK SMILES CCCCCCCCCCCCCCCC(=O)[O-]
REMARK SMILES IDX 9 1 10 2 11 3 12 4 13 5 14 6 15 7 16 8 17 9 18 10 8 11 7 12
REMARK SMILES IDX 6 13 5 14 4 15 3 16 2 17 1 18
REMARK H PARENT
REMARK Flexibility Score: inf
ROOT
ATOM      1  C   UNL     1      14.199 -23.151  20.589  1.00  0.00     0.000 C 
ENDROOT
BRANCH   1   2
ATOM      2  C   UNL     1      14.001 -22.014  19.576  1.00  0.00     0.000 C 
BRANCH   2   3
ATOM      3  C   UNL     1      15.215 -21.072  19.486  1.00  0.00     0.000 C 
BRANCH   3   4
ATOM      4  C   UNL     1      15.449 -20.192  20.728  1.00  0.00     0.000 C 
BRANCH   4   5
ATOM      5  C   UNL     1      16.920 -20.056  21.163  1.00  0.00     0.000 C 
BRANCH   5   6
ATOM      6  C   UNL     1      17.263 -20.834  22.452  1.00  0.00     0.006 C 
BRANCH   6   7
ATOM      7  C   UNL     1      16.036 -21.517  23.069  1.00  0.00     0.053 C 
BRANCH   7   8
ATOM      8  C   UNL     1      15.751 -20.953  24.426  1.00  0.00     0.041 C 
ATOM      9  O   UNL     1      16.103 -21.580  25.460  1.00  0.00    -0.550 OA
ATOM     10  O   UNL     1      15.054 -19.758  24.550  1.00  0.00    -0.550 OA
ENDBRANCH   7   8
ENDBRANCH   6   7
ENDBRANCH   5   6
ENDBRANCH   4   5
ENDBRANCH   3   4
ENDBRANCH   2   3
ENDBRANCH   1   2
BRANCH   1  11
ATOM     11  C   UNL     1      13.198 -23.037  21.745  1.00  0.00     0.000 C 
BRANCH  11  12
ATOM     12  C   UNL     1      12.252 -21.848  21.541  1.00  0.00    -0.000 C 
BRANCH  12  13
ATOM     13  C   UNL     1      12.418 -20.812  22.659  1.00  0.00    -0.000 C 
BRANCH  13  14
ATOM     14  C   UNL     1      12.191 -19.389  22.127  1.00  0.00    -0.000 C 
BRANCH  14  15
ATOM     15  C   UNL     1      11.769 -19.368  20.649  1.00  0.00    -0.000 C 
BRANCH  15  16
ATOM     16  C   UNL     1      11.884 -17.968  20.022  1.00  0.00    -0.000 C 
BRANCH  16  17
ATOM     17  C   UNL     1      13.057 -17.160  20.601  1.00  0.00    -0.003 C 
ATOM     18  C   UNL     1      14.187 -16.950  19.594  1.00  0.00     0.004 C 
ENDBRANCH  16  17
ENDBRANCH  15  16
ENDBRANCH  14  15
ENDBRANCH  13  14
ENDBRANCH  12  13
ENDBRANCH  11  12
ENDBRANCH   1  11
TORSDOF 14
ENDMDL
MODEL 2
REMARK VINA RESULT:    -3.910      2.595      4.595
REMARK INTER + INTRA:          -9.366
REMARK INTER:                  -6.812
REMARK INTRA:                  -2.554
REMARK UNBOUND:                -2.256
REMARK SMILES CCCCCCCCCCCCCCCC(=O)[O-]
REMARK SMILES IDX 9 1 10 2 11 3 12 4 13 5 14 6 15 7 16 8 17 9 18 10 8 11 7 12
REMARK SMILES IDX 6 13 5 14 4 15 3 16 2 17 1 18
REMARK H PARENT
REMARK Flexibility Score: inf
ROOT
ATOM      1  C   UNL     1      14.957 -22.447  21.213  1.00  0.00     0.000 C 
ENDROOT
BRANCH   1   2
ATOM      2  C   UNL     1      15.637 -21.166  20.707  1.00  0.00     0.000 C 
BRANCH   2   3
ATOM      3  C   UNL     1      15.118 -20.716  19.329  1.00  0.00     0.000 C 
BRANCH   3   4
ATOM      4  C   UNL     1      14.953 -19.193  19.162  1.00  0.00     0.000 C 
BRANCH   4   5
ATOM      5  C   UNL     1      15.392 -18.353  20.376  1.00  0.00     0.000 C 
BRANCH   5   6
ATOM      6  C   UNL     1      14.478 -17.141  20.657  1.00  0.00     0.006 C 
BRANCH   6   7
ATOM      7  C   UNL     1      13.138 -17.232  19.916  1.00  0.00     0.053 C 
BRANCH   7   8
ATOM      8  C   UNL     1      12.175 -16.219  20.451  1.00  0.00     0.041 C 
ATOM      9  O   UNL     1      12.230 -15.023  20.059  1.00  0.00    -0.550 OA
ATOM     10  O   UNL     1      11.250 -16.583  21.420  1.00  0.00    -0.550 OA
ENDBRANCH   7   8
ENDBRANCH   6   7
ENDBRANCH   5   6
ENDBRANCH   4   5
ENDBRANCH   3   4
ENDBRANCH   2   3
ENDBRANCH   1   2
BRANCH   1  11
ATOM     11  C   UNL     1      13.497 -22.514  20.750  1.00  0.00     0.000 C 
BRANCH  11  12
ATOM     12  C   UNL     1      12.542 -22.088  21.872  1.00  0.00    -0.000 C 
BRANCH  12  13
ATOM     13  C   UNL     1      12.009 -20.670  21.634  1.00  0.00    -0.000 C 
BRANCH  13  14
ATOM     14  C   UNL     1      12.688 -19.663  22.574  1.00  0.00    -0.000 C 
BRANCH  14  15
ATOM     15  C   UNL     1      13.249 -20.322  23.845  1.00  0.00    -0.000 C 
BRANCH  15  16
ATOM     16  C   UNL     1      14.732 -19.986  24.080  1.00  0.00    -0.000 C 
BRANCH  16  17
ATOM     17  C   UNL     1      15.522 -21.177  24.647  1.00  0.00    -0.003 C 
ATOM     18  C   UNL     1      16.942 -21.266  24.090  1.00  0.00     0.004 C 
ENDBRANCH  16  17
ENDBRANCH  15  16
ENDBRANCH  14  15
ENDBRANCH  13  14
ENDBRANCH  12  13
ENDBRANCH  11  12
ENDBRANCH   1  11
TORSDOF 14
ENDMDL
MODEL 3
REMARK VINA RESULT:    -3.910      1.226      3.448
REMARK INTER + INTRA:          -9.366
REMARK INTER:                  -7.351
REMARK INTRA:                  -2.015
REMARK UNBOUND:                -2.256
REMARK SMILES CCCCCCCCCCCCCCCC(=O)[O-]
REMARK SMILES IDX 9 1 10 2 11 3 12 4 13 5 14 6 15 7 16 8 17 9 18 10 8 11 7 12
REMARK SMILES IDX 6 13 5 14 4 15 3 16 2 17 1 18
REMARK H PARENT
REMARK Flexibility Score: inf
ROOT
ATOM      1  C   UNL     1      16.135 -19.435  20.327  1.00  0.00     0.000 C 
ENDROOT
BRANCH   1   2
ATOM      2  C   UNL     1      15.613 -20.142  19.068  1.00  0.00     0.000 C 
BRANCH   2   3
ATOM      3  C   UNL     1      14.248 -20.822  19.283  1.00  0.00     0.000 C 
BRANCH   3   4
ATOM      4  C   UNL     1      14.296 -22.358  19.392  1.00  0.00     0.000 C 
BRANCH   4   5
ATOM      5  C   UNL     1      14.040 -22.919  20.802  1.00  0.00     0.000 C 
BRANCH   5   6
ATOM      6  C   UNL     1      15.166 -22.606  21.811  1.00  0.00     0.006 C 
BRANCH   6   7
ATOM      7  C   UNL     1      14.686 -21.725  22.971  1.00  0.00     0.053 C 
BRANCH   7   8
ATOM      8  C   UNL     1      15.828 -21.391  23.880  1.00  0.00     0.041 C 
ATOM      9  O   UNL     1      16.950 -21.081  23.400  1.00  0.00    -0.550 OA
ATOM     10  O   UNL     1      15.666 -21.470  25.257  1.00  0.00    -0.550 OA
ENDBRANCH   7   8
ENDBRANCH   6   7
ENDBRANCH   5   6
ENDBRANCH   4   5
ENDBRANCH   3   4
ENDBRANCH   2   3
ENDBRANCH   1   2
BRANCH   1  11
ATOM     11  C   UNL     1      15.012 -18.661  21.028  1.00  0.00     0.000 C 
BRANCH  11  12
ATOM     12  C   UNL     1      15.121 -17.157  20.749  1.00  0.00    -0.000 C 
BRANCH  12  13
ATOM     13  C   UNL     1      13.757 -16.565  20.377  1.00  0.00    -0.000 C 
BRANCH  13  14
ATOM     14  C   UNL     1      12.743 -17.675  20.065  1.00  0.00    -0.000 C 
BRANCH  14  15
ATOM     15  C   UNL     1      11.586 -17.724  21.077  1.00  0.00    -0.000 C 
BRANCH  15  16
ATOM     16  C   UNL     1      11.623 -18.987  21.955  1.00  0.00    -0.000 C 
BRANCH  16  17
ATOM     17  C   UNL     1      10.575 -20.029  21.531  1.00  0.00    -0.003 C 
ATOM     18  C   UNL     1      10.983 -21.459  21.885  1.00  0.00     0.004 C 
ENDBRANCH  16  17
ENDBRANCH  15  16
ENDBRANCH  14  15
ENDBRANCH  13  14
ENDBRANCH  12  13
ENDBRANCH  11  12
ENDBRANCH   1  11
TORSDOF 14
ENDMDL
MODEL 4
REMARK VINA RESULT:    -3.719      2.788      4.949
REMARK INTER + INTRA:          -9.018
REMARK INTER:                  -6.760
REMARK INTRA:                  -2.258
REMARK UNBOUND:                -2.256
REMARK SMILES CCCCCCCCCCCCCCCC(=O)[O-]
REMARK SMILES IDX 9 1 10 2 11 3 12 4 13 5 14 6 15 7 16 8 17 9 18 10 8 11 7 12
REMARK SMILES IDX 6 13 5 14 4 15 3 16 2 17 1 18
REMARK H PARENT
REMARK Flexibility Score: inf
ROOT
ATOM      1  C   UNL     1      15.250 -21.076  19.291  1.00  0.00     0.000 C 
ENDROOT
BRANCH   1   2
ATOM      2  C   UNL     1      14.945 -19.589  19.058  1.00  0.00     0.000 C 
BRANCH   2   3
ATOM      3  C   UNL     1      13.494 -19.212  19.411  1.00  0.00     0.000 C 
BRANCH   3   4
ATOM      4  C   UNL     1      13.342 -17.942  20.269  1.00  0.00     0.000 C 
BRANCH   4   5
ATOM      5  C   UNL     1      14.665 -17.311  20.740  1.00  0.00     0.000 C 
BRANCH   5   6
ATOM      6  C   UNL     1      15.109 -16.095  19.900  1.00  0.00     0.006 C 
BRANCH   6   7
ATOM      7  C   UNL     1      13.997 -15.049  19.747  1.00  0.00     0.053 C 
BRANCH   7   8
ATOM      8  C   UNL     1      13.724 -14.381  21.058  1.00  0.00     0.041 C 
ATOM      9  O   UNL     1      12.539 -14.234  21.460  1.00  0.00    -0.550 OA
ATOM     10  O   UNL     1      14.774 -13.877  21.814  1.00  0.00    -0.550 OA
ENDBRANCH   7   8
ENDBRANCH   6   7
ENDBRANCH   5   6
ENDBRANCH   4   5
ENDBRANCH   3   4
ENDBRANCH   2   3
ENDBRANCH   1   2
BRANCH   1  11
ATOM     11  C   UNL     1      13.973 -21.853  19.632  1.00  0.00     0.000 C 
BRANCH  11  12
ATOM     12  C   UNL     1      14.284 -23.060  20.525  1.00  0.00    -0.000 C 
BRANCH  12  13
ATOM     13  C   UNL     1      13.470 -23.010  21.824  1.00  0.00    -0.000 C 
BRANCH  13  14
ATOM     14  C   UNL     1      12.738 -21.667  21.961  1.00  0.00    -0.000 C 
BRANCH  14  15
ATOM     15  C   UNL     1      13.226 -20.845  23.166  1.00  0.00    -0.000 C 
BRANCH  15  16
ATOM     16  C   UNL     1      14.613 -20.221  22.932  1.00  0.00    -0.000 C 
BRANCH  16  17
ATOM     17  C   UNL     1      15.740 -21.026  23.599  1.00  0.00    -0.003 C 
ATOM     18  C   UNL     1      16.911 -21.301  22.656  1.00  0.00     0.004 C 
ENDBRANCH  16  17
ENDBRANCH  15  16
ENDBRANCH  14  15
ENDBRANCH  13  14
ENDBRANCH  12  13
ENDBRANCH  11  12
ENDBRANCH   1  11
TORSDOF 14
ENDMDL
MODEL 5
REMARK VINA RESULT:    -3.650      1.118      3.608
REMARK INTER + INTRA:          -8.893
REMARK INTER:                  -6.628
REMARK INTRA:                  -2.265
REMARK UNBOUND:                -2.256
REMARK SMILES CCCCCCCCCCCCCCCC(=O)[O-]
REMARK SMILES IDX 9 1 10 2 11 3 12 4 13 5 14 6 15 7 16 8 17 9 18 10 8 11 7 12
REMARK SMILES IDX 6 13 5 14 4 15 3 16 2 17 1 18
REMARK H PARENT
REMARK Flexibility Score: inf
ROOT
ATOM      1  C   UNL     1      12.645 -17.317  20.194  1.00  0.00     0.000 C 
ENDROOT
BRANCH   1   2
ATOM      2  C   UNL     1      12.902 -18.378  19.115  1.00  0.00     0.000 C 
BRANCH   2   3
ATOM      3  C   UNL     1      14.378 -18.808  19.035  1.00  0.00     0.000 C 
BRANCH   3   4
ATOM      4  C   UNL     1      15.122 -18.831  20.384  1.00  0.00     0.000 C 
BRANCH   4   5
ATOM      5  C   UNL     1      16.398 -19.692  20.411  1.00  0.00     0.000 C 
BRANCH   5   6
ATOM      6  C   UNL     1      16.569 -20.511  21.708  1.00  0.00     0.006 C 
BRANCH   6   7
ATOM      7  C   UNL     1      15.494 -20.186  22.754  1.00  0.00     0.053 C 
BRANCH   7   8
ATOM      8  C   UNL     1      15.706 -21.002  23.991  1.00  0.00     0.041 C 
ATOM      9  O   UNL     1      14.761 -21.172  24.806  1.00  0.00    -0.550 OA
ATOM     10  O   UNL     1      16.959 -21.532  24.268  1.00  0.00    -0.550 OA
ENDBRANCH   7   8
ENDBRANCH   6   7
ENDBRANCH   5   6
ENDBRANCH   4   5
ENDBRANCH   3   4
ENDBRANCH   2   3
ENDBRANCH   1   2
BRANCH   1  11
ATOM     11  C   UNL     1      11.240 -17.468  20.790  1.00  0.00     0.000 C 
BRANCH  11  12
ATOM     12  C   UNL     1      11.278 -18.267  22.098  1.00  0.00    -0.000 C 
BRANCH  12  13
ATOM     13  C   UNL     1      10.923 -19.739  21.856  1.00  0.00    -0.000 C 
BRANCH  13  14
ATOM     14  C   UNL     1      12.083 -20.659  22.265  1.00  0.00    -0.000 C 
BRANCH  14  15
ATOM     15  C   UNL     1      12.232 -21.875  21.337  1.00  0.00    -0.000 C 
BRANCH  15  16
ATOM     16  C   UNL     1      13.233 -22.911  21.877  1.00  0.00    -0.000 C 
BRANCH  16  17
ATOM     17  C   UNL     1      14.396 -23.169  20.905  1.00  0.00    -0.003 C 
ATOM     18  C   UNL     1      14.180 -22.522  19.537  1.00  0.00     0.004 C 
ENDBRANCH  16  17
ENDBRANCH  15  16
ENDBRANCH  14  15
ENDBRANCH  13  14
ENDBRANCH  12  13
ENDBRANCH  11  12
ENDBRANCH   1  11
TORSDOF 14
ENDMDL
MODEL 6
REMARK VINA RESULT:    -3.575      1.515      3.277
REMARK INTER + INTRA:          -8.756
REMARK INTER:                  -6.889
REMARK INTRA:                  -1.867
REMARK UNBOUND:                -2.256
REMARK SMILES CCCCCCCCCCCCCCCC(=O)[O-]
REMARK SMILES IDX 9 1 10 2 11 3 12 4 13 5 14 6 15 7 16 8 17 9 18 10 8 11 7 12
REMARK SMILES IDX 6 13 5 14 4 15 3 16 2 17 1 18
REMARK H PARENT
REMARK Flexibility Score: inf
ROOT
ATOM      1  C   UNL     1      11.929 -19.607  22.098  1.00  0.00     0.000 C 
ENDROOT
BRANCH   1   2
ATOM      2  C   UNL     1      12.007 -20.950  21.359  1.00  0.00     0.000 C 
BRANCH   2   3
ATOM      3  C   UNL     1      12.818 -22.011  22.126  1.00  0.00     0.000 C 
BRANCH   3   4
ATOM      4  C   UNL     1      13.962 -22.661  21.324  1.00  0.00     0.000 C 
BRANCH   4   5
ATOM      5  C   UNL     1      15.030 -21.682  20.803  1.00  0.00     0.000 C 
BRANCH   5   6
ATOM      6  C   UNL     1      15.563 -20.712  21.879  1.00  0.00     0.006 C 
BRANCH   6   7
ATOM      7  C   UNL     1      16.283 -21.440  23.022  1.00  0.00     0.053 C 
BRANCH   7   8
ATOM      8  C   UNL     1      15.689 -21.059  24.341  1.00  0.00     0.041 C 
ATOM      9  O   UNL     1      16.089 -21.611  25.400  1.00  0.00    -0.550 OA
ATOM     10  O   UNL     1      14.658 -20.130  24.397  1.00  0.00    -0.550 OA
ENDBRANCH   7   8
ENDBRANCH   6   7
ENDBRANCH   5   6
ENDBRANCH   4   5
ENDBRANCH   3   4
ENDBRANCH   2   3
ENDBRANCH   1   2
BRANCH   1  11
ATOM     11  C   UNL     1      12.175 -18.436  21.139  1.00  0.00     0.000 C 
BRANCH  11  12
ATOM     12  C   UNL     1      12.770 -18.925  19.814  1.00  0.00    -0.000 C 
BRANCH  12  13
ATOM     13  C   UNL     1      14.083 -18.198  19.497  1.00  0.00    -0.000 C 
BRANCH  13  14
ATOM     14  C   UNL     1      14.631 -17.487  20.744  1.00  0.00    -0.000 C 
BRANCH  14  15
ATOM     15  C   UNL     1      15.814 -16.558  20.425  1.00  0.00    -0.000 C 
BRANCH  15  16
ATOM     16  C   UNL     1      15.363 -15.130  20.069  1.00  0.00    -0.000 C 
BRANCH  16  17
ATOM     17  C   UNL     1      14.800 -14.372  21.281  1.00  0.00    -0.003 C 
ATOM     18  C   UNL     1      13.308 -14.068  21.150  1.00  0.00     0.004 C 
ENDBRANCH  16  17
ENDBRANCH  15  16
ENDBRANCH  14  15
ENDBRANCH  13  14
ENDBRANCH  12  13
ENDBRANCH  11  12
ENDBRANCH   1  11
TORSDOF 14
ENDMDL
MODEL 7
REMARK VINA RESULT:    -3.537      1.311      3.727
REMARK INTER + INTRA:          -8.687
REMARK INTER:                  -6.457
REMARK INTRA:                  -2.230
REMARK UNBOUND:                -2.256
REMARK SMILES CCCCCCCCCCCCCCCC(=O)[O-]
REMARK SMILES IDX 9 1 10 2 11 3 12 4 13 5 14 6 15 7 16 8 17 9 18 10 8 11 7 12
REMARK SMILES IDX 6 13 5 14 4 15 3 16 2 17 1 18
REMARK H PARENT
REMARK Flexibility Score: inf
ROOT
ATOM      1  C   UNL     1      10.621 -18.450  22.202  1.00  0.00     0.000 C 
ENDROOT
BRANCH   1   2
ATOM      2  C   UNL     1      11.797 -19.407  22.447  1.00  0.00     0.000 C 
BRANCH   2   3
ATOM      3  C   UNL     1      12.150 -20.253  21.209  1.00  0.00     0.000 C 
BRANCH   3   4
ATOM      4  C   UNL     1      12.775 -21.627  21.517  1.00  0.00     0.000 C 
BRANCH   4   5
ATOM      5  C   UNL     1      14.165 -21.865  20.899  1.00  0.00     0.000 C 
BRANCH   5   6
ATOM      6  C   UNL     1      15.247 -22.253  21.929  1.00  0.00     0.006 C 
BRANCH   6   7
ATOM      7  C   UNL     1      15.871 -21.031  22.615  1.00  0.00     0.053 C 
BRANCH   7   8
ATOM      8  C   UNL     1      15.516 -21.008  24.068  1.00  0.00     0.041 C 
ATOM      9  O   UNL     1      16.295 -21.513  24.919  1.00  0.00    -0.550 OA
ATOM     10  O   UNL     1      14.301 -20.474  24.478  1.00  0.00    -0.550 OA
ENDBRANCH   7   8
ENDBRANCH   6   7
ENDBRANCH   5   6
ENDBRANCH   4   5
ENDBRANCH   3   4
ENDBRANCH   2   3
ENDBRANCH   1   2
BRANCH   1  11
ATOM     11  C   UNL     1      10.525 -18.066  20.721  1.00  0.00     0.000 C 
BRANCH  11  12
ATOM     12  C   UNL     1      11.040 -16.640  20.486  1.00  0.00    -0.000 C 
BRANCH  12  13
ATOM     13  C   UNL     1      11.734 -16.522  19.124  1.00  0.00    -0.000 C 
BRANCH  13  14
ATOM     14  C   UNL     1      13.117 -17.188  19.152  1.00  0.00    -0.000 C 
BRANCH  14  15
ATOM     15  C   UNL     1      13.965 -16.746  20.356  1.00  0.00    -0.000 C 
BRANCH  15  16
ATOM     16  C   UNL     1      14.874 -17.870  20.883  1.00  0.00    -0.000 C 
BRANCH  16  17
ATOM     17  C   UNL     1      15.472 -18.721  19.751  1.00  0.00    -0.003 C 
ATOM     18  C   UNL     1      16.996 -18.814  19.820  1.00  0.00     0.004 C 
ENDBRANCH  16  17
ENDBRANCH  15  16
ENDBRANCH  14  15
ENDBRANCH  13  14
ENDBRANCH  12  13
ENDBRANCH  11  12
ENDBRANCH   1  11
TORSDOF 14
ENDMDL
MODEL 8
REMARK VINA RESULT:    -3.450      1.619      2.681
REMARK INTER + INTRA:          -8.530
REMARK INTER:                  -6.349
REMARK INTRA:                  -2.181
REMARK UNBOUND:                -2.256
REMARK SMILES CCCCCCCCCCCCCCCC(=O)[O-]
REMARK SMILES IDX 9 1 10 2 11 3 12 4 13 5 14 6 15 7 16 8 17 9 18 10 8 11 7 12
REMARK SMILES IDX 6 13 5 14 4 15 3 16 2 17 1 18
REMARK H PARENT
REMARK Flexibility Score: inf
ROOT
ATOM      1  C   UNL     1      13.661 -18.806  20.849  1.00  0.00     0.000 C 
ENDROOT
BRANCH   1   2
ATOM      2  C   UNL     1      14.186 -19.158  19.449  1.00  0.00     0.000 C 
BRANCH   2   3
ATOM      3  C   UNL     1      15.215 -20.303  19.464  1.00  0.00     0.000 C 
BRANCH   3   4
ATOM      4  C   UNL     1      14.651 -21.689  19.096  1.00  0.00     0.000 C 
BRANCH   4   5
ATOM      5  C   UNL     1      14.358 -22.612  20.294  1.00  0.00     0.000 C 
BRANCH   5   6
ATOM      6  C   UNL     1      15.241 -22.329  21.528  1.00  0.00     0.006 C 
BRANCH   6   7
ATOM      7  C   UNL     1      14.416 -21.979  22.773  1.00  0.00     0.053 C 
BRANCH   7   8
ATOM      8  C   UNL     1      15.146 -20.986  23.622  1.00  0.00     0.041 C 
ATOM      9  O   UNL     1      16.378 -21.127  23.843  1.00  0.00    -0.550 OA
ATOM     10  O   UNL     1      14.457 -19.933  24.208  1.00  0.00    -0.550 OA
ENDBRANCH   7   8
ENDBRANCH   6   7
ENDBRANCH   5   6
ENDBRANCH   4   5
ENDBRANCH   3   4
ENDBRANCH   2   3
ENDBRANCH   1   2
BRANCH   1  11
ATOM     11  C   UNL     1      12.373 -19.576  21.162  1.00  0.00     0.000 C 
BRANCH  11  12
ATOM     12  C   UNL     1      11.554 -18.863  22.245  1.00  0.00    -0.000 C 
BRANCH  12  13
ATOM     13  C   UNL     1      10.065 -18.828  21.877  1.00  0.00    -0.000 C 
BRANCH  13  14
ATOM     14  C   UNL     1       9.875 -18.497  20.390  1.00  0.00    -0.000 C 
BRANCH  14  15
ATOM     15  C   UNL     1      10.017 -16.996  20.093  1.00  0.00    -0.000 C 
BRANCH  15  16
ATOM     16  C   UNL     1      11.117 -16.700  19.058  1.00  0.00    -0.000 C 
BRANCH  16  17
ATOM     17  C   UNL     1      11.850 -15.378  19.341  1.00  0.00    -0.003 C 
ATOM     18  C   UNL     1      12.455 -15.323  20.744  1.00  0.00     0.004 C 
ENDBRANCH  16  17
ENDBRANCH  15  16
ENDBRANCH  14  15
ENDBRANCH  13  14
ENDBRANCH  12  13
ENDBRANCH  11  12
ENDBRANCH   1  11
TORSDOF 14
ENDMDL
MODEL 9
REMARK VINA RESULT:    -3.283     14.543     16.208
REMARK INTER + INTRA:          -8.225
REMARK INTER:                  -5.692
REMARK INTRA:                  -2.533
REMARK UNBOUND:                -2.256
REMARK SMILES CCCCCCCCCCCCCCCC(=O)[O-]
REMARK SMILES IDX 9 1 10 2 11 3 12 4 13 5 14 6 15 7 16 8 17 9 18 10 8 11 7 12
REMARK SMILES IDX 6 13 5 14 4 15 3 16 2 17 1 18
REMARK H PARENT
REMARK Flexibility Score: inf
ROOT
ATOM      1  C   UNL     1      20.735  -6.898  29.712  1.00  0.00     0.000 C 
ENDROOT
BRANCH   1   2
ATOM      2  C   UNL     1      20.472  -7.306  28.255  1.00  0.00     0.000 C 
BRANCH   2   3
ATOM      3  C   UNL     1      19.697  -8.631  28.133  1.00  0.00     0.000 C 
BRANCH   3   4
ATOM      4  C   UNL     1      20.576  -9.887  27.979  1.00  0.00     0.000 C 
BRANCH   4   5
ATOM      5  C   UNL     1      20.769 -10.709  29.267  1.00  0.00     0.000 C 
BRANCH   5   6
ATOM      6  C   UNL     1      19.712 -10.421  30.354  1.00  0.00     0.006 C 
BRANCH   6   7
ATOM      7  C   UNL     1      20.325 -10.308  31.755  1.00  0.00     0.053 C 
BRANCH   7   8
ATOM      8  C   UNL     1      20.417 -11.657  32.396  1.00  0.00     0.041 C 
ATOM      9  O   UNL     1      19.454 -12.102  33.075  1.00  0.00    -0.550 OA
ATOM     10  O   UNL     1      21.583 -12.402  32.285  1.00  0.00    -0.550 OA
ENDBRANCH   7   8
ENDBRANCH   6   7
ENDBRANCH   5   6
ENDBRANCH   4   5
ENDBRANCH   3   4
ENDBRANCH   2   3
ENDBRANCH   1   2
BRANCH   1  11
ATOM     11  C   UNL     1      20.757  -5.372  29.860  1.00  0.00     0.000 C 
BRANCH  11  12
ATOM     12  C   UNL     1      19.958  -4.925  31.090  1.00  0.00    -0.000 C 
BRANCH  12  13
ATOM     13  C   UNL     1      19.671  -6.109  32.021  1.00  0.00    -0.000 C 
BRANCH  13  14
ATOM     14  C   UNL     1      18.161  -6.280  32.242  1.00  0.00    -0.000 C 
BRANCH  14  15
ATOM     15  C   UNL     1      17.635  -7.631  31.729  1.00  0.00    -0.000 C 
BRANCH  15  16
ATOM     16  C   UNL     1      16.986  -7.521  30.338  1.00  0.00    -0.000 C 
BRANCH  16  17
ATOM     17  C   UNL     1      16.561  -6.083  29.999  1.00  0.00    -0.003 C 
ATOM     18  C   UNL     1      17.150  -5.586  28.678  1.00  0.00     0.004 C 
ENDBRANCH  16  17
ENDBRANCH  15  16
ENDBRANCH  14  15
ENDBRANCH  13  14
ENDBRANCH  12  13
ENDBRANCH  11  12
ENDBRANCH   1  11
TORSDOF 14
ENDMDL
