MODEL 1
REMARK VINA RESULT:    -5.058      0.000      0.000
REMARK INTER + INTRA:          -5.694
REMARK INTER:                  -5.650
REMARK INTRA:                  -0.044
REMARK UNBOUND:                -0.044
REMARK SMILES O=C([O-])c1ccc(O)c(O)c1
REMARK SMILES IDX 4 1 11 2 5 3 9 4 6 5 7 6 2 7 1 8 3 9 10 10 8 12
REMARK H PARENT 10 11 8 13
REMARK Flexibility Score: inf
ROOT
ATOM      1  C   UNL     1     -34.870  15.416  52.130  1.00  0.00     0.001 A 
ATOM      2  C   UNL     1     -36.120  15.467  51.489  1.00  0.00     0.060 A 
ATOM      3  C   UNL     1     -33.770  16.054  51.530  1.00  0.00     0.014 A 
ATOM      4  C   UNL     1     -36.271  16.141  50.270  1.00  0.00     0.158 A 
ATOM      5  C   UNL     1     -33.919  16.728  50.315  1.00  0.00     0.051 A 
ATOM      6  C   UNL     1     -35.166  16.775  49.680  1.00  0.00     0.157 A 
ENDROOT
BRANCH   1   7
ATOM      7  C   UNL     1     -34.719  14.702  53.416  1.00  0.00     0.072 C 
ATOM      8  O   UNL     1     -35.694  14.089  53.927  1.00  0.00    -0.545 OA
ATOM      9  O   UNL     1     -33.498  14.696  54.080  1.00  0.00    -0.545 OA
ENDBRANCH   1   7
BRANCH   4  10
ATOM     10  O   UNL     1     -37.527  16.169  49.663  1.00  0.00    -0.504 OA
ATOM     11  H   UNL     1     -37.885  16.998  49.205  1.00  0.00     0.293 HD
ENDBRANCH   4  10
BRANCH   6  12
ATOM     12  O   UNL     1     -35.310  17.447  48.467  1.00  0.00    -0.504 OA
ATOM     13  H   UNL     1     -35.507  18.441  48.431  1.00  0.00     0.293 HD
ENDBRANCH   6  12
TORSDOF 3
ENDMDL
MODEL 2
REMARK VINA RESULT:    -5.038      1.399      2.743
REMARK INTER + INTRA:          -5.672
REMARK INTER:                  -5.628
REMARK INTRA:                  -0.044
REMARK UNBOUND:                -0.044
REMARK SMILES O=C([O-])c1ccc(O)c(O)c1
REMARK SMILES IDX 4 1 11 2 5 3 9 4 6 5 7 6 2 7 1 8 3 9 10 10 8 12
REMARK H PARENT 10 11 8 13
REMARK Flexibility Score: inf
ROOT
ATOM      1  C   UNL     1     -33.568  15.738  51.458  1.00  0.00     0.001 A 
ATOM      2  C   UNL     1     -33.776  16.454  50.267  1.00  0.00     0.060 A 
ATOM      3  C   UNL     1     -34.683  15.280  52.181  1.00  0.00     0.014 A 
ATOM      4  C   UNL     1     -35.073  16.711  49.804  1.00  0.00     0.158 A 
ATOM      5  C   UNL     1     -35.979  15.534  51.722  1.00  0.00     0.051 A 
ATOM      6  C   UNL     1     -36.179  16.249  50.534  1.00  0.00     0.157 A 
ENDROOT
BRANCH   1   7
ATOM      7  C   UNL     1     -32.196  15.472  51.940  1.00  0.00     0.072 C 
ATOM      8  O   UNL     1     -31.205  16.024  51.390  1.00  0.00    -0.545 OA
ATOM      9  O   UNL     1     -31.978  14.609  53.008  1.00  0.00    -0.545 OA
ENDBRANCH   1   7
BRANCH   4  10
ATOM     10  O   UNL     1     -35.240  17.426  48.618  1.00  0.00    -0.504 OA
ATOM     11  H   UNL     1     -35.493  16.974  47.748  1.00  0.00     0.293 HD
ENDBRANCH   4  10
BRANCH   6  12
ATOM     12  O   UNL     1     -37.474  16.501  50.079  1.00  0.00    -0.504 OA
ATOM     13  H   UNL     1     -37.797  16.157  49.182  1.00  0.00     0.293 HD
ENDBRANCH   6  12
TORSDOF 3
ENDMDL
MODEL 3
REMARK VINA RESULT:    -4.901      2.392      3.709
REMARK INTER + INTRA:          -5.518
REMARK INTER:                  -5.480
REMARK INTRA:                  -0.038
REMARK UNBOUND:                -0.044
REMARK SMILES O=C([O-])c1ccc(O)c(O)c1
REMARK SMILES IDX 4 1 11 2 5 3 9 4 6 5 7 6 2 7 1 8 3 9 10 10 8 12
REMARK H PARENT 10 11 8 13
REMARK Flexibility Score: inf
ROOT
ATOM      1  C   UNL     1     -32.967  14.263  53.677  1.00  0.00     0.001 A 
ATOM      2  C   UNL     1     -31.897  14.747  52.904  1.00  0.00     0.060 A 
ATOM      3  C   UNL     1     -34.264  14.739  53.419  1.00  0.00     0.014 A 
ATOM      4  C   UNL     1     -32.116  15.689  51.891  1.00  0.00     0.158 A 
ATOM      5  C   UNL     1     -34.485  15.678  52.408  1.00  0.00     0.051 A 
ATOM      6  C   UNL     1     -33.416  16.157  51.641  1.00  0.00     0.157 A 
ENDROOT
BRANCH   1   7
ATOM      7  C   UNL     1     -32.726  13.269  54.745  1.00  0.00     0.072 C 
ATOM      8  O   UNL     1     -31.921  13.516  55.682  1.00  0.00    -0.545 OA
ATOM      9  O   UNL     1     -33.387  12.046  54.731  1.00  0.00    -0.545 OA
ENDBRANCH   1   7
BRANCH   4  10
ATOM     10  O   UNL     1     -31.030  16.146  51.145  1.00  0.00    -0.504 OA
ATOM     11  H   UNL     1     -30.619  15.597  50.400  1.00  0.00     0.293 HD
ENDBRANCH   4  10
BRANCH   6  12
ATOM     12  O   UNL     1     -33.641  17.095  50.634  1.00  0.00    -0.504 OA
ATOM     13  H   UNL     1     -34.530  17.153  50.152  1.00  0.00     0.293 HD
ENDBRANCH   6  12
TORSDOF 3
ENDMDL
MODEL 4
REMARK VINA RESULT:    -4.781      8.089      9.430
REMARK INTER + INTRA:          -5.385
REMARK INTER:                  -5.348
REMARK INTRA:                  -0.037
REMARK UNBOUND:                -0.044
REMARK SMILES O=C([O-])c1ccc(O)c(O)c1
REMARK SMILES IDX 4 1 11 2 5 3 9 4 6 5 7 6 2 7 1 8 3 9 10 10 8 12
REMARK H PARENT 10 11 8 13
REMARK Flexibility Score: inf
ROOT
ATOM      1  C   UNL     1     -26.099  14.814  54.520  1.00  0.00     0.001 A 
ATOM      2  C   UNL     1     -26.179  16.086  55.114  1.00  0.00     0.060 A 
ATOM      3  C   UNL     1     -26.708  14.605  53.271  1.00  0.00     0.014 A 
ATOM      4  C   UNL     1     -26.857  17.131  54.474  1.00  0.00     0.158 A 
ATOM      5  C   UNL     1     -27.385  15.647  52.630  1.00  0.00     0.051 A 
ATOM      6  C   UNL     1     -27.462  16.912  53.227  1.00  0.00     0.157 A 
ENDROOT
BRANCH   1   7
ATOM      7  C   UNL     1     -25.381  13.715  55.203  1.00  0.00     0.072 C 
ATOM      8  O   UNL     1     -25.866  13.177  56.234  1.00  0.00    -0.545 OA
ATOM      9  O   UNL     1     -24.162  13.260  54.715  1.00  0.00    -0.545 OA
ENDBRANCH   1   7
BRANCH   4  10
ATOM     10  O   UNL     1     -26.917  18.379  55.095  1.00  0.00    -0.504 OA
ATOM     11  H   UNL     1     -27.644  19.051  54.883  1.00  0.00     0.293 HD
ENDBRANCH   4  10
BRANCH   6  12
ATOM     12  O   UNL     1     -28.139  17.949  52.585  1.00  0.00    -0.504 OA
ATOM     13  H   UNL     1     -28.839  18.503  53.064  1.00  0.00     0.293 HD
ENDBRANCH   6  12
TORSDOF 3
ENDMDL
MODEL 5
REMARK VINA RESULT:    -4.766      1.900      4.987
REMARK INTER + INTRA:          -5.368
REMARK INTER:                  -5.324
REMARK INTRA:                  -0.044
REMARK UNBOUND:                -0.044
REMARK SMILES O=C([O-])c1ccc(O)c(O)c1
REMARK SMILES IDX 4 1 11 2 5 3 9 4 6 5 7 6 2 7 1 8 3 9 10 10 8 12
REMARK H PARENT 10 11 8 13
REMARK Flexibility Score: inf
ROOT
ATOM      1  C   UNL     1     -33.946  15.697  51.698  1.00  0.00     0.001 A 
ATOM      2  C   UNL     1     -32.599  15.357  51.485  1.00  0.00     0.060 A 
ATOM      3  C   UNL     1     -34.573  15.286  52.887  1.00  0.00     0.014 A 
ATOM      4  C   UNL     1     -31.889  14.619  52.439  1.00  0.00     0.158 A 
ATOM      5  C   UNL     1     -33.866  14.550  53.842  1.00  0.00     0.051 A 
ATOM      6  C   UNL     1     -32.524  14.213  53.624  1.00  0.00     0.157 A 
ENDROOT
BRANCH   1   7
ATOM      7  C   UNL     1     -34.689  16.477  50.684  1.00  0.00     0.072 C 
ATOM      8  O   UNL     1     -34.081  17.030  49.729  1.00  0.00    -0.545 OA
ATOM      9  O   UNL     1     -36.070  16.610  50.771  1.00  0.00    -0.545 OA
ENDBRANCH   1   7
BRANCH   4  10
ATOM     10  O   UNL     1     -30.554  14.299  52.192  1.00  0.00    -0.504 OA
ATOM     11  H   UNL     1     -29.800  14.944  52.393  1.00  0.00     0.293 HD
ENDBRANCH   4  10
BRANCH   6  12
ATOM     12  O   UNL     1     -31.822  13.478  54.579  1.00  0.00    -0.504 OA
ATOM     13  H   UNL     1     -31.089  13.897  55.138  1.00  0.00     0.293 HD
ENDBRANCH   6  12
TORSDOF 3
ENDMDL
MODEL 6
REMARK VINA RESULT:    -4.765      5.927      7.997
REMARK INTER + INTRA:          -5.366
REMARK INTER:                  -5.328
REMARK INTRA:                  -0.038
REMARK UNBOUND:                -0.044
REMARK SMILES O=C([O-])c1ccc(O)c(O)c1
REMARK SMILES IDX 4 1 11 2 5 3 9 4 6 5 7 6 2 7 1 8 3 9 10 10 8 12
REMARK H PARENT 10 11 8 13
REMARK Flexibility Score: inf
ROOT
ATOM      1  C   UNL     1     -32.659  10.830  54.830  1.00  0.00     0.001 A 
ATOM      2  C   UNL     1     -33.667  11.036  55.788  1.00  0.00     0.060 A 
ATOM      3  C   UNL     1     -32.446   9.532  54.334  1.00  0.00     0.014 A 
ATOM      4  C   UNL     1     -34.448   9.967  56.245  1.00  0.00     0.158 A 
ATOM      5  C   UNL     1     -33.224   8.463  54.788  1.00  0.00     0.051 A 
ATOM      6  C   UNL     1     -34.226   8.675  55.743  1.00  0.00     0.157 A 
ENDROOT
BRANCH   1   7
ATOM      7  C   UNL     1     -31.839  11.965  54.353  1.00  0.00     0.072 C 
ATOM      8  O   UNL     1     -30.584  11.937  54.459  1.00  0.00    -0.545 OA
ATOM      9  O   UNL     1     -32.442  13.078  53.781  1.00  0.00    -0.545 OA
ENDBRANCH   1   7
BRANCH   4  10
ATOM     10  O   UNL     1     -35.438  10.209  57.197  1.00  0.00    -0.504 OA
ATOM     11  H   UNL     1     -35.447  11.050  57.762  1.00  0.00     0.293 HD
ENDBRANCH   4  10
BRANCH   6  12
ATOM     12  O   UNL     1     -35.000   7.605  56.194  1.00  0.00    -0.504 OA
ATOM     13  H   UNL     1     -34.612   6.674  56.294  1.00  0.00     0.293 HD
ENDBRANCH   6  12
TORSDOF 3
ENDMDL
MODEL 7
REMARK VINA RESULT:    -4.756      8.450      9.517
REMARK INTER + INTRA:          -5.356
REMARK INTER:                  -5.320
REMARK INTRA:                  -0.036
REMARK UNBOUND:                -0.044
REMARK SMILES O=C([O-])c1ccc(O)c(O)c1
REMARK SMILES IDX 4 1 11 2 5 3 9 4 6 5 7 6 2 7 1 8 3 9 10 10 8 12
REMARK H PARENT 10 11 8 13
REMARK Flexibility Score: inf
ROOT
ATOM      1  C   UNL     1     -26.416  14.863  54.542  1.00  0.00     0.001 A 
ATOM      2  C   UNL     1     -27.118  15.691  53.648  1.00  0.00     0.060 A 
ATOM      3  C   UNL     1     -25.695  15.452  55.594  1.00  0.00     0.014 A 
ATOM      4  C   UNL     1     -27.100  17.083  53.801  1.00  0.00     0.158 A 
ATOM      5  C   UNL     1     -25.676  16.841  55.749  1.00  0.00     0.051 A 
ATOM      6  C   UNL     1     -26.376  17.662  54.856  1.00  0.00     0.157 A 
ENDROOT
BRANCH   1   7
ATOM      7  C   UNL     1     -26.441  13.394  54.373  1.00  0.00     0.072 C 
ATOM      8  O   UNL     1     -25.478  12.796  53.821  1.00  0.00    -0.545 OA
ATOM      9  O   UNL     1     -27.525  12.651  54.824  1.00  0.00    -0.545 OA
ENDBRANCH   1   7
BRANCH   4  10
ATOM     10  O   UNL     1     -27.807  17.873  52.894  1.00  0.00    -0.504 OA
ATOM     11  H   UNL     1     -27.781  18.885  52.927  1.00  0.00     0.293 HD
ENDBRANCH   4  10
BRANCH   6  12
ATOM     12  O   UNL     1     -26.354  19.047  55.013  1.00  0.00    -0.504 OA
ATOM     13  H   UNL     1     -27.169  19.617  54.818  1.00  0.00     0.293 HD
ENDBRANCH   6  12
TORSDOF 3
ENDMDL
MODEL 8
REMARK VINA RESULT:    -4.678     10.268     12.407
REMARK INTER + INTRA:          -5.270
REMARK INTER:                  -5.229
REMARK INTRA:                  -0.041
REMARK UNBOUND:                -0.044
REMARK SMILES O=C([O-])c1ccc(O)c(O)c1
REMARK SMILES IDX 4 1 11 2 5 3 9 4 6 5 7 6 2 7 1 8 3 9 10 10 8 12
REMARK H PARENT 10 11 8 13
REMARK Flexibility Score: inf
ROOT
ATOM      1  C   UNL     1     -25.630  12.639  56.093  1.00  0.00     0.001 A 
ATOM      2  C   UNL     1     -25.293  11.555  56.921  1.00  0.00     0.060 A 
ATOM      3  C   UNL     1     -24.819  12.926  54.981  1.00  0.00     0.014 A 
ATOM      4  C   UNL     1     -24.166  10.770  56.647  1.00  0.00     0.158 A 
ATOM      5  C   UNL     1     -23.693  12.145  54.706  1.00  0.00     0.051 A 
ATOM      6  C   UNL     1     -23.362  11.066  55.535  1.00  0.00     0.157 A 
ENDROOT
BRANCH   1   7
ATOM      7  C   UNL     1     -26.823  13.463  56.389  1.00  0.00     0.072 C 
ATOM      8  O   UNL     1     -27.559  13.882  55.456  1.00  0.00    -0.545 OA
ATOM      9  O   UNL     1     -27.148  13.785  57.701  1.00  0.00    -0.545 OA
ENDBRANCH   1   7
BRANCH   4  10
ATOM     10  O   UNL     1     -23.862   9.703  57.493  1.00  0.00    -0.504 OA
ATOM     11  H   UNL     1     -24.572   9.066  57.831  1.00  0.00     0.293 HD
ENDBRANCH   4  10
BRANCH   6  12
ATOM     12  O   UNL     1     -22.238  10.288  55.257  1.00  0.00    -0.504 OA
ATOM     13  H   UNL     1     -21.542  10.088  55.966  1.00  0.00     0.293 HD
ENDBRANCH   6  12
TORSDOF 3
ENDMDL
MODEL 9
REMARK VINA RESULT:    -4.587     10.684     12.642
REMARK INTER + INTRA:          -5.168
REMARK INTER:                  -5.127
REMARK INTRA:                  -0.041
REMARK UNBOUND:                -0.044
REMARK SMILES O=C([O-])c1ccc(O)c(O)c1
REMARK SMILES IDX 4 1 11 2 5 3 9 4 6 5 7 6 2 7 1 8 3 9 10 10 8 12
REMARK H PARENT 10 11 8 13
REMARK Flexibility Score: inf
ROOT
ATOM      1  C   UNL     1     -25.494  11.736  55.365  1.00  0.00     0.001 A 
ATOM      2  C   UNL     1     -24.657  10.740  55.895  1.00  0.00     0.060 A 
ATOM      3  C   UNL     1     -26.280  12.504  56.241  1.00  0.00     0.014 A 
ATOM      4  C   UNL     1     -24.605  10.511  57.276  1.00  0.00     0.158 A 
ATOM      5  C   UNL     1     -26.230  12.278  57.620  1.00  0.00     0.051 A 
ATOM      6  C   UNL     1     -25.394  11.283  58.143  1.00  0.00     0.157 A 
ENDROOT
BRANCH   1   7
ATOM      7  C   UNL     1     -25.543  11.971  53.905  1.00  0.00     0.072 C 
ATOM      8  O   UNL     1     -25.629  13.142  53.447  1.00  0.00    -0.545 OA
ATOM      9  O   UNL     1     -25.495  10.903  53.017  1.00  0.00    -0.545 OA
ENDBRANCH   1   7
BRANCH   4  10
ATOM     10  O   UNL     1     -23.763   9.512  57.766  1.00  0.00    -0.504 OA
ATOM     11  H   UNL     1     -23.892   9.101  58.682  1.00  0.00     0.293 HD
ENDBRANCH   4  10
BRANCH   6  12
ATOM     12  O   UNL     1     -25.347  11.061  59.519  1.00  0.00    -0.504 OA
ATOM     13  H   UNL     1     -24.749  11.609  60.125  1.00  0.00     0.293 HD
ENDBRANCH   6  12
TORSDOF 3
ENDMDL
