MODEL 1
REMARK VINA RESULT:    -5.409      0.000      0.000
REMARK INTER + INTRA:          -6.260
REMARK INTER:                  -6.042
REMARK INTRA:                  -0.218
REMARK UNBOUND:                -0.218
REMARK SMILES CC(C)c1ccc(C(=O)[O-])cc1
REMARK SMILES IDX 7 1 6 2 11 3 5 4 12 5 4 6 8 7 9 8 10 9 2 10 1 11 3 12
REMARK H PARENT
REMARK Flexibility Score: inf
ROOT
ATOM      1  C   UNL     1      13.321 -31.312  22.253  1.00  0.00    -0.003 A 
ATOM      2  C   UNL     1      14.150 -30.727  23.223  1.00  0.00     0.010 A 
ATOM      3  C   UNL     1      12.018 -30.815  22.080  1.00  0.00     0.010 A 
ATOM      4  C   UNL     1      13.686 -29.667  24.007  1.00  0.00     0.004 A 
ATOM      5  C   UNL     1      11.554 -29.754  22.864  1.00  0.00     0.004 A 
ATOM      6  C   UNL     1      12.385 -29.168  23.836  1.00  0.00    -0.045 A 
ENDROOT
BRANCH   1   7
ATOM      7  C   UNL     1      13.815 -32.435  21.425  1.00  0.00     0.071 C 
ATOM      8  O   UNL     1      13.475 -32.540  20.217  1.00  0.00    -0.545 OA
ATOM      9  O   UNL     1      14.664 -33.392  21.971  1.00  0.00    -0.545 OA
ENDBRANCH   1   7
BRANCH   6  10
ATOM     10  C   UNL     1      11.894 -28.015  24.693  1.00  0.00     0.013 C 
ATOM     11  C   UNL     1      13.066 -27.260  25.329  1.00  0.00     0.012 C 
ATOM     12  C   UNL     1      10.998 -27.068  23.887  1.00  0.00     0.012 C 
ENDBRANCH   6  10
TORSDOF 2
ENDMDL
MODEL 2
REMARK VINA RESULT:    -5.091      9.718     10.870
REMARK INTER + INTRA:          -5.904
REMARK INTER:                  -5.694
REMARK INTRA:                  -0.211
REMARK UNBOUND:                -0.218
REMARK SMILES CC(C)c1ccc(C(=O)[O-])cc1
REMARK SMILES IDX 7 1 6 2 11 3 5 4 12 5 4 6 8 7 9 8 10 9 2 10 1 11 3 12
REMARK H PARENT
REMARK Flexibility Score: inf
ROOT
ATOM      1  C   UNL     1      22.784 -25.674  20.472  1.00  0.00    -0.003 A 
ATOM      2  C   UNL     1      21.411 -25.654  20.181  1.00  0.00     0.010 A 
ATOM      3  C   UNL     1      23.335 -26.811  21.086  1.00  0.00     0.010 A 
ATOM      4  C   UNL     1      20.602 -26.749  20.498  1.00  0.00     0.004 A 
ATOM      5  C   UNL     1      22.526 -27.907  21.403  1.00  0.00     0.004 A 
ATOM      6  C   UNL     1      21.150 -27.888  21.111  1.00  0.00    -0.045 A 
ENDROOT
BRANCH   1   7
ATOM      7  C   UNL     1      23.637 -24.511  20.135  1.00  0.00     0.071 C 
ATOM      8  O   UNL     1      24.025 -24.323  18.951  1.00  0.00    -0.545 OA
ATOM      9  O   UNL     1      24.022 -23.611  21.121  1.00  0.00    -0.545 OA
ENDBRANCH   1   7
BRANCH   6  10
ATOM     10  C   UNL     1      20.261 -29.071  21.450  1.00  0.00     0.013 C 
ATOM     11  C   UNL     1      18.852 -28.886  20.876  1.00  0.00     0.012 C 
ATOM     12  C   UNL     1      20.885 -30.387  20.971  1.00  0.00     0.012 C 
ENDBRANCH   6  10
TORSDOF 2
ENDMDL
MODEL 3
REMARK VINA RESULT:    -5.086      9.705     10.781
REMARK INTER + INTRA:          -5.898
REMARK INTER:                  -5.687
REMARK INTRA:                  -0.211
REMARK UNBOUND:                -0.218
REMARK SMILES CC(C)c1ccc(C(=O)[O-])cc1
REMARK SMILES IDX 7 1 6 2 11 3 5 4 12 5 4 6 8 7 9 8 10 9 2 10 1 11 3 12
REMARK H PARENT
REMARK Flexibility Score: inf
ROOT
ATOM      1  C   UNL     1      22.762 -25.674  20.466  1.00  0.00    -0.003 A 
ATOM      2  C   UNL     1      23.313 -26.815  21.070  1.00  0.00     0.010 A 
ATOM      3  C   UNL     1      21.386 -25.647  20.185  1.00  0.00     0.010 A 
ATOM      4  C   UNL     1      22.504 -27.911  21.386  1.00  0.00     0.004 A 
ATOM      5  C   UNL     1      20.576 -26.743  20.502  1.00  0.00     0.004 A 
ATOM      6  C   UNL     1      21.127 -27.887  21.106  1.00  0.00    -0.045 A 
ENDROOT
BRANCH   1   7
ATOM      7  C   UNL     1      23.622 -24.516  20.133  1.00  0.00     0.071 C 
ATOM      8  O   UNL     1      24.020 -24.332  18.952  1.00  0.00    -0.545 OA
ATOM      9  O   UNL     1      24.004 -23.615  21.121  1.00  0.00    -0.545 OA
ENDBRANCH   1   7
BRANCH   6  10
ATOM     10  C   UNL     1      20.260 -29.083  21.455  1.00  0.00     0.013 C 
ATOM     11  C   UNL     1      18.844 -28.922  20.892  1.00  0.00     0.012 C 
ATOM     12  C   UNL     1      20.900 -30.390  20.973  1.00  0.00     0.012 C 
ENDBRANCH   6  10
TORSDOF 2
ENDMDL
MODEL 4
REMARK VINA RESULT:    -5.084      2.795      5.950
REMARK INTER + INTRA:          -5.896
REMARK INTER:                  -5.677
REMARK INTRA:                  -0.219
REMARK UNBOUND:                -0.218
REMARK SMILES CC(C)c1ccc(C(=O)[O-])cc1
REMARK SMILES IDX 7 1 6 2 11 3 5 4 12 5 4 6 8 7 9 8 10 9 2 10 1 11 3 12
REMARK H PARENT
REMARK Flexibility Score: inf
ROOT
ATOM      1  C   UNL     1      13.519 -31.640  22.652  1.00  0.00    -0.003 A 
ATOM      2  C   UNL     1      13.475 -31.964  21.286  1.00  0.00     0.010 A 
ATOM      3  C   UNL     1      14.272 -32.448  23.520  1.00  0.00     0.010 A 
ATOM      4  C   UNL     1      14.169 -33.075  20.798  1.00  0.00     0.004 A 
ATOM      5  C   UNL     1      14.967 -33.559  23.032  1.00  0.00     0.004 A 
ATOM      6  C   UNL     1      14.923 -33.884  21.664  1.00  0.00    -0.045 A 
ENDROOT
BRANCH   1   7
ATOM      7  C   UNL     1      12.783 -30.463  23.165  1.00  0.00     0.071 C 
ATOM      8  O   UNL     1      11.737 -30.060  22.590  1.00  0.00    -0.545 OA
ATOM      9  O   UNL     1      13.237 -29.784  24.290  1.00  0.00    -0.545 OA
ENDBRANCH   1   7
BRANCH   6  10
ATOM     10  C   UNL     1      15.672 -35.087  21.120  1.00  0.00     0.013 C 
ATOM     11  C   UNL     1      16.117 -34.854  19.673  1.00  0.00     0.012 C 
ATOM     12  C   UNL     1      16.865 -35.446  22.014  1.00  0.00     0.012 C 
ENDBRANCH   6  10
TORSDOF 2
ENDMDL
MODEL 5
REMARK VINA RESULT:    -5.079      2.793      5.825
REMARK INTER + INTRA:          -5.890
REMARK INTER:                  -5.671
REMARK INTRA:                  -0.219
REMARK UNBOUND:                -0.218
REMARK SMILES CC(C)c1ccc(C(=O)[O-])cc1
REMARK SMILES IDX 7 1 6 2 11 3 5 4 12 5 4 6 8 7 9 8 10 9 2 10 1 11 3 12
REMARK H PARENT
REMARK Flexibility Score: inf
ROOT
ATOM      1  C   UNL     1      13.513 -31.630  22.635  1.00  0.00    -0.003 A 
ATOM      2  C   UNL     1      14.268 -32.440  23.499  1.00  0.00     0.010 A 
ATOM      3  C   UNL     1      13.473 -31.946  21.267  1.00  0.00     0.010 A 
ATOM      4  C   UNL     1      14.972 -33.542  23.005  1.00  0.00     0.004 A 
ATOM      5  C   UNL     1      14.176 -33.048  20.772  1.00  0.00     0.004 A 
ATOM      6  C   UNL     1      14.933 -33.859  21.637  1.00  0.00    -0.045 A 
ENDROOT
BRANCH   1   7
ATOM      7  C   UNL     1      12.770 -30.464  23.163  1.00  0.00     0.071 C 
ATOM      8  O   UNL     1      11.723 -30.058  22.591  1.00  0.00    -0.545 OA
ATOM      9  O   UNL     1      13.218 -29.799  24.299  1.00  0.00    -0.545 OA
ENDBRANCH   1   7
BRANCH   6  10
ATOM     10  C   UNL     1      15.701 -35.059  21.114  1.00  0.00     0.013 C 
ATOM     11  C   UNL     1      16.170 -34.830  19.673  1.00  0.00     0.012 C 
ATOM     12  C   UNL     1      16.881 -35.405  22.030  1.00  0.00     0.012 C 
ENDBRANCH   6  10
TORSDOF 2
ENDMDL
MODEL 6
REMARK VINA RESULT:    -4.929      2.746      5.148
REMARK INTER + INTRA:          -5.723
REMARK INTER:                  -5.507
REMARK INTRA:                  -0.216
REMARK UNBOUND:                -0.218
REMARK SMILES CC(C)c1ccc(C(=O)[O-])cc1
REMARK SMILES IDX 7 1 6 2 11 3 5 4 12 5 4 6 8 7 9 8 10 9 2 10 1 11 3 12
REMARK H PARENT
REMARK Flexibility Score: inf
ROOT
ATOM      1  C   UNL     1      13.120 -30.210  23.407  1.00  0.00    -0.003 A 
ATOM      2  C   UNL     1      14.377 -30.602  23.895  1.00  0.00     0.010 A 
ATOM      3  C   UNL     1      12.579 -30.884  22.299  1.00  0.00     0.010 A 
ATOM      4  C   UNL     1      15.081 -31.646  23.287  1.00  0.00     0.004 A 
ATOM      5  C   UNL     1      13.282 -31.928  21.691  1.00  0.00     0.004 A 
ATOM      6  C   UNL     1      14.542 -32.321  22.179  1.00  0.00    -0.045 A 
ENDROOT
BRANCH   1   7
ATOM      7  C   UNL     1      12.379 -29.104  24.054  1.00  0.00     0.071 C 
ATOM      8  O   UNL     1      11.213 -28.808  23.678  1.00  0.00    -0.545 OA
ATOM      9  O   UNL     1      12.960 -28.376  25.086  1.00  0.00    -0.545 OA
ENDBRANCH   1   7
BRANCH   6  10
ATOM     10  C   UNL     1      15.316 -33.453  21.529  1.00  0.00     0.013 C 
ATOM     11  C   UNL     1      15.513 -34.620  22.503  1.00  0.00     0.012 C 
ATOM     12  C   UNL     1      14.632 -33.921  20.238  1.00  0.00     0.012 C 
ENDBRANCH   6  10
TORSDOF 2
ENDMDL
MODEL 7
REMARK VINA RESULT:    -4.910      2.748      4.267
REMARK INTER + INTRA:          -5.702
REMARK INTER:                  -5.489
REMARK INTRA:                  -0.213
REMARK UNBOUND:                -0.218
REMARK SMILES CC(C)c1ccc(C(=O)[O-])cc1
REMARK SMILES IDX 7 1 6 2 11 3 5 4 12 5 4 6 8 7 9 8 10 9 2 10 1 11 3 12
REMARK H PARENT
REMARK Flexibility Score: inf
ROOT
ATOM      1  C   UNL     1      15.726 -34.662  21.619  1.00  0.00    -0.003 A 
ATOM      2  C   UNL     1      15.702 -34.431  23.004  1.00  0.00     0.010 A 
ATOM      3  C   UNL     1      14.946 -33.849  20.779  1.00  0.00     0.010 A 
ATOM      4  C   UNL     1      14.912 -33.409  23.540  1.00  0.00     0.004 A 
ATOM      5  C   UNL     1      14.157 -32.827  21.314  1.00  0.00     0.004 A 
ATOM      6  C   UNL     1      14.131 -32.596  22.702  1.00  0.00    -0.045 A 
ENDROOT
BRANCH   1   7
ATOM      7  C   UNL     1      16.563 -35.745  21.057  1.00  0.00     0.071 C 
ATOM      8  O   UNL     1      17.449 -36.301  21.759  1.00  0.00    -0.545 OA
ATOM      9  O   UNL     1      16.383 -36.163  19.743  1.00  0.00    -0.545 OA
ENDBRANCH   1   7
BRANCH   6  10
ATOM     10  C   UNL     1      13.279 -31.489  23.296  1.00  0.00     0.013 C 
ATOM     11  C   UNL     1      14.148 -30.333  23.803  1.00  0.00     0.012 C 
ATOM     12  C   UNL     1      12.234 -30.995  22.289  1.00  0.00     0.012 C 
ENDBRANCH   6  10
TORSDOF 2
ENDMDL
MODEL 8
REMARK VINA RESULT:    -4.774      8.042      9.703
REMARK INTER + INTRA:          -5.550
REMARK INTER:                  -5.347
REMARK INTRA:                  -0.203
REMARK UNBOUND:                -0.218
REMARK SMILES CC(C)c1ccc(C(=O)[O-])cc1
REMARK SMILES IDX 7 1 6 2 11 3 5 4 12 5 4 6 8 7 9 8 10 9 2 10 1 11 3 12
REMARK H PARENT
REMARK Flexibility Score: inf
ROOT
ATOM      1  C   UNL     1      18.177 -36.728  24.662  1.00  0.00    -0.003 A 
ATOM      2  C   UNL     1      17.134 -36.223  25.455  1.00  0.00     0.010 A 
ATOM      3  C   UNL     1      18.806 -37.924  25.046  1.00  0.00     0.010 A 
ATOM      4  C   UNL     1      16.729 -36.898  26.610  1.00  0.00     0.004 A 
ATOM      5  C   UNL     1      18.401 -38.600  26.201  1.00  0.00     0.004 A 
ATOM      6  C   UNL     1      17.356 -38.094  26.995  1.00  0.00    -0.045 A 
ENDROOT
BRANCH   1   7
ATOM      7  C   UNL     1      18.603 -36.009  23.440  1.00  0.00     0.071 C 
ATOM      8  O   UNL     1      19.775 -35.561  23.336  1.00  0.00    -0.545 OA
ATOM      9  O   UNL     1      17.712 -35.818  22.390  1.00  0.00    -0.545 OA
ENDBRANCH   1   7
BRANCH   6  10
ATOM     10  C   UNL     1      16.906 -38.818  28.251  1.00  0.00     0.013 C 
ATOM     11  C   UNL     1      17.268 -38.020  29.509  1.00  0.00     0.012 C 
ATOM     12  C   UNL     1      15.405 -39.125  28.205  1.00  0.00     0.012 C 
ENDBRANCH   6  10
TORSDOF 2
ENDMDL
