MODEL 1
REMARK VINA RESULT:    -4.411      0.000      0.000
REMARK INTER + INTRA:          -4.798
REMARK INTER:                  -4.798
REMARK INTRA:                   0.000
REMARK UNBOUND:                 0.000
REMARK SMILES Cc1cc(O)c2c(c1)C(=O)c1cc(O)cc(O)c1C2=O
REMARK SMILES IDX 1 1 2 2 8 3 7 4 6 5 4 6 3 7 19 8 20 9 18 10 11 11 9 12 10 13
REMARK SMILES IDX 12 14 13 15 15 16 16 17 5 18 17 20 14 22
REMARK H PARENT 5 19 17 21 14 23
REMARK Flexibility Score: inf
ROOT
ATOM      1  C   UNL     1      15.020  11.150  87.071  1.00  0.00     0.044 C 
ATOM      2  C   UNL     1      16.227  11.826  86.490  1.00  0.00    -0.047 A 
ATOM      3  C   UNL     1      17.491  11.613  87.050  1.00  0.00     0.016 A 
ATOM      4  C   UNL     1      18.634  12.215  86.494  1.00  0.00     0.038 A 
ATOM      5  C   UNL     1      18.510  13.025  85.346  1.00  0.00     0.076 A 
ATOM      6  C   UNL     1      17.233  13.227  84.775  1.00  0.00     0.127 A 
ATOM      7  C   UNL     1      16.106  12.621  85.346  1.00  0.00     0.050 A 
ATOM      8  C   UNL     1      19.733  13.622  84.746  1.00  0.00     0.201 C 
ATOM      9  O   UNL     1      19.703  14.032  83.555  1.00  0.00    -0.288 OA
ATOM     10  C   UNL     1      21.014  13.629  85.507  1.00  0.00     0.076 A 
ATOM     11  C   UNL     1      21.139  12.761  86.618  1.00  0.00     0.041 A 
ATOM     12  C   UNL     1      19.965  11.997  87.103  1.00  0.00     0.194 C 
ATOM     13  O   UNL     1      20.097  11.171  88.048  1.00  0.00    -0.289 OA
ATOM     14  C   UNL     1      22.378  12.633  87.270  1.00  0.00     0.059 A 
ATOM     15  C   UNL     1      23.486  13.367  86.840  1.00  0.00     0.120 A 
ATOM     16  C   UNL     1      23.355  14.258  85.777  1.00  0.00     0.093 A 
ATOM     17  C   UNL     1      22.128  14.426  85.128  1.00  0.00     0.131 A 
ENDROOT
BRANCH   6  18
ATOM     18  O   UNL     1      17.077  14.034  83.647  1.00  0.00    -0.507 OA
ATOM     19  H   UNL     1      16.194  14.093  83.152  1.00  0.00     0.293 HD
ENDBRANCH   6  18
BRANCH  17  20
ATOM     20  O   UNL     1      22.057  15.415  84.145  1.00  0.00    -0.507 OA
ATOM     21  H   UNL     1      21.194  15.722  83.718  1.00  0.00     0.293 HD
ENDBRANCH  17  20
BRANCH  15  22
ATOM     22  O   UNL     1      24.719  13.229  87.473  1.00  0.00    -0.508 OA
ATOM     23  H   UNL     1      25.294  14.033  87.698  1.00  0.00     0.293 HD
ENDBRANCH  15  22
TORSDOF 3
ENDMDL
MODEL 2
REMARK VINA RESULT:    -4.314      3.219      7.078
REMARK INTER + INTRA:          -4.692
REMARK INTER:                  -4.692
REMARK INTRA:                   0.000
REMARK UNBOUND:                 0.000
REMARK SMILES Cc1cc(O)c2c(c1)C(=O)c1cc(O)cc(O)c1C2=O
REMARK SMILES IDX 1 1 2 2 8 3 7 4 6 5 4 6 3 7 19 8 20 9 18 10 11 11 9 12 10 13
REMARK SMILES IDX 12 14 13 15 15 16 16 17 5 18 17 20 14 22
REMARK H PARENT 5 19 17 21 14 23
REMARK Flexibility Score: inf
ROOT
ATOM      1  C   UNL     1      28.132  14.677  86.623  1.00  0.00     0.044 C 
ATOM      2  C   UNL     1      27.027  13.728  86.262  1.00  0.00    -0.047 A 
ATOM      3  C   UNL     1      25.757  13.879  86.829  1.00  0.00     0.016 A 
ATOM      4  C   UNL     1      24.705  13.016  86.472  1.00  0.00     0.038 A 
ATOM      5  C   UNL     1      24.924  12.000  85.517  1.00  0.00     0.076 A 
ATOM      6  C   UNL     1      26.206  11.860  84.937  1.00  0.00     0.127 A 
ATOM      7  C   UNL     1      27.242  12.728  85.308  1.00  0.00     0.050 A 
ATOM      8  C   UNL     1      23.792  11.122  85.122  1.00  0.00     0.201 C 
ATOM      9  O   UNL     1      23.859  10.471  84.045  1.00  0.00    -0.288 OA
ATOM     10  C   UNL     1      22.542  11.102  85.932  1.00  0.00     0.076 A 
ATOM     11  C   UNL     1      22.311  12.164  86.838  1.00  0.00     0.041 A 
ATOM     12  C   UNL     1      23.368  13.172  87.089  1.00  0.00     0.194 C 
ATOM     13  O   UNL     1      23.135  14.157  87.843  1.00  0.00    -0.289 OA
ATOM     14  C   UNL     1      21.081  12.256  87.511  1.00  0.00     0.059 A 
ATOM     15  C   UNL     1      20.085  11.297  87.304  1.00  0.00     0.120 A 
ATOM     16  C   UNL     1      20.325  10.225  86.449  1.00  0.00     0.093 A 
ATOM     17  C   UNL     1      21.550  10.093  85.788  1.00  0.00     0.131 A 
ENDROOT
BRANCH   6  18
ATOM     18  O   UNL     1      26.457  10.858  84.000  1.00  0.00    -0.507 OA
ATOM     19  H   UNL     1      25.720  10.255  83.654  1.00  0.00     0.293 HD
ENDBRANCH   6  18
BRANCH  17  20
ATOM     20  O   UNL     1      21.748   8.933  85.035  1.00  0.00    -0.507 OA
ATOM     21  H   UNL     1      21.864   8.015  85.439  1.00  0.00     0.293 HD
ENDBRANCH  17  20
BRANCH  15  22
ATOM     22  O   UNL     1      18.858  11.396  87.956  1.00  0.00    -0.508 OA
ATOM     23  H   UNL     1      17.981  11.325  87.452  1.00  0.00     0.293 HD
ENDBRANCH  15  22
TORSDOF 3
ENDMDL
MODEL 3
REMARK VINA RESULT:    -4.236      3.449      5.027
REMARK INTER + INTRA:          -4.607
REMARK INTER:                  -4.607
REMARK INTRA:                   0.000
REMARK UNBOUND:                 0.000
REMARK SMILES Cc1cc(O)c2c(c1)C(=O)c1cc(O)cc(O)c1C2=O
REMARK SMILES IDX 1 1 2 2 8 3 7 4 6 5 4 6 3 7 19 8 20 9 18 10 11 11 9 12 10 13
REMARK SMILES IDX 12 14 13 15 15 16 16 17 5 18 17 20 14 22
REMARK H PARENT 5 19 17 21 14 23
REMARK Flexibility Score: inf
ROOT
ATOM      1  C   UNL     1      20.628   8.450  85.133  1.00  0.00     0.044 C 
ATOM      2  C   UNL     1      21.368   9.671  85.596  1.00  0.00    -0.047 A 
ATOM      3  C   UNL     1      22.654   9.940  85.114  1.00  0.00     0.016 A 
ATOM      4  C   UNL     1      23.343  11.098  85.515  1.00  0.00     0.038 A 
ATOM      5  C   UNL     1      22.727  12.011  86.397  1.00  0.00     0.076 A 
ATOM      6  C   UNL     1      21.422  11.742  86.871  1.00  0.00     0.127 A 
ATOM      7  C   UNL     1      20.753  10.581  86.462  1.00  0.00     0.050 A 
ATOM      8  C   UNL     1      23.453  13.250  86.780  1.00  0.00     0.201 C 
ATOM      9  O   UNL     1      22.810  14.225  87.253  1.00  0.00    -0.288 OA
ATOM     10  C   UNL     1      24.910  13.382  86.498  1.00  0.00     0.076 A 
ATOM     11  C   UNL     1      25.496  12.496  85.563  1.00  0.00     0.041 A 
ATOM     12  C   UNL     1      24.709  11.367  85.012  1.00  0.00     0.194 C 
ATOM     13  O   UNL     1      25.211  10.622  84.125  1.00  0.00    -0.289 OA
ATOM     14  C   UNL     1      26.830  12.682  85.164  1.00  0.00     0.059 A 
ATOM     15  C   UNL     1      27.592  13.727  85.694  1.00  0.00     0.120 A 
ATOM     16  C   UNL     1      27.034  14.572  86.651  1.00  0.00     0.093 A 
ATOM     17  C   UNL     1      25.718  14.393  87.087  1.00  0.00     0.131 A 
ENDROOT
BRANCH   6  18
ATOM     18  O   UNL     1      20.791  12.619  87.754  1.00  0.00    -0.507 OA
ATOM     19  H   UNL     1      20.209  12.284  88.513  1.00  0.00     0.293 HD
ENDBRANCH   6  18
BRANCH  17  20
ATOM     20  O   UNL     1      25.272  15.215  88.125  1.00  0.00    -0.507 OA
ATOM     21  H   UNL     1      25.793  16.005  88.478  1.00  0.00     0.293 HD
ENDBRANCH  17  20
BRANCH  15  22
ATOM     22  O   UNL     1      28.909  13.924  85.287  1.00  0.00    -0.508 OA
ATOM     23  H   UNL     1      29.147  14.071  84.313  1.00  0.00     0.293 HD
ENDBRANCH  15  22
TORSDOF 3
ENDMDL
MODEL 4
REMARK VINA RESULT:    -4.217      1.817      5.798
REMARK INTER + INTRA:          -4.586
REMARK INTER:                  -4.586
REMARK INTRA:                   0.000
REMARK UNBOUND:                 0.000
REMARK SMILES Cc1cc(O)c2c(c1)C(=O)c1cc(O)cc(O)c1C2=O
REMARK SMILES IDX 1 1 2 2 8 3 7 4 6 5 4 6 3 7 19 8 20 9 18 10 11 11 9 12 10 13
REMARK SMILES IDX 12 14 13 15 15 16 16 17 5 18 17 20 14 22
REMARK H PARENT 5 19 17 21 14 23
REMARK Flexibility Score: inf
ROOT
ATOM      1  C   UNL     1      26.362  16.762  84.804  1.00  0.00     0.044 C 
ATOM      2  C   UNL     1      24.955  16.243  84.880  1.00  0.00    -0.047 A 
ATOM      3  C   UNL     1      24.648  15.160  85.710  1.00  0.00     0.016 A 
ATOM      4  C   UNL     1      23.328  14.688  85.815  1.00  0.00     0.038 A 
ATOM      5  C   UNL     1      22.296  15.324  85.093  1.00  0.00     0.076 A 
ATOM      6  C   UNL     1      22.609  16.428  84.266  1.00  0.00     0.127 A 
ATOM      7  C   UNL     1      23.931  16.881  84.172  1.00  0.00     0.050 A 
ATOM      8  C   UNL     1      20.900  14.837  85.246  1.00  0.00     0.201 C 
ATOM      9  O   UNL     1      19.942  15.587  84.915  1.00  0.00    -0.288 OA
ATOM     10  C   UNL     1      20.631  13.523  85.892  1.00  0.00     0.076 A 
ATOM     11  C   UNL     1      21.659  12.931  86.664  1.00  0.00     0.041 A 
ATOM     12  C   UNL     1      23.015  13.530  86.683  1.00  0.00     0.194 C 
ATOM     13  O   UNL     1      23.910  13.042  87.428  1.00  0.00    -0.289 OA
ATOM     14  C   UNL     1      21.396  11.767  87.406  1.00  0.00     0.059 A 
ATOM     15  C   UNL     1      20.130  11.177  87.377  1.00  0.00     0.120 A 
ATOM     16  C   UNL     1      19.129  11.728  86.581  1.00  0.00     0.093 A 
ATOM     17  C   UNL     1      19.371  12.870  85.811  1.00  0.00     0.131 A 
ENDROOT
BRANCH   6  18
ATOM     18  O   UNL     1      21.612  17.070  83.530  1.00  0.00    -0.507 OA
ATOM     19  H   UNL     1      21.777  17.960  83.074  1.00  0.00     0.293 HD
ENDBRANCH   6  18
BRANCH  17  20
ATOM     20  O   UNL     1      18.348  13.294  84.960  1.00  0.00    -0.507 OA
ATOM     21  H   UNL     1      18.446  14.050  84.297  1.00  0.00     0.293 HD
ENDBRANCH  17  20
BRANCH  15  22
ATOM     22  O   UNL     1      19.862  10.033  88.125  1.00  0.00    -0.508 OA
ATOM     23  H   UNL     1      19.617   9.154  87.683  1.00  0.00     0.293 HD
ENDBRANCH  15  22
TORSDOF 3
ENDMDL
MODEL 5
REMARK VINA RESULT:    -4.208      1.808      5.794
REMARK INTER + INTRA:          -4.577
REMARK INTER:                  -4.577
REMARK INTRA:                   0.000
REMARK UNBOUND:                 0.000
REMARK SMILES Cc1cc(O)c2c(c1)C(=O)c1cc(O)cc(O)c1C2=O
REMARK SMILES IDX 1 1 2 2 8 3 7 4 6 5 4 6 3 7 19 8 20 9 18 10 11 11 9 12 10 13
REMARK SMILES IDX 12 14 13 15 15 16 16 17 5 18 17 20 14 22
REMARK H PARENT 5 19 17 21 14 23
REMARK Flexibility Score: inf
ROOT
ATOM      1  C   UNL     1      26.247  13.378  88.050  1.00  0.00     0.044 C 
ATOM      2  C   UNL     1      24.996  13.814  87.346  1.00  0.00    -0.047 A 
ATOM      3  C   UNL     1      23.854  13.005  87.375  1.00  0.00     0.016 A 
ATOM      4  C   UNL     1      22.666  13.418  86.747  1.00  0.00     0.038 A 
ATOM      5  C   UNL     1      22.614  14.671  86.099  1.00  0.00     0.076 A 
ATOM      6  C   UNL     1      23.766  15.491  86.084  1.00  0.00     0.127 A 
ATOM      7  C   UNL     1      24.942  15.060  86.713  1.00  0.00     0.050 A 
ATOM      8  C   UNL     1      21.338  15.110  85.475  1.00  0.00     0.201 C 
ATOM      9  O   UNL     1      21.161  16.331  85.220  1.00  0.00    -0.288 OA
ATOM     10  C   UNL     1      20.234  14.134  85.259  1.00  0.00     0.076 A 
ATOM     11  C   UNL     1      20.273  12.909  85.967  1.00  0.00     0.041 A 
ATOM     12  C   UNL     1      21.468  12.549  86.768  1.00  0.00     0.194 C 
ATOM     13  O   UNL     1      21.471  11.490  87.455  1.00  0.00    -0.289 OA
ATOM     14  C   UNL     1      19.180  12.028  85.903  1.00  0.00     0.059 A 
ATOM     15  C   UNL     1      18.059  12.342  85.131  1.00  0.00     0.120 A 
ATOM     16  C   UNL     1      18.036  13.525  84.395  1.00  0.00     0.093 A 
ATOM     17  C   UNL     1      19.120  14.407  84.419  1.00  0.00     0.131 A 
ENDROOT
BRANCH   6  18
ATOM     18  O   UNL     1      23.750  16.729  85.441  1.00  0.00    -0.507 OA
ATOM     19  H   UNL     1      23.616  16.807  84.440  1.00  0.00     0.293 HD
ENDBRANCH   6  18
BRANCH  17  20
ATOM     20  O   UNL     1      19.062  15.514  83.569  1.00  0.00    -0.507 OA
ATOM     21  H   UNL     1      19.865  15.899  83.093  1.00  0.00     0.293 HD
ENDBRANCH  17  20
BRANCH  15  22
ATOM     22  O   UNL     1      16.967  11.479  85.080  1.00  0.00    -0.508 OA
ATOM     23  H   UNL     1      16.802  10.788  85.803  1.00  0.00     0.293 HD
ENDBRANCH  15  22
TORSDOF 3
ENDMDL
MODEL 6
REMARK VINA RESULT:    -4.200      2.446      4.072
REMARK INTER + INTRA:          -4.569
REMARK INTER:                  -4.569
REMARK INTRA:                   0.000
REMARK UNBOUND:                 0.000
REMARK SMILES Cc1cc(O)c2c(c1)C(=O)c1cc(O)cc(O)c1C2=O
REMARK SMILES IDX 1 1 2 2 8 3 7 4 6 5 4 6 3 7 19 8 20 9 18 10 11 11 9 12 10 13
REMARK SMILES IDX 12 14 13 15 15 16 16 17 5 18 17 20 14 22
REMARK H PARENT 5 19 17 21 14 23
REMARK Flexibility Score: inf
ROOT
ATOM      1  C   UNL     1      20.250  10.649  87.820  1.00  0.00     0.044 C 
ATOM      2  C   UNL     1      20.782  11.887  87.159  1.00  0.00    -0.047 A 
ATOM      3  C   UNL     1      22.118  12.260  87.336  1.00  0.00     0.016 A 
ATOM      4  C   UNL     1      22.637  13.399  86.694  1.00  0.00     0.038 A 
ATOM      5  C   UNL     1      21.809  14.162  85.844  1.00  0.00     0.076 A 
ATOM      6  C   UNL     1      20.463  13.773  85.657  1.00  0.00     0.127 A 
ATOM      7  C   UNL     1      19.964  12.637  86.308  1.00  0.00     0.050 A 
ATOM      8  C   UNL     1      22.383  15.340  85.142  1.00  0.00     0.201 C 
ATOM      9  O   UNL     1      21.794  15.806  84.130  1.00  0.00    -0.288 OA
ATOM     10  C   UNL     1      23.703  15.891  85.558  1.00  0.00     0.076 A 
ATOM     11  C   UNL     1      24.546  15.083  86.359  1.00  0.00     0.041 A 
ATOM     12  C   UNL     1      24.048  13.796  86.900  1.00  0.00     0.194 C 
ATOM     13  O   UNL     1      24.824  13.045  87.554  1.00  0.00    -0.289 OA
ATOM     14  C   UNL     1      25.853  15.508  86.649  1.00  0.00     0.059 A 
ATOM     15  C   UNL     1      26.326  16.731  86.167  1.00  0.00     0.120 A 
ATOM     16  C   UNL     1      25.485  17.551  85.418  1.00  0.00     0.093 A 
ATOM     17  C   UNL     1      24.171  17.166  85.138  1.00  0.00     0.131 A 
ENDROOT
BRANCH   6  18
ATOM     18  O   UNL     1      19.616  14.515  84.833  1.00  0.00    -0.507 OA
ATOM     19  H   UNL     1      18.670  14.213  84.630  1.00  0.00     0.293 HD
ENDBRANCH   6  18
BRANCH  17  20
ATOM     20  O   UNL     1      23.362  18.092  84.475  1.00  0.00    -0.507 OA
ATOM     21  H   UNL     1      23.719  18.811  83.862  1.00  0.00     0.293 HD
ENDBRANCH  17  20
BRANCH  15  22
ATOM     22  O   UNL     1      27.628  17.146  86.439  1.00  0.00    -0.508 OA
ATOM     23  H   UNL     1      28.412  16.838  85.875  1.00  0.00     0.293 HD
ENDBRANCH  15  22
TORSDOF 3
ENDMDL
MODEL 7
REMARK VINA RESULT:    -4.172      3.890      6.584
REMARK INTER + INTRA:          -4.538
REMARK INTER:                  -4.538
REMARK INTRA:                   0.000
REMARK UNBOUND:                 0.000
REMARK SMILES Cc1cc(O)c2c(c1)C(=O)c1cc(O)cc(O)c1C2=O
REMARK SMILES IDX 1 1 2 2 8 3 7 4 6 5 4 6 3 7 19 8 20 9 18 10 11 11 9 12 10 13
REMARK SMILES IDX 12 14 13 15 15 16 16 17 5 18 17 20 14 22
REMARK H PARENT 5 19 17 21 14 23
REMARK Flexibility Score: inf
ROOT
ATOM      1  C   UNL     1      25.830   7.315  82.336  1.00  0.00     0.044 C 
ATOM      2  C   UNL     1      25.281   8.464  83.131  1.00  0.00    -0.047 A 
ATOM      3  C   UNL     1      24.114   8.304  83.885  1.00  0.00     0.016 A 
ATOM      4  C   UNL     1      23.610   9.363  84.661  1.00  0.00     0.038 A 
ATOM      5  C   UNL     1      24.298  10.594  84.697  1.00  0.00     0.076 A 
ATOM      6  C   UNL     1      25.485  10.747  83.944  1.00  0.00     0.127 A 
ATOM      7  C   UNL     1      25.969   9.681  83.174  1.00  0.00     0.050 A 
ATOM      8  C   UNL     1      23.774  11.691  85.553  1.00  0.00     0.201 C 
ATOM      9  O   UNL     1      24.536  12.639  85.882  1.00  0.00    -0.288 OA
ATOM     10  C   UNL     1      22.396  11.611  86.113  1.00  0.00     0.076 A 
ATOM     11  C   UNL     1      21.748  10.353  86.125  1.00  0.00     0.041 A 
ATOM     12  C   UNL     1      22.366   9.191  85.444  1.00  0.00     0.194 C 
ATOM     13  O   UNL     1      21.821   8.054  85.516  1.00  0.00    -0.289 OA
ATOM     14  C   UNL     1      20.510  10.209  86.774  1.00  0.00     0.059 A 
ATOM     15  C   UNL     1      19.904  11.302  87.398  1.00  0.00     0.120 A 
ATOM     16  C   UNL     1      20.515  12.553  87.348  1.00  0.00     0.093 A 
ATOM     17  C   UNL     1      21.733  12.731  86.685  1.00  0.00     0.131 A 
ENDROOT
BRANCH   6  18
ATOM     18  O   UNL     1      26.181  11.957  83.949  1.00  0.00    -0.507 OA
ATOM     19  H   UNL     1      25.885  12.739  84.521  1.00  0.00     0.293 HD
ENDBRANCH   6  18
BRANCH  17  20
ATOM     20  O   UNL     1      22.223  14.036  86.590  1.00  0.00    -0.507 OA
ATOM     21  H   UNL     1      22.757  14.379  85.804  1.00  0.00     0.293 HD
ENDBRANCH  17  20
BRANCH  15  22
ATOM     22  O   UNL     1      18.685  11.159  88.058  1.00  0.00    -0.508 OA
ATOM     23  H   UNL     1      18.285  10.245  88.241  1.00  0.00     0.293 HD
ENDBRANCH  15  22
TORSDOF 3
ENDMDL
MODEL 8
REMARK VINA RESULT:    -4.149      1.672      3.632
REMARK INTER + INTRA:          -4.513
REMARK INTER:                  -4.513
REMARK INTRA:                   0.000
REMARK UNBOUND:                 0.000
REMARK SMILES Cc1cc(O)c2c(c1)C(=O)c1cc(O)cc(O)c1C2=O
REMARK SMILES IDX 1 1 2 2 8 3 7 4 6 5 4 6 3 7 19 8 20 9 18 10 11 11 9 12 10 13
REMARK SMILES IDX 12 14 13 15 15 16 16 17 5 18 17 20 14 22
REMARK H PARENT 5 19 17 21 14 23
REMARK Flexibility Score: inf
ROOT
ATOM      1  C   UNL     1      15.181  14.401  81.969  1.00  0.00     0.044 C 
ATOM      2  C   UNL     1      15.934  13.751  83.092  1.00  0.00    -0.047 A 
ATOM      3  C   UNL     1      17.264  14.106  83.346  1.00  0.00     0.016 A 
ATOM      4  C   UNL     1      17.969  13.528  84.417  1.00  0.00     0.038 A 
ATOM      5  C   UNL     1      17.325  12.598  85.260  1.00  0.00     0.076 A 
ATOM      6  C   UNL     1      15.977  12.252  85.008  1.00  0.00     0.127 A 
ATOM      7  C   UNL     1      15.293  12.836  83.933  1.00  0.00     0.050 A 
ATOM      8  C   UNL     1      18.072  12.027  86.411  1.00  0.00     0.201 C 
ATOM      9  O   UNL     1      17.436  11.495  87.361  1.00  0.00    -0.288 OA
ATOM     10  C   UNL     1      19.551  12.184  86.497  1.00  0.00     0.076 A 
ATOM     11  C   UNL     1      20.170  13.168  85.690  1.00  0.00     0.041 A 
ATOM     12  C   UNL     1      19.380  13.897  84.668  1.00  0.00     0.194 C 
ATOM     13  O   UNL     1      19.917  14.822  83.999  1.00  0.00    -0.289 OA
ATOM     14  C   UNL     1      21.538  13.446  85.849  1.00  0.00     0.059 A 
ATOM     15  C   UNL     1      22.299  12.748  86.790  1.00  0.00     0.120 A 
ATOM     16  C   UNL     1      21.706  11.746  87.554  1.00  0.00     0.093 A 
ATOM     17  C   UNL     1      20.353  11.430  87.397  1.00  0.00     0.131 A 
ENDROOT
BRANCH   6  18
ATOM     18  O   UNL     1      15.317  11.325  85.816  1.00  0.00    -0.507 OA
ATOM     19  H   UNL     1      15.728  10.427  86.041  1.00  0.00     0.293 HD
ENDBRANCH   6  18
BRANCH  17  20
ATOM     20  O   UNL     1      19.863  10.342  88.123  1.00  0.00    -0.507 OA
ATOM     21  H   UNL     1      18.966  10.335  88.588  1.00  0.00     0.293 HD
ENDBRANCH  17  20
BRANCH  15  22
ATOM     22  O   UNL     1      23.652  13.033  86.962  1.00  0.00    -0.508 OA
ATOM     23  H   UNL     1      24.365  12.587  86.397  1.00  0.00     0.293 HD
ENDBRANCH  15  22
TORSDOF 3
ENDMDL
