MODEL 1
REMARK VINA RESULT:    -3.089      0.000      0.000
REMARK INTER + INTRA:          -4.065
REMARK INTER:                  -3.812
REMARK INTRA:                  -0.253
REMARK UNBOUND:                -0.253
REMARK SMILES CCCCC=CC(C)=O
REMARK SMILES IDX 4 1 3 2 2 3 1 4 5 5 6 6 7 7 9 8 8 9
REMARK H PARENT
REMARK Flexibility Score: inf
ROOT
ATOM      1  C   UNL     1     178.739 179.065 236.486  1.00  0.00     0.027 C 
ENDROOT
BRANCH   1   2
ATOM      2  C   UNL     1     177.347 178.611 236.954  1.00  0.00     0.004 C 
BRANCH   2   3
ATOM      3  C   UNL     1     176.219 179.479 236.377  1.00  0.00    -0.003 C 
ATOM      4  C   UNL     1     175.876 180.673 237.268  1.00  0.00     0.004 C 
ENDBRANCH   2   3
ENDBRANCH   1   2
BRANCH   1   5
ATOM      5  C   UNL     1     179.434 179.866 237.548  1.00  0.00    -0.023 C 
ATOM      6  C   UNL     1     179.602 181.188 237.430  1.00  0.00     0.042 C 
BRANCH   6   7
ATOM      7  C   UNL     1     180.268 181.995 238.469  1.00  0.00     0.152 C 
ATOM      8  O   UNL     1     181.307 181.574 239.046  1.00  0.00    -0.295 OA
ATOM      9  C   UNL     1     179.707 183.330 238.841  1.00  0.00     0.093 C 
ENDBRANCH   6   7
ENDBRANCH   1   5
TORSDOF 4
ENDMDL
MODEL 2
REMARK VINA RESULT:    -3.010      1.021      1.785
REMARK INTER + INTRA:          -3.967
REMARK INTER:                  -3.694
REMARK INTRA:                  -0.273
REMARK UNBOUND:                -0.253
REMARK SMILES CCCCC=CC(C)=O
REMARK SMILES IDX 4 1 3 2 2 3 1 4 5 5 6 6 7 7 9 8 8 9
REMARK H PARENT
REMARK Flexibility Score: inf
ROOT
ATOM      1  C   UNL     1     177.840 181.576 236.503  1.00  0.00     0.027 C 
ENDROOT
BRANCH   1   2
ATOM      2  C   UNL     1     176.585 181.049 237.216  1.00  0.00     0.004 C 
BRANCH   2   3
ATOM      3  C   UNL     1     176.196 179.636 236.757  1.00  0.00    -0.003 C 
ATOM      4  C   UNL     1     177.265 178.593 237.084  1.00  0.00     0.004 C 
ENDBRANCH   2   3
ENDBRANCH   1   2
BRANCH   1   5
ATOM      5  C   UNL     1     178.818 182.156 237.484  1.00  0.00    -0.023 C 
ATOM      6  C   UNL     1     179.852 181.443 237.945  1.00  0.00     0.042 C 
BRANCH   6   7
ATOM      7  C   UNL     1     180.832 181.999 238.896  1.00  0.00     0.152 C 
ATOM      8  O   UNL     1     182.005 181.542 238.957  1.00  0.00    -0.295 OA
ATOM      9  C   UNL     1     180.431 183.122 239.798  1.00  0.00     0.093 C 
ENDBRANCH   6   7
ENDBRANCH   1   5
TORSDOF 4
ENDMDL
MODEL 3
REMARK VINA RESULT:    -2.933      3.182      4.740
REMARK INTER + INTRA:          -3.872
REMARK INTER:                  -3.651
REMARK INTRA:                  -0.221
REMARK UNBOUND:                -0.253
REMARK SMILES CCCCC=CC(C)=O
REMARK SMILES IDX 4 1 3 2 2 3 1 4 5 5 6 6 7 7 9 8 8 9
REMARK H PARENT
REMARK Flexibility Score: inf
ROOT
ATOM      1  C   UNL     1     177.123 178.591 237.121  1.00  0.00     0.027 C 
ENDROOT
BRANCH   1   2
ATOM      2  C   UNL     1     176.093 179.581 236.555  1.00  0.00     0.004 C 
BRANCH   2   3
ATOM      3  C   UNL     1     176.223 180.983 237.168  1.00  0.00    -0.003 C 
ATOM      4  C   UNL     1     177.667 181.485 237.195  1.00  0.00     0.004 C 
ENDBRANCH   2   3
ENDBRANCH   1   2
BRANCH   1   5
ATOM      5  C   UNL     1     177.697 177.728 236.036  1.00  0.00    -0.023 C 
ATOM      6  C   UNL     1     178.964 177.867 235.627  1.00  0.00     0.042 C 
BRANCH   6   7
ATOM      7  C   UNL     1     179.551 177.019 234.574  1.00  0.00     0.152 C 
ATOM      8  O   UNL     1     178.876 176.686 233.562  1.00  0.00    -0.295 OA
ATOM      9  C   UNL     1     180.965 176.551 234.703  1.00  0.00     0.093 C 
ENDBRANCH   6   7
ENDBRANCH   1   5
TORSDOF 4
ENDMDL
MODEL 4
REMARK VINA RESULT:    -2.869      1.832      2.686
REMARK INTER + INTRA:          -3.794
REMARK INTER:                  -3.519
REMARK INTRA:                  -0.274
REMARK UNBOUND:                -0.253
REMARK SMILES CCCCC=CC(C)=O
REMARK SMILES IDX 4 1 3 2 2 3 1 4 5 5 6 6 7 7 9 8 8 9
REMARK H PARENT
REMARK Flexibility Score: inf
ROOT
ATOM      1  C   UNL     1     176.271 179.828 236.804  1.00  0.00     0.027 C 
ENDROOT
BRANCH   1   2
ATOM      2  C   UNL     1     177.232 178.694 237.195  1.00  0.00     0.004 C 
BRANCH   2   3
ATOM      3  C   UNL     1     177.581 177.781 236.010  1.00  0.00    -0.003 C 
ATOM      4  C   UNL     1     178.956 178.084 235.414  1.00  0.00     0.004 C 
ENDBRANCH   2   3
ENDBRANCH   1   2
BRANCH   1   5
ATOM      5  C   UNL     1     176.873 181.172 237.095  1.00  0.00    -0.023 C 
ATOM      6  C   UNL     1     178.183 181.400 236.946  1.00  0.00     0.042 C 
BRANCH   6   7
ATOM      7  C   UNL     1     178.790 182.717 237.212  1.00  0.00     0.152 C 
ATOM      8  O   UNL     1     178.710 183.648 236.366  1.00  0.00    -0.295 OA
ATOM      9  C   UNL     1     179.506 182.953 238.503  1.00  0.00     0.093 C 
ENDBRANCH   6   7
ENDBRANCH   1   5
TORSDOF 4
ENDMDL
MODEL 5
REMARK VINA RESULT:    -2.805     17.240     18.166
REMARK INTER + INTRA:          -3.714
REMARK INTER:                  -3.519
REMARK INTRA:                  -0.195
REMARK UNBOUND:                -0.253
REMARK SMILES CCCCC=CC(C)=O
REMARK SMILES IDX 4 1 3 2 2 3 1 4 5 5 6 6 7 7 9 8 8 9
REMARK H PARENT
REMARK Flexibility Score: inf
ROOT
ATOM      1  C   UNL     1     183.752 191.169 224.181  1.00  0.00     0.027 C 
ENDROOT
BRANCH   1   2
ATOM      2  C   UNL     1     184.868 191.545 223.193  1.00  0.00     0.004 C 
BRANCH   2   3
ATOM      3  C   UNL     1     185.802 190.365 222.883  1.00  0.00    -0.003 C 
ATOM      4  C   UNL     1     186.742 190.034 224.043  1.00  0.00     0.004 C 
ENDBRANCH   2   3
ENDBRANCH   1   2
BRANCH   1   5
ATOM      5  C   UNL     1     182.548 190.635 223.461  1.00  0.00    -0.023 C 
ATOM      6  C   UNL     1     181.858 189.589 223.932  1.00  0.00     0.042 C 
BRANCH   6   7
ATOM      7  C   UNL     1     180.665 189.059 223.248  1.00  0.00     0.152 C 
ATOM      8  O   UNL     1     180.568 187.831 222.977  1.00  0.00    -0.295 OA
ATOM      9  C   UNL     1     179.553 189.986 222.875  1.00  0.00     0.093 C 
ENDBRANCH   6   7
ENDBRANCH   1   5
TORSDOF 4
ENDMDL
MODEL 6
REMARK VINA RESULT:    -2.787     17.362     18.140
REMARK INTER + INTRA:          -3.691
REMARK INTER:                  -3.471
REMARK INTRA:                  -0.221
REMARK UNBOUND:                -0.253
REMARK SMILES CCCCC=CC(C)=O
REMARK SMILES IDX 4 1 3 2 2 3 1 4 5 5 6 6 7 7 9 8 8 9
REMARK H PARENT
REMARK Flexibility Score: inf
ROOT
ATOM      1  C   UNL     1     185.584 191.656 223.326  1.00  0.00     0.027 C 
ENDROOT
BRANCH   1   2
ATOM      2  C   UNL     1     184.076 191.362 223.264  1.00  0.00     0.004 C 
BRANCH   2   3
ATOM      3  C   UNL     1     183.449 191.201 224.657  1.00  0.00    -0.003 C 
ATOM      4  C   UNL     1     182.462 190.036 224.731  1.00  0.00     0.004 C 
ENDBRANCH   2   3
ENDBRANCH   1   2
BRANCH   1   5
ATOM      5  C   UNL     1     186.384 190.387 223.297  1.00  0.00    -0.023 C 
ATOM      6  C   UNL     1     187.045 189.952 224.377  1.00  0.00     0.042 C 
BRANCH   6   7
ATOM      7  C   UNL     1     187.824 188.701 224.374  1.00  0.00     0.152 C 
ATOM      8  O   UNL     1     189.083 188.724 224.300  1.00  0.00    -0.295 OA
ATOM      9  C   UNL     1     187.115 187.388 224.463  1.00  0.00     0.093 C 
ENDBRANCH   6   7
ENDBRANCH   1   5
TORSDOF 4
ENDMDL
MODEL 7
REMARK VINA RESULT:    -2.782     17.266     17.912
REMARK INTER + INTRA:          -3.686
REMARK INTER:                  -3.505
REMARK INTRA:                  -0.181
REMARK UNBOUND:                -0.253
REMARK SMILES CCCCC=CC(C)=O
REMARK SMILES IDX 4 1 3 2 2 3 1 4 5 5 6 6 7 7 9 8 8 9
REMARK H PARENT
REMARK Flexibility Score: inf
ROOT
ATOM      1  C   UNL     1     188.890 181.758 224.259  1.00  0.00     0.027 C 
ENDROOT
BRANCH   1   2
ATOM      2  C   UNL     1     188.131 181.073 223.112  1.00  0.00     0.004 C 
BRANCH   2   3
ATOM      3  C   UNL     1     186.617 181.321 223.176  1.00  0.00    -0.003 C 
ATOM      4  C   UNL     1     186.265 182.673 223.798  1.00  0.00     0.004 C 
ENDBRANCH   2   3
ENDBRANCH   1   2
BRANCH   1   5
ATOM      5  C   UNL     1     190.174 182.365 223.773  1.00  0.00    -0.023 C 
ATOM      6  C   UNL     1     190.995 183.022 224.601  1.00  0.00     0.042 C 
BRANCH   6   7
ATOM      7  C   UNL     1     192.267 183.613 224.146  1.00  0.00     0.152 C 
ATOM      8  O   UNL     1     192.643 184.740 224.568  1.00  0.00    -0.295 OA
ATOM      9  C   UNL     1     193.124 182.865 223.176  1.00  0.00     0.093 C 
ENDBRANCH   6   7
ENDBRANCH   1   5
TORSDOF 4
ENDMDL
MODEL 8
REMARK VINA RESULT:    -2.693     18.289     19.418
REMARK INTER + INTRA:          -3.575
REMARK INTER:                  -3.417
REMARK INTRA:                  -0.158
REMARK UNBOUND:                -0.253
REMARK SMILES CCCCC=CC(C)=O
REMARK SMILES IDX 4 1 3 2 2 3 1 4 5 5 6 6 7 7 9 8 8 9
REMARK H PARENT
REMARK Flexibility Score: inf
ROOT
ATOM      1  C   UNL     1     192.184 183.630 222.875  1.00  0.00     0.027 C 
ENDROOT
BRANCH   1   2
ATOM      2  C   UNL     1     193.581 183.001 223.009  1.00  0.00     0.004 C 
BRANCH   2   3
ATOM      3  C   UNL     1     194.277 183.384 224.323  1.00  0.00    -0.003 C 
ATOM      4  C   UNL     1     195.759 183.706 224.136  1.00  0.00     0.004 C 
ENDBRANCH   2   3
ENDBRANCH   1   2
BRANCH   1   5
ATOM      5  C   UNL     1     191.108 182.628 223.177  1.00  0.00    -0.023 C 
ATOM      6  C   UNL     1     190.374 182.704 224.293  1.00  0.00     0.042 C 
BRANCH   6   7
ATOM      7  C   UNL     1     189.303 181.739 224.600  1.00  0.00     0.152 C 
ATOM      8  O   UNL     1     189.270 181.142 225.711  1.00  0.00    -0.295 OA
ATOM      9  C   UNL     1     188.241 181.466 223.585  1.00  0.00     0.093 C 
ENDBRANCH   6   7
ENDBRANCH   1   5
TORSDOF 4
ENDMDL
