MODEL 1
REMARK VINA RESULT:    -0.489      0.000      0.000
REMARK INTER + INTRA:          -0.168
REMARK INTER:                  -0.575
REMARK INTRA:                   0.407
REMARK UNBOUND:                 0.407
REMARK SMILES Oc1ccc(-c2[o+]c3cc(O)cc(O)c3cc2O)cc1
REMARK SMILES IDX 6 1 7 2 8 3 9 4 10 5 12 6 13 7 15 8 16 9 17 10 5 11 4 12
REMARK SMILES IDX 3 13 2 14 19 15 20 16 1 17 18 19 11 21 14 23
REMARK H PARENT 1 18 18 20 11 22 14 24
REMARK Flexibility Score: inf
ROOT
ATOM      1  C   UNL     1      10.472 -32.655  14.387  1.00  0.00     0.401 A 
ATOM      2  O   UNL     1      10.009 -33.736  13.760  1.00  0.00    -0.202 OA
ATOM      3  C   UNL     1       8.820 -34.272  14.018  1.00  0.00     0.368 A 
ATOM      4  C   UNL     1       8.409 -35.411  13.318  1.00  0.00     0.162 A 
ATOM      5  C   UNL     1       7.163 -35.988  13.582  1.00  0.00     0.128 A 
ATOM      6  C   UNL     1       6.322 -35.423  14.551  1.00  0.00     0.093 A 
ATOM      7  C   UNL     1       6.721 -34.281  15.260  1.00  0.00     0.136 A 
ATOM      8  C   UNL     1       7.976 -33.701  14.994  1.00  0.00     0.125 A 
ATOM      9  C   UNL     1       8.422 -32.557  15.664  1.00  0.00     0.078 A 
ATOM     10  C   UNL     1       9.675 -32.016  15.357  1.00  0.00     0.223 A 
ENDROOT
BRANCH   1  11
ATOM     11  C   UNL     1      11.817 -32.155  14.019  1.00  0.00     0.084 A 
ATOM     12  C   UNL     1      12.693 -32.990  13.304  1.00  0.00     0.022 A 
ATOM     13  C   UNL     1      13.974 -32.547  12.965  1.00  0.00     0.047 A 
ATOM     14  C   UNL     1      14.403 -31.270  13.350  1.00  0.00     0.115 A 
ATOM     15  C   UNL     1      12.262 -30.882  14.419  1.00  0.00     0.022 A 
ATOM     16  C   UNL     1      13.545 -30.443  14.079  1.00  0.00     0.047 A 
BRANCH  14  17
ATOM     17  O   UNL     1      15.678 -30.818  13.017  1.00  0.00    -0.508 OA
ATOM     18  H   UNL     1      16.437 -30.831  13.688  1.00  0.00     0.293 HD
ENDBRANCH  14  17
ENDBRANCH   1  11
BRANCH  10  19
ATOM     19  O   UNL     1      10.104 -30.847  15.986  1.00  0.00    -0.500 OA
ATOM     20  H   UNL     1       9.733 -29.939  15.731  1.00  0.00     0.294 HD
ENDBRANCH  10  19
BRANCH   5  21
ATOM     21  O   UNL     1       6.770 -37.122  12.876  1.00  0.00    -0.507 OA
ATOM     22  H   UNL     1       5.983 -37.103  12.237  1.00  0.00     0.293 HD
ENDBRANCH   5  21
BRANCH   7  23
ATOM     23  O   UNL     1       5.875 -33.726  16.221  1.00  0.00    -0.507 OA
ATOM     24  H   UNL     1       4.956 -33.374  15.980  1.00  0.00     0.293 HD
ENDBRANCH   7  23
TORSDOF 5
ENDMDL
MODEL 2
REMARK VINA RESULT:    -0.376      1.658      3.132
REMARK INTER + INTRA:          -0.035
REMARK INTER:                   0.145
REMARK INTRA:                  -0.180
REMARK UNBOUND:                 0.407
REMARK SMILES Oc1ccc(-c2[o+]c3cc(O)cc(O)c3cc2O)cc1
REMARK SMILES IDX 6 1 7 2 8 3 9 4 10 5 12 6 13 7 15 8 16 9 17 10 5 11 4 12
REMARK SMILES IDX 3 13 2 14 19 15 20 16 1 17 18 19 11 21 14 23
REMARK H PARENT 1 18 18 20 11 22 14 24
REMARK Flexibility Score: inf
ROOT
ATOM      1  C   UNL     1      11.733 -32.132  14.051  1.00  0.00     0.401 A 
ATOM      2  O   UNL     1      10.513 -31.840  14.501  1.00  0.00    -0.202 OA
ATOM      3  C   UNL     1       9.469 -32.649  14.352  1.00  0.00     0.368 A 
ATOM      4  C   UNL     1       8.220 -32.265  14.851  1.00  0.00     0.162 A 
ATOM      5  C   UNL     1       7.113 -33.104  14.698  1.00  0.00     0.128 A 
ATOM      6  C   UNL     1       7.253 -34.335  14.043  1.00  0.00     0.093 A 
ATOM      7  C   UNL     1       8.500 -34.734  13.538  1.00  0.00     0.136 A 
ATOM      8  C   UNL     1       9.615 -33.888  13.693  1.00  0.00     0.125 A 
ATOM      9  C   UNL     1      10.883 -34.237  13.217  1.00  0.00     0.078 A 
ATOM     10  C   UNL     1      11.960 -33.363  13.402  1.00  0.00     0.223 A 
ENDROOT
BRANCH   1  11
ATOM     11  C   UNL     1      12.815 -31.146  14.269  1.00  0.00     0.084 A 
ATOM     12  C   UNL     1      13.152 -30.767  15.580  1.00  0.00     0.022 A 
ATOM     13  C   UNL     1      14.156 -29.823  15.808  1.00  0.00     0.047 A 
ATOM     14  C   UNL     1      14.826 -29.232  14.730  1.00  0.00     0.115 A 
ATOM     15  C   UNL     1      13.480 -30.534  13.190  1.00  0.00     0.022 A 
ATOM     16  C   UNL     1      14.483 -29.588  13.423  1.00  0.00     0.047 A 
BRANCH  14  17
ATOM     17  O   UNL     1      15.829 -28.290  14.946  1.00  0.00    -0.508 OA
ATOM     18  H   UNL     1      16.665 -28.264  14.374  1.00  0.00     0.293 HD
ENDBRANCH  14  17
ENDBRANCH   1  11
BRANCH  10  19
ATOM     19  O   UNL     1      13.236 -33.728  12.976  1.00  0.00    -0.500 OA
ATOM     20  H   UNL     1      13.474 -33.780  11.992  1.00  0.00     0.294 HD
ENDBRANCH  10  19
BRANCH   5  21
ATOM     21  O   UNL     1       5.876 -32.705  15.200  1.00  0.00    -0.507 OA
ATOM     22  H   UNL     1       5.103 -32.476  14.586  1.00  0.00     0.293 HD
ENDBRANCH   5  21
BRANCH   7  23
ATOM     23  O   UNL     1       8.629 -35.962  12.889  1.00  0.00    -0.507 OA
ATOM     24  H   UNL     1       7.819 -36.509  12.623  1.00  0.00     0.293 HD
ENDBRANCH   7  23
TORSDOF 5
ENDMDL
MODEL 3
REMARK VINA RESULT:     0.268      1.146      6.510
REMARK INTER + INTRA:           0.722
REMARK INTER:                   0.559
REMARK INTRA:                   0.163
REMARK UNBOUND:                 0.407
REMARK SMILES Oc1ccc(-c2[o+]c3cc(O)cc(O)c3cc2O)cc1
REMARK SMILES IDX 6 1 7 2 8 3 9 4 10 5 12 6 13 7 15 8 16 9 17 10 5 11 4 12
REMARK SMILES IDX 3 13 2 14 19 15 20 16 1 17 18 19 11 21 14 23
REMARK H PARENT 1 18 18 20 11 22 14 24
REMARK Flexibility Score: inf
ROOT
ATOM      1  C   UNL     1       9.731 -33.092  14.513  1.00  0.00     0.401 A 
ATOM      2  O   UNL     1      10.889 -33.083  13.853  1.00  0.00    -0.202 OA
ATOM      3  C   UNL     1      11.865 -32.218  14.110  1.00  0.00     0.368 A 
ATOM      4  C   UNL     1      13.049 -32.272  13.368  1.00  0.00     0.162 A 
ATOM      5  C   UNL     1      14.083 -31.366  13.625  1.00  0.00     0.128 A 
ATOM      6  C   UNL     1      13.932 -30.399  14.628  1.00  0.00     0.093 A 
ATOM      7  C   UNL     1      12.750 -30.333  15.381  1.00  0.00     0.136 A 
ATOM      8  C   UNL     1      11.710 -31.247  15.122  1.00  0.00     0.125 A 
ATOM      9  C   UNL     1      10.513 -31.233  15.845  1.00  0.00     0.078 A 
ATOM     10  C   UNL     1       9.513 -32.167  15.553  1.00  0.00     0.223 A 
ENDROOT
BRANCH   1  11
ATOM     11  C   UNL     1       8.715 -34.099  14.130  1.00  0.00     0.084 A 
ATOM     12  C   UNL     1       9.131 -35.350  13.643  1.00  0.00     0.022 A 
ATOM     13  C   UNL     1       8.191 -36.309  13.257  1.00  0.00     0.047 A 
ATOM     14  C   UNL     1       6.822 -36.024  13.336  1.00  0.00     0.115 A 
ATOM     15  C   UNL     1       7.339 -33.814  14.189  1.00  0.00     0.022 A 
ATOM     16  C   UNL     1       6.400 -34.775  13.800  1.00  0.00     0.047 A 
BRANCH  14  17
ATOM     17  O   UNL     1       5.875 -36.971  12.954  1.00  0.00    -0.508 OA
ATOM     18  H   UNL     1       5.907 -37.415  12.043  1.00  0.00     0.293 HD
ENDBRANCH  14  17
ENDBRANCH   1  11
BRANCH  10  19
ATOM     19  O   UNL     1       8.339 -32.191  16.305  1.00  0.00    -0.500 OA
ATOM     20  H   UNL     1       7.578 -32.821  16.083  1.00  0.00     0.294 HD
ENDBRANCH  10  19
BRANCH   5  21
ATOM     21  O   UNL     1      15.255 -31.434  12.876  1.00  0.00    -0.507 OA
ATOM     22  H   UNL     1      16.166 -31.470  13.319  1.00  0.00     0.293 HD
ENDBRANCH   5  21
BRANCH   7  23
ATOM     23  O   UNL     1      12.612 -29.369  16.379  1.00  0.00    -0.507 OA
ATOM     24  H   UNL     1      12.773 -29.588  17.355  1.00  0.00     0.293 HD
ENDBRANCH   7  23
TORSDOF 5
ENDMDL
MODEL 4
REMARK VINA RESULT:     1.455      1.825      3.777
REMARK INTER + INTRA:           2.117
REMARK INTER:                   2.392
REMARK INTRA:                  -0.275
REMARK UNBOUND:                 0.407
REMARK SMILES Oc1ccc(-c2[o+]c3cc(O)cc(O)c3cc2O)cc1
REMARK SMILES IDX 6 1 7 2 8 3 9 4 10 5 12 6 13 7 15 8 16 9 17 10 5 11 4 12
REMARK SMILES IDX 3 13 2 14 19 15 20 16 1 17 18 19 11 21 14 23
REMARK H PARENT 1 18 18 20 11 22 14 24
REMARK Flexibility Score: inf
ROOT
ATOM      1  C   UNL     1      12.652 -31.462  14.207  1.00  0.00     0.401 A 
ATOM      2  O   UNL     1      11.426 -31.358  14.720  1.00  0.00    -0.202 OA
ATOM      3  C   UNL     1      10.486 -32.283  14.552  1.00  0.00     0.368 A 
ATOM      4  C   UNL     1       9.222 -32.095  15.121  1.00  0.00     0.162 A 
ATOM      5  C   UNL     1       8.223 -33.058  14.949  1.00  0.00     0.128 A 
ATOM      6  C   UNL     1       8.488 -34.215  14.204  1.00  0.00     0.093 A 
ATOM      7  C   UNL     1       9.751 -34.417  13.629  1.00  0.00     0.136 A 
ATOM      8  C   UNL     1      10.757 -33.447  13.802  1.00  0.00     0.125 A 
ATOM      9  C   UNL     1      12.036 -33.599  13.258  1.00  0.00     0.078 A 
ATOM     10  C   UNL     1      13.002 -32.609  13.466  1.00  0.00     0.223 A 
ENDROOT
BRANCH   1  11
ATOM     11  C   UNL     1      13.611 -30.362  14.455  1.00  0.00     0.084 A 
ATOM     12  C   UNL     1      14.146 -30.189  15.743  1.00  0.00     0.022 A 
ATOM     13  C   UNL     1      15.038 -29.145  16.005  1.00  0.00     0.047 A 
ATOM     14  C   UNL     1      15.392 -28.250  14.988  1.00  0.00     0.115 A 
ATOM     15  C   UNL     1      13.957 -29.447  13.444  1.00  0.00     0.022 A 
ATOM     16  C   UNL     1      14.847 -28.402  13.710  1.00  0.00     0.047 A 
BRANCH  14  17
ATOM     17  O   UNL     1      16.279 -27.205  15.238  1.00  0.00    -0.508 OA
ATOM     18  H   UNL     1      16.645 -27.031  16.167  1.00  0.00     0.293 HD
ENDBRANCH  14  17
ENDBRANCH   1  11
BRANCH  10  19
ATOM     19  O   UNL     1      14.294 -32.778  12.970  1.00  0.00    -0.500 OA
ATOM     20  H   UNL     1      14.506 -33.472  12.263  1.00  0.00     0.294 HD
ENDBRANCH  10  19
BRANCH   5  21
ATOM     21  O   UNL     1       6.970 -32.855  15.522  1.00  0.00    -0.507 OA
ATOM     22  H   UNL     1       6.131 -32.793  14.956  1.00  0.00     0.293 HD
ENDBRANCH   5  21
BRANCH   7  23
ATOM     23  O   UNL     1      10.004 -35.574  12.891  1.00  0.00    -0.507 OA
ATOM     24  H   UNL     1      10.273 -35.532  11.915  1.00  0.00     0.293 HD
ENDBRANCH   7  23
TORSDOF 5
ENDMDL
