MODEL 1
REMARK VINA RESULT:    -5.001      0.000      0.000
REMARK INTER + INTRA:          -5.147
REMARK INTER:                  -5.147
REMARK INTRA:                   0.000
REMARK UNBOUND:                 0.000
REMARK SMILES Cc1cccc(O)c1C
REMARK SMILES IDX 1 1 2 2 8 3 6 4 5 5 4 6 3 7 9 8 7 9
REMARK H PARENT 7 10
REMARK Flexibility Score: inf
ROOT
ATOM      1  C   UNL     1       2.502  30.711  79.037  1.00  0.00     0.045 C 
ATOM      2  C   UNL     1       1.779  31.555  78.021  1.00  0.00    -0.045 A 
ATOM      3  C   UNL     1       1.280  30.999  76.815  1.00  0.00    -0.006 A 
ATOM      4  C   UNL     1       0.590  31.830  75.905  1.00  0.00     0.118 A 
ATOM      5  C   UNL     1       0.440  33.196  76.176  1.00  0.00     0.046 A 
ATOM      6  C   UNL     1       0.960  33.742  77.347  1.00  0.00     0.004 A 
ATOM      7  C   UNL     1       1.625  32.930  78.264  1.00  0.00     0.004 A 
ATOM      8  C   UNL     1       1.431  29.523  76.526  1.00  0.00     0.048 C 
ENDROOT
BRANCH   4   9
ATOM      9  O   UNL     1       0.053  31.299  74.732  1.00  0.00    -0.508 OA
ATOM     10  H   UNL     1      -0.939  31.349  74.530  1.00  0.00     0.293 HD
ENDBRANCH   4   9
TORSDOF 1
ENDMDL
MODEL 2
REMARK VINA RESULT:    -4.843     16.500     17.904
REMARK INTER + INTRA:          -4.985
REMARK INTER:                  -4.985
REMARK INTRA:                   0.000
REMARK UNBOUND:                 0.000
REMARK SMILES Cc1cccc(O)c1C
REMARK SMILES IDX 1 1 2 2 8 3 6 4 5 5 4 6 3 7 9 8 7 9
REMARK H PARENT 7 10
REMARK Flexibility Score: inf
ROOT
ATOM      1  C   UNL     1      13.748  39.266  87.030  1.00  0.00     0.045 C 
ATOM      2  C   UNL     1      13.675  38.231  88.122  1.00  0.00    -0.045 A 
ATOM      3  C   UNL     1      13.136  36.940  87.886  1.00  0.00    -0.006 A 
ATOM      4  C   UNL     1      13.111  35.999  88.939  1.00  0.00     0.118 A 
ATOM      5  C   UNL     1      13.575  36.357  90.211  1.00  0.00     0.046 A 
ATOM      6  C   UNL     1      14.074  37.636  90.445  1.00  0.00     0.004 A 
ATOM      7  C   UNL     1      14.125  38.568  89.410  1.00  0.00     0.004 A 
ATOM      8  C   UNL     1      12.645  36.549  86.511  1.00  0.00     0.048 C 
ENDROOT
BRANCH   4   9
ATOM      9  O   UNL     1      12.625  34.709  88.721  1.00  0.00    -0.508 OA
ATOM     10  H   UNL     1      13.082  34.068  88.084  1.00  0.00     0.293 HD
ENDBRANCH   4   9
TORSDOF 1
ENDMDL
MODEL 3
REMARK VINA RESULT:    -4.831      7.907      8.643
REMARK INTER + INTRA:          -4.972
REMARK INTER:                  -4.972
REMARK INTRA:                   0.000
REMARK UNBOUND:                 0.000
REMARK SMILES Cc1cccc(O)c1C
REMARK SMILES IDX 1 1 2 2 8 3 6 4 5 5 4 6 3 7 9 8 7 9
REMARK H PARENT 7 10
REMARK Flexibility Score: inf
ROOT
ATOM      1  C   UNL     1       5.980  25.376  82.248  1.00  0.00     0.045 C 
ATOM      2  C   UNL     1       4.729  25.102  81.455  1.00  0.00    -0.045 A 
ATOM      3  C   UNL     1       4.737  24.236  80.332  1.00  0.00    -0.006 A 
ATOM      4  C   UNL     1       3.532  23.996  79.636  1.00  0.00     0.118 A 
ATOM      5  C   UNL     1       2.353  24.641  80.031  1.00  0.00     0.046 A 
ATOM      6  C   UNL     1       2.357  25.515  81.115  1.00  0.00     0.004 A 
ATOM      7  C   UNL     1       3.535  25.746  81.824  1.00  0.00     0.004 A 
ATOM      8  C   UNL     1       6.005  23.531  79.912  1.00  0.00     0.048 C 
ENDROOT
BRANCH   4   9
ATOM      9  O   UNL     1       3.504  23.115  78.554  1.00  0.00    -0.508 OA
ATOM     10  H   UNL     1       3.868  23.377  77.645  1.00  0.00     0.293 HD
ENDBRANCH   4   9
TORSDOF 1
ENDMDL
MODEL 4
REMARK VINA RESULT:    -4.826      5.164      6.897
REMARK INTER + INTRA:          -4.967
REMARK INTER:                  -4.967
REMARK INTRA:                   0.000
REMARK UNBOUND:                 0.000
REMARK SMILES Cc1cccc(O)c1C
REMARK SMILES IDX 1 1 2 2 8 3 6 4 5 5 4 6 3 7 9 8 7 9
REMARK H PARENT 7 10
REMARK Flexibility Score: inf
ROOT
ATOM      1  C   UNL     1       2.498  28.320  78.744  1.00  0.00     0.045 C 
ATOM      2  C   UNL     1       2.212  26.922  79.227  1.00  0.00    -0.045 A 
ATOM      3  C   UNL     1       1.655  25.939  78.368  1.00  0.00    -0.006 A 
ATOM      4  C   UNL     1       1.427  24.638  78.865  1.00  0.00     0.118 A 
ATOM      5  C   UNL     1       1.709  24.337  80.204  1.00  0.00     0.046 A 
ATOM      6  C   UNL     1       2.226  25.315  81.051  1.00  0.00     0.004 A 
ATOM      7  C   UNL     1       2.477  26.598  80.569  1.00  0.00     0.004 A 
ATOM      8  C   UNL     1       1.361  26.259  76.921  1.00  0.00     0.048 C 
ENDROOT
BRANCH   4   9
ATOM      9  O   UNL     1       0.920  23.642  78.029  1.00  0.00    -0.508 OA
ATOM     10  H   UNL     1       1.284  22.697  78.045  1.00  0.00     0.293 HD
ENDBRANCH   4   9
TORSDOF 1
ENDMDL
MODEL 5
REMARK VINA RESULT:    -4.762      3.038      4.082
REMARK INTER + INTRA:          -4.901
REMARK INTER:                  -4.901
REMARK INTRA:                   0.000
REMARK UNBOUND:                 0.000
REMARK SMILES Cc1cccc(O)c1C
REMARK SMILES IDX 1 1 2 2 8 3 6 4 5 5 4 6 3 7 9 8 7 9
REMARK H PARENT 7 10
REMARK Flexibility Score: inf
ROOT
ATOM      1  C   UNL     1       2.905  26.538  79.585  1.00  0.00     0.045 C 
ATOM      2  C   UNL     1       2.537  27.998  79.538  1.00  0.00    -0.045 A 
ATOM      3  C   UNL     1       2.973  28.840  78.483  1.00  0.00    -0.006 A 
ATOM      4  C   UNL     1       2.582  30.196  78.475  1.00  0.00     0.118 A 
ATOM      5  C   UNL     1       1.805  30.709  79.522  1.00  0.00     0.046 A 
ATOM      6  C   UNL     1       1.406  29.885  80.571  1.00  0.00     0.004 A 
ATOM      7  C   UNL     1       1.767  28.539  80.582  1.00  0.00     0.004 A 
ATOM      8  C   UNL     1       3.801  28.285  77.347  1.00  0.00     0.048 C 
ENDROOT
BRANCH   4   9
ATOM      9  O   UNL     1       2.963  31.035  77.427  1.00  0.00    -0.508 OA
ATOM     10  H   UNL     1       3.309  30.667  76.549  1.00  0.00     0.293 HD
ENDBRANCH   4   9
TORSDOF 1
ENDMDL
MODEL 6
REMARK VINA RESULT:    -4.754     14.675     15.695
REMARK INTER + INTRA:          -4.893
REMARK INTER:                  -4.893
REMARK INTRA:                   0.000
REMARK UNBOUND:                 0.000
REMARK SMILES Cc1cccc(O)c1C
REMARK SMILES IDX 1 1 2 2 8 3 6 4 5 5 4 6 3 7 9 8 7 9
REMARK H PARENT 7 10
REMARK Flexibility Score: inf
ROOT
ATOM      1  C   UNL     1       5.930  28.398  89.992  1.00  0.00     0.045 C 
ATOM      2  C   UNL     1       7.313  28.994  89.976  1.00  0.00    -0.045 A 
ATOM      3  C   UNL     1       7.788  29.796  91.047  1.00  0.00    -0.006 A 
ATOM      4  C   UNL     1       9.101  30.313  90.993  1.00  0.00     0.118 A 
ATOM      5  C   UNL     1       9.906  30.068  89.873  1.00  0.00     0.046 A 
ATOM      6  C   UNL     1       9.424  29.306  88.811  1.00  0.00     0.004 A 
ATOM      7  C   UNL     1       8.138  28.772  88.860  1.00  0.00     0.004 A 
ATOM      8  C   UNL     1       6.924  30.051  92.259  1.00  0.00     0.048 C 
ENDROOT
BRANCH   4   9
ATOM      9  O   UNL     1       9.606  31.069  92.051  1.00  0.00    -0.508 OA
ATOM     10  H   UNL     1       9.139  31.907  92.377  1.00  0.00     0.293 HD
ENDBRANCH   4   9
TORSDOF 1
ENDMDL
MODEL 7
REMARK VINA RESULT:    -4.686      2.917      4.756
REMARK INTER + INTRA:          -4.823
REMARK INTER:                  -4.823
REMARK INTRA:                   0.000
REMARK UNBOUND:                 0.000
REMARK SMILES Cc1cccc(O)c1C
REMARK SMILES IDX 1 1 2 2 8 3 6 4 5 5 4 6 3 7 9 8 7 9
REMARK H PARENT 7 10
REMARK Flexibility Score: inf
ROOT
ATOM      1  C   UNL     1       0.954  29.850  81.041  1.00  0.00     0.045 C 
ATOM      2  C   UNL     1       1.885  29.171  80.071  1.00  0.00    -0.045 A 
ATOM      3  C   UNL     1       2.521  29.889  79.026  1.00  0.00    -0.006 A 
ATOM      4  C   UNL     1       3.402  29.209  78.157  1.00  0.00     0.118 A 
ATOM      5  C   UNL     1       3.610  27.832  78.305  1.00  0.00     0.046 A 
ATOM      6  C   UNL     1       2.959  27.126  79.314  1.00  0.00     0.004 A 
ATOM      7  C   UNL     1       2.102  27.787  80.192  1.00  0.00     0.004 A 
ATOM      8  C   UNL     1       2.306  31.377  78.872  1.00  0.00     0.048 C 
ENDROOT
BRANCH   4   9
ATOM      9  O   UNL     1       4.072  29.901  77.148  1.00  0.00    -0.508 OA
ATOM     10  H   UNL     1       4.194  29.507  76.222  1.00  0.00     0.293 HD
ENDBRANCH   4   9
TORSDOF 1
ENDMDL
MODEL 8
REMARK VINA RESULT:    -4.675      3.483      4.818
REMARK INTER + INTRA:          -4.812
REMARK INTER:                  -4.812
REMARK INTRA:                   0.000
REMARK UNBOUND:                 0.000
REMARK SMILES Cc1cccc(O)c1C
REMARK SMILES IDX 1 1 2 2 8 3 6 4 5 5 4 6 3 7 9 8 7 9
REMARK H PARENT 7 10
REMARK Flexibility Score: inf
ROOT
ATOM      1  C   UNL     1       2.180  27.017  80.585  1.00  0.00     0.045 C 
ATOM      2  C   UNL     1       2.816  27.725  79.417  1.00  0.00    -0.045 A 
ATOM      3  C   UNL     1       2.508  29.076  79.111  1.00  0.00    -0.006 A 
ATOM      4  C   UNL     1       3.148  29.699  78.019  1.00  0.00     0.118 A 
ATOM      5  C   UNL     1       4.046  28.975  77.224  1.00  0.00     0.046 A 
ATOM      6  C   UNL     1       4.321  27.640  77.510  1.00  0.00     0.004 A 
ATOM      7  C   UNL     1       3.712  27.017  78.598  1.00  0.00     0.004 A 
ATOM      8  C   UNL     1       1.549  29.861  79.974  1.00  0.00     0.048 C 
ENDROOT
BRANCH   4   9
ATOM      9  O   UNL     1       2.895  31.039  77.722  1.00  0.00    -0.508 OA
ATOM     10  H   UNL     1       3.166  31.785  78.353  1.00  0.00     0.293 HD
ENDBRANCH   4   9
TORSDOF 1
ENDMDL
MODEL 9
REMARK VINA RESULT:    -4.544     15.898     17.243
REMARK INTER + INTRA:          -4.677
REMARK INTER:                  -4.677
REMARK INTRA:                   0.000
REMARK UNBOUND:                 0.000
REMARK SMILES Cc1cccc(O)c1C
REMARK SMILES IDX 1 1 2 2 8 3 6 4 5 5 4 6 3 7 9 8 7 9
REMARK H PARENT 7 10
REMARK Flexibility Score: inf
ROOT
ATOM      1  C   UNL     1      12.662  36.239  85.285  1.00  0.00     0.045 C 
ATOM      2  C   UNL     1      13.051  36.819  86.620  1.00  0.00    -0.045 A 
ATOM      3  C   UNL     1      13.141  36.012  87.783  1.00  0.00    -0.006 A 
ATOM      4  C   UNL     1      13.532  36.602  89.004  1.00  0.00     0.118 A 
ATOM      5  C   UNL     1      13.786  37.978  89.070  1.00  0.00     0.046 A 
ATOM      6  C   UNL     1      13.665  38.771  87.932  1.00  0.00     0.004 A 
ATOM      7  C   UNL     1      13.301  38.199  86.714  1.00  0.00     0.004 A 
ATOM      8  C   UNL     1      12.879  34.526  87.711  1.00  0.00     0.048 C 
ENDROOT
BRANCH   4   9
ATOM      9  O   UNL     1      13.669  35.822  90.153  1.00  0.00    -0.508 OA
ATOM     10  H   UNL     1      14.127  34.918  90.133  1.00  0.00     0.293 HD
ENDBRANCH   4   9
TORSDOF 1
ENDMDL
