MODEL 1
REMARK VINA RESULT:    -2.259      0.000      0.000
REMARK INTER + INTRA:          -2.259
REMARK INTER:                  -2.259
REMARK INTRA:                   0.000
REMARK UNBOUND:                 0.000
REMARK SMILES CC(=O)[O-]
REMARK SMILES IDX 1 1 2 2 3 3 4 4
REMARK H PARENT
REMARK Flexibility Score: inf
ROOT
ATOM      1  C   UNL     1      -0.165   3.970   4.415  1.00  0.00     0.063 C 
ATOM      2  C   UNL     1      -0.255   3.900   2.928  1.00  0.00     0.038 C 
ATOM      3  O   UNL     1      -0.950   3.007   2.378  1.00  0.00    -0.550 OA
ATOM      4  O   UNL     1       0.385   4.854   2.147  1.00  0.00    -0.550 OA
ENDROOT
TORSDOF 0
ENDMDL
MODEL 2
REMARK VINA RESULT:    -2.233      0.254      1.639
REMARK INTER + INTRA:          -2.233
REMARK INTER:                  -2.233
REMARK INTRA:                   0.000
REMARK UNBOUND:                 0.000
REMARK SMILES CC(=O)[O-]
REMARK SMILES IDX 1 1 2 2 3 3 4 4
REMARK H PARENT
REMARK Flexibility Score: inf
ROOT
ATOM      1  C   UNL     1      -0.161   4.387   4.368  1.00  0.00     0.063 C 
ATOM      2  C   UNL     1      -0.183   4.138   2.897  1.00  0.00     0.038 C 
ATOM      3  O   UNL     1       0.434   4.908   2.117  1.00  0.00    -0.550 OA
ATOM      4  O   UNL     1      -0.840   3.024   2.390  1.00  0.00    -0.550 OA
ENDROOT
TORSDOF 0
ENDMDL
MODEL 3
REMARK VINA RESULT:    -2.208     12.662     13.048
REMARK INTER + INTRA:          -2.208
REMARK INTER:                  -2.208
REMARK INTRA:                   0.000
REMARK UNBOUND:                 0.000
REMARK SMILES CC(=O)[O-]
REMARK SMILES IDX 1 1 2 2 3 3 4 4
REMARK H PARENT
REMARK Flexibility Score: inf
ROOT
ATOM      1  C   UNL     1      -2.344  -8.730   8.862  1.00  0.00     0.063 C 
ATOM      2  C   UNL     1      -2.046  -8.120   7.534  1.00  0.00     0.038 C 
ATOM      3  O   UNL     1      -2.892  -8.185   6.605  1.00  0.00    -0.550 OA
ATOM      4  O   UNL     1      -0.857  -7.431   7.336  1.00  0.00    -0.550 OA
ENDROOT
TORSDOF 0
ENDMDL
MODEL 4
REMARK VINA RESULT:    -2.107      6.425      7.220
REMARK INTER + INTRA:          -2.107
REMARK INTER:                  -2.107
REMARK INTRA:                   0.000
REMARK UNBOUND:                 0.000
REMARK SMILES CC(=O)[O-]
REMARK SMILES IDX 1 1 2 2 3 3 4 4
REMARK H PARENT
REMARK Flexibility Score: inf
ROOT
ATOM      1  C   UNL     1       2.315   6.434  -3.811  1.00  0.00     0.063 C 
ATOM      2  C   UNL     1       1.320   7.109  -2.928  1.00  0.00     0.038 C 
ATOM      3  O   UNL     1       1.065   8.331  -3.083  1.00  0.00    -0.550 OA
ATOM      4  O   UNL     1       0.632   6.377  -1.968  1.00  0.00    -0.550 OA
ENDROOT
TORSDOF 0
ENDMDL
MODEL 5
REMARK VINA RESULT:    -2.092      6.189      6.854
REMARK INTER + INTRA:          -2.092
REMARK INTER:                  -2.092
REMARK INTRA:                   0.000
REMARK UNBOUND:                 0.000
REMARK SMILES CC(=O)[O-]
REMARK SMILES IDX 1 1 2 2 3 3 4 4
REMARK H PARENT
REMARK Flexibility Score: inf
ROOT
ATOM      1  C   UNL     1       2.010   6.522  -3.705  1.00  0.00     0.063 C 
ATOM      2  C   UNL     1       1.091   7.083  -2.672  1.00  0.00     0.038 C 
ATOM      3  O   UNL     1       0.715   6.369  -1.707  1.00  0.00    -0.550 OA
ATOM      4  O   UNL     1       0.691   8.411  -2.745  1.00  0.00    -0.550 OA
ENDROOT
TORSDOF 0
ENDMDL
MODEL 6
REMARK VINA RESULT:    -2.077      4.275      4.813
REMARK INTER + INTRA:          -2.077
REMARK INTER:                  -2.077
REMARK INTRA:                   0.000
REMARK UNBOUND:                 0.000
REMARK SMILES CC(=O)[O-]
REMARK SMILES IDX 1 1 2 2 3 3 4 4
REMARK H PARENT
REMARK Flexibility Score: inf
ROOT
ATOM      1  C   UNL     1      -0.817   0.255   7.658  1.00  0.00     0.063 C 
ATOM      2  C   UNL     1      -0.550   1.205   6.539  1.00  0.00     0.038 C 
ATOM      3  O   UNL     1      -0.213   2.392   6.784  1.00  0.00    -0.550 OA
ATOM      4  O   UNL     1      -0.622   0.767   5.223  1.00  0.00    -0.550 OA
ENDROOT
TORSDOF 0
ENDMDL
MODEL 7
REMARK VINA RESULT:    -2.045      6.322      6.754
REMARK INTER + INTRA:          -2.045
REMARK INTER:                  -2.045
REMARK INTRA:                   0.000
REMARK UNBOUND:                 0.000
REMARK SMILES CC(=O)[O-]
REMARK SMILES IDX 1 1 2 2 3 3 4 4
REMARK H PARENT
REMARK Flexibility Score: inf
ROOT
ATOM      1  C   UNL     1      -1.799   8.863  -1.462  1.00  0.00     0.063 C 
ATOM      2  C   UNL     1      -0.450   8.413  -1.912  1.00  0.00     0.038 C 
ATOM      3  O   UNL     1      -0.086   7.224  -1.724  1.00  0.00    -0.550 OA
ATOM      4  O   UNL     1       0.387   9.292  -2.587  1.00  0.00    -0.550 OA
ENDROOT
TORSDOF 0
ENDMDL
MODEL 8
REMARK VINA RESULT:    -1.973      6.225      6.704
REMARK INTER + INTRA:          -1.973
REMARK INTER:                  -1.973
REMARK INTRA:                   0.000
REMARK UNBOUND:                 0.000
REMARK SMILES CC(=O)[O-]
REMARK SMILES IDX 1 1 2 2 3 3 4 4
REMARK H PARENT
REMARK Flexibility Score: inf
ROOT
ATOM      1  C   UNL     1       0.046   8.168  -1.883  1.00  0.00     0.063 C 
ATOM      2  C   UNL     1       0.956   7.244  -2.620  1.00  0.00     0.038 C 
ATOM      3  O   UNL     1       1.047   6.038  -2.274  1.00  0.00    -0.550 OA
ATOM      4  O   UNL     1       1.665   7.701  -3.724  1.00  0.00    -0.550 OA
ENDROOT
TORSDOF 0
ENDMDL
MODEL 9
REMARK VINA RESULT:    -1.943      2.989      3.537
REMARK INTER + INTRA:          -1.943
REMARK INTER:                  -1.943
REMARK INTRA:                   0.000
REMARK UNBOUND:                 0.000
REMARK SMILES CC(=O)[O-]
REMARK SMILES IDX 1 1 2 2 3 3 4 4
REMARK H PARENT
REMARK Flexibility Score: inf
ROOT
ATOM      1  C   UNL     1      -0.028   3.629   4.348  1.00  0.00     0.063 C 
ATOM      2  C   UNL     1      -0.125   2.641   5.461  1.00  0.00     0.038 C 
ATOM      3  O   UNL     1       0.127   2.993   6.642  1.00  0.00    -0.550 OA
ATOM      4  O   UNL     1      -0.547   1.342   5.204  1.00  0.00    -0.550 OA
ENDROOT
TORSDOF 0
ENDMDL
