MODEL 1
REMARK VINA RESULT:    -3.922      0.000      0.000
REMARK INTER + INTRA:          -4.728
REMARK INTER:                  -4.610
REMARK INTRA:                  -0.119
REMARK UNBOUND:                -0.119
REMARK SMILES O=C([O-])CCC(=O)[O-]
REMARK SMILES IDX 4 1 2 2 1 3 3 4 5 5 6 6 7 7 8 8
REMARK H PARENT
REMARK Flexibility Score: inf
ROOT
ATOM      1  C   UNL     1      12.479  -0.341  26.946  1.00  0.00     0.059 C 
ENDROOT
BRANCH   1   2
ATOM      2  C   UNL     1      11.552   0.245  25.924  1.00  0.00     0.042 C 
ATOM      3  O   UNL     1      10.308   0.071  26.023  1.00  0.00    -0.550 OA
ATOM      4  O   UNL     1      12.058   1.018  24.888  1.00  0.00    -0.550 OA
ENDBRANCH   1   2
BRANCH   1   5
ATOM      5  C   UNL     1      13.291  -1.505  26.367  1.00  0.00     0.059 C 
BRANCH   5   6
ATOM      6  C   UNL     1      14.757  -1.193  26.337  1.00  0.00     0.042 C 
ATOM      7  O   UNL     1      15.149  -0.006  26.186  1.00  0.00    -0.550 OA
ATOM      8  O   UNL     1      15.688  -2.219  26.435  1.00  0.00    -0.550 OA
ENDBRANCH   5   6
ENDBRANCH   1   5
TORSDOF 3
ENDMDL
MODEL 2
REMARK VINA RESULT:    -3.909      0.064      4.014
REMARK INTER + INTRA:          -4.714
REMARK INTER:                  -4.596
REMARK INTRA:                  -0.118
REMARK UNBOUND:                -0.119
REMARK SMILES O=C([O-])CCC(=O)[O-]
REMARK SMILES IDX 4 1 2 2 1 3 3 4 5 5 6 6 7 7 8 8
REMARK H PARENT
REMARK Flexibility Score: inf
ROOT
ATOM      1  C   UNL     1      13.240  -1.511  26.323  1.00  0.00     0.059 C 
ENDROOT
BRANCH   1   2
ATOM      2  C   UNL     1      14.710  -1.221  26.281  1.00  0.00     0.042 C 
ATOM      3  O   UNL     1      15.120  -0.033  26.199  1.00  0.00    -0.550 OA
ATOM      4  O   UNL     1      15.626  -2.261  26.375  1.00  0.00    -0.550 OA
ENDBRANCH   1   2
BRANCH   1   5
ATOM      5  C   UNL     1      12.454  -0.353  26.947  1.00  0.00     0.059 C 
BRANCH   5   6
ATOM      6  C   UNL     1      11.512   0.270  25.962  1.00  0.00     0.042 C 
ATOM      7  O   UNL     1      10.272   0.073  26.061  1.00  0.00    -0.550 OA
ATOM      8  O   UNL     1      12.007   1.034  24.913  1.00  0.00    -0.550 OA
ENDBRANCH   5   6
ENDBRANCH   1   5
TORSDOF 3
ENDMDL
MODEL 3
REMARK VINA RESULT:    -3.851      2.624      3.666
REMARK INTER + INTRA:          -4.645
REMARK INTER:                  -4.462
REMARK INTRA:                  -0.183
REMARK UNBOUND:                -0.119
REMARK SMILES O=C([O-])CCC(=O)[O-]
REMARK SMILES IDX 4 1 2 2 1 3 3 4 5 5 6 6 7 7 8 8
REMARK H PARENT
REMARK Flexibility Score: inf
ROOT
ATOM      1  C   UNL     1      14.372   1.226  27.747  1.00  0.00     0.059 C 
ENDROOT
BRANCH   1   2
ATOM      2  C   UNL     1      13.812   0.588  28.982  1.00  0.00     0.042 C 
ATOM      3  O   UNL     1      12.834   1.112  29.579  1.00  0.00    -0.550 OA
ATOM      4  O   UNL     1      14.344  -0.606  29.451  1.00  0.00    -0.550 OA
ENDBRANCH   1   2
BRANCH   1   5
ATOM      5  C   UNL     1      14.421   0.239  26.576  1.00  0.00     0.059 C 
BRANCH   5   6
ATOM      6  C   UNL     1      13.055  -0.265  26.221  1.00  0.00     0.042 C 
ATOM      7  O   UNL     1      12.814  -1.501  26.228  1.00  0.00    -0.550 OA
ATOM      8  O   UNL     1      12.060   0.628  25.843  1.00  0.00    -0.550 OA
ENDBRANCH   5   6
ENDBRANCH   1   5
TORSDOF 3
ENDMDL
MODEL 4
REMARK VINA RESULT:    -3.827      2.592      2.942
REMARK INTER + INTRA:          -4.617
REMARK INTER:                  -4.443
REMARK INTRA:                  -0.173
REMARK UNBOUND:                -0.119
REMARK SMILES O=C([O-])CCC(=O)[O-]
REMARK SMILES IDX 4 1 2 2 1 3 3 4 5 5 6 6 7 7 8 8
REMARK H PARENT
REMARK Flexibility Score: inf
ROOT
ATOM      1  C   UNL     1      14.386   0.334  26.461  1.00  0.00     0.059 C 
ENDROOT
BRANCH   1   2
ATOM      2  C   UNL     1      13.039  -0.262  26.185  1.00  0.00     0.042 C 
ATOM      3  O   UNL     1      12.869  -1.508  26.260  1.00  0.00    -0.550 OA
ATOM      4  O   UNL     1      11.962   0.562  25.886  1.00  0.00    -0.550 OA
ENDBRANCH   1   2
BRANCH   1   5
ATOM      5  C   UNL     1      14.344   1.294  27.654  1.00  0.00     0.059 C 
BRANCH   5   6
ATOM      6  C   UNL     1      13.799   0.627  28.881  1.00  0.00     0.042 C 
ATOM      7  O   UNL     1      12.820   1.129  29.493  1.00  0.00    -0.550 OA
ATOM      8  O   UNL     1      14.397  -0.528  29.369  1.00  0.00    -0.550 OA
ENDBRANCH   5   6
ENDBRANCH   1   5
TORSDOF 3
ENDMDL
MODEL 5
REMARK VINA RESULT:    -3.817      2.100      3.024
REMARK INTER + INTRA:          -4.606
REMARK INTER:                  -4.447
REMARK INTRA:                  -0.158
REMARK UNBOUND:                -0.119
REMARK SMILES O=C([O-])CCC(=O)[O-]
REMARK SMILES IDX 4 1 2 2 1 3 3 4 5 5 6 6 7 7 8 8
REMARK H PARENT
REMARK Flexibility Score: inf
ROOT
ATOM      1  C   UNL     1      14.435   1.400  27.428  1.00  0.00     0.059 C 
ENDROOT
BRANCH   1   2
ATOM      2  C   UNL     1      14.719   1.738  25.996  1.00  0.00     0.042 C 
ATOM      3  O   UNL     1      15.907   1.846  25.593  1.00  0.00    -0.550 OA
ATOM      4  O   UNL     1      13.671   1.894  25.098  1.00  0.00    -0.550 OA
ENDBRANCH   1   2
BRANCH   1   5
ATOM      5  C   UNL     1      13.311   0.367  27.552  1.00  0.00     0.059 C 
BRANCH   5   6
ATOM      6  C   UNL     1      13.746  -0.983  27.068  1.00  0.00     0.042 C 
ATOM      7  O   UNL     1      13.106  -1.565  26.152  1.00  0.00    -0.550 OA
ATOM      8  O   UNL     1      14.835  -1.615  27.655  1.00  0.00    -0.550 OA
ENDBRANCH   5   6
ENDBRANCH   1   5
TORSDOF 3
ENDMDL
MODEL 6
REMARK VINA RESULT:    -3.802      2.120      3.250
REMARK INTER + INTRA:          -4.587
REMARK INTER:                  -4.439
REMARK INTRA:                  -0.148
REMARK UNBOUND:                -0.119
REMARK SMILES O=C([O-])CCC(=O)[O-]
REMARK SMILES IDX 4 1 2 2 1 3 3 4 5 5 6 6 7 7 8 8
REMARK H PARENT
REMARK Flexibility Score: inf
ROOT
ATOM      1  C   UNL     1      13.320   0.331  27.579  1.00  0.00     0.059 C 
ENDROOT
BRANCH   1   2
ATOM      2  C   UNL     1      13.709  -1.000  27.011  1.00  0.00     0.042 C 
ATOM      3  O   UNL     1      13.007  -1.536  26.113  1.00  0.00    -0.550 OA
ATOM      4  O   UNL     1      14.869  -1.629  27.444  1.00  0.00    -0.550 OA
ENDBRANCH   1   2
BRANCH   1   5
ATOM      5  C   UNL     1      14.466   1.343  27.482  1.00  0.00     0.059 C 
BRANCH   5   6
ATOM      6  C   UNL     1      14.696   1.781  26.067  1.00  0.00     0.042 C 
ATOM      7  O   UNL     1      13.718   2.031  25.314  1.00  0.00    -0.550 OA
ATOM      8  O   UNL     1      15.989   1.876  25.569  1.00  0.00    -0.550 OA
ENDBRANCH   5   6
ENDBRANCH   1   5
TORSDOF 3
ENDMDL
MODEL 7
REMARK VINA RESULT:    -3.747      1.749      1.915
REMARK INTER + INTRA:          -4.523
REMARK INTER:                  -4.363
REMARK INTRA:                  -0.160
REMARK UNBOUND:                -0.119
REMARK SMILES O=C([O-])CCC(=O)[O-]
REMARK SMILES IDX 4 1 2 2 1 3 3 4 5 5 6 6 7 7 8 8
REMARK H PARENT
REMARK Flexibility Score: inf
ROOT
ATOM      1  C   UNL     1      12.533  -1.053  26.251  1.00  0.00     0.059 C 
ENDROOT
BRANCH   1   2
ATOM      2  C   UNL     1      11.665   0.082  25.797  1.00  0.00     0.042 C 
ATOM      3  O   UNL     1      10.517   0.238  26.289  1.00  0.00    -0.550 OA
ATOM      4  O   UNL     1      12.142   0.990  24.861  1.00  0.00    -0.550 OA
ENDBRANCH   1   2
BRANCH   1   5
ATOM      5  C   UNL     1      13.950  -0.578  26.589  1.00  0.00     0.059 C 
BRANCH   5   6
ATOM      6  C   UNL     1      13.947   0.412  27.714  1.00  0.00     0.042 C 
ATOM      7  O   UNL     1      14.517   1.527  27.578  1.00  0.00    -0.550 OA
ATOM      8  O   UNL     1      13.351   0.087  28.926  1.00  0.00    -0.550 OA
ENDBRANCH   5   6
ENDBRANCH   1   5
TORSDOF 3
ENDMDL
MODEL 8
REMARK VINA RESULT:    -3.733      1.639      2.187
REMARK INTER + INTRA:          -4.506
REMARK INTER:                  -4.373
REMARK INTRA:                  -0.133
REMARK UNBOUND:                -0.119
REMARK SMILES O=C([O-])CCC(=O)[O-]
REMARK SMILES IDX 4 1 2 2 1 3 3 4 5 5 6 6 7 7 8 8
REMARK H PARENT
REMARK Flexibility Score: inf
ROOT
ATOM      1  C   UNL     1      12.930  -0.160  26.886  1.00  0.00     0.059 C 
ENDROOT
BRANCH   1   2
ATOM      2  C   UNL     1      13.693   0.991  26.305  1.00  0.00     0.042 C 
ATOM      3  O   UNL     1      13.354   1.482  25.196  1.00  0.00    -0.550 OA
ATOM      4  O   UNL     1      14.755   1.547  27.007  1.00  0.00    -0.550 OA
ENDBRANCH   1   2
BRANCH   1   5
ATOM      5  C   UNL     1      13.439  -1.503  26.351  1.00  0.00     0.059 C 
BRANCH   5   6
ATOM      6  C   UNL     1      14.712  -1.919  27.024  1.00  0.00     0.042 C 
ATOM      7  O   UNL     1      14.835  -1.801  28.272  1.00  0.00    -0.550 OA
ATOM      8  O   UNL     1      15.774  -2.398  26.269  1.00  0.00    -0.550 OA
ENDBRANCH   5   6
ENDBRANCH   1   5
TORSDOF 3
ENDMDL
MODEL 9
REMARK VINA RESULT:    -3.732      1.593      3.702
REMARK INTER + INTRA:          -4.505
REMARK INTER:                  -4.363
REMARK INTRA:                  -0.142
REMARK UNBOUND:                -0.119
REMARK SMILES O=C([O-])CCC(=O)[O-]
REMARK SMILES IDX 4 1 2 2 1 3 3 4 5 5 6 6 7 7 8 8
REMARK H PARENT
REMARK Flexibility Score: inf
ROOT
ATOM      1  C   UNL     1      13.354  -1.505  26.333  1.00  0.00     0.059 C 
ENDROOT
BRANCH   1   2
ATOM      2  C   UNL     1      14.666  -1.886  26.951  1.00  0.00     0.042 C 
ATOM      3  O   UNL     1      15.604  -2.319  26.231  1.00  0.00    -0.550 OA
ATOM      4  O   UNL     1      14.864  -1.723  28.316  1.00  0.00    -0.550 OA
ENDBRANCH   1   2
BRANCH   1   5
ATOM      5  C   UNL     1      12.832  -0.177  26.892  1.00  0.00     0.059 C 
BRANCH   5   6
ATOM      6  C   UNL     1      13.568   0.993  26.313  1.00  0.00     0.042 C 
ATOM      7  O   UNL     1      13.263   1.432  25.173  1.00  0.00    -0.550 OA
ATOM      8  O   UNL     1      14.618   1.571  27.015  1.00  0.00    -0.550 OA
ENDBRANCH   5   6
ENDBRANCH   1   5
TORSDOF 3
ENDMDL
