MODEL 1
REMARK VINA RESULT:    15.791      0.000      0.000
REMARK INTER + INTRA:          19.399
REMARK INTER:                  19.945
REMARK INTRA:                  -0.546
REMARK UNBOUND:                -0.546
REMARK SMILES O=C(C=Cc1ccc(O)cc1)c1ccc(O)cc1O
REMARK SMILES IDX 4 1 3 2 5 3 6 4 7 5 8 6 11 7 10 8 9 9 2 11 1 12 12 13 18 14
REMARK SMILES IDX 13 15 17 16 14 17 15 18 19 19 16 21
REMARK H PARENT 9 10 19 20 16 22
REMARK Flexibility Score: inf
ROOT
ATOM      1  C   UNL     1      -2.669  25.607  39.247  1.00  0.00     0.012 C 
ATOM      2  C   UNL     1      -2.902  24.428  38.651  1.00  0.00     0.053 C 
ENDROOT
BRANCH   1   3
ATOM      3  C   UNL     1      -1.896  26.710  38.626  1.00  0.00    -0.025 A 
ATOM      4  C   UNL     1      -0.803  27.242  39.330  1.00  0.00     0.012 A 
ATOM      5  C   UNL     1      -0.038  28.276  38.782  1.00  0.00     0.047 A 
ATOM      6  C   UNL     1      -0.350  28.787  37.515  1.00  0.00     0.115 A 
ATOM      7  C   UNL     1      -2.194  27.220  37.346  1.00  0.00     0.012 A 
ATOM      8  C   UNL     1      -1.426  28.255  36.800  1.00  0.00     0.047 A 
BRANCH   6   9
ATOM      9  O   UNL     1       0.403  29.818  36.959  1.00  0.00    -0.508 OA
ATOM     10  H   UNL     1      -0.029  30.680  36.646  1.00  0.00     0.293 HD
ENDBRANCH   6   9
ENDBRANCH   1   3
BRANCH   2  11
ATOM     11  C   UNL     1      -3.676  23.345  39.294  1.00  0.00     0.189 C 
ATOM     12  O   UNL     1      -4.407  22.622  38.567  1.00  0.00    -0.289 OA
BRANCH  11  13
ATOM     13  C   UNL     1      -3.624  23.070  40.748  1.00  0.00     0.064 A 
ATOM     14  C   UNL     1      -2.647  22.218  41.303  1.00  0.00     0.130 A 
ATOM     15  C   UNL     1      -4.543  23.707  41.599  1.00  0.00     0.020 A 
ATOM     16  C   UNL     1      -2.630  21.981  42.686  1.00  0.00     0.093 A 
ATOM     17  C   UNL     1      -4.517  23.469  42.975  1.00  0.00     0.047 A 
ATOM     18  C   UNL     1      -3.563  22.603  43.522  1.00  0.00     0.119 A 
BRANCH  14  19
ATOM     19  O   UNL     1      -1.685  21.623  40.486  1.00  0.00    -0.507 OA
ATOM     20  H   UNL     1      -0.854  21.189  40.872  1.00  0.00     0.293 HD
ENDBRANCH  14  19
BRANCH  18  21
ATOM     21  O   UNL     1      -3.529  22.356  44.892  1.00  0.00    -0.508 OA
ATOM     22  H   UNL     1      -2.656  22.202  45.381  1.00  0.00     0.293 HD
ENDBRANCH  18  21
ENDBRANCH  11  13
ENDBRANCH   2  11
TORSDOF 6
ENDMDL
MODEL 2
REMARK VINA RESULT:    15.950      0.790      1.551
REMARK INTER + INTRA:          19.599
REMARK INTER:                  20.310
REMARK INTRA:                  -0.711
REMARK UNBOUND:                -0.546
REMARK SMILES O=C(C=Cc1ccc(O)cc1)c1ccc(O)cc1O
REMARK SMILES IDX 4 1 3 2 5 3 6 4 7 5 8 6 11 7 10 8 9 9 2 11 1 12 12 13 18 14
REMARK SMILES IDX 13 15 17 16 14 17 15 18 19 19 16 21
REMARK H PARENT 9 10 19 20 16 22
REMARK Flexibility Score: inf
ROOT
ATOM      1  C   UNL     1      -2.685  25.500  39.203  1.00  0.00     0.012 C 
ATOM      2  C   UNL     1      -2.797  24.286  38.643  1.00  0.00     0.053 C 
ENDROOT
BRANCH   1   3
ATOM      3  C   UNL     1      -1.929  26.624  38.596  1.00  0.00    -0.025 A 
ATOM      4  C   UNL     1      -0.800  27.114  39.273  1.00  0.00     0.012 A 
ATOM      5  C   UNL     1      -0.051  28.166  38.737  1.00  0.00     0.047 A 
ATOM      6  C   UNL     1      -0.414  28.736  37.511  1.00  0.00     0.115 A 
ATOM      7  C   UNL     1      -2.279  27.193  37.356  1.00  0.00     0.012 A 
ATOM      8  C   UNL     1      -1.527  28.245  36.822  1.00  0.00     0.047 A 
BRANCH   6   9
ATOM      9  O   UNL     1       0.323  29.785  36.968  1.00  0.00    -0.508 OA
ATOM     10  H   UNL     1       1.320  29.874  37.134  1.00  0.00     0.293 HD
ENDBRANCH   6   9
ENDBRANCH   1   3
BRANCH   2  11
ATOM     11  C   UNL     1      -3.556  23.183  39.270  1.00  0.00     0.189 C 
ATOM     12  O   UNL     1      -4.231  22.425  38.524  1.00  0.00    -0.289 OA
BRANCH  11  13
ATOM     13  C   UNL     1      -3.552  22.928  40.729  1.00  0.00     0.064 A 
ATOM     14  C   UNL     1      -4.656  23.265  41.539  1.00  0.00     0.130 A 
ATOM     15  C   UNL     1      -2.440  22.297  41.311  1.00  0.00     0.020 A 
ATOM     16  C   UNL     1      -4.615  23.009  42.918  1.00  0.00     0.093 A 
ATOM     17  C   UNL     1      -2.409  22.042  42.684  1.00  0.00     0.047 A 
ATOM     18  C   UNL     1      -3.495  22.400  43.491  1.00  0.00     0.119 A 
BRANCH  14  19
ATOM     19  O   UNL     1      -5.797  23.835  40.974  1.00  0.00    -0.507 OA
ATOM     20  H   UNL     1      -5.745  24.655  40.380  1.00  0.00     0.293 HD
ENDBRANCH  14  19
BRANCH  18  21
ATOM     21  O   UNL     1      -3.474  22.153  44.862  1.00  0.00    -0.508 OA
ATOM     22  H   UNL     1      -2.604  22.124  45.381  1.00  0.00     0.293 HD
ENDBRANCH  18  21
ENDBRANCH  11  13
ENDBRANCH   2  11
TORSDOF 6
ENDMDL
MODEL 3
REMARK VINA RESULT:    17.133      1.764      3.186
REMARK INTER + INTRA:          21.094
REMARK INTER:                  21.560
REMARK INTRA:                  -0.466
REMARK UNBOUND:                -0.546
REMARK SMILES O=C(C=Cc1ccc(O)cc1)c1ccc(O)cc1O
REMARK SMILES IDX 4 1 3 2 5 3 6 4 7 5 8 6 11 7 10 8 9 9 2 11 1 12 12 13 18 14
REMARK SMILES IDX 13 15 17 16 14 17 15 18 19 19 16 21
REMARK H PARENT 9 10 19 20 16 22
REMARK Flexibility Score: inf
ROOT
ATOM      1  C   UNL     1      -2.748  25.689  38.929  1.00  0.00     0.012 C 
ATOM      2  C   UNL     1      -2.767  25.204  40.179  1.00  0.00     0.053 C 
ENDROOT
BRANCH   1   3
ATOM      3  C   UNL     1      -1.893  26.821  38.494  1.00  0.00    -0.025 A 
ATOM      4  C   UNL     1      -0.934  27.320  39.391  1.00  0.00     0.012 A 
ATOM      5  C   UNL     1      -0.100  28.380  39.025  1.00  0.00     0.047 A 
ATOM      6  C   UNL     1      -0.205  28.950  37.750  1.00  0.00     0.115 A 
ATOM      7  C   UNL     1      -1.983  27.391  37.208  1.00  0.00     0.012 A 
ATOM      8  C   UNL     1      -1.146  28.452  36.844  1.00  0.00     0.047 A 
BRANCH   6   9
ATOM      9  O   UNL     1       0.620  30.007  37.373  1.00  0.00    -0.508 OA
ATOM     10  H   UNL     1       1.392  29.874  36.729  1.00  0.00     0.293 HD
ENDBRANCH   6   9
ENDBRANCH   1   3
BRANCH   2  11
ATOM     11  C   UNL     1      -3.630  24.074  40.587  1.00  0.00     0.189 C 
ATOM     12  O   UNL     1      -3.908  23.946  41.808  1.00  0.00    -0.289 OA
BRANCH  11  13
ATOM     13  C   UNL     1      -4.184  23.094  39.624  1.00  0.00     0.064 A 
ATOM     14  C   UNL     1      -3.351  22.190  38.931  1.00  0.00     0.130 A 
ATOM     15  C   UNL     1      -5.574  23.036  39.428  1.00  0.00     0.020 A 
ATOM     16  C   UNL     1      -3.913  21.277  38.026  1.00  0.00     0.093 A 
ATOM     17  C   UNL     1      -6.125  22.121  38.528  1.00  0.00     0.047 A 
ATOM     18  C   UNL     1      -5.296  21.241  37.823  1.00  0.00     0.119 A 
BRANCH  14  19
ATOM     19  O   UNL     1      -1.974  22.186  39.156  1.00  0.00    -0.507 OA
ATOM     20  H   UNL     1      -1.562  21.670  39.924  1.00  0.00     0.293 HD
ENDBRANCH  14  19
BRANCH  18  21
ATOM     21  O   UNL     1      -5.834  20.327  36.920  1.00  0.00    -0.508 OA
ATOM     22  H   UNL     1      -6.143  19.409  37.218  1.00  0.00     0.293 HD
ENDBRANCH  18  21
ENDBRANCH  11  13
ENDBRANCH   2  11
TORSDOF 6
ENDMDL
