MODEL 1
REMARK VINA RESULT:    -3.162      0.000      0.000
REMARK INTER + INTRA:          -5.255
REMARK INTER:                  -4.271
REMARK INTRA:                  -0.984
REMARK UNBOUND:                -0.984
REMARK SMILES O=C[C@H](O)[C@@H](O)[C@@H](O)CO
REMARK SMILES IDX 7 1 9 2 10 3 5 5 3 6 2 7 1 8 4 9 6 11 8 13
REMARK H PARENT 10 4 4 10 6 12 8 14
REMARK Flexibility Score: inf
ROOT
ATOM      1  C   UNL     1      -8.385   6.526   7.410  1.00  0.00     0.171 C 
ENDROOT
BRANCH   1   2
ATOM      2  C   UNL     1      -9.848   6.043   7.504  1.00  0.00     0.190 C 
BRANCH   2   3
ATOM      3  O   UNL     1      -9.967   5.050   8.487  1.00  0.00    -0.394 OA
ATOM      4  H   UNL     1     -10.911   5.058   8.793  1.00  0.00     0.210 HD
ENDBRANCH   2   3
ENDBRANCH   1   2
BRANCH   1   5
ATOM      5  C   UNL     1      -7.350   5.416   7.075  1.00  0.00     0.181 C 
BRANCH   5   6
ATOM      6  C   UNL     1      -6.595   4.860   8.312  1.00  0.00     0.209 C 
BRANCH   6   7
ATOM      7  C   UNL     1      -6.844   3.384   8.468  1.00  0.00     0.258 C 
ATOM      8  O   UNL     1      -7.929   2.971   8.845  1.00  0.00    -0.300 OA
ENDBRANCH   6   7
BRANCH   6   9
ATOM      9  O   UNL     1      -6.990   5.526   9.484  1.00  0.00    -0.383 OA
ATOM     10  H   UNL     1      -7.954   5.741   9.383  1.00  0.00     0.211 HD
ENDBRANCH   6   9
ENDBRANCH   5   6
BRANCH   5  11
ATOM     11  O   UNL     1      -7.916   4.388   6.295  1.00  0.00    -0.387 OA
ATOM     12  H   UNL     1      -8.896   4.392   6.441  1.00  0.00     0.211 HD
ENDBRANCH   5  11
ENDBRANCH   1   5
BRANCH   1  13
ATOM     13  O   UNL     1      -8.276   7.579   6.483  1.00  0.00    -0.388 OA
ATOM     14  H   UNL     1      -9.158   7.679   6.039  1.00  0.00     0.211 HD
ENDBRANCH   1  13
TORSDOF 8
ENDMDL
MODEL 2
REMARK VINA RESULT:    -3.151      1.557      3.587
REMARK INTER + INTRA:          -5.239
REMARK INTER:                  -4.635
REMARK INTRA:                  -0.605
REMARK UNBOUND:                -0.984
REMARK SMILES O=C[C@H](O)[C@@H](O)[C@@H](O)CO
REMARK SMILES IDX 7 1 9 2 10 3 5 5 3 6 2 7 1 8 4 9 6 11 8 13
REMARK H PARENT 10 4 4 10 6 12 8 14
REMARK Flexibility Score: inf
ROOT
ATOM      1  C   UNL     1      -8.145   3.959   7.675  1.00  0.00     0.171 C 
ENDROOT
BRANCH   1   2
ATOM      2  C   UNL     1      -6.917   3.615   8.544  1.00  0.00     0.190 C 
BRANCH   2   3
ATOM      3  O   UNL     1      -5.774   4.252   8.039  1.00  0.00    -0.394 OA
ATOM      4  H   UNL     1      -6.008   4.591   7.136  1.00  0.00     0.210 HD
ENDBRANCH   2   3
ENDBRANCH   1   2
BRANCH   1   5
ATOM      5  C   UNL     1      -9.003   5.146   8.197  1.00  0.00     0.181 C 
BRANCH   5   6
ATOM      6  C   UNL     1      -8.185   6.424   8.521  1.00  0.00     0.209 C 
BRANCH   6   7
ATOM      7  C   UNL     1      -9.100   7.576   8.839  1.00  0.00     0.258 C 
ATOM      8  O   UNL     1      -9.551   8.279   7.948  1.00  0.00    -0.300 OA
ENDBRANCH   6   7
BRANCH   6   9
ATOM      9  O   UNL     1      -7.351   6.775   7.446  1.00  0.00    -0.383 OA
ATOM     10  H   UNL     1      -7.714   7.615   7.062  1.00  0.00     0.211 HD
ENDBRANCH   6   9
ENDBRANCH   5   6
BRANCH   5  11
ATOM     11  O   UNL     1     -10.096   5.417   7.350  1.00  0.00    -0.387 OA
ATOM     12  H   UNL     1     -10.921   5.422   7.900  1.00  0.00     0.211 HD
ENDBRANCH   5  11
ENDBRANCH   1   5
BRANCH   1  13
ATOM     13  O   UNL     1      -7.754   4.198   6.346  1.00  0.00    -0.388 OA
ATOM     14  H   UNL     1      -7.231   3.412   6.041  1.00  0.00     0.211 HD
ENDBRANCH   1  13
TORSDOF 8
ENDMDL
MODEL 3
REMARK VINA RESULT:    -3.061      1.441      3.327
REMARK INTER + INTRA:          -5.118
REMARK INTER:                  -4.215
REMARK INTRA:                  -0.904
REMARK UNBOUND:                -0.984
REMARK SMILES O=C[C@H](O)[C@@H](O)[C@@H](O)CO
REMARK SMILES IDX 7 1 9 2 10 3 5 5 3 6 2 7 1 8 4 9 6 11 8 13
REMARK H PARENT 10 4 4 10 6 12 8 14
REMARK Flexibility Score: inf
ROOT
ATOM      1  C   UNL     1      -6.815   4.741   8.237  1.00  0.00     0.171 C 
ENDROOT
BRANCH   1   2
ATOM      2  C   UNL     1      -6.988   3.746   7.070  1.00  0.00     0.190 C 
BRANCH   2   3
ATOM      3  O   UNL     1      -8.026   4.167   6.226  1.00  0.00    -0.394 OA
ATOM      4  H   UNL     1      -7.937   5.150   6.127  1.00  0.00     0.210 HD
ENDBRANCH   2   3
ENDBRANCH   1   2
BRANCH   1   5
ATOM      5  C   UNL     1      -8.021   4.816   9.216  1.00  0.00     0.181 C 
BRANCH   5   6
ATOM      6  C   UNL     1      -8.741   6.191   9.228  1.00  0.00     0.209 C 
BRANCH   6   7
ATOM      7  C   UNL     1     -10.063   6.106   8.514  1.00  0.00     0.258 C 
ATOM      8  O   UNL     1     -10.123   5.731   7.354  1.00  0.00    -0.300 OA
ENDBRANCH   6   7
BRANCH   6   9
ATOM      9  O   UNL     1      -7.948   7.181   8.623  1.00  0.00    -0.383 OA
ATOM     10  H   UNL     1      -8.218   7.223   7.668  1.00  0.00     0.211 HD
ENDBRANCH   6   9
ENDBRANCH   5   6
BRANCH   5  11
ATOM     11  O   UNL     1      -8.921   3.750   9.024  1.00  0.00    -0.387 OA
ATOM     12  H   UNL     1      -8.755   3.073   9.729  1.00  0.00     0.211 HD
ENDBRANCH   5  11
ENDBRANCH   1   5
BRANCH   1  13
ATOM     13  O   UNL     1      -5.636   4.458   8.950  1.00  0.00    -0.388 OA
ATOM     14  H   UNL     1      -4.870   4.745   8.388  1.00  0.00     0.211 HD
ENDBRANCH   1  13
TORSDOF 8
ENDMDL
MODEL 4
REMARK VINA RESULT:    -3.001      1.568      2.370
REMARK INTER + INTRA:          -5.038
REMARK INTER:                  -4.474
REMARK INTRA:                  -0.563
REMARK UNBOUND:                -0.984
REMARK SMILES O=C[C@H](O)[C@@H](O)[C@@H](O)CO
REMARK SMILES IDX 7 1 9 2 10 3 5 5 3 6 2 7 1 8 4 9 6 11 8 13
REMARK H PARENT 10 4 4 10 6 12 8 14
REMARK Flexibility Score: inf
ROOT
ATOM      1  C   UNL     1      -8.816   6.927   8.527  1.00  0.00     0.171 C 
ENDROOT
BRANCH   1   2
ATOM      2  C   UNL     1      -9.376   7.497   7.207  1.00  0.00     0.190 C 
BRANCH   2   3
ATOM      3  O   UNL     1      -8.327   7.811   6.331  1.00  0.00    -0.394 OA
ATOM      4  H   UNL     1      -8.701   7.786   5.412  1.00  0.00     0.210 HD
ENDBRANCH   2   3
ENDBRANCH   1   2
BRANCH   1   5
ATOM      5  C   UNL     1      -7.725   5.833   8.355  1.00  0.00     0.181 C 
BRANCH   5   6
ATOM      6  C   UNL     1      -8.228   4.542   7.656  1.00  0.00     0.209 C 
BRANCH   6   7
ATOM      7  C   UNL     1      -7.505   3.333   8.188  1.00  0.00     0.258 C 
ATOM      8  O   UNL     1      -6.289   3.328   8.288  1.00  0.00    -0.300 OA
ENDBRANCH   6   7
BRANCH   6   9
ATOM      9  O   UNL     1      -8.047   4.618   6.265  1.00  0.00    -0.383 OA
ATOM     10  H   UNL     1      -7.072   4.528   6.096  1.00  0.00     0.211 HD
ENDBRANCH   6   9
ENDBRANCH   5   6
BRANCH   5  11
ATOM     11  O   UNL     1      -6.560   6.343   7.750  1.00  0.00    -0.387 OA
ATOM     12  H   UNL     1      -5.833   5.679   7.866  1.00  0.00     0.211 HD
ENDBRANCH   5  11
ENDBRANCH   1   5
BRANCH   1  13
ATOM     13  O   UNL     1      -8.330   7.965   9.341  1.00  0.00    -0.388 OA
ATOM     14  H   UNL     1      -9.113   8.415   9.753  1.00  0.00     0.211 HD
ENDBRANCH   1  13
TORSDOF 8
ENDMDL
MODEL 5
REMARK VINA RESULT:    -2.895      1.278      2.198
REMARK INTER + INTRA:          -4.894
REMARK INTER:                  -3.998
REMARK INTRA:                  -0.896
REMARK UNBOUND:                -0.984
REMARK SMILES O=C[C@H](O)[C@@H](O)[C@@H](O)CO
REMARK SMILES IDX 7 1 9 2 10 3 5 5 3 6 2 7 1 8 4 9 6 11 8 13
REMARK H PARENT 10 4 4 10 6 12 8 14
REMARK Flexibility Score: inf
ROOT
ATOM      1  C   UNL     1      -8.100   6.083   7.617  1.00  0.00     0.171 C 
ENDROOT
BRANCH   1   2
ATOM      2  C   UNL     1      -7.527   5.359   6.380  1.00  0.00     0.190 C 
BRANCH   2   3
ATOM      3  O   UNL     1      -7.826   3.991   6.440  1.00  0.00    -0.394 OA
ATOM      4  H   UNL     1      -8.615   3.893   7.033  1.00  0.00     0.210 HD
ENDBRANCH   2   3
ENDBRANCH   1   2
BRANCH   1   5
ATOM      5  C   UNL     1      -7.379   5.760   8.956  1.00  0.00     0.181 C 
BRANCH   5   6
ATOM      6  C   UNL     1      -8.276   5.042  10.000  1.00  0.00     0.209 C 
BRANCH   6   7
ATOM      7  C   UNL     1      -7.892   3.592  10.124  1.00  0.00     0.258 C 
ATOM      8  O   UNL     1      -7.902   2.858   9.149  1.00  0.00    -0.300 OA
ENDBRANCH   6   7
BRANCH   6   9
ATOM      9  O   UNL     1      -9.633   5.135   9.648  1.00  0.00    -0.383 OA
ATOM     10  H   UNL     1     -10.089   5.622  10.385  1.00  0.00     0.211 HD
ENDBRANCH   6   9
ENDBRANCH   5   6
BRANCH   5  11
ATOM     11  O   UNL     1      -6.163   5.080   8.747  1.00  0.00    -0.387 OA
ATOM     12  H   UNL     1      -6.244   4.173   9.137  1.00  0.00     0.211 HD
ENDBRANCH   5  11
ENDBRANCH   1   5
BRANCH   1  13
ATOM     13  O   UNL     1      -8.118   7.474   7.406  1.00  0.00    -0.388 OA
ATOM     14  H   UNL     1      -7.176   7.779   7.343  1.00  0.00     0.211 HD
ENDBRANCH   1  13
TORSDOF 8
ENDMDL
MODEL 6
REMARK VINA RESULT:    -2.887      1.353      2.454
REMARK INTER + INTRA:          -4.883
REMARK INTER:                  -4.399
REMARK INTRA:                  -0.484
REMARK UNBOUND:                -0.984
REMARK SMILES O=C[C@H](O)[C@@H](O)[C@@H](O)CO
REMARK SMILES IDX 7 1 9 2 10 3 5 5 3 6 2 7 1 8 4 9 6 11 8 13
REMARK H PARENT 10 4 4 10 6 12 8 14
REMARK Flexibility Score: inf
ROOT
ATOM      1  C   UNL     1      -7.362   5.706   7.140  1.00  0.00     0.171 C 
ENDROOT
BRANCH   1   2
ATOM      2  C   UNL     1      -8.614   6.609   7.139  1.00  0.00     0.190 C 
BRANCH   2   3
ATOM      3  O   UNL     1      -8.317   7.847   6.553  1.00  0.00    -0.394 OA
ATOM      4  H   UNL     1      -9.105   8.433   6.700  1.00  0.00     0.210 HD
ENDBRANCH   2   3
ENDBRANCH   1   2
BRANCH   1   5
ATOM      5  C   UNL     1      -7.137   4.901   8.451  1.00  0.00     0.181 C 
BRANCH   5   6
ATOM      6  C   UNL     1      -8.253   3.867   8.757  1.00  0.00     0.209 C 
BRANCH   6   7
ATOM      7  C   UNL     1      -7.988   3.171  10.065  1.00  0.00     0.258 C 
ATOM      8  O   UNL     1      -7.223   2.222  10.124  1.00  0.00    -0.300 OA
ENDBRANCH   6   7
BRANCH   6   9
ATOM      9  O   UNL     1      -8.350   2.911   7.732  1.00  0.00    -0.383 OA
ATOM     10  H   UNL     1      -9.070   3.216   7.120  1.00  0.00     0.211 HD
ENDBRANCH   6   9
ENDBRANCH   5   6
BRANCH   5  11
ATOM     11  O   UNL     1      -5.853   4.325   8.500  1.00  0.00    -0.387 OA
ATOM     12  H   UNL     1      -5.957   3.339   8.533  1.00  0.00     0.211 HD
ENDBRANCH   5  11
ENDBRANCH   1   5
BRANCH   1  13
ATOM     13  O   UNL     1      -7.388   4.831   6.039  1.00  0.00    -0.388 OA
ATOM     14  H   UNL     1      -8.304   4.857   5.657  1.00  0.00     0.211 HD
ENDBRANCH   1  13
TORSDOF 8
ENDMDL
MODEL 7
REMARK VINA RESULT:    -2.871     22.939     23.644
REMARK INTER + INTRA:          -4.861
REMARK INTER:                  -4.362
REMARK INTRA:                  -0.500
REMARK UNBOUND:                -0.984
REMARK SMILES O=C[C@H](O)[C@@H](O)[C@@H](O)CO
REMARK SMILES IDX 7 1 9 2 10 3 5 5 3 6 2 7 1 8 4 9 6 11 8 13
REMARK H PARENT 10 4 4 10 6 12 8 14
REMARK Flexibility Score: inf
ROOT
ATOM      1  C   UNL     1       7.299  -5.021  -7.953  1.00  0.00     0.171 C 
ENDROOT
BRANCH   1   2
ATOM      2  C   UNL     1       7.441  -3.488  -7.849  1.00  0.00     0.190 C 
BRANCH   2   3
ATOM      3  O   UNL     1       6.176  -2.891  -7.744  1.00  0.00    -0.394 OA
ATOM      4  H   UNL     1       5.948  -2.866  -6.779  1.00  0.00     0.210 HD
ENDBRANCH   2   3
ENDBRANCH   1   2
BRANCH   1   5
ATOM      5  C   UNL     1       6.996  -5.742  -6.609  1.00  0.00     0.181 C 
BRANCH   5   6
ATOM      6  C   UNL     1       8.194  -6.548  -6.039  1.00  0.00     0.209 C 
BRANCH   6   7
ATOM      7  C   UNL     1       7.711  -7.749  -5.272  1.00  0.00     0.258 C 
ATOM      8  O   UNL     1       6.547  -7.833  -4.914  1.00  0.00    -0.300 OA
ENDBRANCH   6   7
BRANCH   6   9
ATOM      9  O   UNL     1       8.987  -5.747  -5.200  1.00  0.00    -0.383 OA
ATOM     10  H   UNL     1       8.481  -5.627  -4.354  1.00  0.00     0.211 HD
ENDBRANCH   6   9
ENDBRANCH   5   6
BRANCH   5  11
ATOM     11  O   UNL     1       6.447  -4.864  -5.654  1.00  0.00    -0.387 OA
ATOM     12  H   UNL     1       7.162  -4.247  -5.353  1.00  0.00     0.211 HD
ENDBRANCH   5  11
ENDBRANCH   1   5
BRANCH   1  13
ATOM     13  O   UNL     1       6.324  -5.359  -8.908  1.00  0.00    -0.388 OA
ATOM     14  H   UNL     1       6.781  -5.841  -9.646  1.00  0.00     0.211 HD
ENDBRANCH   1  13
TORSDOF 8
ENDMDL
MODEL 8
REMARK VINA RESULT:    -2.809     22.921     23.824
REMARK INTER + INTRA:          -4.777
REMARK INTER:                  -4.282
REMARK INTRA:                  -0.495
REMARK UNBOUND:                -0.984
REMARK SMILES O=C[C@H](O)[C@@H](O)[C@@H](O)CO
REMARK SMILES IDX 7 1 9 2 10 3 5 5 3 6 2 7 1 8 4 9 6 11 8 13
REMARK H PARENT 10 4 4 10 6 12 8 14
REMARK Flexibility Score: inf
ROOT
ATOM      1  C   UNL     1       7.954  -4.341  -7.707  1.00  0.00     0.171 C 
ENDROOT
BRANCH   1   2
ATOM      2  C   UNL     1       7.078  -5.426  -7.045  1.00  0.00     0.190 C 
BRANCH   2   3
ATOM      3  O   UNL     1       6.769  -5.061  -5.727  1.00  0.00    -0.394 OA
ATOM      4  H   UNL     1       5.792  -4.887  -5.696  1.00  0.00     0.210 HD
ENDBRANCH   2   3
ENDBRANCH   1   2
BRANCH   1   5
ATOM      5  C   UNL     1       7.200  -3.037  -8.092  1.00  0.00     0.181 C 
BRANCH   5   6
ATOM      6  C   UNL     1       6.887  -2.911  -9.607  1.00  0.00     0.209 C 
BRANCH   6   7
ATOM      7  C   UNL     1       6.908  -1.469 -10.037  1.00  0.00     0.258 C 
ATOM      8  O   UNL     1       6.728  -0.574  -9.226  1.00  0.00    -0.300 OA
ENDBRANCH   6   7
BRANCH   6   9
ATOM      9  O   UNL     1       5.634  -3.470  -9.911  1.00  0.00    -0.383 OA
ATOM     10  H   UNL     1       5.776  -4.105 -10.661  1.00  0.00     0.211 HD
ENDBRANCH   6   9
ENDBRANCH   5   6
BRANCH   5  11
ATOM     11  O   UNL     1       6.055  -2.838  -7.297  1.00  0.00    -0.387 OA
ATOM     12  H   UNL     1       5.300  -2.602  -7.894  1.00  0.00     0.211 HD
ENDBRANCH   5  11
ENDBRANCH   1   5
BRANCH   1  13
ATOM     13  O   UNL     1       9.055  -4.034  -6.888  1.00  0.00    -0.388 OA
ATOM     14  H   UNL     1       9.091  -3.047  -6.790  1.00  0.00     0.211 HD
ENDBRANCH   1  13
TORSDOF 8
ENDMDL
MODEL 9
REMARK VINA RESULT:    -2.728     23.006     24.128
REMARK INTER + INTRA:          -4.668
REMARK INTER:                  -4.160
REMARK INTRA:                  -0.508
REMARK UNBOUND:                -0.984
REMARK SMILES O=C[C@H](O)[C@@H](O)[C@@H](O)CO
REMARK SMILES IDX 7 1 9 2 10 3 5 5 3 6 2 7 1 8 4 9 6 11 8 13
REMARK H PARENT 10 4 4 10 6 12 8 14
REMARK Flexibility Score: inf
ROOT
ATOM      1  C   UNL     1       7.470  -7.745  -5.714  1.00  0.00     0.171 C 
ENDROOT
BRANCH   1   2
ATOM      2  C   UNL     1       7.006  -8.582  -6.925  1.00  0.00     0.190 C 
BRANCH   2   3
ATOM      3  O   UNL     1       5.684  -9.010  -6.739  1.00  0.00    -0.394 OA
ATOM      4  H   UNL     1       5.110  -8.431  -7.305  1.00  0.00     0.210 HD
ENDBRANCH   2   3
ENDBRANCH   1   2
BRANCH   1   5
ATOM      5  C   UNL     1       8.219  -6.431  -6.076  1.00  0.00     0.181 C 
BRANCH   5   6
ATOM      6  C   UNL     1       7.317  -5.345  -6.721  1.00  0.00     0.209 C 
BRANCH   6   7
ATOM      7  C   UNL     1       8.151  -4.315  -7.433  1.00  0.00     0.258 C 
ATOM      8  O   UNL     1       9.193  -3.909  -6.944  1.00  0.00    -0.300 OA
ENDBRANCH   6   7
BRANCH   6   9
ATOM      9  O   UNL     1       6.520  -4.712  -5.753  1.00  0.00    -0.383 OA
ATOM     10  H   UNL     1       7.035  -3.929  -5.423  1.00  0.00     0.211 HD
ENDBRANCH   6   9
ENDBRANCH   5   6
BRANCH   5  11
ATOM     11  O   UNL     1       8.955  -5.928  -4.985  1.00  0.00    -0.387 OA
ATOM     12  H   UNL     1       8.327  -5.767  -4.235  1.00  0.00     0.211 HD
ENDBRANCH   5  11
ENDBRANCH   1   5
BRANCH   1  13
ATOM     13  O   UNL     1       6.382  -7.459  -4.870  1.00  0.00    -0.388 OA
ATOM     14  H   UNL     1       6.121  -6.514  -5.026  1.00  0.00     0.211 HD
ENDBRANCH   1  13
TORSDOF 8
ENDMDL
