MODEL 1
REMARK VINA RESULT:    -4.255      0.000      0.000
REMARK INTER + INTRA:          -9.576
REMARK INTER:                  -7.737
REMARK INTRA:                  -1.840
REMARK UNBOUND:                -1.840
REMARK SMILES CCCCCCCCCCCCCCCC(=O)[O-]
REMARK SMILES IDX 9 1 10 2 11 3 12 4 13 5 14 6 15 7 16 8 17 9 18 10 8 11 7 12
REMARK SMILES IDX 6 13 5 14 4 15 3 16 2 17 1 18
REMARK H PARENT
REMARK Flexibility Score: inf
ROOT
ATOM      1  C   UNL     1      -1.782  16.608  46.641  1.00  0.00     0.000 C 
ENDROOT
BRANCH   1   2
ATOM      2  C   UNL     1      -0.661  16.939  45.633  1.00  0.00     0.000 C 
BRANCH   2   3
ATOM      3  C   UNL     1       0.732  16.908  46.285  1.00  0.00     0.000 C 
BRANCH   3   4
ATOM      4  C   UNL     1       1.729  16.034  45.509  1.00  0.00     0.000 C 
BRANCH   4   5
ATOM      5  C   UNL     1       3.185  16.287  45.929  1.00  0.00     0.000 C 
BRANCH   5   6
ATOM      6  C   UNL     1       3.274  17.441  46.932  1.00  0.00     0.006 C 
BRANCH   6   7
ATOM      7  C   UNL     1       4.016  17.010  48.201  1.00  0.00     0.053 C 
BRANCH   7   8
ATOM      8  C   UNL     1       5.125  17.967  48.510  1.00  0.00     0.041 C 
ATOM      9  O   UNL     1       4.865  19.151  48.849  1.00  0.00    -0.550 OA
ATOM     10  O   UNL     1       6.445  17.535  48.472  1.00  0.00    -0.550 OA
ENDBRANCH   7   8
ENDBRANCH   6   7
ENDBRANCH   5   6
ENDBRANCH   4   5
ENDBRANCH   3   4
ENDBRANCH   2   3
ENDBRANCH   1   2
BRANCH   1  11
ATOM     11  C   UNL     1      -1.263  16.055  47.980  1.00  0.00     0.000 C 
BRANCH  11  12
ATOM     12  C   UNL     1      -1.759  16.860  49.191  1.00  0.00    -0.000 C 
BRANCH  12  13
ATOM     13  C   UNL     1      -2.865  17.863  48.820  1.00  0.00    -0.000 C 
BRANCH  13  14
ATOM     14  C   UNL     1      -2.483  19.315  49.149  1.00  0.00    -0.000 C 
BRANCH  14  15
ATOM     15  C   UNL     1      -0.987  19.425  49.481  1.00  0.00    -0.000 C 
BRANCH  15  16
ATOM     16  C   UNL     1      -0.176  20.118  48.372  1.00  0.00    -0.000 C 
BRANCH  16  17
ATOM     17  C   UNL     1      -0.996  21.040  47.452  1.00  0.00    -0.003 C 
ATOM     18  C   UNL     1      -0.890  20.660  45.976  1.00  0.00     0.004 C 
ENDBRANCH  16  17
ENDBRANCH  15  16
ENDBRANCH  14  15
ENDBRANCH  13  14
ENDBRANCH  12  13
ENDBRANCH  11  12
ENDBRANCH   1  11
TORSDOF 14
ENDMDL
MODEL 2
REMARK VINA RESULT:    -4.237      1.463      2.492
REMARK INTER + INTRA:          -9.544
REMARK INTER:                  -8.161
REMARK INTRA:                  -1.383
REMARK UNBOUND:                -1.840
REMARK SMILES CCCCCCCCCCCCCCCC(=O)[O-]
REMARK SMILES IDX 9 1 10 2 11 3 12 4 13 5 14 6 15 7 16 8 17 9 18 10 8 11 7 12
REMARK SMILES IDX 6 13 5 14 4 15 3 16 2 17 1 18
REMARK H PARENT
REMARK Flexibility Score: inf
ROOT
ATOM      1  C   UNL     1       0.176  18.120  46.597  1.00  0.00     0.000 C 
ENDROOT
BRANCH   1   2
ATOM      2  C   UNL     1       1.608  18.037  47.168  1.00  0.00     0.000 C 
BRANCH   2   3
ATOM      3  C   UNL     1       2.244  16.656  46.936  1.00  0.00     0.000 C 
BRANCH   3   4
ATOM      4  C   UNL     1       3.244  16.654  45.770  1.00  0.00     0.000 C 
BRANCH   4   5
ATOM      5  C   UNL     1       4.699  16.794  46.243  1.00  0.00     0.000 C 
BRANCH   5   6
ATOM      6  C   UNL     1       4.868  16.253  47.667  1.00  0.00     0.006 C 
BRANCH   6   7
ATOM      7  C   UNL     1       5.467  17.318  48.591  1.00  0.00     0.053 C 
BRANCH   7   8
ATOM      8  C   UNL     1       6.818  17.736  48.103  1.00  0.00     0.041 C 
ATOM      9  O   UNL     1       7.707  16.872  47.883  1.00  0.00    -0.550 OA
ATOM     10  O   UNL     1       7.079  19.076  47.842  1.00  0.00    -0.550 OA
ENDBRANCH   7   8
ENDBRANCH   6   7
ENDBRANCH   5   6
ENDBRANCH   4   5
ENDBRANCH   3   4
ENDBRANCH   2   3
ENDBRANCH   1   2
BRANCH   1  11
ATOM     11  C   UNL     1      -0.380  16.765  46.127  1.00  0.00     0.000 C 
BRANCH  11  12
ATOM     12  C   UNL     1      -1.648  16.343  46.887  1.00  0.00    -0.000 C 
BRANCH  12  13
ATOM     13  C   UNL     1      -1.428  16.268  48.407  1.00  0.00    -0.000 C 
BRANCH  13  14
ATOM     14  C   UNL     1      -2.267  17.299  49.179  1.00  0.00    -0.000 C 
BRANCH  14  15
ATOM     15  C   UNL     1      -3.253  18.013  48.242  1.00  0.00    -0.000 C 
BRANCH  15  16
ATOM     16  C   UNL     1      -3.216  19.545  48.387  1.00  0.00    -0.000 C 
BRANCH  16  17
ATOM     17  C   UNL     1      -2.101  20.080  49.303  1.00  0.00    -0.003 C 
ATOM     18  C   UNL     1      -2.432  21.440  49.916  1.00  0.00     0.004 C 
ENDBRANCH  16  17
ENDBRANCH  15  16
ENDBRANCH  14  15
ENDBRANCH  13  14
ENDBRANCH  12  13
ENDBRANCH  11  12
ENDBRANCH   1  11
TORSDOF 14
ENDMDL
MODEL 3
REMARK VINA RESULT:    -4.215      5.007      7.997
REMARK INTER + INTRA:          -9.504
REMARK INTER:                  -8.061
REMARK INTRA:                  -1.442
REMARK UNBOUND:                -1.840
REMARK SMILES CCCCCCCCCCCCCCCC(=O)[O-]
REMARK SMILES IDX 9 1 10 2 11 3 12 4 13 5 14 6 15 7 16 8 17 9 18 10 8 11 7 12
REMARK SMILES IDX 6 13 5 14 4 15 3 16 2 17 1 18
REMARK H PARENT
REMARK Flexibility Score: inf
ROOT
ATOM      1  C   UNL     1      -0.558  20.378  49.472  1.00  0.00     0.000 C 
ENDROOT
BRANCH   1   2
ATOM      2  C   UNL     1      -0.353  21.900  49.627  1.00  0.00     0.000 C 
BRANCH   2   3
ATOM      3  C   UNL     1      -1.009  22.444  50.908  1.00  0.00     0.000 C 
BRANCH   3   4
ATOM      4  C   UNL     1      -2.543  22.448  50.831  1.00  0.00     0.000 C 
BRANCH   4   5
ATOM      5  C   UNL     1      -3.180  23.452  51.803  1.00  0.00     0.000 C 
BRANCH   5   6
ATOM      6  C   UNL     1      -2.322  24.716  51.925  1.00  0.00     0.006 C 
BRANCH   6   7
ATOM      7  C   UNL     1      -3.191  25.977  51.876  1.00  0.00     0.053 C 
BRANCH   7   8
ATOM      8  C   UNL     1      -3.911  26.066  50.567  1.00  0.00     0.041 C 
ATOM      9  O   UNL     1      -5.165  26.176  50.540  1.00  0.00    -0.550 OA
ATOM     10  O   UNL     1      -3.193  26.078  49.377  1.00  0.00    -0.550 OA
ENDBRANCH   7   8
ENDBRANCH   6   7
ENDBRANCH   5   6
ENDBRANCH   4   5
ENDBRANCH   3   4
ENDBRANCH   2   3
ENDBRANCH   1   2
BRANCH   1  11
ATOM     11  C   UNL     1      -1.428  19.992  48.264  1.00  0.00     0.000 C 
BRANCH  11  12
ATOM     12  C   UNL     1      -2.852  19.573  48.663  1.00  0.00    -0.000 C 
BRANCH  12  13
ATOM     13  C   UNL     1      -3.161  18.111  48.297  1.00  0.00    -0.000 C 
BRANCH  13  14
ATOM     14  C   UNL     1      -2.282  17.110  49.064  1.00  0.00    -0.000 C 
BRANCH  14  15
ATOM     15  C   UNL     1      -1.403  16.302  48.097  1.00  0.00    -0.000 C 
BRANCH  15  16
ATOM     16  C   UNL     1      -1.724  16.583  46.618  1.00  0.00    -0.000 C 
BRANCH  16  17
ATOM     17  C   UNL     1      -0.536  17.095  45.784  1.00  0.00    -0.003 C 
ATOM     18  C   UNL     1       0.689  17.433  46.633  1.00  0.00     0.004 C 
ENDBRANCH  16  17
ENDBRANCH  15  16
ENDBRANCH  14  15
ENDBRANCH  13  14
ENDBRANCH  12  13
ENDBRANCH  11  12
ENDBRANCH   1  11
TORSDOF 14
ENDMDL
MODEL 4
REMARK VINA RESULT:    -4.173      3.750      5.193
REMARK INTER + INTRA:          -9.429
REMARK INTER:                  -6.963
REMARK INTRA:                  -2.466
REMARK UNBOUND:                -1.840
REMARK SMILES CCCCCCCCCCCCCCCC(=O)[O-]
REMARK SMILES IDX 9 1 10 2 11 3 12 4 13 5 14 6 15 7 16 8 17 9 18 10 8 11 7 12
REMARK SMILES IDX 6 13 5 14 4 15 3 16 2 17 1 18
REMARK H PARENT
REMARK Flexibility Score: inf
ROOT
ATOM      1  C   UNL     1      -0.233  16.873  47.005  1.00  0.00     0.000 C 
ENDROOT
BRANCH   1   2
ATOM      2  C   UNL     1       0.594  17.903  47.804  1.00  0.00     0.000 C 
BRANCH   2   3
ATOM      3  C   UNL     1       0.579  19.294  47.146  1.00  0.00     0.000 C 
BRANCH   3   4
ATOM      4  C   UNL     1      -0.600  19.475  46.178  1.00  0.00     0.000 C 
BRANCH   4   5
ATOM      5  C   UNL     1      -0.989  20.950  45.994  1.00  0.00     0.000 C 
BRANCH   5   6
ATOM      6  C   UNL     1       0.142  21.877  46.452  1.00  0.00     0.006 C 
BRANCH   6   7
ATOM      7  C   UNL     1      -0.413  23.204  46.979  1.00  0.00     0.053 C 
BRANCH   7   8
ATOM      8  C   UNL     1      -1.130  23.941  45.892  1.00  0.00     0.041 C 
ATOM      9  O   UNL     1      -2.298  24.373  46.083  1.00  0.00    -0.550 OA
ATOM     10  O   UNL     1      -0.491  24.194  44.685  1.00  0.00    -0.550 OA
ENDBRANCH   7   8
ENDBRANCH   6   7
ENDBRANCH   5   6
ENDBRANCH   4   5
ENDBRANCH   3   4
ENDBRANCH   2   3
ENDBRANCH   1   2
BRANCH   1  11
ATOM     11  C   UNL     1      -1.224  16.074  47.870  1.00  0.00     0.000 C 
BRANCH  11  12
ATOM     12  C   UNL     1      -2.047  16.966  48.813  1.00  0.00    -0.000 C 
BRANCH  12  13
ATOM     13  C   UNL     1      -3.209  17.670  48.095  1.00  0.00    -0.000 C 
BRANCH  13  14
ATOM     14  C   UNL     1      -3.304  19.164  48.444  1.00  0.00    -0.000 C 
BRANCH  14  15
ATOM     15  C   UNL     1      -2.246  19.549  49.489  1.00  0.00    -0.000 C 
BRANCH  15  16
ATOM     16  C   UNL     1      -2.032  21.070  49.594  1.00  0.00    -0.000 C 
BRANCH  16  17
ATOM     17  C   UNL     1      -0.682  21.493  50.199  1.00  0.00    -0.003 C 
ATOM     18  C   UNL     1      -0.802  22.674  51.162  1.00  0.00     0.004 C 
ENDBRANCH  16  17
ENDBRANCH  15  16
ENDBRANCH  14  15
ENDBRANCH  13  14
ENDBRANCH  12  13
ENDBRANCH  11  12
ENDBRANCH   1  11
TORSDOF 14
ENDMDL
MODEL 5
REMARK VINA RESULT:    -4.147      4.099      6.281
REMARK INTER + INTRA:          -9.380
REMARK INTER:                  -7.875
REMARK INTRA:                  -1.505
REMARK UNBOUND:                -1.840
REMARK SMILES CCCCCCCCCCCCCCCC(=O)[O-]
REMARK SMILES IDX 9 1 10 2 11 3 12 4 13 5 14 6 15 7 16 8 17 9 18 10 8 11 7 12
REMARK SMILES IDX 6 13 5 14 4 15 3 16 2 17 1 18
REMARK H PARENT
REMARK Flexibility Score: inf
ROOT
ATOM      1  C   UNL     1      -1.633  22.417  49.356  1.00  0.00     0.000 C 
ENDROOT
BRANCH   1   2
ATOM      2  C   UNL     1      -1.639  21.180  48.432  1.00  0.00     0.000 C 
BRANCH   2   3
ATOM      3  C   UNL     1      -2.189  19.931  49.141  1.00  0.00     0.000 C 
BRANCH   3   4
ATOM      4  C   UNL     1      -3.420  19.343  48.433  1.00  0.00     0.000 C 
BRANCH   4   5
ATOM      5  C   UNL     1      -3.242  17.859  48.079  1.00  0.00     0.000 C 
BRANCH   5   6
ATOM      6  C   UNL     1      -2.119  17.228  48.909  1.00  0.00     0.006 C 
BRANCH   6   7
ATOM      7  C   UNL     1      -1.165  16.424  48.020  1.00  0.00     0.053 C 
BRANCH   7   8
ATOM      8  C   UNL     1      -0.152  17.327  47.388  1.00  0.00     0.041 C 
ATOM      9  O   UNL     1       1.011  17.407  47.866  1.00  0.00    -0.550 OA
ATOM     10  O   UNL     1      -0.477  18.041  46.242  1.00  0.00    -0.550 OA
ENDBRANCH   7   8
ENDBRANCH   6   7
ENDBRANCH   5   6
ENDBRANCH   4   5
ENDBRANCH   3   4
ENDBRANCH   2   3
ENDBRANCH   1   2
BRANCH   1  11
ATOM     11  C   UNL     1      -2.220  22.146  50.752  1.00  0.00     0.000 C 
BRANCH  11  12
ATOM     12  C   UNL     1      -3.174  23.254  51.224  1.00  0.00    -0.000 C 
BRANCH  12  13
ATOM     13  C   UNL     1      -2.464  24.605  51.412  1.00  0.00    -0.000 C 
BRANCH  13  14
ATOM     14  C   UNL     1      -2.343  25.012  52.889  1.00  0.00    -0.000 C 
BRANCH  14  15
ATOM     15  C   UNL     1      -1.055  24.448  53.508  1.00  0.00    -0.000 C 
BRANCH  15  16
ATOM     16  C   UNL     1       0.153  24.532  52.558  1.00  0.00    -0.000 C 
BRANCH  16  17
ATOM     17  C   UNL     1       0.870  23.194  52.305  1.00  0.00    -0.003 C 
ATOM     18  C   UNL     1       0.528  22.126  53.343  1.00  0.00     0.004 C 
ENDBRANCH  16  17
ENDBRANCH  15  16
ENDBRANCH  14  15
ENDBRANCH  13  14
ENDBRANCH  12  13
ENDBRANCH  11  12
ENDBRANCH   1  11
TORSDOF 14
ENDMDL
MODEL 6
REMARK VINA RESULT:    -4.118      4.312      6.444
REMARK INTER + INTRA:          -9.327
REMARK INTER:                  -7.660
REMARK INTRA:                  -1.667
REMARK UNBOUND:                -1.840
REMARK SMILES CCCCCCCCCCCCCCCC(=O)[O-]
REMARK SMILES IDX 9 1 10 2 11 3 12 4 13 5 14 6 15 7 16 8 17 9 18 10 8 11 7 12
REMARK SMILES IDX 6 13 5 14 4 15 3 16 2 17 1 18
REMARK H PARENT
REMARK Flexibility Score: inf
ROOT
ATOM      1  C   UNL     1       0.785  21.704  49.813  1.00  0.00     0.000 C 
ENDROOT
BRANCH   1   2
ATOM      2  C   UNL     1      -0.166  20.957  48.853  1.00  0.00     0.000 C 
BRANCH   2   3
ATOM      3  C   UNL     1      -1.022  19.910  49.586  1.00  0.00     0.000 C 
BRANCH   3   4
ATOM      4  C   UNL     1      -2.481  19.897  49.105  1.00  0.00     0.000 C 
BRANCH   4   5
ATOM      5  C   UNL     1      -2.914  18.521  48.574  1.00  0.00     0.000 C 
BRANCH   5   6
ATOM      6  C   UNL     1      -2.086  17.402  49.213  1.00  0.00     0.006 C 
BRANCH   6   7
ATOM      7  C   UNL     1      -1.594  16.409  48.155  1.00  0.00     0.053 C 
BRANCH   7   8
ATOM      8  C   UNL     1      -0.583  17.054  47.260  1.00  0.00     0.041 C 
ATOM      9  O   UNL     1       0.539  17.399  47.716  1.00  0.00    -0.550 OA
ATOM     10  O   UNL     1      -0.862  17.230  45.910  1.00  0.00    -0.550 OA
ENDBRANCH   7   8
ENDBRANCH   6   7
ENDBRANCH   5   6
ENDBRANCH   4   5
ENDBRANCH   3   4
ENDBRANCH   2   3
ENDBRANCH   1   2
BRANCH   1  11
ATOM     11  C   UNL     1       0.293  21.732  51.270  1.00  0.00     0.000 C 
BRANCH  11  12
ATOM     12  C   UNL     1      -0.575  22.961  51.584  1.00  0.00    -0.000 C 
BRANCH  12  13
ATOM     13  C   UNL     1      -2.025  22.587  51.932  1.00  0.00    -0.000 C 
BRANCH  13  14
ATOM     14  C   UNL     1      -3.045  23.196  50.958  1.00  0.00    -0.000 C 
BRANCH  14  15
ATOM     15  C   UNL     1      -2.748  24.684  50.715  1.00  0.00    -0.000 C 
BRANCH  15  16
ATOM     16  C   UNL     1      -3.196  25.583  51.881  1.00  0.00    -0.000 C 
BRANCH  16  17
ATOM     17  C   UNL     1      -2.052  26.293  52.626  1.00  0.00    -0.003 C 
ATOM     18  C   UNL     1      -2.038  25.994  54.125  1.00  0.00     0.004 C 
ENDBRANCH  16  17
ENDBRANCH  15  16
ENDBRANCH  14  15
ENDBRANCH  13  14
ENDBRANCH  12  13
ENDBRANCH  11  12
ENDBRANCH   1  11
TORSDOF 14
ENDMDL
MODEL 7
REMARK VINA RESULT:    -4.112      3.164      5.217
REMARK INTER + INTRA:          -9.317
REMARK INTER:                  -7.225
REMARK INTRA:                  -2.092
REMARK UNBOUND:                -1.840
REMARK SMILES CCCCCCCCCCCCCCCC(=O)[O-]
REMARK SMILES IDX 9 1 10 2 11 3 12 4 13 5 14 6 15 7 16 8 17 9 18 10 8 11 7 12
REMARK SMILES IDX 6 13 5 14 4 15 3 16 2 17 1 18
REMARK H PARENT
REMARK Flexibility Score: inf
ROOT
ATOM      1  C   UNL     1      -3.360  18.325  48.116  1.00  0.00     0.000 C 
ENDROOT
BRANCH   1   2
ATOM      2  C   UNL     1      -3.103  19.793  48.520  1.00  0.00     0.000 C 
BRANCH   2   3
ATOM      3  C   UNL     1      -2.035  19.912  49.621  1.00  0.00     0.000 C 
BRANCH   3   4
ATOM      4  C   UNL     1      -1.401  21.310  49.681  1.00  0.00     0.000 C 
BRANCH   4   5
ATOM      5  C   UNL     1       0.042  21.281  50.208  1.00  0.00     0.000 C 
BRANCH   5   6
ATOM      6  C   UNL     1       0.470  22.662  50.714  1.00  0.00     0.006 C 
BRANCH   6   7
ATOM      7  C   UNL     1       1.803  22.585  51.463  1.00  0.00     0.053 C 
BRANCH   7   8
ATOM      8  C   UNL     1       1.570  22.468  52.937  1.00  0.00     0.041 C 
ATOM      9  O   UNL     1       2.533  22.231  53.714  1.00  0.00    -0.550 OA
ATOM     10  O   UNL     1       0.298  22.670  53.458  1.00  0.00    -0.550 OA
ENDBRANCH   7   8
ENDBRANCH   6   7
ENDBRANCH   5   6
ENDBRANCH   4   5
ENDBRANCH   3   4
ENDBRANCH   2   3
ENDBRANCH   1   2
BRANCH   1  11
ATOM     11  C   UNL     1      -2.597  17.306  48.980  1.00  0.00     0.000 C 
BRANCH  11  12
ATOM     12  C   UNL     1      -1.575  16.487  48.175  1.00  0.00    -0.000 C 
BRANCH  12  13
ATOM     13  C   UNL     1      -1.733  16.675  46.657  1.00  0.00    -0.000 C 
BRANCH  13  14
ATOM     14  C   UNL     1      -0.507  17.340  46.011  1.00  0.00    -0.000 C 
BRANCH  14  15
ATOM     15  C   UNL     1       0.453  17.876  47.084  1.00  0.00    -0.000 C 
BRANCH  15  16
ATOM     16  C   UNL     1       0.603  19.407  47.043  1.00  0.00    -0.000 C 
BRANCH  16  17
ATOM     17  C   UNL     1      -0.480  20.142  46.233  1.00  0.00    -0.003 C 
ATOM     18  C   UNL     1      -0.215  21.641  46.100  1.00  0.00     0.004 C 
ENDBRANCH  16  17
ENDBRANCH  15  16
ENDBRANCH  14  15
ENDBRANCH  13  14
ENDBRANCH  12  13
ENDBRANCH  11  12
ENDBRANCH   1  11
TORSDOF 14
ENDMDL
MODEL 8
REMARK VINA RESULT:    -4.075      3.444      5.068
REMARK INTER + INTRA:          -9.250
REMARK INTER:                  -7.494
REMARK INTRA:                  -1.756
REMARK UNBOUND:                -1.840
REMARK SMILES CCCCCCCCCCCCCCCC(=O)[O-]
REMARK SMILES IDX 9 1 10 2 11 3 12 4 13 5 14 6 15 7 16 8 17 9 18 10 8 11 7 12
REMARK SMILES IDX 6 13 5 14 4 15 3 16 2 17 1 18
REMARK H PARENT
REMARK Flexibility Score: inf
ROOT
ATOM      1  C   UNL     1      -2.846  19.617  48.828  1.00  0.00     0.000 C 
ENDROOT
BRANCH   1   2
ATOM      2  C   UNL     1      -2.758  18.103  49.117  1.00  0.00     0.000 C 
BRANCH   2   3
ATOM      3  C   UNL     1      -2.428  17.291  47.852  1.00  0.00     0.000 C 
BRANCH   3   4
ATOM      4  C   UNL     1      -1.180  16.411  48.024  1.00  0.00     0.000 C 
BRANCH   4   5
ATOM      5  C   UNL     1      -0.018  16.857  47.123  1.00  0.00     0.000 C 
BRANCH   5   6
ATOM      6  C   UNL     1      -0.341  18.182  46.426  1.00  0.00     0.006 C 
BRANCH   6   7
ATOM      7  C   UNL     1       0.525  19.319  46.977  1.00  0.00     0.053 C 
BRANCH   7   8
ATOM      8  C   UNL     1      -0.006  20.646  46.533  1.00  0.00     0.041 C 
ATOM      9  O   UNL     1      -0.995  20.704  45.755  1.00  0.00    -0.550 OA
ATOM     10  O   UNL     1       0.560  21.818  47.017  1.00  0.00    -0.550 OA
ENDBRANCH   7   8
ENDBRANCH   6   7
ENDBRANCH   5   6
ENDBRANCH   4   5
ENDBRANCH   3   4
ENDBRANCH   2   3
ENDBRANCH   1   2
BRANCH   1  11
ATOM     11  C   UNL     1      -1.848  20.458  49.642  1.00  0.00     0.000 C 
BRANCH  11  12
ATOM     12  C   UNL     1      -2.120  21.968  49.543  1.00  0.00    -0.000 C 
BRANCH  12  13
ATOM     13  C   UNL     1      -2.649  22.560  50.860  1.00  0.00    -0.000 C 
BRANCH  13  14
ATOM     14  C   UNL     1      -2.204  24.016  51.076  1.00  0.00    -0.000 C 
BRANCH  14  15
ATOM     15  C   UNL     1      -0.808  24.072  51.714  1.00  0.00    -0.000 C 
BRANCH  15  16
ATOM     16  C   UNL     1      -0.585  22.973  52.768  1.00  0.00    -0.000 C 
BRANCH  16  17
ATOM     17  C   UNL     1       0.606  22.040  52.487  1.00  0.00    -0.003 C 
ATOM     18  C   UNL     1       1.277  22.315  51.142  1.00  0.00     0.004 C 
ENDBRANCH  16  17
ENDBRANCH  15  16
ENDBRANCH  14  15
ENDBRANCH  13  14
ENDBRANCH  12  13
ENDBRANCH  11  12
ENDBRANCH   1  11
TORSDOF 14
ENDMDL
MODEL 9
REMARK VINA RESULT:    -4.036      3.143      4.789
REMARK INTER + INTRA:          -9.178
REMARK INTER:                  -7.490
REMARK INTRA:                  -1.688
REMARK UNBOUND:                -1.840
REMARK SMILES CCCCCCCCCCCCCCCC(=O)[O-]
REMARK SMILES IDX 9 1 10 2 11 3 12 4 13 5 14 6 15 7 16 8 17 9 18 10 8 11 7 12
REMARK SMILES IDX 6 13 5 14 4 15 3 16 2 17 1 18
REMARK H PARENT
REMARK Flexibility Score: inf
ROOT
ATOM      1  C   UNL     1      -2.767  19.838  48.771  1.00  0.00     0.000 C 
ENDROOT
BRANCH   1   2
ATOM      2  C   UNL     1      -2.277  18.464  49.276  1.00  0.00     0.000 C 
BRANCH   2   3
ATOM      3  C   UNL     1      -2.587  17.336  48.276  1.00  0.00     0.000 C 
BRANCH   3   4
ATOM      4  C   UNL     1      -1.455  16.302  48.182  1.00  0.00     0.000 C 
BRANCH   4   5
ATOM      5  C   UNL     1      -0.863  16.204  46.768  1.00  0.00     0.000 C 
BRANCH   5   6
ATOM      6  C   UNL     1      -0.419  17.581  46.262  1.00  0.00     0.006 C 
BRANCH   6   7
ATOM      7  C   UNL     1       0.846  18.052  46.987  1.00  0.00     0.053 C 
BRANCH   7   8
ATOM      8  C   UNL     1       0.925  19.546  46.986  1.00  0.00     0.041 C 
ATOM      9  O   UNL     1      -0.051  20.232  46.584  1.00  0.00    -0.550 OA
ATOM     10  O   UNL     1       2.059  20.182  47.477  1.00  0.00    -0.550 OA
ENDBRANCH   7   8
ENDBRANCH   6   7
ENDBRANCH   5   6
ENDBRANCH   4   5
ENDBRANCH   3   4
ENDBRANCH   2   3
ENDBRANCH   1   2
BRANCH   1  11
ATOM     11  C   UNL     1      -2.130  21.029  49.509  1.00  0.00     0.000 C 
BRANCH  11  12
ATOM     12  C   UNL     1      -0.732  20.710  50.061  1.00  0.00    -0.000 C 
BRANCH  12  13
ATOM     13  C   UNL     1       0.202  21.932  50.044  1.00  0.00    -0.000 C 
BRANCH  13  14
ATOM     14  C   UNL     1       0.817  22.228  51.421  1.00  0.00    -0.000 C 
BRANCH  14  15
ATOM     15  C   UNL     1      -0.276  22.362  52.491  1.00  0.00    -0.000 C 
BRANCH  15  16
ATOM     16  C   UNL     1      -1.127  23.634  52.323  1.00  0.00    -0.000 C 
BRANCH  16  17
ATOM     17  C   UNL     1      -2.635  23.383  52.147  1.00  0.00    -0.003 C 
ATOM     18  C   UNL     1      -3.323  24.445  51.289  1.00  0.00     0.004 C 
ENDBRANCH  16  17
ENDBRANCH  15  16
ENDBRANCH  14  15
ENDBRANCH  13  14
ENDBRANCH  12  13
ENDBRANCH  11  12
ENDBRANCH   1  11
TORSDOF 14
ENDMDL
