MODEL 1
REMARK VINA RESULT:    -5.273      0.000      0.000
REMARK INTER + INTRA:          -6.668
REMARK INTER:                  -6.352
REMARK INTRA:                  -0.315
REMARK UNBOUND:                -0.315
REMARK SMILES O=c1c(O)c(-c2ccc(O)c(O)c2)oc2cc(O)cc(O)c12
REMARK SMILES IDX 5 1 3 2 2 3 1 4 22 5 20 6 19 7 17 8 16 9 15 10 14 11 6 12
REMARK SMILES IDX 7 13 8 14 9 15 13 16 11 17 10 18 12 20 4 22 21 24 18 26
REMARK H PARENT 10 19 12 21 4 23 21 25 18 27
REMARK Flexibility Score: inf
ROOT
ATOM      1  C   UNL     1     -30.417   2.910   7.951  1.00  0.00     0.180 A 
ATOM      2  C   UNL     1     -29.521   3.909   8.380  1.00  0.00     0.208 A 
ATOM      3  C   UNL     1     -28.220   3.538   8.750  1.00  0.00     0.238 A 
ATOM      4  O   UNL     1     -27.405   4.425   9.125  1.00  0.00    -0.285 OA
ATOM      5  C   UNL     1     -27.841   2.180   8.706  1.00  0.00     0.111 A 
ATOM      6  C   UNL     1     -26.550   1.724   9.065  1.00  0.00     0.134 A 
ATOM      7  C   UNL     1     -26.254   0.354   9.003  1.00  0.00     0.093 A 
ATOM      8  C   UNL     1     -27.221  -0.566   8.589  1.00  0.00     0.123 A 
ATOM      9  C   UNL     1     -28.497  -0.120   8.231  1.00  0.00     0.094 A 
ATOM     10  C   UNL     1     -28.811   1.240   8.285  1.00  0.00     0.146 A 
ATOM     11  O   UNL     1     -30.030   1.637   7.936  1.00  0.00    -0.452 OA
ENDROOT
BRANCH   1  12
ATOM     12  C   UNL     1     -31.800   3.223   7.526  1.00  0.00     0.025 A 
ATOM     13  C   UNL     1     -32.816   3.310   8.492  1.00  0.00     0.016 A 
ATOM     14  C   UNL     1     -34.132   3.585   8.111  1.00  0.00     0.051 A 
ATOM     15  C   UNL     1     -34.454   3.760   6.759  1.00  0.00     0.157 A 
ATOM     16  C   UNL     1     -32.132   3.380   6.168  1.00  0.00     0.062 A 
ATOM     17  C   UNL     1     -33.453   3.653   5.785  1.00  0.00     0.158 A 
BRANCH  15  18
ATOM     18  O   UNL     1     -35.765   4.037   6.376  1.00  0.00    -0.504 OA
ATOM     19  H   UNL     1     -35.976   4.488   5.493  1.00  0.00     0.293 HD
ENDBRANCH  15  18
BRANCH  17  20
ATOM     20  O   UNL     1     -33.779   3.815   4.440  1.00  0.00    -0.504 OA
ATOM     21  H   UNL     1     -34.741   3.912   4.136  1.00  0.00     0.293 HD
ENDBRANCH  17  20
ENDBRANCH   1  12
BRANCH   2  22
ATOM     22  O   UNL     1     -29.936   5.240   8.463  1.00  0.00    -0.502 OA
ATOM     23  H   UNL     1     -29.480   5.914   9.065  1.00  0.00     0.293 HD
ENDBRANCH   2  22
BRANCH   6  24
ATOM     24  O   UNL     1     -25.563   2.617   9.484  1.00  0.00    -0.507 OA
ATOM     25  H   UNL     1     -25.682   3.195  10.307  1.00  0.00     0.293 HD
ENDBRANCH   6  24
BRANCH   8  26
ATOM     26  O   UNL     1     -26.901  -1.920   8.536  1.00  0.00    -0.508 OA
ATOM     27  H   UNL     1     -26.188  -2.272   7.909  1.00  0.00     0.293 HD
ENDBRANCH   8  26
TORSDOF 6
ENDMDL
MODEL 2
REMARK VINA RESULT:    -5.246      4.708     10.318
REMARK INTER + INTRA:          -6.635
REMARK INTER:                  -6.303
REMARK INTRA:                  -0.332
REMARK UNBOUND:                -0.315
REMARK SMILES O=c1c(O)c(-c2ccc(O)c(O)c2)oc2cc(O)cc(O)c12
REMARK SMILES IDX 5 1 3 2 2 3 1 4 22 5 20 6 19 7 17 8 16 9 15 10 14 11 6 12
REMARK SMILES IDX 7 13 8 14 9 15 13 16 11 17 10 18 12 20 4 22 21 24 18 26
REMARK H PARENT 10 19 12 21 4 23 21 25 18 27
REMARK Flexibility Score: inf
ROOT
ATOM      1  C   UNL     1     -23.965  -2.801   8.142  1.00  0.00     0.180 A 
ATOM      2  C   UNL     1     -24.854  -3.830   8.506  1.00  0.00     0.208 A 
ATOM      3  C   UNL     1     -26.193  -3.507   8.771  1.00  0.00     0.238 A 
ATOM      4  O   UNL     1     -27.002  -4.421   9.086  1.00  0.00    -0.285 OA
ATOM      5  C   UNL     1     -26.617  -2.164   8.688  1.00  0.00     0.111 A 
ATOM      6  C   UNL     1     -27.947  -1.754   8.944  1.00  0.00     0.134 A 
ATOM      7  C   UNL     1     -28.287  -0.396   8.849  1.00  0.00     0.093 A 
ATOM      8  C   UNL     1     -27.325   0.558   8.507  1.00  0.00     0.123 A 
ATOM      9  C   UNL     1     -26.010   0.158   8.253  1.00  0.00     0.094 A 
ATOM     10  C   UNL     1     -25.651  -1.190   8.339  1.00  0.00     0.146 A 
ATOM     11  O   UNL     1     -24.395  -1.543   8.088  1.00  0.00    -0.452 OA
ENDROOT
BRANCH   1  12
ATOM     12  C   UNL     1     -22.542  -3.065   7.828  1.00  0.00     0.025 A 
ATOM     13  C   UNL     1     -21.580  -2.962   8.846  1.00  0.00     0.016 A 
ATOM     14  C   UNL     1     -20.229  -3.187   8.568  1.00  0.00     0.051 A 
ATOM     15  C   UNL     1     -19.820  -3.501   7.266  1.00  0.00     0.157 A 
ATOM     16  C   UNL     1     -22.123  -3.361   6.518  1.00  0.00     0.062 A 
ATOM     17  C   UNL     1     -20.767  -3.584   6.238  1.00  0.00     0.158 A 
BRANCH  15  18
ATOM     18  O   UNL     1     -18.473  -3.729   6.985  1.00  0.00    -0.504 OA
ATOM     19  H   UNL     1     -17.944  -4.445   7.469  1.00  0.00     0.293 HD
ENDBRANCH  15  18
BRANCH  17  20
ATOM     20  O   UNL     1     -20.354  -3.884   4.941  1.00  0.00    -0.504 OA
ATOM     21  H   UNL     1     -19.618  -3.358   4.485  1.00  0.00     0.293 HD
ENDBRANCH  17  20
ENDBRANCH   1  12
BRANCH   2  22
ATOM     22  O   UNL     1     -24.399  -5.145   8.628  1.00  0.00    -0.502 OA
ATOM     23  H   UNL     1     -23.752  -5.430   9.353  1.00  0.00     0.293 HD
ENDBRANCH   2  22
BRANCH   6  24
ATOM     24  O   UNL     1     -28.931  -2.681   9.289  1.00  0.00    -0.507 OA
ATOM     25  H   UNL     1     -29.191  -2.848  10.254  1.00  0.00     0.293 HD
ENDBRANCH   6  24
BRANCH   8  26
ATOM     26  O   UNL     1     -27.688   1.899   8.421  1.00  0.00    -0.508 OA
ATOM     27  H   UNL     1     -27.463   2.557   9.158  1.00  0.00     0.293 HD
ENDBRANCH   8  26
TORSDOF 6
ENDMDL
MODEL 3
REMARK VINA RESULT:    -5.100      1.474      2.133
REMARK INTER + INTRA:          -6.459
REMARK INTER:                  -6.166
REMARK INTRA:                  -0.292
REMARK UNBOUND:                -0.315
REMARK SMILES O=c1c(O)c(-c2ccc(O)c(O)c2)oc2cc(O)cc(O)c12
REMARK SMILES IDX 5 1 3 2 2 3 1 4 22 5 20 6 19 7 17 8 16 9 15 10 14 11 6 12
REMARK SMILES IDX 7 13 8 14 9 15 13 16 11 17 10 18 12 20 4 22 21 24 18 26
REMARK H PARENT 10 19 12 21 4 23 21 25 18 27
REMARK Flexibility Score: inf
ROOT
ATOM      1  C   UNL     1     -29.352   1.619   8.641  1.00  0.00     0.180 A 
ATOM      2  C   UNL     1     -28.171   2.255   9.071  1.00  0.00     0.208 A 
ATOM      3  C   UNL     1     -27.045   1.469   9.357  1.00  0.00     0.238 A 
ATOM      4  O   UNL     1     -25.977   2.027   9.732  1.00  0.00    -0.285 OA
ATOM      5  C   UNL     1     -27.121   0.066   9.230  1.00  0.00     0.111 A 
ATOM      6  C   UNL     1     -26.032  -0.797   9.503  1.00  0.00     0.134 A 
ATOM      7  C   UNL     1     -26.191  -2.183   9.361  1.00  0.00     0.093 A 
ATOM      8  C   UNL     1     -27.414  -2.723   8.954  1.00  0.00     0.123 A 
ATOM      9  C   UNL     1     -28.492  -1.875   8.682  1.00  0.00     0.094 A 
ATOM     10  C   UNL     1     -28.354  -0.490   8.815  1.00  0.00     0.146 A 
ATOM     11  O   UNL     1     -29.393   0.293   8.547  1.00  0.00    -0.452 OA
ENDROOT
BRANCH   1  12
ATOM     12  C   UNL     1     -30.576   2.380   8.301  1.00  0.00     0.025 A 
ATOM     13  C   UNL     1     -31.424   2.820   9.330  1.00  0.00     0.016 A 
ATOM     14  C   UNL     1     -32.594   3.522   9.031  1.00  0.00     0.051 A 
ATOM     15  C   UNL     1     -32.942   3.780   7.700  1.00  0.00     0.157 A 
ATOM     16  C   UNL     1     -30.940   2.624   6.964  1.00  0.00     0.062 A 
ATOM     17  C   UNL     1     -32.116   3.327   6.663  1.00  0.00     0.158 A 
BRANCH  15  18
ATOM     18  O   UNL     1     -34.107   4.482   7.398  1.00  0.00    -0.504 OA
ATOM     19  H   UNL     1     -34.854   4.586   8.074  1.00  0.00     0.293 HD
ENDBRANCH  15  18
BRANCH  17  20
ATOM     20  O   UNL     1     -32.472   3.573   5.339  1.00  0.00    -0.504 OA
ATOM     21  H   UNL     1     -33.419   3.431   5.010  1.00  0.00     0.293 HD
ENDBRANCH  17  20
ENDBRANCH   1  12
BRANCH   2  22
ATOM     22  O   UNL     1     -28.136   3.641   9.236  1.00  0.00    -0.502 OA
ATOM     23  H   UNL     1     -27.361   4.114   9.684  1.00  0.00     0.293 HD
ENDBRANCH   2  22
BRANCH   6  24
ATOM     24  O   UNL     1     -24.799  -0.290   9.913  1.00  0.00    -0.507 OA
ATOM     25  H   UNL     1     -24.362  -0.585  10.778  1.00  0.00     0.293 HD
ENDBRANCH   6  24
BRANCH   8  26
ATOM     26  O   UNL     1     -27.546  -4.103   8.822  1.00  0.00    -0.508 OA
ATOM     27  H   UNL     1     -28.378  -4.520   8.421  1.00  0.00     0.293 HD
ENDBRANCH   8  26
TORSDOF 6
ENDMDL
MODEL 4
REMARK VINA RESULT:    -4.990      3.474      6.965
REMARK INTER + INTRA:          -6.327
REMARK INTER:                  -6.755
REMARK INTRA:                   0.428
REMARK UNBOUND:                -0.315
REMARK SMILES O=c1c(O)c(-c2ccc(O)c(O)c2)oc2cc(O)cc(O)c12
REMARK SMILES IDX 5 1 3 2 2 3 1 4 22 5 20 6 19 7 17 8 16 9 15 10 14 11 6 12
REMARK SMILES IDX 7 13 8 14 9 15 13 16 11 17 10 18 12 20 4 22 21 24 18 26
REMARK H PARENT 10 19 12 21 4 23 21 25 18 27
REMARK Flexibility Score: inf
ROOT
ATOM      1  C   UNL     1     -26.411  -1.573   8.736  1.00  0.00     0.180 A 
ATOM      2  C   UNL     1     -27.106  -2.769   9.003  1.00  0.00     0.208 A 
ATOM      3  C   UNL     1     -26.384  -3.968   9.092  1.00  0.00     0.238 A 
ATOM      4  O   UNL     1     -26.994  -5.043   9.342  1.00  0.00    -0.285 OA
ATOM      5  C   UNL     1     -24.987  -3.958   8.896  1.00  0.00     0.111 A 
ATOM      6  C   UNL     1     -24.186  -5.123   8.966  1.00  0.00     0.134 A 
ATOM      7  C   UNL     1     -22.804  -5.031   8.749  1.00  0.00     0.093 A 
ATOM      8  C   UNL     1     -22.207  -3.801   8.463  1.00  0.00     0.123 A 
ATOM      9  C   UNL     1     -22.993  -2.646   8.394  1.00  0.00     0.094 A 
ATOM     10  C   UNL     1     -24.372  -2.716   8.609  1.00  0.00     0.146 A 
ATOM     11  O   UNL     1     -25.095  -1.604   8.542  1.00  0.00    -0.452 OA
ENDROOT
BRANCH   1  12
ATOM     12  C   UNL     1     -27.099  -0.266   8.646  1.00  0.00     0.025 A 
ATOM     13  C   UNL     1     -28.475  -0.227   8.364  1.00  0.00     0.016 A 
ATOM     14  C   UNL     1     -29.140   0.996   8.254  1.00  0.00     0.051 A 
ATOM     15  C   UNL     1     -28.438   2.198   8.409  1.00  0.00     0.157 A 
ATOM     16  C   UNL     1     -26.395   0.944   8.780  1.00  0.00     0.062 A 
ATOM     17  C   UNL     1     -27.062   2.173   8.668  1.00  0.00     0.158 A 
BRANCH  15  18
ATOM     18  O   UNL     1     -29.100   3.420   8.302  1.00  0.00    -0.504 OA
ATOM     19  H   UNL     1     -29.588   3.830   9.090  1.00  0.00     0.293 HD
ENDBRANCH  15  18
BRANCH  17  20
ATOM     20  O   UNL     1     -26.364   3.371   8.807  1.00  0.00    -0.504 OA
ATOM     21  H   UNL     1     -25.552   3.444   9.409  1.00  0.00     0.293 HD
ENDBRANCH  17  20
ENDBRANCH   1  12
BRANCH   2  22
ATOM     22  O   UNL     1     -28.496  -2.760   9.144  1.00  0.00    -0.502 OA
ATOM     23  H   UNL     1     -29.011  -3.559   9.492  1.00  0.00     0.293 HD
ENDBRANCH   2  22
BRANCH   6  24
ATOM     24  O   UNL     1     -24.752  -6.368   9.248  1.00  0.00    -0.507 OA
ATOM     25  H   UNL     1     -24.243  -7.082   9.754  1.00  0.00     0.293 HD
ENDBRANCH   6  24
BRANCH   8  26
ATOM     26  O   UNL     1     -20.832  -3.737   8.251  1.00  0.00    -0.508 OA
ATOM     27  H   UNL     1     -20.327  -4.501   7.818  1.00  0.00     0.293 HD
ENDBRANCH   8  26
TORSDOF 6
ENDMDL
MODEL 5
REMARK VINA RESULT:    -4.968      1.588      6.838
REMARK INTER + INTRA:          -6.300
REMARK INTER:                  -6.166
REMARK INTRA:                  -0.133
REMARK UNBOUND:                -0.315
REMARK SMILES O=c1c(O)c(-c2ccc(O)c(O)c2)oc2cc(O)cc(O)c12
REMARK SMILES IDX 5 1 3 2 2 3 1 4 22 5 20 6 19 7 17 8 16 9 15 10 14 11 6 12
REMARK SMILES IDX 7 13 8 14 9 15 13 16 11 17 10 18 12 20 4 22 21 24 18 26
REMARK H PARENT 10 19 12 21 4 23 21 25 18 27
REMARK Flexibility Score: inf
ROOT
ATOM      1  C   UNL     1     -28.909   0.988   8.246  1.00  0.00     0.180 A 
ATOM      2  C   UNL     1     -28.919   2.090   9.123  1.00  0.00     0.208 A 
ATOM      3  C   UNL     1     -29.895   3.083   8.952  1.00  0.00     0.238 A 
ATOM      4  O   UNL     1     -29.922   4.069   9.737  1.00  0.00    -0.285 OA
ATOM      5  C   UNL     1     -30.829   2.970   7.901  1.00  0.00     0.111 A 
ATOM      6  C   UNL     1     -31.842   3.929   7.658  1.00  0.00     0.134 A 
ATOM      7  C   UNL     1     -32.727   3.750   6.585  1.00  0.00     0.093 A 
ATOM      8  C   UNL     1     -32.620   2.634   5.751  1.00  0.00     0.123 A 
ATOM      9  C   UNL     1     -31.623   1.683   5.987  1.00  0.00     0.094 A 
ATOM     10  C   UNL     1     -30.731   1.842   7.052  1.00  0.00     0.146 A 
ATOM     11  O   UNL     1     -29.796   0.922   7.256  1.00  0.00    -0.452 OA
ENDROOT
BRANCH   1  12
ATOM     12  C   UNL     1     -27.924  -0.110   8.373  1.00  0.00     0.025 A 
ATOM     13  C   UNL     1     -26.558   0.162   8.187  1.00  0.00     0.016 A 
ATOM     14  C   UNL     1     -25.613  -0.862   8.283  1.00  0.00     0.051 A 
ATOM     15  C   UNL     1     -26.020  -2.175   8.549  1.00  0.00     0.157 A 
ATOM     16  C   UNL     1     -28.329  -1.434   8.620  1.00  0.00     0.062 A 
ATOM     17  C   UNL     1     -27.381  -2.463   8.714  1.00  0.00     0.158 A 
BRANCH  15  18
ATOM     18  O   UNL     1     -25.080  -3.199   8.648  1.00  0.00    -0.504 OA
ATOM     19  H   UNL     1     -24.095  -3.034   8.476  1.00  0.00     0.293 HD
ENDBRANCH  15  18
BRANCH  17  20
ATOM     20  O   UNL     1     -27.783  -3.773   8.966  1.00  0.00    -0.504 OA
ATOM     21  H   UNL     1     -28.654  -4.140   8.598  1.00  0.00     0.293 HD
ENDBRANCH  17  20
ENDBRANCH   1  12
BRANCH   2  22
ATOM     22  O   UNL     1     -27.953   2.203  10.125  1.00  0.00    -0.502 OA
ATOM     23  H   UNL     1     -27.865   3.029  10.703  1.00  0.00     0.293 HD
ENDBRANCH   2  22
BRANCH   6  24
ATOM     24  O   UNL     1     -31.974   5.056   8.471  1.00  0.00    -0.507 OA
ATOM     25  H   UNL     1     -32.826   5.245   8.985  1.00  0.00     0.293 HD
ENDBRANCH   6  24
BRANCH   8  26
ATOM     26  O   UNL     1     -33.511   2.480   4.693  1.00  0.00    -0.508 OA
ATOM     27  H   UNL     1     -34.476   2.783   4.763  1.00  0.00     0.293 HD
ENDBRANCH   8  26
TORSDOF 6
ENDMDL
MODEL 6
REMARK VINA RESULT:    -4.926      3.089      5.220
REMARK INTER + INTRA:          -6.249
REMARK INTER:                  -6.124
REMARK INTRA:                  -0.125
REMARK UNBOUND:                -0.315
REMARK SMILES O=c1c(O)c(-c2ccc(O)c(O)c2)oc2cc(O)cc(O)c12
REMARK SMILES IDX 5 1 3 2 2 3 1 4 22 5 20 6 19 7 17 8 16 9 15 10 14 11 6 12
REMARK SMILES IDX 7 13 8 14 9 15 13 16 11 17 10 18 12 20 4 22 21 24 18 26
REMARK H PARENT 10 19 12 21 4 23 21 25 18 27
REMARK Flexibility Score: inf
ROOT
ATOM      1  C   UNL     1     -27.443   0.767   9.132  1.00  0.00     0.180 A 
ATOM      2  C   UNL     1     -28.350  -0.189   9.628  1.00  0.00     0.208 A 
ATOM      3  C   UNL     1     -27.960  -1.536   9.672  1.00  0.00     0.238 A 
ATOM      4  O   UNL     1     -28.759  -2.399  10.125  1.00  0.00    -0.285 OA
ATOM      5  C   UNL     1     -26.683  -1.908   9.202  1.00  0.00     0.111 A 
ATOM      6  C   UNL     1     -26.214  -3.244   9.208  1.00  0.00     0.134 A 
ATOM      7  C   UNL     1     -24.934  -3.534   8.715  1.00  0.00     0.093 A 
ATOM      8  C   UNL     1     -24.115  -2.518   8.216  1.00  0.00     0.123 A 
ATOM      9  C   UNL     1     -24.572  -1.196   8.209  1.00  0.00     0.094 A 
ATOM     10  C   UNL     1     -25.844  -0.886   8.698  1.00  0.00     0.146 A 
ATOM     11  O   UNL     1     -26.252   0.378   8.684  1.00  0.00    -0.452 OA
ENDROOT
BRANCH   1  12
ATOM     12  C   UNL     1     -27.773   2.209   9.072  1.00  0.00     0.025 A 
ATOM     13  C   UNL     1     -27.032   3.119   9.845  1.00  0.00     0.016 A 
ATOM     14  C   UNL     1     -27.340   4.482   9.819  1.00  0.00     0.051 A 
ATOM     15  C   UNL     1     -28.400   4.952   9.035  1.00  0.00     0.157 A 
ATOM     16  C   UNL     1     -28.850   2.684   8.302  1.00  0.00     0.062 A 
ATOM     17  C   UNL     1     -29.160   4.051   8.278  1.00  0.00     0.158 A 
BRANCH  15  18
ATOM     18  O   UNL     1     -28.708   6.311   9.006  1.00  0.00    -0.504 OA
ATOM     19  H   UNL     1     -29.164   6.735   8.206  1.00  0.00     0.293 HD
ENDBRANCH  15  18
BRANCH  17  20
ATOM     20  O   UNL     1     -30.223   4.521   7.510  1.00  0.00    -0.504 OA
ATOM     21  H   UNL     1     -30.262   5.481   7.189  1.00  0.00     0.293 HD
ENDBRANCH  17  20
ENDBRANCH   1  12
BRANCH   2  22
ATOM     22  O   UNL     1     -29.627   0.198  10.041  1.00  0.00    -0.502 OA
ATOM     23  H   UNL     1     -30.463  -0.054   9.529  1.00  0.00     0.293 HD
ENDBRANCH   2  22
BRANCH   6  24
ATOM     24  O   UNL     1     -27.009  -4.282   9.698  1.00  0.00    -0.507 OA
ATOM     25  H   UNL     1     -27.798  -4.641   9.175  1.00  0.00     0.293 HD
ENDBRANCH   6  24
BRANCH   8  26
ATOM     26  O   UNL     1     -22.848  -2.833   7.731  1.00  0.00    -0.508 OA
ATOM     27  H   UNL     1     -22.371  -3.683   8.008  1.00  0.00     0.293 HD
ENDBRANCH   8  26
TORSDOF 6
ENDMDL
MODEL 7
REMARK VINA RESULT:    -4.892      1.580      6.721
REMARK INTER + INTRA:          -6.209
REMARK INTER:                  -6.544
REMARK INTRA:                   0.335
REMARK UNBOUND:                -0.315
REMARK SMILES O=c1c(O)c(-c2ccc(O)c(O)c2)oc2cc(O)cc(O)c12
REMARK SMILES IDX 5 1 3 2 2 3 1 4 22 5 20 6 19 7 17 8 16 9 15 10 14 11 6 12
REMARK SMILES IDX 7 13 8 14 9 15 13 16 11 17 10 18 12 20 4 22 21 24 18 26
REMARK H PARENT 10 19 12 21 4 23 21 25 18 27
REMARK Flexibility Score: inf
ROOT
ATOM      1  C   UNL     1     -27.922   1.499   8.693  1.00  0.00     0.180 A 
ATOM      2  C   UNL     1     -27.248   2.681   9.059  1.00  0.00     0.208 A 
ATOM      3  C   UNL     1     -27.966   3.886   9.096  1.00  0.00     0.238 A 
ATOM      4  O   UNL     1     -27.377   4.949   9.433  1.00  0.00    -0.285 OA
ATOM      5  C   UNL     1     -29.333   3.895   8.748  1.00  0.00     0.111 A 
ATOM      6  C   UNL     1     -30.126   5.068   8.756  1.00  0.00     0.134 A 
ATOM      7  C   UNL     1     -31.478   4.996   8.388  1.00  0.00     0.093 A 
ATOM      8  C   UNL     1     -32.051   3.778   8.012  1.00  0.00     0.123 A 
ATOM      9  C   UNL     1     -31.272   2.617   8.004  1.00  0.00     0.094 A 
ATOM     10  C   UNL     1     -29.924   2.667   8.369  1.00  0.00     0.146 A 
ATOM     11  O   UNL     1     -29.208   1.548   8.357  1.00  0.00    -0.452 OA
ENDROOT
BRANCH   1  12
ATOM     12  C   UNL     1     -27.239   0.186   8.649  1.00  0.00     0.025 A 
ATOM     13  C   UNL     1     -25.866   0.131   8.357  1.00  0.00     0.016 A 
ATOM     14  C   UNL     1     -25.206  -1.099   8.291  1.00  0.00     0.051 A 
ATOM     15  C   UNL     1     -25.911  -2.290   8.500  1.00  0.00     0.157 A 
ATOM     16  C   UNL     1     -27.947  -1.015   8.839  1.00  0.00     0.062 A 
ATOM     17  C   UNL     1     -27.285  -2.249   8.770  1.00  0.00     0.158 A 
BRANCH  15  18
ATOM     18  O   UNL     1     -25.255  -3.519   8.438  1.00  0.00    -0.504 OA
ATOM     19  H   UNL     1     -25.622  -4.340   8.904  1.00  0.00     0.293 HD
ENDBRANCH  15  18
BRANCH  17  20
ATOM     20  O   UNL     1     -27.986  -3.438   8.964  1.00  0.00    -0.504 OA
ATOM     21  H   UNL     1     -28.999  -3.458   8.989  1.00  0.00     0.293 HD
ENDBRANCH  17  20
ENDBRANCH   1  12
BRANCH   2  22
ATOM     22  O   UNL     1     -25.883   2.653   9.351  1.00  0.00    -0.502 OA
ATOM     23  H   UNL     1     -25.290   3.468   9.250  1.00  0.00     0.293 HD
ENDBRANCH   2  22
BRANCH   6  24
ATOM     24  O   UNL     1     -29.584   6.300   9.124  1.00  0.00    -0.507 OA
ATOM     25  H   UNL     1     -30.099   6.961   9.694  1.00  0.00     0.293 HD
ENDBRANCH   6  24
BRANCH   8  26
ATOM     26  O   UNL     1     -33.394   3.734   7.651  1.00  0.00    -0.508 OA
ATOM     27  H   UNL     1     -33.685   3.802   6.682  1.00  0.00     0.293 HD
ENDBRANCH   8  26
TORSDOF 6
ENDMDL
MODEL 8
REMARK VINA RESULT:    -4.777      1.774      7.348
REMARK INTER + INTRA:          -6.070
REMARK INTER:                  -5.839
REMARK INTRA:                  -0.231
REMARK UNBOUND:                -0.315
REMARK SMILES O=c1c(O)c(-c2ccc(O)c(O)c2)oc2cc(O)cc(O)c12
REMARK SMILES IDX 5 1 3 2 2 3 1 4 22 5 20 6 19 7 17 8 16 9 15 10 14 11 6 12
REMARK SMILES IDX 7 13 8 14 9 15 13 16 11 17 10 18 12 20 4 22 21 24 18 26
REMARK H PARENT 10 19 12 21 4 23 21 25 18 27
REMARK Flexibility Score: inf
ROOT
ATOM      1  C   UNL     1     -31.802   3.408   7.875  1.00  0.00     0.180 A 
ATOM      2  C   UNL     1     -32.771   3.028   8.824  1.00  0.00     0.208 A 
ATOM      3  C   UNL     1     -34.126   3.066   8.463  1.00  0.00     0.238 A 
ATOM      4  O   UNL     1     -35.002   2.716   9.300  1.00  0.00    -0.285 OA
ATOM      5  C   UNL     1     -34.492   3.500   7.171  1.00  0.00     0.111 A 
ATOM      6  C   UNL     1     -35.835   3.570   6.729  1.00  0.00     0.134 A 
ATOM      7  C   UNL     1     -36.118   4.022   5.432  1.00  0.00     0.093 A 
ATOM      8  C   UNL     1     -35.087   4.404   4.570  1.00  0.00     0.123 A 
ATOM      9  C   UNL     1     -33.759   4.335   5.001  1.00  0.00     0.094 A 
ATOM     10  C   UNL     1     -33.456   3.886   6.289  1.00  0.00     0.146 A 
ATOM     11  O   UNL     1     -32.185   3.827   6.671  1.00  0.00    -0.452 OA
ENDROOT
BRANCH   1  12
ATOM     12  C   UNL     1     -30.353   3.377   8.174  1.00  0.00     0.025 A 
ATOM     13  C   UNL     1     -29.631   4.581   8.219  1.00  0.00     0.016 A 
ATOM     14  C   UNL     1     -28.258   4.574   8.479  1.00  0.00     0.051 A 
ATOM     15  C   UNL     1     -27.585   3.363   8.682  1.00  0.00     0.157 A 
ATOM     16  C   UNL     1     -29.668   2.163   8.359  1.00  0.00     0.062 A 
ATOM     17  C   UNL     1     -28.290   2.154   8.618  1.00  0.00     0.158 A 
BRANCH  15  18
ATOM     18  O   UNL     1     -26.216   3.352   8.945  1.00  0.00    -0.504 OA
ATOM     19  H   UNL     1     -25.855   3.162   9.872  1.00  0.00     0.293 HD
ENDBRANCH  15  18
BRANCH  17  20
ATOM     20  O   UNL     1     -27.614   0.950   8.807  1.00  0.00    -0.504 OA
ATOM     21  H   UNL     1     -27.248   0.420   8.025  1.00  0.00     0.293 HD
ENDBRANCH  17  20
ENDBRANCH   1  12
BRANCH   2  22
ATOM     22  O   UNL     1     -32.386   2.649  10.112  1.00  0.00    -0.502 OA
ATOM     23  H   UNL     1     -32.038   3.314  10.792  1.00  0.00     0.293 HD
ENDBRANCH   2  22
BRANCH   6  24
ATOM     24  O   UNL     1     -36.888   3.197   7.567  1.00  0.00    -0.507 OA
ATOM     25  H   UNL     1     -37.853   3.249   7.265  1.00  0.00     0.293 HD
ENDBRANCH   6  24
BRANCH   8  26
ATOM     26  O   UNL     1     -35.395   4.850   3.287  1.00  0.00    -0.508 OA
ATOM     27  H   UNL     1     -36.296   5.261   3.071  1.00  0.00     0.293 HD
ENDBRANCH   8  26
TORSDOF 6
ENDMDL
MODEL 9
REMARK VINA RESULT:    -4.711      2.796      6.919
REMARK INTER + INTRA:          -5.991
REMARK INTER:                  -5.963
REMARK INTRA:                  -0.028
REMARK UNBOUND:                -0.315
REMARK SMILES O=c1c(O)c(-c2ccc(O)c(O)c2)oc2cc(O)cc(O)c12
REMARK SMILES IDX 5 1 3 2 2 3 1 4 22 5 20 6 19 7 17 8 16 9 15 10 14 11 6 12
REMARK SMILES IDX 7 13 8 14 9 15 13 16 11 17 10 18 12 20 4 22 21 24 18 26
REMARK H PARENT 10 19 12 21 4 23 21 25 18 27
REMARK Flexibility Score: inf
ROOT
ATOM      1  C   UNL     1     -29.133   3.576   9.357  1.00  0.00     0.180 A 
ATOM      2  C   UNL     1     -30.513   3.487   9.624  1.00  0.00     0.208 A 
ATOM      3  C   UNL     1     -31.250   4.670   9.785  1.00  0.00     0.238 A 
ATOM      4  O   UNL     1     -32.488   4.603  10.012  1.00  0.00    -0.285 OA
ATOM      5  C   UNL     1     -30.596   5.916   9.696  1.00  0.00     0.111 A 
ATOM      6  C   UNL     1     -31.266   7.155   9.850  1.00  0.00     0.134 A 
ATOM      7  C   UNL     1     -30.543   8.353   9.758  1.00  0.00     0.093 A 
ATOM      8  C   UNL     1     -29.166   8.338   9.516  1.00  0.00     0.123 A 
ATOM      9  C   UNL     1     -28.500   7.118   9.363  1.00  0.00     0.094 A 
ATOM     10  C   UNL     1     -29.203   5.913   9.449  1.00  0.00     0.146 A 
ATOM     11  O   UNL     1     -28.547   4.768   9.295  1.00  0.00    -0.452 OA
ENDROOT
BRANCH   1  12
ATOM     12  C   UNL     1     -28.291   2.375   9.155  1.00  0.00     0.025 A 
ATOM     13  C   UNL     1     -27.066   2.267   9.835  1.00  0.00     0.016 A 
ATOM     14  C   UNL     1     -26.247   1.152   9.645  1.00  0.00     0.051 A 
ATOM     15  C   UNL     1     -26.631   0.137   8.761  1.00  0.00     0.157 A 
ATOM     16  C   UNL     1     -28.663   1.361   8.254  1.00  0.00     0.062 A 
ATOM     17  C   UNL     1     -27.840   0.243   8.060  1.00  0.00     0.158 A 
BRANCH  15  18
ATOM     18  O   UNL     1     -25.817  -0.979   8.570  1.00  0.00    -0.504 OA
ATOM     19  H   UNL     1     -26.062  -1.885   8.951  1.00  0.00     0.293 HD
ENDBRANCH  15  18
BRANCH  17  20
ATOM     20  O   UNL     1     -28.213  -0.764   7.171  1.00  0.00    -0.504 OA
ATOM     21  H   UNL     1     -27.598  -1.542   6.964  1.00  0.00     0.293 HD
ENDBRANCH  17  20
ENDBRANCH   1  12
BRANCH   2  22
ATOM     22  O   UNL     1     -31.127   2.239   9.755  1.00  0.00    -0.502 OA
ATOM     23  H   UNL     1     -31.460   1.711   8.957  1.00  0.00     0.293 HD
ENDBRANCH   2  22
BRANCH   6  24
ATOM     24  O   UNL     1     -32.639   7.203  10.093  1.00  0.00    -0.507 OA
ATOM     25  H   UNL     1     -33.012   7.278  11.032  1.00  0.00     0.293 HD
ENDBRANCH   6  24
BRANCH   8  26
ATOM     26  O   UNL     1     -28.471   9.542   9.430  1.00  0.00    -0.508 OA
ATOM     27  H   UNL     1     -28.941  10.409   9.198  1.00  0.00     0.293 HD
ENDBRANCH   8  26
TORSDOF 6
ENDMDL
