MODEL 1
REMARK VINA RESULT:    -3.239      0.000      0.000
REMARK INTER + INTRA:          -5.562
REMARK INTER:                  -4.942
REMARK INTRA:                  -0.620
REMARK UNBOUND:                -0.620
REMARK SMILES CCCCCCCCCCC(=O)[O-]
REMARK SMILES IDX 7 1 8 2 9 3 10 4 11 5 12 6 13 7 6 8 5 9 4 10 3 11 2 12 1 13
REMARK H PARENT
REMARK Flexibility Score: inf
ROOT
ATOM      1  C   UNL     1       8.788 -19.529  13.550  1.00  0.00     0.000 C 
ENDROOT
BRANCH   1   2
ATOM      2  C   UNL     1       9.112 -20.127  12.172  1.00  0.00     0.000 C 
BRANCH   2   3
ATOM      3  C   UNL     1       8.009 -19.872  11.129  1.00  0.00     0.006 C 
BRANCH   3   4
ATOM      4  C   UNL     1       7.181 -21.120  10.779  1.00  0.00     0.053 C 
BRANCH   4   5
ATOM      5  C   UNL     1       7.363 -21.552   9.356  1.00  0.00     0.041 C 
ATOM      6  O   UNL     1       8.390 -21.206   8.715  1.00  0.00    -0.550 OA
ATOM      7  O   UNL     1       6.416 -22.366   8.745  1.00  0.00    -0.550 OA
ENDBRANCH   4   5
ENDBRANCH   3   4
ENDBRANCH   2   3
ENDBRANCH   1   2
BRANCH   1   8
ATOM      8  C   UNL     1       8.853 -20.602  14.643  1.00  0.00     0.000 C 
BRANCH   8   9
ATOM      9  C   UNL     1       7.929 -21.781  14.313  1.00  0.00    -0.000 C 
BRANCH   9  10
ATOM     10  C   UNL     1       7.555 -22.560  15.580  1.00  0.00    -0.000 C 
BRANCH  10  11
ATOM     11  C   UNL     1       8.040 -21.831  16.839  1.00  0.00    -0.000 C 
BRANCH  11  12
ATOM     12  C   UNL     1       6.896 -21.647  17.843  1.00  0.00    -0.003 C 
ATOM     13  C   UNL     1       5.543 -21.921  17.192  1.00  0.00     0.004 C 
ENDBRANCH  11  12
ENDBRANCH  10  11
ENDBRANCH   9  10
ENDBRANCH   8   9
ENDBRANCH   1   8
TORSDOF 9
ENDMDL
MODEL 2
REMARK VINA RESULT:    -2.999     17.359     19.780
REMARK INTER + INTRA:          -5.197
REMARK INTER:                  -4.522
REMARK INTRA:                  -0.675
REMARK UNBOUND:                -0.620
REMARK SMILES CCCCCCCCCCC(=O)[O-]
REMARK SMILES IDX 7 1 8 2 9 3 10 4 11 5 12 6 13 7 6 8 5 9 4 10 3 11 2 12 1 13
REMARK H PARENT
REMARK Flexibility Score: inf
ROOT
ATOM      1  C   UNL     1      -9.750 -19.765  19.951  1.00  0.00     0.000 C 
ENDROOT
BRANCH   1   2
ATOM      2  C   UNL     1     -10.999 -19.706  20.843  1.00  0.00     0.000 C 
BRANCH   2   3
ATOM      3  C   UNL     1     -10.839 -20.486  22.160  1.00  0.00     0.006 C 
BRANCH   3   4
ATOM      4  C   UNL     1      -9.409 -20.464  22.728  1.00  0.00     0.053 C 
BRANCH   4   5
ATOM      5  C   UNL     1      -8.861 -21.839  22.962  1.00  0.00     0.041 C 
ATOM      6  O   UNL     1      -9.199 -22.490  23.986  1.00  0.00    -0.550 OA
ATOM      7  O   UNL     1      -8.003 -22.417  22.034  1.00  0.00    -0.550 OA
ENDBRANCH   4   5
ENDBRANCH   3   4
ENDBRANCH   2   3
ENDBRANCH   1   2
BRANCH   1   8
ATOM      8  C   UNL     1      -9.733 -21.048  19.113  1.00  0.00     0.000 C 
BRANCH   8   9
ATOM      9  C   UNL     1     -11.060 -21.236  18.368  1.00  0.00    -0.000 C 
BRANCH   9  10
ATOM     10  C   UNL     1     -10.825 -21.445  16.867  1.00  0.00    -0.000 C 
BRANCH  10  11
ATOM     11  C   UNL     1     -10.774 -20.104  16.125  1.00  0.00    -0.000 C 
BRANCH  11  12
ATOM     12  C   UNL     1     -10.060 -20.250  14.776  1.00  0.00    -0.003 C 
ATOM     13  C   UNL     1      -8.690 -20.899  14.945  1.00  0.00     0.004 C 
ENDBRANCH  11  12
ENDBRANCH  10  11
ENDBRANCH   9  10
ENDBRANCH   8   9
ENDBRANCH   1   8
TORSDOF 9
ENDMDL
MODEL 3
REMARK VINA RESULT:    -2.997     17.600     18.698
REMARK INTER + INTRA:          -5.194
REMARK INTER:                  -4.322
REMARK INTRA:                  -0.872
REMARK UNBOUND:                -0.620
REMARK SMILES CCCCCCCCCCC(=O)[O-]
REMARK SMILES IDX 7 1 8 2 9 3 10 4 11 5 12 6 13 7 6 8 5 9 4 10 3 11 2 12 1 13
REMARK H PARENT
REMARK Flexibility Score: inf
ROOT
ATOM      1  C   UNL     1      -9.618 -20.524  19.028  1.00  0.00     0.000 C 
ENDROOT
BRANCH   1   2
ATOM      2  C   UNL     1     -10.658 -21.613  18.723  1.00  0.00     0.000 C 
BRANCH   2   3
ATOM      3  C   UNL     1     -11.012 -21.707  17.227  1.00  0.00     0.006 C 
BRANCH   3   4
ATOM      4  C   UNL     1     -10.850 -20.382  16.463  1.00  0.00     0.053 C 
BRANCH   4   5
ATOM      5  C   UNL     1      -9.981 -20.517  15.251  1.00  0.00     0.041 C 
ATOM      6  O   UNL     1     -10.428 -20.213  14.113  1.00  0.00    -0.550 OA
ATOM      7  O   UNL     1      -8.665 -20.947  15.378  1.00  0.00    -0.550 OA
ENDBRANCH   4   5
ENDBRANCH   3   4
ENDBRANCH   2   3
ENDBRANCH   1   2
BRANCH   1   8
ATOM      8  C   UNL     1     -10.025 -19.708  20.261  1.00  0.00     0.000 C 
BRANCH   8   9
ATOM      9  C   UNL     1     -10.986 -20.500  21.154  1.00  0.00    -0.000 C 
BRANCH   9  10
ATOM     10  C   UNL     1     -10.568 -20.416  22.626  1.00  0.00    -0.000 C 
BRANCH  10  11
ATOM     11  C   UNL     1      -9.041 -20.450  22.768  1.00  0.00    -0.000 C 
BRANCH  11  12
ATOM     12  C   UNL     1      -8.560 -21.839  23.203  1.00  0.00    -0.003 C 
ATOM     13  C   UNL     1      -8.127 -22.673  22.001  1.00  0.00     0.004 C 
ENDBRANCH  11  12
ENDBRANCH  10  11
ENDBRANCH   9  10
ENDBRANCH   8   9
ENDBRANCH   1   8
TORSDOF 9
ENDMDL
MODEL 4
REMARK VINA RESULT:    -2.793     17.922     19.388
REMARK INTER + INTRA:          -4.882
REMARK INTER:                  -4.121
REMARK INTRA:                  -0.760
REMARK UNBOUND:                -0.620
REMARK SMILES CCCCCCCCCCC(=O)[O-]
REMARK SMILES IDX 7 1 8 2 9 3 10 4 11 5 12 6 13 7 6 8 5 9 4 10 3 11 2 12 1 13
REMARK H PARENT
REMARK Flexibility Score: inf
ROOT
ATOM      1  C   UNL     1      -8.544 -21.696  18.925  1.00  0.00     0.000 C 
ENDROOT
BRANCH   1   2
ATOM      2  C   UNL     1      -8.277 -22.835  19.921  1.00  0.00     0.000 C 
BRANCH   2   3
ATOM      3  C   UNL     1      -9.372 -22.968  20.994  1.00  0.00     0.006 C 
BRANCH   3   4
ATOM      4  C   UNL     1      -9.807 -21.627  21.611  1.00  0.00     0.053 C 
BRANCH   4   5
ATOM      5  C   UNL     1      -8.964 -21.232  22.785  1.00  0.00     0.041 C 
ATOM      6  O   UNL     1      -8.659 -20.024  22.968  1.00  0.00    -0.550 OA
ATOM      7  O   UNL     1      -8.542 -22.192  23.697  1.00  0.00    -0.550 OA
ENDBRANCH   4   5
ENDBRANCH   3   4
ENDBRANCH   2   3
ENDBRANCH   1   2
BRANCH   1   8
ATOM      8  C   UNL     1      -9.071 -22.243  17.594  1.00  0.00     0.000 C 
BRANCH   8   9
ATOM      9  C   UNL     1     -10.601 -22.161  17.532  1.00  0.00    -0.000 C 
BRANCH   9  10
ATOM     10  C   UNL     1     -11.089 -20.736  17.819  1.00  0.00    -0.000 C 
BRANCH  10  11
ATOM     11  C   UNL     1     -10.801 -19.805  16.634  1.00  0.00    -0.000 C 
BRANCH  11  12
ATOM     12  C   UNL     1     -11.050 -20.519  15.301  1.00  0.00    -0.003 C 
ATOM     13  C   UNL     1      -9.843 -20.397  14.376  1.00  0.00     0.004 C 
ENDBRANCH  11  12
ENDBRANCH  10  11
ENDBRANCH   9  10
ENDBRANCH   8   9
ENDBRANCH   1   8
TORSDOF 9
ENDMDL
MODEL 5
REMARK VINA RESULT:    -2.782     15.857     18.026
REMARK INTER + INTRA:          -4.865
REMARK INTER:                  -3.818
REMARK INTRA:                  -1.046
REMARK UNBOUND:                -0.620
REMARK SMILES CCCCCCCCCCC(=O)[O-]
REMARK SMILES IDX 7 1 8 2 9 3 10 4 11 5 12 6 13 7 6 8 5 9 4 10 3 11 2 12 1 13
REMARK H PARENT
REMARK Flexibility Score: inf
ROOT
ATOM      1  C   UNL     1      -9.626 -20.378  19.532  1.00  0.00     0.000 C 
ENDROOT
BRANCH   1   2
ATOM      2  C   UNL     1     -10.448 -21.591  19.071  1.00  0.00     0.000 C 
BRANCH   2   3
ATOM      3  C   UNL     1      -9.608 -22.638  18.317  1.00  0.00     0.006 C 
BRANCH   3   4
ATOM      4  C   UNL     1      -8.826 -22.067  17.122  1.00  0.00     0.053 C 
BRANCH   4   5
ATOM      5  C   UNL     1      -7.390 -22.495  17.116  1.00  0.00     0.041 C 
ATOM      6  O   UNL     1      -6.688 -22.372  18.155  1.00  0.00    -0.550 OA
ATOM      7  O   UNL     1      -6.834 -23.063  15.976  1.00  0.00    -0.550 OA
ENDBRANCH   4   5
ENDBRANCH   3   4
ENDBRANCH   2   3
ENDBRANCH   1   2
BRANCH   1   8
ATOM      8  C   UNL     1     -10.287 -19.690  20.733  1.00  0.00     0.000 C 
BRANCH   8   9
ATOM      9  C   UNL     1     -10.386 -20.645  21.928  1.00  0.00    -0.000 C 
BRANCH   9  10
ATOM     10  C   UNL     1      -9.092 -20.636  22.750  1.00  0.00    -0.000 C 
BRANCH  10  11
ATOM     11  C   UNL     1      -8.848 -21.999  23.410  1.00  0.00    -0.000 C 
BRANCH  11  12
ATOM     12  C   UNL     1      -8.870 -23.125  22.369  1.00  0.00    -0.003 C 
ATOM     13  C   UNL     1      -7.663 -23.040  21.440  1.00  0.00     0.004 C 
ENDBRANCH  11  12
ENDBRANCH  10  11
ENDBRANCH   9  10
ENDBRANCH   8   9
ENDBRANCH   1   8
TORSDOF 9
ENDMDL
MODEL 6
REMARK VINA RESULT:    -2.758      3.580      6.165
REMARK INTER + INTRA:          -4.829
REMARK INTER:                  -4.313
REMARK INTRA:                  -0.516
REMARK UNBOUND:                -0.620
REMARK SMILES CCCCCCCCCCC(=O)[O-]
REMARK SMILES IDX 7 1 8 2 9 3 10 4 11 5 12 6 13 7 6 8 5 9 4 10 3 11 2 12 1 13
REMARK H PARENT
REMARK Flexibility Score: inf
ROOT
ATOM      1  C   UNL     1       7.250 -21.235  16.744  1.00  0.00     0.000 C 
ENDROOT
BRANCH   1   2
ATOM      2  C   UNL     1       6.296 -22.303  17.299  1.00  0.00     0.000 C 
BRANCH   2   3
ATOM      3  C   UNL     1       4.811 -21.943  17.111  1.00  0.00     0.006 C 
BRANCH   3   4
ATOM      4  C   UNL     1       4.084 -22.813  16.072  1.00  0.00     0.053 C 
BRANCH   4   5
ATOM      5  C   UNL     1       2.649 -22.422  15.894  1.00  0.00     0.041 C 
ATOM      6  O   UNL     1       1.914 -23.054  15.091  1.00  0.00    -0.550 OA
ATOM      7  O   UNL     1       2.111 -21.380  16.641  1.00  0.00    -0.550 OA
ENDBRANCH   4   5
ENDBRANCH   3   4
ENDBRANCH   2   3
ENDBRANCH   1   2
BRANCH   1   8
ATOM      8  C   UNL     1       8.234 -21.846  15.739  1.00  0.00     0.000 C 
BRANCH   8   9
ATOM      9  C   UNL     1       7.490 -22.505  14.572  1.00  0.00    -0.000 C 
BRANCH   9  10
ATOM     10  C   UNL     1       8.293 -22.390  13.271  1.00  0.00    -0.000 C 
BRANCH  10  11
ATOM     11  C   UNL     1       8.234 -20.964  12.710  1.00  0.00    -0.000 C 
BRANCH  11  12
ATOM     12  C   UNL     1       7.166 -20.848  11.616  1.00  0.00    -0.003 C 
ATOM     13  C   UNL     1       7.234 -19.491  10.922  1.00  0.00     0.004 C 
ENDBRANCH  11  12
ENDBRANCH  10  11
ENDBRANCH   9  10
ENDBRANCH   8   9
ENDBRANCH   1   8
TORSDOF 9
ENDMDL
MODEL 7
REMARK VINA RESULT:    -2.686     14.884     17.167
REMARK INTER + INTRA:          -4.718
REMARK INTER:                  -3.954
REMARK INTRA:                  -0.764
REMARK UNBOUND:                -0.620
REMARK SMILES CCCCCCCCCCC(=O)[O-]
REMARK SMILES IDX 7 1 8 2 9 3 10 4 11 5 12 6 13 7 6 8 5 9 4 10 3 11 2 12 1 13
REMARK H PARENT
REMARK Flexibility Score: inf
ROOT
ATOM      1  C   UNL     1      -9.270 -20.112  14.874  1.00  0.00     0.000 C 
ENDROOT
BRANCH   1   2
ATOM      2  C   UNL     1      -8.368 -21.351  14.771  1.00  0.00     0.000 C 
BRANCH   2   3
ATOM      3  C   UNL     1      -7.666 -21.698  16.097  1.00  0.00     0.006 C 
BRANCH   3   4
ATOM      4  C   UNL     1      -6.717 -22.906  16.004  1.00  0.00     0.053 C 
BRANCH   4   5
ATOM      5  C   UNL     1      -5.673 -22.902  17.078  1.00  0.00     0.041 C 
ATOM      6  O   UNL     1      -6.008 -22.998  18.288  1.00  0.00    -0.550 OA
ATOM      7  O   UNL     1      -4.326 -22.828  16.743  1.00  0.00    -0.550 OA
ENDBRANCH   4   5
ENDBRANCH   3   4
ENDBRANCH   2   3
ENDBRANCH   1   2
BRANCH   1   8
ATOM      8  C   UNL     1     -10.748 -20.513  14.940  1.00  0.00     0.000 C 
BRANCH   8   9
ATOM      9  C   UNL     1     -11.125 -20.998  16.345  1.00  0.00    -0.000 C 
BRANCH   9  10
ATOM     10  C   UNL     1     -11.041 -19.855  17.363  1.00  0.00    -0.000 C 
BRANCH  10  11
ATOM     11  C   UNL     1     -11.073 -20.393  18.799  1.00  0.00    -0.000 C 
BRANCH  11  12
ATOM     12  C   UNL     1      -9.657 -20.519  19.372  1.00  0.00    -0.003 C 
ATOM     13  C   UNL     1      -9.181 -21.968  19.349  1.00  0.00     0.004 C 
ENDBRANCH  11  12
ENDBRANCH  10  11
ENDBRANCH   9  10
ENDBRANCH   8   9
ENDBRANCH   1   8
TORSDOF 9
ENDMDL
MODEL 8
REMARK VINA RESULT:    -2.653     16.058     18.576
REMARK INTER + INTRA:          -4.668
REMARK INTER:                  -4.033
REMARK INTRA:                  -0.635
REMARK UNBOUND:                -0.620
REMARK SMILES CCCCCCCCCCC(=O)[O-]
REMARK SMILES IDX 7 1 8 2 9 3 10 4 11 5 12 6 13 7 6 8 5 9 4 10 3 11 2 12 1 13
REMARK H PARENT
REMARK Flexibility Score: inf
ROOT
ATOM      1  C   UNL     1     -10.897 -20.593  16.304  1.00  0.00     0.000 C 
ENDROOT
BRANCH   1   2
ATOM      2  C   UNL     1     -10.928 -19.622  17.494  1.00  0.00     0.000 C 
BRANCH   2   3
ATOM      3  C   UNL     1     -11.064 -20.336  18.851  1.00  0.00     0.006 C 
BRANCH   3   4
ATOM      4  C   UNL     1     -10.307 -19.644  19.999  1.00  0.00     0.053 C 
BRANCH   4   5
ATOM      5  C   UNL     1      -9.999 -20.577  21.130  1.00  0.00     0.041 C 
ATOM      6  O   UNL     1      -9.814 -20.125  22.291  1.00  0.00    -0.550 OA
ATOM      7  O   UNL     1      -9.949 -21.949  20.912  1.00  0.00    -0.550 OA
ENDBRANCH   4   5
ENDBRANCH   3   4
ENDBRANCH   2   3
ENDBRANCH   1   2
BRANCH   1   8
ATOM      8  C   UNL     1     -10.086 -20.010  15.141  1.00  0.00     0.000 C 
BRANCH   8   9
ATOM      9  C   UNL     1      -8.856 -20.875  14.839  1.00  0.00    -0.000 C 
BRANCH   9  10
ATOM     10  C   UNL     1      -8.392 -21.630  16.090  1.00  0.00    -0.000 C 
BRANCH  10  11
ATOM     11  C   UNL     1      -6.903 -21.986  16.000  1.00  0.00    -0.000 C 
BRANCH  11  12
ATOM     12  C   UNL     1      -6.401 -22.588  17.317  1.00  0.00    -0.003 C 
ATOM     13  C   UNL     1      -7.411 -22.377  18.440  1.00  0.00     0.004 C 
ENDBRANCH  11  12
ENDBRANCH  10  11
ENDBRANCH   9  10
ENDBRANCH   8   9
ENDBRANCH   1   8
TORSDOF 9
ENDMDL
MODEL 9
REMARK VINA RESULT:    -1.000      3.346      6.184
REMARK INTER + INTRA:          -2.146
REMARK INTER:                  -1.657
REMARK INTRA:                  -0.489
REMARK UNBOUND:                -0.620
REMARK SMILES CCCCCCCCCCC(=O)[O-]
REMARK SMILES IDX 7 1 8 2 9 3 10 4 11 5 12 6 13 7 6 8 5 9 4 10 3 11 2 12 1 13
REMARK H PARENT
REMARK Flexibility Score: inf
ROOT
ATOM      1  C   UNL     1       8.833 -20.325  14.239  1.00  0.00     0.000 C 
ENDROOT
BRANCH   1   2
ATOM      2  C   UNL     1       9.125 -21.791  13.884  1.00  0.00     0.000 C 
BRANCH   2   3
ATOM      3  C   UNL     1       8.214 -22.785  14.627  1.00  0.00     0.006 C 
BRANCH   3   4
ATOM      4  C   UNL     1       8.206 -22.603  16.154  1.00  0.00     0.053 C 
BRANCH   4   5
ATOM      5  C   UNL     1       6.906 -22.061  16.663  1.00  0.00     0.041 C 
ATOM      6  O   UNL     1       6.895 -21.178  17.561  1.00  0.00    -0.550 OA
ATOM      7  O   UNL     1       5.704 -22.505  16.124  1.00  0.00    -0.550 OA
ENDBRANCH   4   5
ENDBRANCH   3   4
ENDBRANCH   2   3
ENDBRANCH   1   2
BRANCH   1   8
ATOM      8  C   UNL     1       9.052 -19.412  13.027  1.00  0.00     0.000 C 
BRANCH   8   9
ATOM      9  C   UNL     1       8.566 -20.083  11.737  1.00  0.00    -0.000 C 
BRANCH   9  10
ATOM     10  C   UNL     1       7.392 -19.313  11.123  1.00  0.00    -0.000 C 
BRANCH  10  11
ATOM     11  C   UNL     1       7.104 -19.793   9.694  1.00  0.00    -0.000 C 
BRANCH  11  12
ATOM     12  C   UNL     1       8.127 -20.845   9.252  1.00  0.00    -0.003 C 
ATOM     13  C   UNL     1       7.450 -22.179   8.950  1.00  0.00     0.004 C 
ENDBRANCH  11  12
ENDBRANCH  10  11
ENDBRANCH   9  10
ENDBRANCH   8   9
ENDBRANCH   1   8
TORSDOF 9
ENDMDL
