MODEL 1
REMARK VINA RESULT:    -2.502      0.000      0.000
REMARK INTER + INTRA:          -3.857
REMARK INTER:                  -3.526
REMARK INTRA:                  -0.331
REMARK UNBOUND:                -0.331
REMARK SMILES CC1=CCC(=C(C)C)CCC(C)=CCC1
REMARK SMILES IDX 5 1 6 2 7 3 8 4 9 5 10 6 11 7 12 8 13 9 4 11 3 12 2 13 1 14
REMARK SMILES IDX 15 15 14 16
REMARK H PARENT
REMARK Flexibility Score: 60.00
ROOT
ATOM      1  C   UNL     1      50.709  32.401  28.187  1.00  0.00    -0.067 C 
ATOM      2  C   UNL     1      50.895  33.618  28.798  1.00  0.00    -0.077 C 
ATOM      3  C   UNL     1      51.593  34.767  28.099  1.00  0.00     0.039 C 
ATOM      4  C   UNL     1      50.417  33.875  30.212  1.00  0.00     0.039 C 
ENDROOT
BRANCH   1   5
ATOM      5  C   UNL     1      49.738  31.368  28.775  1.00  0.00     0.035 C 
BRANCH   5   6
ATOM      6  C   UNL     1      50.377  30.088  29.344  1.00  0.00     0.035 C 
BRANCH   6   7
ATOM      7  C   UNL     1      50.035  28.844  28.547  1.00  0.00    -0.077 C 
ATOM      8  C   UNL     1      48.688  28.202  28.762  1.00  0.00     0.039 C 
ATOM      9  C   UNL     1      50.860  28.294  27.626  1.00  0.00    -0.028 CG0
ATOM     10  G   UNL     1      52.297  28.687  27.405  1.00  0.00     0.000 G0
ENDBRANCH   6   7
ENDBRANCH   5   6
ENDBRANCH   1   5
BRANCH   1  11
ATOM     11  C   UNL     1      51.167  32.151  26.750  1.00  0.00     0.058 C 
BRANCH  11  12
ATOM     12  C   UNL     1      52.638  31.854  26.510  1.00  0.00    -0.024 C 
ATOM     13  C   UNL     1      53.200  30.681  26.124  1.00  0.00    -0.077 C 
ATOM     14  C   UNL     1      54.685  30.671  25.858  1.00  0.00     0.039 C 
BRANCH  13  15
ATOM     15  C   UNL     1      52.441  29.374  26.043  1.00  0.00     0.034 C 
BRANCH  15  16
ATOM     16  C   UNL     1      52.301  28.685  27.404  1.00  0.00     0.032 CG0
ATOM     17  G   UNL     1      50.861  28.302  27.628  1.00  0.00     0.000 G0
ENDBRANCH  15  16
ENDBRANCH  13  15
ENDBRANCH  11  12
ENDBRANCH   1  11
TORSDOF 0
ENDMDL
MODEL 2
REMARK VINA RESULT:    -2.308      2.503      3.858
REMARK INTER + INTRA:          -3.583
REMARK INTER:                  -3.336
REMARK INTRA:                  -0.247
REMARK UNBOUND:                -0.331
REMARK SMILES CC1=CCC(=C(C)C)CCC(C)=CCC1
REMARK SMILES IDX 5 1 6 2 7 3 8 4 9 5 10 6 11 7 12 8 13 9 4 11 3 12 2 13 1 14
REMARK SMILES IDX 15 15 14 16
REMARK H PARENT
REMARK Flexibility Score: 60.00
ROOT
ATOM      1  C   UNL     1      50.504  32.261  28.705  1.00  0.00    -0.067 C 
ATOM      2  C   UNL     1      50.183  32.508  30.019  1.00  0.00    -0.077 C 
ATOM      3  C   UNL     1      49.683  31.413  30.940  1.00  0.00     0.039 C 
ATOM      4  C   UNL     1      50.307  33.893  30.618  1.00  0.00     0.039 C 
ENDROOT
BRANCH   1   5
ATOM      5  C   UNL     1      51.297  33.289  27.886  1.00  0.00     0.035 C 
BRANCH   5   6
ATOM      6  C   UNL     1      50.463  34.335  27.126  1.00  0.00     0.035 C 
BRANCH   6   7
ATOM      7  C   UNL     1      49.214  33.756  26.489  1.00  0.00    -0.077 C 
ATOM      8  C   UNL     1      47.876  34.096  27.094  1.00  0.00     0.039 C 
ATOM      9  C   UNL     1      49.231  32.976  25.384  1.00  0.00    -0.028 CG0
ATOM     10  G   UNL     1      50.468  32.392  24.752  1.00  0.00     0.000 G0
ENDBRANCH   6   7
ENDBRANCH   5   6
ENDBRANCH   1   5
BRANCH   1  11
ATOM     11  C   UNL     1      50.406  30.857  28.110  1.00  0.00     0.058 C 
BRANCH  11  12
ATOM     12  C   UNL     1      51.542  30.377  27.222  1.00  0.00    -0.024 C 
ATOM     13  C   UNL     1      51.633  30.451  25.871  1.00  0.00    -0.077 C 
ATOM     14  C   UNL     1      52.918  29.989  25.229  1.00  0.00     0.039 C 
BRANCH  13  15
ATOM     15  C   UNL     1      50.490  30.876  24.975  1.00  0.00     0.034 C 
BRANCH  15  16
ATOM     16  C   UNL     1      50.460  32.389  24.731  1.00  0.00     0.032 CG0
ATOM     17  G   UNL     1      49.236  32.979  25.382  1.00  0.00     0.000 G0
ENDBRANCH  15  16
ENDBRANCH  13  15
ENDBRANCH  11  12
ENDBRANCH   1  11
TORSDOF 0
ENDMDL
MODEL 3
REMARK VINA RESULT:    -2.267      2.124      4.199
REMARK INTER + INTRA:          -3.526
REMARK INTER:                  -3.247
REMARK INTRA:                  -0.279
REMARK UNBOUND:                -0.331
REMARK SMILES CC1=CCC(=C(C)C)CCC(C)=CCC1
REMARK SMILES IDX 5 1 6 2 7 3 8 4 9 5 10 6 11 7 12 8 13 9 4 11 3 12 2 13 1 14
REMARK SMILES IDX 15 15 14 16
REMARK H PARENT
REMARK Flexibility Score: 60.00
ROOT
ATOM      1  C   UNL     1      50.148  32.283  26.338  1.00  0.00    -0.067 C 
ATOM      2  C   UNL     1      49.978  32.271  24.974  1.00  0.00    -0.077 C 
ATOM      3  C   UNL     1      49.053  33.247  24.273  1.00  0.00     0.039 C 
ATOM      4  C   UNL     1      50.703  31.274  24.094  1.00  0.00     0.039 C 
ENDROOT
BRANCH   1   5
ATOM      5  C   UNL     1      51.307  31.517  26.990  1.00  0.00     0.035 C 
BRANCH   5   6
ATOM      6  C   UNL     1      50.963  30.126  27.553  1.00  0.00     0.035 C 
BRANCH   6   7
ATOM      7  C   UNL     1      49.501  29.977  27.929  1.00  0.00    -0.077 C 
ATOM      8  C   UNL     1      48.560  29.367  26.923  1.00  0.00     0.039 C 
ATOM      9  C   UNL     1      48.998  30.334  29.134  1.00  0.00    -0.028 CG0
ATOM     10  G   UNL     1      49.740  31.113  30.188  1.00  0.00     0.000 G0
ENDBRANCH   6   7
ENDBRANCH   5   6
ENDBRANCH   1   5
BRANCH   1  11
ATOM     11  C   UNL     1      49.438  33.309  27.221  1.00  0.00     0.058 C 
BRANCH  11  12
ATOM     12  C   UNL     1      50.216  33.918  28.376  1.00  0.00    -0.024 C 
ATOM     13  C   UNL     1      50.193  33.553  29.682  1.00  0.00    -0.077 C 
ATOM     14  C   UNL     1      51.140  34.256  30.622  1.00  0.00     0.039 C 
BRANCH  13  15
ATOM     15  C   UNL     1      49.210  32.557  30.258  1.00  0.00     0.034 C 
BRANCH  15  16
ATOM     16  C   UNL     1      49.734  31.117  30.219  1.00  0.00     0.032 CG0
ATOM     17  G   UNL     1      48.993  30.341  29.161  1.00  0.00     0.000 G0
ENDBRANCH  15  16
ENDBRANCH  13  15
ENDBRANCH  11  12
ENDBRANCH   1  11
TORSDOF 0
ENDMDL
MODEL 4
REMARK VINA RESULT:    -2.174      2.734      5.361
REMARK INTER + INTRA:          -3.395
REMARK INTER:                  -3.248
REMARK INTRA:                  -0.147
REMARK UNBOUND:                -0.331
REMARK SMILES CC1=CCC(=C(C)C)CCC(C)=CCC1
REMARK SMILES IDX 5 1 6 2 7 3 8 4 9 5 10 6 11 7 12 8 13 9 4 11 3 12 2 13 1 14
REMARK SMILES IDX 15 15 14 16
REMARK H PARENT
REMARK Flexibility Score: 60.00
ROOT
ATOM      1  C   UNL     1      54.596  29.429  26.517  1.00  0.00    -0.067 C 
ATOM      2  C   UNL     1      55.807  28.946  26.951  1.00  0.00    -0.077 C 
ATOM      3  C   UNL     1      56.148  27.471  26.895  1.00  0.00     0.039 C 
ATOM      4  C   UNL     1      56.870  29.866  27.515  1.00  0.00     0.039 C 
ENDROOT
BRANCH   1   5
ATOM      5  C   UNL     1      54.388  30.932  26.286  1.00  0.00     0.035 C 
BRANCH   5   6
ATOM      6  C   UNL     1      52.928  31.421  26.292  1.00  0.00     0.035 C 
BRANCH   6   7
ATOM      7  C   UNL     1      52.345  31.581  24.901  1.00  0.00    -0.077 C 
ATOM      8  C   UNL     1      53.088  32.435  23.906  1.00  0.00     0.039 C 
ATOM      9  C   UNL     1      51.208  30.973  24.491  1.00  0.00    -0.028 CG0
ATOM     10  G   UNL     1      50.248  30.234  25.387  1.00  0.00     0.000 G0
ENDBRANCH   6   7
ENDBRANCH   5   6
ENDBRANCH   1   5
BRANCH   1  11
ATOM     11  C   UNL     1      53.535  28.504  25.921  1.00  0.00     0.058 C 
BRANCH  11  12
ATOM     12  C   UNL     1      52.373  28.085  26.807  1.00  0.00    -0.024 C 
ATOM     13  C   UNL     1      51.051  28.092  26.507  1.00  0.00    -0.077 C 
ATOM     14  C   UNL     1      50.097  27.531  27.533  1.00  0.00     0.039 C 
BRANCH  13  15
ATOM     15  C   UNL     1      50.478  28.717  25.253  1.00  0.00     0.034 C 
BRANCH  15  16
ATOM     16  C   UNL     1      50.245  30.225  25.396  1.00  0.00     0.032 CG0
ATOM     17  G   UNL     1      51.212  30.970  24.513  1.00  0.00     0.000 G0
ENDBRANCH  15  16
ENDBRANCH  13  15
ENDBRANCH  11  12
ENDBRANCH   1  11
TORSDOF 0
ENDMDL
MODEL 5
REMARK VINA RESULT:    -2.137      1.995      4.631
REMARK INTER + INTRA:          -3.342
REMARK INTER:                  -3.329
REMARK INTRA:                  -0.013
REMARK UNBOUND:                -0.331
REMARK SMILES CC1=CCC(=C(C)C)CCC(C)=CCC1
REMARK SMILES IDX 5 1 6 2 7 3 8 4 9 5 10 6 11 7 12 8 13 9 4 11 3 12 2 13 1 14
REMARK SMILES IDX 15 15 14 16
REMARK H PARENT
REMARK Flexibility Score: 60.00
ROOT
ATOM      1  C   UNL     1      51.105  31.651  26.731  1.00  0.00    -0.067 C 
ATOM      2  C   UNL     1      52.144  31.205  25.950  1.00  0.00    -0.077 C 
ATOM      3  C   UNL     1      51.949  30.146  24.884  1.00  0.00     0.039 C 
ATOM      4  C   UNL     1      53.549  31.746  26.118  1.00  0.00     0.039 C 
ENDROOT
BRANCH   1   5
ATOM      5  C   UNL     1      51.247  32.928  27.571  1.00  0.00     0.035 C 
BRANCH   5   6
ATOM      6  C   UNL     1      50.045  33.286  28.463  1.00  0.00     0.035 C 
BRANCH   6   7
ATOM      7  C   UNL     1      50.334  33.136  29.945  1.00  0.00    -0.077 C 
ATOM      8  C   UNL     1      51.187  34.179  30.619  1.00  0.00     0.039 C 
ATOM      9  C   UNL     1      49.840  32.131  30.706  1.00  0.00    -0.028 CG0
ATOM     10  G   UNL     1      49.125  30.915  30.179  1.00  0.00     0.000 G0
ENDBRANCH   6   7
ENDBRANCH   5   6
ENDBRANCH   1   5
BRANCH   1  11
ATOM     11  C   UNL     1      49.682  31.125  26.542  1.00  0.00     0.058 C 
BRANCH  11  12
ATOM     12  C   UNL     1      49.368  29.722  27.035  1.00  0.00    -0.024 C 
ATOM     13  C   UNL     1      49.471  29.240  28.298  1.00  0.00    -0.077 C 
ATOM     14  C   UNL     1      49.000  27.828  28.549  1.00  0.00     0.039 C 
BRANCH  13  15
ATOM     15  C   UNL     1      50.116  30.000  29.437  1.00  0.00     0.034 C 
BRANCH  15  16
ATOM     16  C   UNL     1      49.126  30.900  30.184  1.00  0.00     0.032 CG0
ATOM     17  G   UNL     1      49.846  32.118  30.701  1.00  0.00     0.000 G0
ENDBRANCH  15  16
ENDBRANCH  13  15
ENDBRANCH  11  12
ENDBRANCH   1  11
TORSDOF 0
ENDMDL
MODEL 6
REMARK VINA RESULT:    -2.126      2.421      4.092
REMARK INTER + INTRA:          -3.328
REMARK INTER:                  -3.579
REMARK INTRA:                   0.251
REMARK UNBOUND:                -0.331
REMARK SMILES CC1=CCC(=C(C)C)CCC(C)=CCC1
REMARK SMILES IDX 5 1 6 2 7 3 8 4 9 5 10 6 11 7 12 8 13 9 4 11 3 12 2 13 1 14
REMARK SMILES IDX 15 15 14 16
REMARK H PARENT
REMARK Flexibility Score: 60.00
ROOT
ATOM      1  C   UNL     1      49.297  32.729  29.465  1.00  0.00    -0.067 C 
ATOM      2  C   UNL     1      50.322  32.970  30.348  1.00  0.00    -0.077 C 
ATOM      3  C   UNL     1      50.805  31.915  31.323  1.00  0.00     0.039 C 
ATOM      4  C   UNL     1      51.024  34.311  30.400  1.00  0.00     0.039 C 
ENDROOT
BRANCH   1   5
ATOM      5  C   UNL     1      49.035  33.680  28.289  1.00  0.00     0.035 C 
BRANCH   5   6
ATOM      6  C   UNL     1      47.965  33.227  27.280  1.00  0.00     0.035 C 
BRANCH   6   7
ATOM      7  C   UNL     1      48.477  33.163  25.854  1.00  0.00    -0.077 C 
ATOM      8  C   UNL     1      48.257  34.355  24.958  1.00  0.00     0.039 C 
ATOM      9  C   UNL     1      49.151  32.104  25.347  1.00  0.00    -0.028 CG0
ATOM     10  G   UNL     1      49.308  30.769  26.029  1.00  0.00     0.000 G0
ENDBRANCH   6   7
ENDBRANCH   5   6
ENDBRANCH   1   5
BRANCH   1  11
ATOM     11  C   UNL     1      48.609  31.366  29.395  1.00  0.00     0.058 C 
BRANCH  11  12
ATOM     12  C   UNL     1      49.476  30.139  29.168  1.00  0.00    -0.024 C 
ATOM     13  C   UNL     1      50.368  29.921  28.170  1.00  0.00    -0.077 C 
ATOM     14  C   UNL     1      51.182  28.652  28.224  1.00  0.00     0.039 C 
BRANCH  13  15
ATOM     15  C   UNL     1      50.517  30.825  26.965  1.00  0.00     0.034 C 
BRANCH  15  16
ATOM     16  C   UNL     1      49.308  30.763  26.025  1.00  0.00     0.032 CG0
ATOM     17  G   UNL     1      49.133  32.094  25.342  1.00  0.00     0.000 G0
ENDBRANCH  15  16
ENDBRANCH  13  15
ENDBRANCH  11  12
ENDBRANCH   1  11
TORSDOF 0
ENDMDL
MODEL 7
REMARK VINA RESULT:    -2.098      2.497      5.402
REMARK INTER + INTRA:          -3.288
REMARK INTER:                  -2.939
REMARK INTRA:                  -0.348
REMARK UNBOUND:                -0.331
REMARK SMILES CC1=CCC(=C(C)C)CCC(C)=CCC1
REMARK SMILES IDX 5 1 6 2 7 3 8 4 9 5 10 6 11 7 12 8 13 9 4 11 3 12 2 13 1 14
REMARK SMILES IDX 15 15 14 16
REMARK H PARENT
REMARK Flexibility Score: 60.00
ROOT
ATOM      1  C   UNL     1      51.090  30.078  26.994  1.00  0.00    -0.067 C 
ATOM      2  C   UNL     1      51.982  29.040  26.866  1.00  0.00    -0.077 C 
ATOM      3  C   UNL     1      52.055  27.916  27.880  1.00  0.00     0.039 C 
ATOM      4  C   UNL     1      52.949  28.966  25.702  1.00  0.00     0.039 C 
ENDROOT
BRANCH   1   5
ATOM      5  C   UNL     1      50.811  31.022  25.817  1.00  0.00     0.035 C 
BRANCH   5   6
ATOM      6  C   UNL     1      51.069  32.517  26.075  1.00  0.00     0.035 C 
BRANCH   6   7
ATOM      7  C   UNL     1      49.800  33.350  26.089  1.00  0.00    -0.077 C 
ATOM      8  C   UNL     1      49.103  33.615  24.780  1.00  0.00     0.039 C 
ATOM      9  C   UNL     1      49.240  33.842  27.218  1.00  0.00    -0.028 CG0
ATOM     10  G   UNL     1      49.882  33.829  28.582  1.00  0.00     0.000 G0
ENDBRANCH   6   7
ENDBRANCH   5   6
ENDBRANCH   1   5
BRANCH   1  11
ATOM     11  C   UNL     1      50.095  30.136  28.154  1.00  0.00     0.058 C 
BRANCH  11  12
ATOM     12  C   UNL     1      50.574  30.711  29.477  1.00  0.00    -0.024 C 
ATOM     13  C   UNL     1      50.135  31.827  30.109  1.00  0.00    -0.077 C 
ATOM     14  C   UNL     1      50.708  32.131  31.471  1.00  0.00     0.039 C 
BRANCH  13  15
ATOM     15  C   UNL     1      49.184  32.825  29.485  1.00  0.00     0.034 C 
BRANCH  15  16
ATOM     16  C   UNL     1      49.896  33.832  28.574  1.00  0.00     0.032 CG0
ATOM     17  G   UNL     1      49.232  33.843  27.222  1.00  0.00     0.000 G0
ENDBRANCH  15  16
ENDBRANCH  13  15
ENDBRANCH  11  12
ENDBRANCH   1  11
TORSDOF 0
ENDMDL
MODEL 8
REMARK VINA RESULT:    -2.063      2.233      4.822
REMARK INTER + INTRA:          -3.238
REMARK INTER:                  -3.833
REMARK INTRA:                   0.595
REMARK UNBOUND:                -0.331
REMARK SMILES CC1=CCC(=C(C)C)CCC(C)=CCC1
REMARK SMILES IDX 5 1 6 2 7 3 8 4 9 5 10 6 11 7 12 8 13 9 4 11 3 12 2 13 1 14
REMARK SMILES IDX 15 15 14 16
REMARK H PARENT
REMARK Flexibility Score: 60.00
ROOT
ATOM      1  C   UNL     1      55.205  29.289  25.882  1.00  0.00    -0.067 C 
ATOM      2  C   UNL     1      56.278  28.909  26.652  1.00  0.00    -0.077 C 
ATOM      3  C   UNL     1      56.888  29.832  27.688  1.00  0.00     0.039 C 
ATOM      4  C   UNL     1      56.916  27.543  26.503  1.00  0.00     0.039 C 
ENDROOT
BRANCH   1   5
ATOM      5  C   UNL     1      54.411  28.251  25.078  1.00  0.00     0.035 C 
BRANCH   5   6
ATOM      6  C   UNL     1      52.940  28.060  25.489  1.00  0.00     0.035 C 
BRANCH   6   7
ATOM      7  C   UNL     1      52.751  27.922  26.988  1.00  0.00    -0.077 C 
ATOM      8  C   UNL     1      53.556  26.878  27.719  1.00  0.00     0.039 C 
ATOM      9  C   UNL     1      51.921  28.707  27.713  1.00  0.00    -0.028 CG0
ATOM     10  G   UNL     1      50.918  29.673  27.139  1.00  0.00     0.000 G0
ENDBRANCH   6   7
ENDBRANCH   5   6
ENDBRANCH   1   5
BRANCH   1  11
ATOM     11  C   UNL     1      54.544  30.656  26.054  1.00  0.00     0.058 C 
BRANCH  11  12
ATOM     12  C   UNL     1      53.363  30.996  25.159  1.00  0.00    -0.024 C 
ATOM     13  C   UNL     1      52.083  31.251  25.528  1.00  0.00    -0.077 C 
ATOM     14  C   UNL     1      51.113  31.663  24.449  1.00  0.00     0.039 C 
BRANCH  13  15
ATOM     15  C   UNL     1      51.559  31.049  26.934  1.00  0.00     0.034 C 
BRANCH  15  16
ATOM     16  C   UNL     1      50.907  29.676  27.132  1.00  0.00     0.032 CG0
ATOM     17  G   UNL     1      51.912  28.724  27.725  1.00  0.00     0.000 G0
ENDBRANCH  15  16
ENDBRANCH  13  15
ENDBRANCH  11  12
ENDBRANCH   1  11
TORSDOF 0
ENDMDL
MODEL 9
REMARK VINA RESULT:    -1.980      2.590      3.178
REMARK INTER + INTRA:          -3.121
REMARK INTER:                  -3.057
REMARK INTRA:                  -0.064
REMARK UNBOUND:                -0.331
REMARK SMILES CC1=CCC(=C(C)C)CCC(C)=CCC1
REMARK SMILES IDX 5 1 6 2 7 3 8 4 9 5 10 6 11 7 12 8 13 9 4 11 3 12 2 13 1 14
REMARK SMILES IDX 15 15 14 16
REMARK H PARENT
REMARK Flexibility Score: 60.00
ROOT
ATOM      1  C   UNL     1      49.061  31.698  29.622  1.00  0.00    -0.067 C 
ATOM      2  C   UNL     1      49.891  32.486  30.383  1.00  0.00    -0.077 C 
ATOM      3  C   UNL     1      49.876  33.998  30.281  1.00  0.00     0.039 C 
ATOM      4  C   UNL     1      50.875  31.883  31.364  1.00  0.00     0.039 C 
ENDROOT
BRANCH   1   5
ATOM      5  C   UNL     1      48.863  30.214  29.958  1.00  0.00     0.035 C 
BRANCH   5   6
ATOM      6  C   UNL     1      47.958  29.419  28.999  1.00  0.00     0.035 C 
BRANCH   6   7
ATOM      7  C   UNL     1      48.724  28.441  28.128  1.00  0.00    -0.077 C 
ATOM      8  C   UNL     1      49.214  27.158  28.750  1.00  0.00     0.039 C 
ATOM      9  C   UNL     1      48.964  28.640  26.812  1.00  0.00    -0.028 CG0
ATOM     10  G   UNL     1      48.710  29.926  26.068  1.00  0.00     0.000 G0
ENDBRANCH   6   7
ENDBRANCH   5   6
ENDBRANCH   1   5
BRANCH   1  11
ATOM     11  C   UNL     1      48.049  32.309  28.653  1.00  0.00     0.058 C 
BRANCH  11  12
ATOM     12  C   UNL     1      48.577  32.966  27.388  1.00  0.00    -0.024 C 
ATOM     13  C   UNL     1      49.255  32.385  26.367  1.00  0.00    -0.077 C 
ATOM     14  C   UNL     1      49.586  33.242  25.170  1.00  0.00     0.039 C 
BRANCH  13  15
ATOM     15  C   UNL     1      49.777  30.965  26.407  1.00  0.00     0.034 C 
BRANCH  15  16
ATOM     16  C   UNL     1      48.704  29.930  26.051  1.00  0.00     0.032 CG0
ATOM     17  G   UNL     1      48.969  28.652  26.804  1.00  0.00     0.000 G0
ENDBRANCH  15  16
ENDBRANCH  13  15
ENDBRANCH  11  12
ENDBRANCH   1  11
TORSDOF 0
ENDMDL
