MODEL 1
REMARK VINA RESULT:    -5.349      0.000      0.000
REMARK INTER + INTRA:          -5.906
REMARK INTER:                  -5.818
REMARK INTRA:                  -0.088
REMARK UNBOUND:                -0.088
REMARK SMILES C=C(C)[C@@H]1CC[C@@H](C)C[C@H]1O
REMARK SMILES IDX 8 1 7 2 6 3 5 4 4 5 10 6 9 7 11 8 2 10 1 11 3 12
REMARK H PARENT 11 9
REMARK Flexibility Score: inf
ROOT
ATOM      1  C   UNL     1       8.978 -23.528  32.960  1.00  0.00     0.008 C 
ATOM      2  C   UNL     1       9.720 -22.197  32.796  1.00  0.00    -0.012 C 
ATOM      3  C   UNL     1       9.400 -21.252  33.970  1.00  0.00     0.004 C 
ATOM      4  C   UNL     1      10.122 -19.910  33.808  1.00  0.00     0.011 C 
ATOM      5  C   UNL     1       9.758 -19.244  32.465  1.00  0.00     0.043 C 
ATOM      6  C   UNL     1      10.076 -20.186  31.281  1.00  0.00     0.121 C 
ATOM      7  C   UNL     1       9.351 -21.533  31.454  1.00  0.00     0.035 C 
ENDROOT
BRANCH   6   8
ATOM      8  O   UNL     1       9.662 -19.582  30.082  1.00  0.00    -0.392 OA
ATOM      9  H   UNL     1       9.844 -18.610  30.173  1.00  0.00     0.210 HD
ENDBRANCH   6   8
BRANCH   5  10
ATOM     10  C   UNL     1      10.472 -17.909  32.319  1.00  0.00    -0.075 C 
ATOM     11  C   UNL     1       9.857 -16.775  32.690  1.00  0.00     0.008 C 
ATOM     12  C   UNL     1      11.874 -17.851  31.763  1.00  0.00     0.039 C 
ENDBRANCH   5  10
TORSDOF 2
ENDMDL
MODEL 2
REMARK VINA RESULT:    -5.279     10.792     12.321
REMARK INTER + INTRA:          -5.830
REMARK INTER:                  -5.817
REMARK INTRA:                  -0.013
REMARK UNBOUND:                -0.088
REMARK SMILES C=C(C)[C@@H]1CC[C@@H](C)C[C@H]1O
REMARK SMILES IDX 8 1 7 2 6 3 5 4 4 5 10 6 9 7 11 8 2 10 1 11 3 12
REMARK H PARENT 11 9
REMARK Flexibility Score: inf
ROOT
ATOM      1  C   UNL     1       5.216 -15.291  21.394  1.00  0.00     0.008 C 
ATOM      2  C   UNL     1       6.106 -16.499  21.085  1.00  0.00    -0.012 C 
ATOM      3  C   UNL     1       5.340 -17.532  20.238  1.00  0.00     0.004 C 
ATOM      4  C   UNL     1       6.215 -18.754  19.938  1.00  0.00     0.011 C 
ATOM      5  C   UNL     1       6.730 -19.400  21.241  1.00  0.00     0.043 C 
ATOM      6  C   UNL     1       7.500 -18.369  22.098  1.00  0.00     0.121 C 
ATOM      7  C   UNL     1       6.617 -17.143  22.390  1.00  0.00     0.035 C 
ENDROOT
BRANCH   6   8
ATOM      8  O   UNL     1       7.888 -18.967  23.308  1.00  0.00    -0.392 OA
ATOM      9  H   UNL     1       7.686 -19.935  23.227  1.00  0.00     0.210 HD
ENDBRANCH   6   8
BRANCH   5  10
ATOM     10  C   UNL     1       7.589 -20.617  20.932  1.00  0.00    -0.075 C 
ATOM     11  C   UNL     1       7.016 -21.822  20.781  1.00  0.00     0.008 C 
ATOM     12  C   UNL     1       9.085 -20.478  20.789  1.00  0.00     0.039 C 
ENDBRANCH   5  10
TORSDOF 2
ENDMDL
MODEL 3
REMARK VINA RESULT:    -5.015      5.588      8.412
REMARK INTER + INTRA:          -5.543
REMARK INTER:                  -5.348
REMARK INTRA:                  -0.195
REMARK UNBOUND:                -0.088
REMARK SMILES C=C(C)[C@@H]1CC[C@@H](C)C[C@H]1O
REMARK SMILES IDX 8 1 7 2 6 3 5 4 4 5 10 6 9 7 11 8 2 10 1 11 3 12
REMARK H PARENT 11 9
REMARK Flexibility Score: inf
ROOT
ATOM      1  C   UNL     1      12.102 -12.187  25.226  1.00  0.00     0.008 C 
ATOM      2  C   UNL     1      11.913 -12.973  26.528  1.00  0.00    -0.012 C 
ATOM      3  C   UNL     1      12.645 -12.276  27.690  1.00  0.00     0.004 C 
ATOM      4  C   UNL     1      12.478 -13.063  28.995  1.00  0.00     0.011 C 
ATOM      5  C   UNL     1      12.980 -14.513  28.834  1.00  0.00     0.043 C 
ATOM      6  C   UNL     1      12.251 -15.220  27.668  1.00  0.00     0.121 C 
ATOM      7  C   UNL     1      12.418 -14.420  26.364  1.00  0.00     0.035 C 
ENDROOT
BRANCH   6   8
ATOM      8  O   UNL     1      12.784 -16.509  27.500  1.00  0.00    -0.392 OA
ATOM      9  H   UNL     1      13.267 -16.732  28.339  1.00  0.00     0.210 HD
ENDBRANCH   6   8
BRANCH   5  10
ATOM     10  C   UNL     1      12.820 -15.283  30.137  1.00  0.00    -0.075 C 
ATOM     11  C   UNL     1      13.906 -15.670  30.825  1.00  0.00     0.008 C 
ATOM     12  C   UNL     1      11.445 -15.609  30.665  1.00  0.00     0.039 C 
ENDBRANCH   5  10
TORSDOF 2
ENDMDL
MODEL 4
REMARK VINA RESULT:    -4.994      4.331      6.311
REMARK INTER + INTRA:          -5.520
REMARK INTER:                  -5.371
REMARK INTRA:                  -0.149
REMARK UNBOUND:                -0.088
REMARK SMILES C=C(C)[C@@H]1CC[C@@H](C)C[C@H]1O
REMARK SMILES IDX 8 1 7 2 6 3 5 4 4 5 10 6 9 7 11 8 2 10 1 11 3 12
REMARK H PARENT 11 9
REMARK Flexibility Score: inf
ROOT
ATOM      1  C   UNL     1      10.369 -16.678  32.734  1.00  0.00     0.008 C 
ATOM      2  C   UNL     1      11.299 -16.443  31.538  1.00  0.00    -0.012 C 
ATOM      3  C   UNL     1      12.766 -16.366  32.002  1.00  0.00     0.004 C 
ATOM      4  C   UNL     1      13.703 -16.113  30.816  1.00  0.00     0.011 C 
ATOM      5  C   UNL     1      13.308 -14.828  30.061  1.00  0.00     0.043 C 
ATOM      6  C   UNL     1      11.836 -14.897  29.593  1.00  0.00     0.121 C 
ATOM      7  C   UNL     1      10.901 -15.156  30.788  1.00  0.00     0.035 C 
ENDROOT
BRANCH   6   8
ATOM      8  O   UNL     1      11.485 -13.684  28.979  1.00  0.00    -0.392 OA
ATOM      9  H   UNL     1      10.502 -13.704  28.843  1.00  0.00     0.210 HD
ENDBRANCH   6   8
BRANCH   5  10
ATOM     10  C   UNL     1      14.251 -14.581  28.893  1.00  0.00    -0.075 C 
ATOM     11  C   UNL     1      14.589 -15.593  28.078  1.00  0.00     0.008 C 
ATOM     12  C   UNL     1      14.805 -13.201  28.639  1.00  0.00     0.039 C 
ENDBRANCH   5  10
TORSDOF 2
ENDMDL
MODEL 5
REMARK VINA RESULT:    -4.993      1.079      4.264
REMARK INTER + INTRA:          -5.519
REMARK INTER:                  -5.331
REMARK INTRA:                  -0.187
REMARK UNBOUND:                -0.088
REMARK SMILES C=C(C)[C@@H]1CC[C@@H](C)C[C@H]1O
REMARK SMILES IDX 8 1 7 2 6 3 5 4 4 5 10 6 9 7 11 8 2 10 1 11 3 12
REMARK H PARENT 11 9
REMARK Flexibility Score: inf
ROOT
ATOM      1  C   UNL     1      10.086 -17.729  32.712  1.00  0.00     0.008 C 
ATOM      2  C   UNL     1       9.528 -19.152  32.602  1.00  0.00    -0.012 C 
ATOM      3  C   UNL     1      10.127 -20.053  33.697  1.00  0.00     0.004 C 
ATOM      4  C   UNL     1       9.589 -21.484  33.585  1.00  0.00     0.011 C 
ATOM      5  C   UNL     1       9.870 -22.074  32.188  1.00  0.00     0.043 C 
ATOM      6  C   UNL     1       9.273 -21.174  31.082  1.00  0.00     0.121 C 
ATOM      7  C   UNL     1       9.813 -19.738  31.205  1.00  0.00     0.035 C 
ENDROOT
BRANCH   6   8
ATOM      8  O   UNL     1       9.611 -21.697  29.823  1.00  0.00    -0.392 OA
ATOM      9  H   UNL     1       9.628 -22.685  29.918  1.00  0.00     0.210 HD
ENDBRANCH   6   8
BRANCH   5  10
ATOM     10  C   UNL     1       9.342 -23.497  32.091  1.00  0.00    -0.075 C 
ATOM     11  C   UNL     1       8.072 -23.766  32.432  1.00  0.00     0.008 C 
ATOM     12  C   UNL     1      10.237 -24.611  31.608  1.00  0.00     0.039 C 
ENDBRANCH   5  10
TORSDOF 2
ENDMDL
MODEL 6
REMARK VINA RESULT:    -4.976      3.485      6.548
REMARK INTER + INTRA:          -5.501
REMARK INTER:                  -5.675
REMARK INTRA:                   0.175
REMARK UNBOUND:                -0.088
REMARK SMILES C=C(C)[C@@H]1CC[C@@H](C)C[C@H]1O
REMARK SMILES IDX 8 1 7 2 6 3 5 4 4 5 10 6 9 7 11 8 2 10 1 11 3 12
REMARK H PARENT 11 9
REMARK Flexibility Score: inf
ROOT
ATOM      1  C   UNL     1      14.725 -14.377  28.084  1.00  0.00     0.008 C 
ATOM      2  C   UNL     1      13.627 -15.153  28.820  1.00  0.00    -0.012 C 
ATOM      3  C   UNL     1      12.485 -14.208  29.237  1.00  0.00     0.004 C 
ATOM      4  C   UNL     1      11.389 -14.971  29.989  1.00  0.00     0.011 C 
ATOM      5  C   UNL     1      11.965 -15.696  31.222  1.00  0.00     0.043 C 
ATOM      6  C   UNL     1      13.114 -16.647  30.812  1.00  0.00     0.121 C 
ATOM      7  C   UNL     1      14.208 -15.875  30.052  1.00  0.00     0.035 C 
ENDROOT
BRANCH   6   8
ATOM      8  O   UNL     1      13.667 -17.232  31.963  1.00  0.00    -0.392 OA
ATOM      9  H   UNL     1      14.644 -17.310  31.804  1.00  0.00     0.210 HD
ENDBRANCH   6   8
BRANCH   5  10
ATOM     10  C   UNL     1      10.868 -16.441  31.968  1.00  0.00    -0.075 C 
ATOM     11  C   UNL     1       9.969 -15.760  32.694  1.00  0.00     0.008 C 
ATOM     12  C   UNL     1      10.781 -17.946  31.891  1.00  0.00     0.039 C 
ENDBRANCH   5  10
TORSDOF 2
ENDMDL
MODEL 7
REMARK VINA RESULT:    -4.896      5.791      7.303
REMARK INTER + INTRA:          -5.413
REMARK INTER:                  -5.217
REMARK INTRA:                  -0.196
REMARK UNBOUND:                -0.088
REMARK SMILES C=C(C)[C@@H]1CC[C@@H](C)C[C@H]1O
REMARK SMILES IDX 8 1 7 2 6 3 5 4 4 5 10 6 9 7 11 8 2 10 1 11 3 12
REMARK H PARENT 11 9
REMARK Flexibility Score: inf
ROOT
ATOM      1  C   UNL     1      13.693 -16.309  32.123  1.00  0.00     0.008 C 
ATOM      2  C   UNL     1      13.371 -15.410  30.924  1.00  0.00    -0.012 C 
ATOM      3  C   UNL     1      11.861 -15.430  30.623  1.00  0.00     0.004 C 
ATOM      4  C   UNL     1      11.530 -14.549  29.414  1.00  0.00     0.011 C 
ATOM      5  C   UNL     1      12.332 -14.989  28.172  1.00  0.00     0.043 C 
ATOM      6  C   UNL     1      13.851 -14.973  28.465  1.00  0.00     0.121 C 
ATOM      7  C   UNL     1      14.174 -15.855  29.685  1.00  0.00     0.035 C 
ENDROOT
BRANCH   6   8
ATOM      8  O   UNL     1      14.546 -15.452  27.343  1.00  0.00    -0.392 OA
ATOM      9  H   UNL     1      15.507 -15.253  27.495  1.00  0.00     0.210 HD
ENDBRANCH   6   8
BRANCH   5  10
ATOM     10  C   UNL     1      11.989 -14.115  26.975  1.00  0.00    -0.075 C 
ATOM     11  C   UNL     1      11.342 -14.642  25.924  1.00  0.00     0.008 C 
ATOM     12  C   UNL     1      12.368 -12.655  26.964  1.00  0.00     0.039 C 
ENDBRANCH   5  10
TORSDOF 2
ENDMDL
MODEL 8
REMARK VINA RESULT:    -4.885     10.759     11.760
REMARK INTER + INTRA:          -5.401
REMARK INTER:                  -5.269
REMARK INTRA:                  -0.132
REMARK UNBOUND:                -0.088
REMARK SMILES C=C(C)[C@@H]1CC[C@@H](C)C[C@H]1O
REMARK SMILES IDX 8 1 7 2 6 3 5 4 4 5 10 6 9 7 11 8 2 10 1 11 3 12
REMARK H PARENT 11 9
REMARK Flexibility Score: inf
ROOT
ATOM      1  C   UNL     1       7.281 -20.941  20.830  1.00  0.00     0.008 C 
ATOM      2  C   UNL     1       6.611 -19.621  21.224  1.00  0.00    -0.012 C 
ATOM      3  C   UNL     1       6.450 -18.709  19.993  1.00  0.00     0.004 C 
ATOM      4  C   UNL     1       5.797 -17.377  20.378  1.00  0.00     0.011 C 
ATOM      5  C   UNL     1       6.608 -16.660  21.479  1.00  0.00     0.043 C 
ATOM      6  C   UNL     1       6.775 -17.570  22.718  1.00  0.00     0.121 C 
ATOM      7  C   UNL     1       7.425 -18.907  22.321  1.00  0.00     0.035 C 
ENDROOT
BRANCH   6   8
ATOM      8  O   UNL     1       7.580 -16.920  23.667  1.00  0.00    -0.392 OA
ATOM      9  H   UNL     1       6.968 -16.417  24.267  1.00  0.00     0.210 HD
ENDBRANCH   6   8
BRANCH   5  10
ATOM     10  C   UNL     1       5.957 -15.335  21.846  1.00  0.00    -0.075 C 
ATOM     11  C   UNL     1       6.696 -14.216  21.897  1.00  0.00     0.008 C 
ATOM     12  C   UNL     1       4.480 -15.270  22.150  1.00  0.00     0.039 C 
ENDBRANCH   5  10
TORSDOF 2
ENDMDL
MODEL 9
REMARK VINA RESULT:    -4.850      4.366      7.437
REMARK INTER + INTRA:          -5.363
REMARK INTER:                  -5.232
REMARK INTRA:                  -0.131
REMARK UNBOUND:                -0.088
REMARK SMILES C=C(C)[C@@H]1CC[C@@H](C)C[C@H]1O
REMARK SMILES IDX 8 1 7 2 6 3 5 4 4 5 10 6 9 7 11 8 2 10 1 11 3 12
REMARK H PARENT 11 9
REMARK Flexibility Score: inf
ROOT
ATOM      1  C   UNL     1      12.842 -13.044  26.517  1.00  0.00     0.008 C 
ATOM      2  C   UNL     1      13.016 -13.652  27.914  1.00  0.00    -0.012 C 
ATOM      3  C   UNL     1      13.916 -14.899  27.851  1.00  0.00     0.004 C 
ATOM      4  C   UNL     1      14.083 -15.526  29.240  1.00  0.00     0.011 C 
ATOM      5  C   UNL     1      12.713 -15.879  29.856  1.00  0.00     0.043 C 
ATOM      6  C   UNL     1      11.802 -14.632  29.921  1.00  0.00     0.121 C 
ATOM      7  C   UNL     1      11.645 -14.005  28.524  1.00  0.00     0.035 C 
ENDROOT
BRANCH   6   8
ATOM      8  O   UNL     1      10.540 -15.003  30.413  1.00  0.00    -0.392 OA
ATOM      9  H   UNL     1       9.887 -14.832  29.685  1.00  0.00     0.210 HD
ENDBRANCH   6   8
BRANCH   5  10
ATOM     10  C   UNL     1      12.890 -16.510  31.229  1.00  0.00    -0.075 C 
ATOM     11  C   UNL     1      13.781 -15.998  32.093  1.00  0.00     0.008 C 
ATOM     12  C   UNL     1      12.065 -17.708  31.630  1.00  0.00     0.039 C 
ENDBRANCH   5  10
TORSDOF 2
ENDMDL
