MODEL 1
REMARK VINA RESULT:    -3.819      0.000      0.000
REMARK INTER + INTRA:          -5.443
REMARK INTER:                  -5.159
REMARK INTRA:                  -0.284
REMARK UNBOUND:                -0.284
REMARK SMILES O=C[C@@H](O)[C@@H](O)[C@H](O)CO
REMARK SMILES IDX 7 1 9 2 10 3 5 5 3 6 2 7 1 8 4 9 6 11 8 13
REMARK H PARENT 10 4 4 10 6 12 8 14
REMARK Flexibility Score: inf
ROOT
ATOM      1  C   UNL     1     -26.233 -12.045  19.815  1.00  0.00     0.171 C 
ENDROOT
BRANCH   1   2
ATOM      2  C   UNL     1     -27.570 -12.143  20.575  1.00  0.00     0.190 C 
BRANCH   2   3
ATOM      3  O   UNL     1     -27.621 -13.306  21.357  1.00  0.00    -0.394 OA
ATOM      4  H   UNL     1     -27.086 -13.113  22.171  1.00  0.00     0.210 HD
ENDBRANCH   2   3
ENDBRANCH   1   2
BRANCH   1   5
ATOM      5  C   UNL     1     -26.416 -11.636  18.327  1.00  0.00     0.181 C 
BRANCH   5   6
ATOM      6  C   UNL     1     -26.448 -10.098  18.146  1.00  0.00     0.209 C 
BRANCH   6   7
ATOM      7  C   UNL     1     -25.056  -9.549  17.983  1.00  0.00     0.258 C 
ATOM      8  O   UNL     1     -24.508  -9.556  16.892  1.00  0.00    -0.300 OA
ENDBRANCH   6   7
BRANCH   6   9
ATOM      9  O   UNL     1     -27.214  -9.767  17.016  1.00  0.00    -0.383 OA
ATOM     10  H   UNL     1     -26.624  -9.246  16.411  1.00  0.00     0.211 HD
ENDBRANCH   6   9
ENDBRANCH   5   6
BRANCH   5  11
ATOM     11  O   UNL     1     -25.429 -12.223  17.512  1.00  0.00    -0.387 OA
ATOM     12  H   UNL     1     -25.237 -11.598  16.763  1.00  0.00     0.211 HD
ENDBRANCH   5  11
ENDBRANCH   1   5
BRANCH   1  13
ATOM     13  O   UNL     1     -25.478 -13.226  19.947  1.00  0.00    -0.388 OA
ATOM     14  H   UNL     1     -24.649 -13.123  19.415  1.00  0.00     0.211 HD
ENDBRANCH   1  13
TORSDOF 8
ENDMDL
MODEL 2
REMARK VINA RESULT:    -3.807      2.671      5.560
REMARK INTER + INTRA:          -5.427
REMARK INTER:                  -4.907
REMARK INTRA:                  -0.520
REMARK UNBOUND:                -0.284
REMARK SMILES O=C[C@@H](O)[C@@H](O)[C@H](O)CO
REMARK SMILES IDX 7 1 9 2 10 3 5 5 3 6 2 7 1 8 4 9 6 11 8 13
REMARK H PARENT 10 4 4 10 6 12 8 14
REMARK Flexibility Score: inf
ROOT
ATOM      1  C   UNL     1     -27.696 -12.780  21.051  1.00  0.00     0.171 C 
ENDROOT
BRANCH   1   2
ATOM      2  C   UNL     1     -26.874 -12.121  19.927  1.00  0.00     0.190 C 
BRANCH   2   3
ATOM      3  O   UNL     1     -25.736 -12.881  19.622  1.00  0.00    -0.394 OA
ATOM      4  H   UNL     1     -25.693 -13.597  20.308  1.00  0.00     0.210 HD
ENDBRANCH   2   3
ENDBRANCH   1   2
BRANCH   1   5
ATOM      5  C   UNL     1     -29.220 -12.804  20.747  1.00  0.00     0.181 C 
BRANCH   5   6
ATOM      6  C   UNL     1     -29.984 -13.775  21.682  1.00  0.00     0.209 C 
BRANCH   6   7
ATOM      7  C   UNL     1     -30.757 -13.016  22.727  1.00  0.00     0.258 C 
ATOM      8  O   UNL     1     -30.177 -12.345  23.566  1.00  0.00    -0.300 OA
ENDBRANCH   6   7
BRANCH   6   9
ATOM      9  O   UNL     1     -30.870 -14.562  20.929  1.00  0.00    -0.383 OA
ATOM     10  H   UNL     1     -31.078 -15.365  21.475  1.00  0.00     0.211 HD
ENDBRANCH   6   9
ENDBRANCH   5   6
BRANCH   5  11
ATOM     11  O   UNL     1     -29.771 -11.509  20.801  1.00  0.00    -0.387 OA
ATOM     12  H   UNL     1     -30.191 -11.390  21.693  1.00  0.00     0.211 HD
ENDBRANCH   5  11
ENDBRANCH   1   5
BRANCH   1  13
ATOM     13  O   UNL     1     -27.418 -12.197  22.302  1.00  0.00    -0.388 OA
ATOM     14  H   UNL     1     -28.067 -12.554  22.960  1.00  0.00     0.211 HD
ENDBRANCH   1  13
TORSDOF 8
ENDMDL
MODEL 3
REMARK VINA RESULT:    -3.759      1.379      1.868
REMARK INTER + INTRA:          -5.361
REMARK INTER:                  -4.765
REMARK INTRA:                  -0.596
REMARK UNBOUND:                -0.284
REMARK SMILES O=C[C@@H](O)[C@@H](O)[C@H](O)CO
REMARK SMILES IDX 7 1 9 2 10 3 5 5 3 6 2 7 1 8 4 9 6 11 8 13
REMARK H PARENT 10 4 4 10 6 12 8 14
REMARK Flexibility Score: inf
ROOT
ATOM      1  C   UNL     1     -26.245 -11.942  19.483  1.00  0.00     0.171 C 
ENDROOT
BRANCH   1   2
ATOM      2  C   UNL     1     -27.666 -12.016  20.076  1.00  0.00     0.190 C 
BRANCH   2   3
ATOM      3  O   UNL     1     -28.183 -10.734  20.304  1.00  0.00    -0.394 OA
ATOM      4  H   UNL     1     -27.611 -10.327  21.005  1.00  0.00     0.210 HD
ENDBRANCH   2   3
ENDBRANCH   1   2
BRANCH   1   5
ATOM      5  C   UNL     1     -26.241 -11.568  17.975  1.00  0.00     0.181 C 
BRANCH   5   6
ATOM      6  C   UNL     1     -25.989 -10.055  17.752  1.00  0.00     0.209 C 
BRANCH   6   7
ATOM      7  C   UNL     1     -27.200  -9.393  17.153  1.00  0.00     0.258 C 
ATOM      8  O   UNL     1     -28.099  -8.976  17.866  1.00  0.00    -0.300 OA
ENDBRANCH   6   7
BRANCH   6   9
ATOM      9  O   UNL     1     -25.680  -9.438  18.976  1.00  0.00    -0.383 OA
ATOM     10  H   UNL     1     -25.475 -10.165  19.621  1.00  0.00     0.211 HD
ENDBRANCH   6   9
ENDBRANCH   5   6
BRANCH   5  11
ATOM     11  O   UNL     1     -25.313 -12.348  17.259  1.00  0.00    -0.387 OA
ATOM     12  H   UNL     1     -24.558 -12.565  17.867  1.00  0.00     0.211 HD
ENDBRANCH   5  11
ENDBRANCH   1   5
BRANCH   1  13
ATOM     13  O   UNL     1     -25.521 -13.124  19.734  1.00  0.00    -0.388 OA
ATOM     14  H   UNL     1     -24.560 -12.890  19.796  1.00  0.00     0.211 HD
ENDBRANCH   1  13
TORSDOF 8
ENDMDL
MODEL 4
REMARK VINA RESULT:    -3.750      2.741      4.736
REMARK INTER + INTRA:          -5.349
REMARK INTER:                  -4.845
REMARK INTRA:                  -0.503
REMARK UNBOUND:                -0.284
REMARK SMILES O=C[C@@H](O)[C@@H](O)[C@H](O)CO
REMARK SMILES IDX 7 1 9 2 10 3 5 5 3 6 2 7 1 8 4 9 6 11 8 13
REMARK H PARENT 10 4 4 10 6 12 8 14
REMARK Flexibility Score: inf
ROOT
ATOM      1  C   UNL     1     -26.173 -12.682  20.354  1.00  0.00     0.171 C 
ENDROOT
BRANCH   1   2
ATOM      2  C   UNL     1     -26.343 -11.660  19.214  1.00  0.00     0.190 C 
BRANCH   2   3
ATOM      3  O   UNL     1     -25.721 -12.107  18.040  1.00  0.00    -0.394 OA
ATOM      4  H   UNL     1     -25.026 -12.755  18.326  1.00  0.00     0.210 HD
ENDBRANCH   2   3
ENDBRANCH   1   2
BRANCH   1   5
ATOM      5  C   UNL     1     -26.040 -12.011  21.749  1.00  0.00     0.181 C 
BRANCH   5   6
ATOM      6  C   UNL     1     -24.878 -12.613  22.577  1.00  0.00     0.209 C 
BRANCH   6   7
ATOM      7  C   UNL     1     -24.568 -11.751  23.771  1.00  0.00     0.258 C 
ATOM      8  O   UNL     1     -23.841 -10.776  23.664  1.00  0.00    -0.300 OA
ENDBRANCH   6   7
BRANCH   6   9
ATOM      9  O   UNL     1     -25.221 -13.904  23.012  1.00  0.00    -0.383 OA
ATOM     10  H   UNL     1     -25.987 -14.202  22.454  1.00  0.00     0.211 HD
ENDBRANCH   6   9
ENDBRANCH   5   6
BRANCH   5  11
ATOM     11  O   UNL     1     -25.910 -10.614  21.632  1.00  0.00    -0.387 OA
ATOM     12  H   UNL     1     -26.731 -10.196  22.005  1.00  0.00     0.211 HD
ENDBRANCH   5  11
ENDBRANCH   1   5
BRANCH   1  13
ATOM     13  O   UNL     1     -25.112 -13.570  20.095  1.00  0.00    -0.388 OA
ATOM     14  H   UNL     1     -24.624 -13.725  20.943  1.00  0.00     0.211 HD
ENDBRANCH   1  13
TORSDOF 8
ENDMDL
MODEL 5
REMARK VINA RESULT:    -3.738     17.142     19.329
REMARK INTER + INTRA:          -5.333
REMARK INTER:                  -4.820
REMARK INTRA:                  -0.513
REMARK UNBOUND:                -0.284
REMARK SMILES O=C[C@@H](O)[C@@H](O)[C@H](O)CO
REMARK SMILES IDX 7 1 9 2 10 3 5 5 3 6 2 7 1 8 4 9 6 11 8 13
REMARK H PARENT 10 4 4 10 6 12 8 14
REMARK Flexibility Score: inf
ROOT
ATOM      1  C   UNL     1     -37.402  -6.182  34.173  1.00  0.00     0.171 C 
ENDROOT
BRANCH   1   2
ATOM      2  C   UNL     1     -37.060  -5.089  35.205  1.00  0.00     0.190 C 
BRANCH   2   3
ATOM      3  O   UNL     1     -38.180  -4.295  35.487  1.00  0.00    -0.394 OA
ATOM      4  H   UNL     1     -37.850  -3.540  36.040  1.00  0.00     0.210 HD
ENDBRANCH   2   3
ENDBRANCH   1   2
BRANCH   1   5
ATOM      5  C   UNL     1     -36.730  -7.545  34.496  1.00  0.00     0.181 C 
BRANCH   5   6
ATOM      6  C   UNL     1     -37.374  -8.712  33.706  1.00  0.00     0.209 C 
BRANCH   6   7
ATOM      7  C   UNL     1     -36.479  -9.153  32.579  1.00  0.00     0.258 C 
ATOM      8  O   UNL     1     -36.308  -8.438  31.604  1.00  0.00    -0.300 OA
ENDBRANCH   6   7
BRANCH   6   9
ATOM      9  O   UNL     1     -37.607  -9.798  34.566  1.00  0.00    -0.383 OA
ATOM     10  H   UNL     1     -37.058 -10.555  34.230  1.00  0.00     0.211 HD
ENDBRANCH   6   9
ENDBRANCH   5   6
BRANCH   5  11
ATOM     11  O   UNL     1     -35.339  -7.492  34.282  1.00  0.00    -0.387 OA
ATOM     12  H   UNL     1     -34.944  -8.339  34.619  1.00  0.00     0.211 HD
ENDBRANCH   5  11
ENDBRANCH   1   5
BRANCH   1  13
ATOM     13  O   UNL     1     -37.122  -5.756  32.861  1.00  0.00    -0.388 OA
ATOM     14  H   UNL     1     -37.656  -4.941  32.680  1.00  0.00     0.211 HD
ENDBRANCH   1  13
TORSDOF 8
ENDMDL
MODEL 6
REMARK VINA RESULT:    -3.695      2.331      3.808
REMARK INTER + INTRA:          -5.275
REMARK INTER:                  -4.755
REMARK INTRA:                  -0.520
REMARK UNBOUND:                -0.284
REMARK SMILES O=C[C@@H](O)[C@@H](O)[C@H](O)CO
REMARK SMILES IDX 7 1 9 2 10 3 5 5 3 6 2 7 1 8 4 9 6 11 8 13
REMARK H PARENT 10 4 4 10 6 12 8 14
REMARK Flexibility Score: inf
ROOT
ATOM      1  C   UNL     1     -29.113 -12.815  20.774  1.00  0.00     0.171 C 
ENDROOT
BRANCH   1   2
ATOM      2  C   UNL     1     -29.920 -13.750  21.696  1.00  0.00     0.190 C 
BRANCH   2   3
ATOM      3  O   UNL     1     -30.813 -14.538  20.957  1.00  0.00    -0.394 OA
ATOM      4  H   UNL     1     -31.710 -14.134  21.089  1.00  0.00     0.210 HD
ENDBRANCH   2   3
ENDBRANCH   1   2
BRANCH   1   5
ATOM      5  C   UNL     1     -27.600 -12.783  21.125  1.00  0.00     0.181 C 
BRANCH   5   6
ATOM      6  C   UNL     1     -26.740 -12.269  19.943  1.00  0.00     0.209 C 
BRANCH   6   7
ATOM      7  C   UNL     1     -26.311 -10.844  20.173  1.00  0.00     0.258 C 
ATOM      8  O   UNL     1     -27.139  -9.950  20.249  1.00  0.00    -0.300 OA
ENDBRANCH   6   7
BRANCH   6   9
ATOM      9  O   UNL     1     -25.601 -13.078  19.794  1.00  0.00    -0.383 OA
ATOM     10  H   UNL     1     -25.148 -13.103  20.677  1.00  0.00     0.211 HD
ENDBRANCH   6   9
ENDBRANCH   5   6
BRANCH   5  11
ATOM     11  O   UNL     1     -27.362 -12.031  22.291  1.00  0.00    -0.387 OA
ATOM     12  H   UNL     1     -27.629 -11.092  22.111  1.00  0.00     0.211 HD
ENDBRANCH   5  11
ENDBRANCH   1   5
BRANCH   1  13
ATOM     13  O   UNL     1     -29.672 -11.523  20.736  1.00  0.00    -0.388 OA
ATOM     14  H   UNL     1     -28.957 -10.886  20.482  1.00  0.00     0.211 HD
ENDBRANCH   1  13
TORSDOF 8
ENDMDL
MODEL 7
REMARK VINA RESULT:    -3.676      1.218      2.230
REMARK INTER + INTRA:          -5.250
REMARK INTER:                  -4.916
REMARK INTRA:                  -0.334
REMARK UNBOUND:                -0.284
REMARK SMILES O=C[C@@H](O)[C@@H](O)[C@H](O)CO
REMARK SMILES IDX 7 1 9 2 10 3 5 5 3 6 2 7 1 8 4 9 6 11 8 13
REMARK H PARENT 10 4 4 10 6 12 8 14
REMARK Flexibility Score: inf
ROOT
ATOM      1  C   UNL     1     -25.906 -11.267  18.301  1.00  0.00     0.171 C 
ENDROOT
BRANCH   1   2
ATOM      2  C   UNL     1     -26.294 -12.007  19.595  1.00  0.00     0.190 C 
BRANCH   2   3
ATOM      3  O   UNL     1     -25.568 -13.198  19.731  1.00  0.00    -0.394 OA
ATOM      4  H   UNL     1     -26.146 -13.816  20.249  1.00  0.00     0.210 HD
ENDBRANCH   2   3
ENDBRANCH   1   2
BRANCH   1   5
ATOM      5  C   UNL     1     -26.543  -9.852  18.202  1.00  0.00     0.181 C 
BRANCH   5   6
ATOM      6  C   UNL     1     -25.624  -8.758  18.800  1.00  0.00     0.209 C 
BRANCH   6   7
ATOM      7  C   UNL     1     -24.316  -8.693  18.058  1.00  0.00     0.258 C 
ATOM      8  O   UNL     1     -24.280  -8.343  16.889  1.00  0.00    -0.300 OA
ENDBRANCH   6   7
BRANCH   6   9
ATOM      9  O   UNL     1     -26.262  -7.509  18.728  1.00  0.00    -0.383 OA
ATOM     10  H   UNL     1     -25.547  -6.819  18.746  1.00  0.00     0.211 HD
ENDBRANCH   6   9
ENDBRANCH   5   6
BRANCH   5  11
ATOM     11  O   UNL     1     -26.901  -9.546  16.876  1.00  0.00    -0.387 OA
ATOM     12  H   UNL     1     -26.254  -9.995  16.270  1.00  0.00     0.211 HD
ENDBRANCH   5  11
ENDBRANCH   1   5
BRANCH   1  13
ATOM     13  O   UNL     1     -26.178 -12.046  17.160  1.00  0.00    -0.388 OA
ATOM     14  H   UNL     1     -25.941 -12.986  17.365  1.00  0.00     0.211 HD
ENDBRANCH   1  13
TORSDOF 8
ENDMDL
MODEL 8
REMARK VINA RESULT:    -3.664      1.117      4.168
REMARK INTER + INTRA:          -5.233
REMARK INTER:                  -4.529
REMARK INTRA:                  -0.705
REMARK UNBOUND:                -0.284
REMARK SMILES O=C[C@@H](O)[C@@H](O)[C@H](O)CO
REMARK SMILES IDX 7 1 9 2 10 3 5 5 3 6 2 7 1 8 4 9 6 11 8 13
REMARK H PARENT 10 4 4 10 6 12 8 14
REMARK Flexibility Score: inf
ROOT
ATOM      1  C   UNL     1     -26.061 -11.229  17.633  1.00  0.00     0.171 C 
ENDROOT
BRANCH   1   2
ATOM      2  C   UNL     1     -25.194  -9.957  17.702  1.00  0.00     0.190 C 
BRANCH   2   3
ATOM      3  O   UNL     1     -25.951  -8.816  17.404  1.00  0.00    -0.394 OA
ATOM      4  H   UNL     1     -26.848  -9.143  17.134  1.00  0.00     0.210 HD
ENDBRANCH   2   3
ENDBRANCH   1   2
BRANCH   1   5
ATOM      5  C   UNL     1     -26.885 -11.467  18.929  1.00  0.00     0.181 C 
BRANCH   5   6
ATOM      6  C   UNL     1     -25.995 -11.941  20.105  1.00  0.00     0.209 C 
BRANCH   6   7
ATOM      7  C   UNL     1     -26.761 -11.912  21.401  1.00  0.00     0.258 C 
ATOM      8  O   UNL     1     -27.886 -12.382  21.470  1.00  0.00    -0.300 OA
ENDBRANCH   6   7
BRANCH   6   9
ATOM      9  O   UNL     1     -25.540 -13.247  19.863  1.00  0.00    -0.383 OA
ATOM     10  H   UNL     1     -26.012 -13.571  19.052  1.00  0.00     0.211 HD
ENDBRANCH   6   9
ENDBRANCH   5   6
BRANCH   5  11
ATOM     11  O   UNL     1     -27.625 -10.322  19.280  1.00  0.00    -0.387 OA
ATOM     12  H   UNL     1     -28.588 -10.528  19.155  1.00  0.00     0.211 HD
ENDBRANCH   5  11
ENDBRANCH   1   5
BRANCH   1  13
ATOM     13  O   UNL     1     -25.293 -12.357  17.284  1.00  0.00    -0.388 OA
ATOM     14  H   UNL     1     -24.606 -12.071  16.629  1.00  0.00     0.211 HD
ENDBRANCH   1  13
TORSDOF 8
ENDMDL
MODEL 9
REMARK VINA RESULT:    -3.574      1.452      2.118
REMARK INTER + INTRA:          -5.112
REMARK INTER:                  -4.592
REMARK INTRA:                  -0.519
REMARK UNBOUND:                -0.284
REMARK SMILES O=C[C@@H](O)[C@@H](O)[C@H](O)CO
REMARK SMILES IDX 7 1 9 2 10 3 5 5 3 6 2 7 1 8 4 9 6 11 8 13
REMARK H PARENT 10 4 4 10 6 12 8 14
REMARK Flexibility Score: inf
ROOT
ATOM      1  C   UNL     1     -27.339 -12.246  21.149  1.00  0.00     0.171 C 
ENDROOT
BRANCH   1   2
ATOM      2  C   UNL     1     -28.799 -12.737  21.151  1.00  0.00     0.190 C 
BRANCH   2   3
ATOM      3  O   UNL     1     -29.664 -11.748  20.663  1.00  0.00    -0.394 OA
ATOM      4  H   UNL     1     -29.888 -11.171  21.439  1.00  0.00     0.210 HD
ENDBRANCH   2   3
ENDBRANCH   1   2
BRANCH   1   5
ATOM      5  C   UNL     1     -26.676 -12.333  19.746  1.00  0.00     0.181 C 
BRANCH   5   6
ATOM      6  C   UNL     1     -26.385 -10.932  19.152  1.00  0.00     0.209 C 
BRANCH   6   7
ATOM      7  C   UNL     1     -26.289 -10.996  17.652  1.00  0.00     0.258 C 
ATOM      8  O   UNL     1     -25.540 -11.794  17.109  1.00  0.00    -0.300 OA
ENDBRANCH   6   7
BRANCH   6   9
ATOM      9  O   UNL     1     -27.408 -10.039  19.514  1.00  0.00    -0.383 OA
ATOM     10  H   UNL     1     -27.139  -9.143  19.181  1.00  0.00     0.211 HD
ENDBRANCH   6   9
ENDBRANCH   5   6
BRANCH   5  11
ATOM     11  O   UNL     1     -25.510 -13.122  19.781  1.00  0.00    -0.387 OA
ATOM     12  H   UNL     1     -25.785 -14.076  19.807  1.00  0.00     0.211 HD
ENDBRANCH   5  11
ENDBRANCH   1   5
BRANCH   1  13
ATOM     13  O   UNL     1     -26.575 -12.901  22.133  1.00  0.00    -0.388 OA
ATOM     14  H   UNL     1     -27.051 -12.821  22.998  1.00  0.00     0.211 HD
ENDBRANCH   1  13
TORSDOF 8
ENDMDL
