MODEL 1
REMARK VINA RESULT:    -8.393      0.000      0.000
REMARK INTER + INTRA:         -14.514
REMARK INTER:                 -12.563
REMARK INTRA:                  -1.951
REMARK UNBOUND:                -1.951
REMARK SMILES C=C(CC[C@@H](C(=O)[O-])[C@H]1[C@H](O)C[C@]2(C)C3=C(CC[C@]12C)[C@@]1(C)CC[C@@H](OC(C)=O)C(C)(C)[C@H]1CC3)C(C)C
REMARK SMILES IDX 4 1 5 2 6 3 7 4 8 5 9 6 10 7 19 8 12 9 13 10 18 11 20 12
REMARK SMILES IDX 14 13 15 14 17 15 16 16 35 17 21 18 34 19 33 20 23 21 22 22
REMARK SMILES IDX 30 23 24 24 25 25 31 26 32 27 11 28 26 30 27 31 29 32 28 33
REMARK SMILES IDX 3 34 2 35 1 36 36 37 37 38 38 39
REMARK H PARENT 11 29
REMARK Flexibility Score: inf
ROOT
ATOM      1  C   UNL     1      11.059  -9.300  60.993  1.00  0.00     0.014 C 
ENDROOT
BRANCH   1   2
ATOM      2  C   UNL     1      12.224  -8.580  61.747  1.00  0.00     0.042 C 
BRANCH   2   3
ATOM      3  C   UNL     1      11.769  -7.364  62.524  1.00  0.00     0.045 C 
ATOM      4  O   UNL     1      11.200  -6.390  61.954  1.00  0.00    -0.550 OA
ATOM      5  O   UNL     1      12.044  -7.289  63.884  1.00  0.00    -0.550 OA
ENDBRANCH   2   3
BRANCH   2   6
ATOM      6  C   UNL     1      13.181  -9.538  62.546  1.00  0.00     0.033 C 
ATOM      7  C   UNL     1      12.756 -10.997  62.474  1.00  0.00     0.119 C 
ATOM      8  C   UNL     1      14.758  -9.557  62.356  1.00  0.00    -0.017 C 
ATOM      9  C   UNL     1      13.917 -11.749  63.093  1.00  0.00     0.043 C 
ATOM     10  C   UNL     1      15.193 -11.088  62.526  1.00  0.00    -0.003 C 
ATOM     11  C   UNL     1      15.387  -8.704  63.489  1.00  0.00     0.012 C 
ATOM     12  C   UNL     1      15.205  -8.956  60.989  1.00  0.00     0.013 C 
ATOM     13  C   UNL     1      15.528 -11.787  61.169  1.00  0.00     0.017 C 
ATOM     14  C   UNL     1      16.392 -11.365  63.480  1.00  0.00    -0.064 C 
ATOM     15  C   UNL     1      16.878  -8.945  63.608  1.00  0.00     0.032 C 
ATOM     16  C   UNL     1      17.173 -10.373  64.006  1.00  0.00    -0.064 C 
ATOM     17  C   UNL     1      16.768 -12.807  63.727  1.00  0.00     0.032 C 
ATOM     18  C   UNL     1      18.299 -10.634  65.063  1.00  0.00    -0.008 C 
ATOM     19  C   UNL     1      17.363 -13.021  65.097  1.00  0.00     0.009 C 
ATOM     20  C   UNL     1      18.646 -12.176  65.259  1.00  0.00     0.009 C 
ATOM     21  C   UNL     1      17.785 -10.037  66.410  1.00  0.00     0.015 C 
ATOM     22  C   UNL     1      19.571  -9.883  64.562  1.00  0.00     0.016 C 
ATOM     23  C   UNL     1      19.476 -12.538  66.576  1.00  0.00     0.005 C 
ATOM     24  C   UNL     1      18.669 -10.336  67.622  1.00  0.00     0.047 C 
ATOM     25  C   UNL     1      18.883 -11.841  67.833  1.00  0.00     0.182 C 
ATOM     26  C   UNL     1      20.983 -12.143  66.427  1.00  0.00     0.015 C 
ATOM     27  C   UNL     1      19.503 -14.074  66.848  1.00  0.00     0.015 C 
BRANCH   7  28
ATOM     28  O   UNL     1      11.568 -11.228  63.198  1.00  0.00    -0.393 OA
ATOM     29  H   UNL     1      11.114 -11.984  62.740  1.00  0.00     0.210 HD
ENDBRANCH   7  28
BRANCH  25  30
ATOM     30  O   UNL     1      17.642 -12.453  68.209  1.00  0.00    -0.462 OA
BRANCH  30  31
ATOM     31  C   UNL     1      17.458 -13.193  69.380  1.00  0.00     0.302 C 
ATOM     32  O   UNL     1      16.336 -13.681  69.667  1.00  0.00    -0.253 OA
ATOM     33  C   UNL     1      18.596 -13.354  70.323  1.00  0.00     0.139 C 
ENDBRANCH  30  31
ENDBRANCH  25  30
ENDBRANCH   2   6
ENDBRANCH   1   2
BRANCH   1  34
ATOM     34  C   UNL     1      10.955  -8.941  59.494  1.00  0.00     0.031 C 
BRANCH  34  35
ATOM     35  C   UNL     1      12.194  -9.306  58.709  1.00  0.00    -0.075 C 
ATOM     36  C   UNL     1      12.665 -10.566  58.757  1.00  0.00     0.008 C 
BRANCH  35  37
ATOM     37  C   UNL     1      12.899  -8.240  57.874  1.00  0.00     0.008 C 
ATOM     38  C   UNL     1      12.960  -6.901  58.634  1.00  0.00     0.012 C 
ATOM     39  C   UNL     1      14.306  -8.683  57.443  1.00  0.00     0.012 C 
ENDBRANCH  35  37
ENDBRANCH  34  35
ENDBRANCH   1  34
TORSDOF 9
ENDMDL
MODEL 2
REMARK VINA RESULT:    -8.291      1.515      9.113
REMARK INTER + INTRA:         -14.361
REMARK INTER:                 -12.336
REMARK INTRA:                  -2.026
REMARK UNBOUND:                -1.951
REMARK SMILES C=C(CC[C@@H](C(=O)[O-])[C@H]1[C@H](O)C[C@]2(C)C3=C(CC[C@]12C)[C@@]1(C)CC[C@@H](OC(C)=O)C(C)(C)[C@H]1CC3)C(C)C
REMARK SMILES IDX 4 1 5 2 6 3 7 4 8 5 9 6 10 7 19 8 12 9 13 10 18 11 20 12
REMARK SMILES IDX 14 13 15 14 17 15 16 16 35 17 21 18 34 19 33 20 23 21 22 22
REMARK SMILES IDX 30 23 24 24 25 25 31 26 32 27 11 28 26 30 27 31 29 32 28 33
REMARK SMILES IDX 3 34 2 35 1 36 36 37 37 38 38 39
REMARK H PARENT 11 29
REMARK Flexibility Score: inf
ROOT
ATOM      1  C   UNL     1      19.776 -12.589  68.970  1.00  0.00     0.014 C 
ENDROOT
BRANCH   1   2
ATOM      2  C   UNL     1      18.342 -12.908  68.436  1.00  0.00     0.042 C 
BRANCH   2   3
ATOM      3  C   UNL     1      17.359 -13.248  69.535  1.00  0.00     0.045 C 
ATOM      4  O   UNL     1      16.126 -13.391  69.299  1.00  0.00    -0.550 OA
ATOM      5  O   UNL     1      17.815 -13.340  70.845  1.00  0.00    -0.550 OA
ENDBRANCH   2   3
BRANCH   2   6
ATOM      6  C   UNL     1      17.794 -11.888  67.372  1.00  0.00     0.033 C 
ATOM      7  C   UNL     1      18.532 -10.558  67.391  1.00  0.00     0.119 C 
ATOM      8  C   UNL     1      17.616 -12.240  65.833  1.00  0.00    -0.017 C 
ATOM      9  C   UNL     1      18.017  -9.835  66.161  1.00  0.00     0.043 C 
ATOM     10  C   UNL     1      17.973 -10.897  65.040  1.00  0.00    -0.003 C 
ATOM     11  C   UNL     1      16.128 -12.609  65.596  1.00  0.00     0.012 C 
ATOM     12  C   UNL     1      18.494 -13.449  65.388  1.00  0.00     0.013 C 
ATOM     13  C   UNL     1      19.383 -10.935  64.366  1.00  0.00     0.017 C 
ATOM     14  C   UNL     1      16.964 -10.453  63.941  1.00  0.00    -0.064 C 
ATOM     15  C   UNL     1      15.782 -12.616  64.120  1.00  0.00     0.032 C 
ATOM     16  C   UNL     1      15.927 -11.237  63.518  1.00  0.00    -0.064 C 
ATOM     17  C   UNL     1      17.231  -9.142  63.237  1.00  0.00     0.032 C 
ATOM     18  C   UNL     1      14.836 -10.749  62.505  1.00  0.00    -0.008 C 
ATOM     19  C   UNL     1      15.961  -8.462  62.785  1.00  0.00     0.009 C 
ATOM     20  C   UNL     1      15.194  -9.368  61.797  1.00  0.00     0.009 C 
ATOM     21  C   UNL     1      13.516 -10.592  63.323  1.00  0.00     0.015 C 
ATOM     22  C   UNL     1      14.698 -11.860  61.420  1.00  0.00     0.016 C 
ATOM     23  C   UNL     1      13.978  -8.623  61.075  1.00  0.00     0.005 C 
ATOM     24  C   UNL     1      12.356  -9.959  62.552  1.00  0.00     0.047 C 
ATOM     25  C   UNL     1      12.716  -8.580  61.982  1.00  0.00     0.182 C 
ATOM     26  C   UNL     1      13.615  -9.310  59.716  1.00  0.00     0.015 C 
ATOM     27  C   UNL     1      14.339  -7.157  60.685  1.00  0.00     0.015 C 
BRANCH   7  28
ATOM     28  O   UNL     1      18.247  -9.822  68.559  1.00  0.00    -0.393 OA
ATOM     29  H   UNL     1      17.835  -8.972  68.251  1.00  0.00     0.210 HD
ENDBRANCH   7  28
BRANCH  25  30
ATOM     30  O   UNL     1      12.904  -7.651  63.059  1.00  0.00    -0.462 OA
BRANCH  30  31
ATOM     31  C   UNL     1      11.979  -6.665  63.411  1.00  0.00     0.302 C 
ATOM     32  O   UNL     1      11.190  -6.833  64.375  1.00  0.00    -0.253 OA
ATOM     33  C   UNL     1      11.895  -5.424  62.595  1.00  0.00     0.139 C 
ENDBRANCH  30  31
ENDBRANCH  25  30
ENDBRANCH   2   6
ENDBRANCH   1   2
BRANCH   1  34
ATOM     34  C   UNL     1      20.763 -13.774  68.885  1.00  0.00     0.031 C 
BRANCH  34  35
ATOM     35  C   UNL     1      21.953 -13.493  67.996  1.00  0.00    -0.075 C 
ATOM     36  C   UNL     1      23.188 -13.835  68.410  1.00  0.00     0.008 C 
BRANCH  35  37
ATOM     37  C   UNL     1      21.741 -12.823  66.642  1.00  0.00     0.008 C 
ATOM     38  C   UNL     1      22.212 -11.356  66.676  1.00  0.00     0.012 C 
ATOM     39  C   UNL     1      22.435 -13.589  65.504  1.00  0.00     0.012 C 
ENDBRANCH  35  37
ENDBRANCH  34  35
ENDBRANCH   1  34
TORSDOF 9
ENDMDL
MODEL 3
REMARK VINA RESULT:    -8.146      1.533      2.842
REMARK INTER + INTRA:         -14.144
REMARK INTER:                 -13.615
REMARK INTRA:                  -0.529
REMARK UNBOUND:                -1.951
REMARK SMILES C=C(CC[C@@H](C(=O)[O-])[C@H]1[C@H](O)C[C@]2(C)C3=C(CC[C@]12C)[C@@]1(C)CC[C@@H](OC(C)=O)C(C)(C)[C@H]1CC3)C(C)C
REMARK SMILES IDX 4 1 5 2 6 3 7 4 8 5 9 6 10 7 19 8 12 9 13 10 18 11 20 12
REMARK SMILES IDX 14 13 15 14 17 15 16 16 35 17 21 18 34 19 33 20 23 21 22 22
REMARK SMILES IDX 30 23 24 24 25 25 31 26 32 27 11 28 26 30 27 31 29 32 28 33
REMARK SMILES IDX 3 34 2 35 1 36 36 37 37 38 38 39
REMARK H PARENT 11 29
REMARK Flexibility Score: inf
ROOT
ATOM      1  C   UNL     1      12.382  -7.268  61.898  1.00  0.00     0.014 C 
ENDROOT
BRANCH   1   2
ATOM      2  C   UNL     1      12.055  -8.796  61.848  1.00  0.00     0.042 C 
BRANCH   2   3
ATOM      3  C   UNL     1      11.725  -9.288  60.456  1.00  0.00     0.045 C 
ATOM      4  O   UNL     1      11.268 -10.450  60.256  1.00  0.00    -0.550 OA
ATOM      5  O   UNL     1      11.994  -8.468  59.366  1.00  0.00    -0.550 OA
ENDBRANCH   2   3
BRANCH   2   6
ATOM      6  C   UNL     1      13.061  -9.711  62.636  1.00  0.00     0.033 C 
ATOM      7  C   UNL     1      12.713 -11.189  62.547  1.00  0.00     0.119 C 
ATOM      8  C   UNL     1      14.637  -9.644  62.449  1.00  0.00    -0.017 C 
ATOM      9  C   UNL     1      13.913 -11.886  63.158  1.00  0.00     0.043 C 
ATOM     10  C   UNL     1      15.152 -11.152  62.600  1.00  0.00    -0.003 C 
ATOM     11  C   UNL     1      15.219  -8.773  63.593  1.00  0.00     0.012 C 
ATOM     12  C   UNL     1      15.053  -9.004  61.090  1.00  0.00     0.013 C 
ATOM     13  C   UNL     1      15.525 -11.816  61.235  1.00  0.00     0.017 C 
ATOM     14  C   UNL     1      16.364 -11.376  63.553  1.00  0.00    -0.064 C 
ATOM     15  C   UNL     1      16.721  -8.936  63.710  1.00  0.00     0.032 C 
ATOM     16  C   UNL     1      17.090 -10.351  64.092  1.00  0.00    -0.064 C 
ATOM     17  C   UNL     1      16.815 -12.800  63.783  1.00  0.00     0.032 C 
ATOM     18  C   UNL     1      18.228 -10.565  65.147  1.00  0.00    -0.008 C 
ATOM     19  C   UNL     1      17.420 -12.999  65.152  1.00  0.00     0.009 C 
ATOM     20  C   UNL     1      18.657 -12.089  65.325  1.00  0.00     0.009 C 
ATOM     21  C   UNL     1      17.682 -10.012  66.500  1.00  0.00     0.015 C 
ATOM     22  C   UNL     1      19.459  -9.741  64.657  1.00  0.00     0.016 C 
ATOM     23  C   UNL     1      19.503 -12.422  66.639  1.00  0.00     0.005 C 
ATOM     24  C   UNL     1      18.580 -10.279  67.710  1.00  0.00     0.047 C 
ATOM     25  C   UNL     1      18.874 -11.772  67.904  1.00  0.00     0.182 C 
ATOM     26  C   UNL     1      20.987 -11.946  66.496  1.00  0.00     0.015 C 
ATOM     27  C   UNL     1      19.611 -13.957  66.892  1.00  0.00     0.015 C 
BRANCH   7  28
ATOM     28  O   UNL     1      11.539 -11.492  63.266  1.00  0.00    -0.393 OA
ATOM     29  H   UNL     1      11.775 -11.390  64.226  1.00  0.00     0.210 HD
ENDBRANCH   7  28
BRANCH  25  30
ATOM     30  O   UNL     1      17.666 -12.454  68.270  1.00  0.00    -0.462 OA
BRANCH  30  31
ATOM     31  C   UNL     1      17.514 -13.198  69.442  1.00  0.00     0.302 C 
ATOM     32  O   UNL     1      16.408 -13.718  69.739  1.00  0.00    -0.253 OA
ATOM     33  C   UNL     1      18.664 -13.326  70.376  1.00  0.00     0.139 C 
ENDBRANCH  30  31
ENDBRANCH  25  30
ENDBRANCH   2   6
ENDBRANCH   1   2
BRANCH   1  34
ATOM     34  C   UNL     1      11.441  -6.446  62.807  1.00  0.00     0.031 C 
BRANCH  34  35
ATOM     35  C   UNL     1      10.893  -5.210  62.131  1.00  0.00    -0.075 C 
ATOM     36  C   UNL     1      10.243  -5.327  60.958  1.00  0.00     0.008 C 
BRANCH  35  37
ATOM     37  C   UNL     1      11.088  -3.845  62.784  1.00  0.00     0.008 C 
ATOM     38  C   UNL     1       9.816  -2.985  62.648  1.00  0.00     0.012 C 
ATOM     39  C   UNL     1      11.504  -3.965  64.259  1.00  0.00     0.012 C 
ENDBRANCH  35  37
ENDBRANCH  34  35
ENDBRANCH   1  34
TORSDOF 9
ENDMDL
MODEL 4
REMARK VINA RESULT:    -8.119      3.464      5.862
REMARK INTER + INTRA:         -14.104
REMARK INTER:                 -12.650
REMARK INTRA:                  -1.454
REMARK UNBOUND:                -1.951
REMARK SMILES C=C(CC[C@@H](C(=O)[O-])[C@H]1[C@H](O)C[C@]2(C)C3=C(CC[C@]12C)[C@@]1(C)CC[C@@H](OC(C)=O)C(C)(C)[C@H]1CC3)C(C)C
REMARK SMILES IDX 4 1 5 2 6 3 7 4 8 5 9 6 10 7 19 8 12 9 13 10 18 11 20 12
REMARK SMILES IDX 14 13 15 14 17 15 16 16 35 17 21 18 34 19 33 20 23 21 22 22
REMARK SMILES IDX 30 23 24 24 25 25 31 26 32 27 11 28 26 30 27 31 29 32 28 33
REMARK SMILES IDX 3 34 2 35 1 36 36 37 37 38 38 39
REMARK H PARENT 11 29
REMARK Flexibility Score: inf
ROOT
ATOM      1  C   UNL     1      12.539  -6.268  56.233  1.00  0.00     0.014 C 
ENDROOT
BRANCH   1   2
ATOM      2  C   UNL     1      13.195  -7.663  56.487  1.00  0.00     0.042 C 
BRANCH   2   3
ATOM      3  C   UNL     1      14.015  -8.158  55.316  1.00  0.00     0.045 C 
ATOM      4  O   UNL     1      13.507  -8.879  54.411  1.00  0.00    -0.550 OA
ATOM      5  O   UNL     1      15.374  -7.869  55.272  1.00  0.00    -0.550 OA
ENDBRANCH   2   3
BRANCH   2   6
ATOM      6  C   UNL     1      13.903  -7.813  57.883  1.00  0.00     0.033 C 
ATOM      7  C   UNL     1      14.460  -6.499  58.410  1.00  0.00     0.119 C 
ATOM      8  C   UNL     1      13.224  -8.508  59.139  1.00  0.00    -0.017 C 
ATOM      9  C   UNL     1      14.874  -6.820  59.832  1.00  0.00     0.043 C 
ATOM     10  C   UNL     1      13.735  -7.686  60.414  1.00  0.00    -0.003 C 
ATOM     11  C   UNL     1      13.740  -9.969  59.216  1.00  0.00     0.012 C 
ATOM     12  C   UNL     1      11.669  -8.546  59.036  1.00  0.00     0.013 C 
ATOM     13  C   UNL     1      12.654  -6.721  61.000  1.00  0.00     0.017 C 
ATOM     14  C   UNL     1      14.277  -8.527  61.607  1.00  0.00    -0.064 C 
ATOM     15  C   UNL     1      13.434 -10.600  60.559  1.00  0.00     0.032 C 
ATOM     16  C   UNL     1      14.161  -9.888  61.677  1.00  0.00    -0.064 C 
ATOM     17  C   UNL     1      14.848  -7.775  62.788  1.00  0.00     0.032 C 
ATOM     18  C   UNL     1      14.813 -10.750  62.810  1.00  0.00    -0.008 C 
ATOM     19  C   UNL     1      15.936  -8.549  63.492  1.00  0.00     0.009 C 
ATOM     20  C   UNL     1      15.380  -9.888  64.024  1.00  0.00     0.009 C 
ATOM     21  C   UNL     1      15.977 -11.546  62.142  1.00  0.00     0.015 C 
ATOM     22  C   UNL     1      13.704 -11.712  63.340  1.00  0.00     0.016 C 
ATOM     23  C   UNL     1      16.393 -10.647  65.000  1.00  0.00     0.005 C 
ATOM     24  C   UNL     1      16.859 -12.330  63.117  1.00  0.00     0.047 C 
ATOM     25  C   UNL     1      17.471 -11.435  64.202  1.00  0.00     0.182 C 
ATOM     26  C   UNL     1      15.636 -11.628  65.955  1.00  0.00     0.015 C 
ATOM     27  C   UNL     1      17.130  -9.663  65.958  1.00  0.00     0.015 C 
BRANCH   7  28
ATOM     28  O   UNL     1      15.566  -6.062  57.653  1.00  0.00    -0.393 OA
ATOM     29  H   UNL     1      15.445  -5.083  57.535  1.00  0.00     0.210 HD
ENDBRANCH   7  28
BRANCH  25  30
ATOM     30  O   UNL     1      18.412 -10.533  63.605  1.00  0.00    -0.462 OA
BRANCH  30  31
ATOM     31  C   UNL     1      19.769 -10.487  63.936  1.00  0.00     0.302 C 
ATOM     32  O   UNL     1      20.616 -10.027  63.129  1.00  0.00    -0.253 OA
ATOM     33  C   UNL     1      20.217 -11.042  65.240  1.00  0.00     0.139 C 
ENDBRANCH  30  31
ENDBRANCH  25  30
ENDBRANCH   2   6
ENDBRANCH   1   2
BRANCH   1  34
ATOM     34  C   UNL     1      12.788  -5.696  54.820  1.00  0.00     0.031 C 
BRANCH  34  35
ATOM     35  C   UNL     1      13.520  -4.372  54.835  1.00  0.00    -0.075 C 
ATOM     36  C   UNL     1      14.849  -4.346  54.627  1.00  0.00     0.008 C 
BRANCH  35  37
ATOM     37  C   UNL     1      12.742  -3.084  55.091  1.00  0.00     0.008 C 
ATOM     38  C   UNL     1      13.233  -2.393  56.378  1.00  0.00     0.012 C 
ATOM     39  C   UNL     1      12.817  -2.119  53.896  1.00  0.00     0.012 C 
ENDBRANCH  35  37
ENDBRANCH  34  35
ENDBRANCH   1  34
TORSDOF 9
ENDMDL
MODEL 5
REMARK VINA RESULT:    -8.009      3.164      5.473
REMARK INTER + INTRA:         -13.939
REMARK INTER:                 -12.083
REMARK INTRA:                  -1.855
REMARK UNBOUND:                -1.951
REMARK SMILES C=C(CC[C@@H](C(=O)[O-])[C@H]1[C@H](O)C[C@]2(C)C3=C(CC[C@]12C)[C@@]1(C)CC[C@@H](OC(C)=O)C(C)(C)[C@H]1CC3)C(C)C
REMARK SMILES IDX 4 1 5 2 6 3 7 4 8 5 9 6 10 7 19 8 12 9 13 10 18 11 20 12
REMARK SMILES IDX 14 13 15 14 17 15 16 16 35 17 21 18 34 19 33 20 23 21 22 22
REMARK SMILES IDX 30 23 24 24 25 25 31 26 32 27 11 28 26 30 27 31 29 32 28 33
REMARK SMILES IDX 3 34 2 35 1 36 36 37 37 38 38 39
REMARK H PARENT 11 29
REMARK Flexibility Score: inf
ROOT
ATOM      1  C   UNL     1      12.156  -6.889  56.474  1.00  0.00     0.014 C 
ENDROOT
BRANCH   1   2
ATOM      2  C   UNL     1      13.047  -8.159  56.664  1.00  0.00     0.042 C 
BRANCH   2   3
ATOM      3  C   UNL     1      13.916  -8.462  55.463  1.00  0.00     0.045 C 
ATOM      4  O   UNL     1      15.125  -8.099  55.413  1.00  0.00    -0.550 OA
ATOM      5  O   UNL     1      13.351  -9.094  54.361  1.00  0.00    -0.550 OA
ENDBRANCH   2   3
BRANCH   2   6
ATOM      6  C   UNL     1      13.799  -8.235  58.042  1.00  0.00     0.033 C 
ATOM      7  C   UNL     1      14.329  -6.886  58.504  1.00  0.00     0.119 C 
ATOM      8  C   UNL     1      13.177  -8.902  59.343  1.00  0.00    -0.017 C 
ATOM      9  C   UNL     1      14.793  -7.141  59.925  1.00  0.00     0.043 C 
ATOM     10  C   UNL     1      13.699  -8.019  60.571  1.00  0.00    -0.003 C 
ATOM     11  C   UNL     1      13.741 -10.344  59.457  1.00  0.00     0.012 C 
ATOM     12  C   UNL     1      11.622  -8.991  59.287  1.00  0.00     0.013 C 
ATOM     13  C   UNL     1      12.605  -7.065  61.152  1.00  0.00     0.017 C 
ATOM     14  C   UNL     1      14.300  -8.798  61.778  1.00  0.00    -0.064 C 
ATOM     15  C   UNL     1      13.493 -10.933  60.831  1.00  0.00     0.032 C 
ATOM     16  C   UNL     1      14.228 -10.158  61.900  1.00  0.00    -0.064 C 
ATOM     17  C   UNL     1      14.881  -7.985  62.912  1.00  0.00     0.032 C 
ATOM     18  C   UNL     1      14.938 -10.957  63.045  1.00  0.00    -0.008 C 
ATOM     19  C   UNL     1      16.012  -8.699  63.612  1.00  0.00     0.009 C 
ATOM     20  C   UNL     1      15.513 -10.033  64.209  1.00  0.00     0.009 C 
ATOM     21  C   UNL     1      16.108 -11.742  62.372  1.00  0.00     0.015 C 
ATOM     22  C   UNL     1      13.876 -11.931  63.642  1.00  0.00     0.016 C 
ATOM     23  C   UNL     1      16.576 -10.725  65.181  1.00  0.00     0.005 C 
ATOM     24  C   UNL     1      17.041 -12.462  63.348  1.00  0.00     0.047 C 
ATOM     25  C   UNL     1      17.655 -11.509  64.382  1.00  0.00     0.182 C 
ATOM     26  C   UNL     1      15.877 -11.691  66.194  1.00  0.00     0.015 C 
ATOM     27  C   UNL     1      17.309  -9.683  66.081  1.00  0.00     0.015 C 
BRANCH   7  28
ATOM     28  O   UNL     1      15.399  -6.445  57.700  1.00  0.00    -0.393 OA
ATOM     29  H   UNL     1      15.016  -6.300  56.794  1.00  0.00     0.210 HD
ENDBRANCH   7  28
BRANCH  25  30
ATOM     30  O   UNL     1      18.551 -10.602  63.725  1.00  0.00    -0.462 OA
BRANCH  30  31
ATOM     31  C   UNL     1      19.922 -10.532  63.983  1.00  0.00     0.302 C 
ATOM     32  O   UNL     1      20.717 -10.055  63.134  1.00  0.00    -0.253 OA
ATOM     33  C   UNL     1      20.448 -11.083  65.260  1.00  0.00     0.139 C 
ENDBRANCH  30  31
ENDBRANCH  25  30
ENDBRANCH   2   6
ENDBRANCH   1   2
BRANCH   1  34
ATOM     34  C   UNL     1      11.037  -7.049  55.421  1.00  0.00     0.031 C 
BRANCH  34  35
ATOM     35  C   UNL     1       9.983  -8.055  55.822  1.00  0.00    -0.075 C 
ATOM     36  C   UNL     1       9.167  -7.786  56.858  1.00  0.00     0.008 C 
BRANCH  35  37
ATOM     37  C   UNL     1       9.860  -9.366  55.050  1.00  0.00     0.008 C 
ATOM     38  C   UNL     1      10.359 -10.551  55.899  1.00  0.00     0.012 C 
ATOM     39  C   UNL     1       8.422  -9.616  54.564  1.00  0.00     0.012 C 
ENDBRANCH  35  37
ENDBRANCH  34  35
ENDBRANCH   1  34
TORSDOF 9
ENDMDL
MODEL 6
REMARK VINA RESULT:    -7.836      2.871      9.822
REMARK INTER + INTRA:         -13.681
REMARK INTER:                 -11.809
REMARK INTRA:                  -1.872
REMARK UNBOUND:                -1.951
REMARK SMILES C=C(CC[C@@H](C(=O)[O-])[C@H]1[C@H](O)C[C@]2(C)C3=C(CC[C@]12C)[C@@]1(C)CC[C@@H](OC(C)=O)C(C)(C)[C@H]1CC3)C(C)C
REMARK SMILES IDX 4 1 5 2 6 3 7 4 8 5 9 6 10 7 19 8 12 9 13 10 18 11 20 12
REMARK SMILES IDX 14 13 15 14 17 15 16 16 35 17 21 18 34 19 33 20 23 21 22 22
REMARK SMILES IDX 30 23 24 24 25 25 31 26 32 27 11 28 26 30 27 31 29 32 28 33
REMARK SMILES IDX 3 34 2 35 1 36 36 37 37 38 38 39
REMARK H PARENT 11 29
REMARK Flexibility Score: inf
ROOT
ATOM      1  C   UNL     1      16.693 -12.099  65.038  1.00  0.00     0.014 C 
ENDROOT
BRANCH   1   2
ATOM      2  C   UNL     1      16.563 -10.807  64.169  1.00  0.00     0.042 C 
BRANCH   2   3
ATOM      3  C   UNL     1      17.894 -10.145  63.882  1.00  0.00     0.045 C 
ATOM      4  O   UNL     1      18.808 -10.746  63.249  1.00  0.00    -0.550 OA
ATOM      5  O   UNL     1      18.139  -8.873  64.385  1.00  0.00    -0.550 OA
ENDBRANCH   2   3
BRANCH   2   6
ATOM      6  C   UNL     1      15.628 -10.949  62.914  1.00  0.00     0.033 C 
ATOM      7  C   UNL     1      15.645 -12.348  62.316  1.00  0.00     0.119 C 
ATOM      8  C   UNL     1      14.100 -10.516  62.907  1.00  0.00    -0.017 C 
ATOM      9  C   UNL     1      14.524 -12.325  61.296  1.00  0.00     0.043 C 
ATOM     10  C   UNL     1      13.353 -11.583  61.977  1.00  0.00    -0.003 C 
ATOM     11  C   UNL     1      14.004  -9.105  62.268  1.00  0.00     0.012 C 
ATOM     12  C   UNL     1      13.490 -10.442  64.340  1.00  0.00     0.013 C 
ATOM     13  C   UNL     1      12.528 -12.636  62.786  1.00  0.00     0.017 C 
ATOM     14  C   UNL     1      12.399 -11.006  60.890  1.00  0.00    -0.064 C 
ATOM     15  C   UNL     1      12.577  -8.756  61.896  1.00  0.00     0.032 C 
ATOM     16  C   UNL     1      12.046  -9.686  60.830  1.00  0.00    -0.064 C 
ATOM     17  C   UNL     1      11.750 -11.987  59.941  1.00  0.00     0.032 C 
ATOM     18  C   UNL     1      11.189  -9.078  59.669  1.00  0.00    -0.008 C 
ATOM     19  C   UNL     1      11.480 -11.383  58.584  1.00  0.00     0.009 C 
ATOM     20  C   UNL     1      10.529 -10.173  58.719  1.00  0.00     0.009 C 
ATOM     21  C   UNL     1      12.154  -8.175  58.838  1.00  0.00     0.015 C 
ATOM     22  C   UNL     1      10.061  -8.232  60.336  1.00  0.00     0.016 C 
ATOM     23  C   UNL     1       9.989  -9.637  57.313  1.00  0.00     0.005 C 
ATOM     24  C   UNL     1      11.553  -7.613  57.548  1.00  0.00     0.047 C 
ATOM     25  C   UNL     1      11.030  -8.715  56.616  1.00  0.00     0.182 C 
ATOM     26  C   UNL     1       8.641  -8.862  57.479  1.00  0.00     0.015 C 
ATOM     27  C   UNL     1       9.650 -10.802  56.334  1.00  0.00     0.015 C 
BRANCH   7  28
ATOM     28  O   UNL     1      16.879 -12.634  61.698  1.00  0.00    -0.393 OA
ATOM     29  H   UNL     1      17.228 -11.761  61.373  1.00  0.00     0.210 HD
ENDBRANCH   7  28
BRANCH  25  30
ATOM     30  O   UNL     1      12.133  -9.487  56.122  1.00  0.00    -0.462 OA
BRANCH  30  31
ATOM     31  C   UNL     1      12.676  -9.346  54.842  1.00  0.00     0.302 C 
ATOM     32  O   UNL     1      12.302 -10.084  53.896  1.00  0.00    -0.253 OA
ATOM     33  C   UNL     1      13.750  -8.343  54.617  1.00  0.00     0.139 C 
ENDBRANCH  30  31
ENDBRANCH  25  30
ENDBRANCH   2   6
ENDBRANCH   1   2
BRANCH   1  34
ATOM     34  C   UNL     1      16.529 -11.864  66.556  1.00  0.00     0.031 C 
BRANCH  34  35
ATOM     35  C   UNL     1      17.790 -12.148  67.340  1.00  0.00    -0.075 C 
ATOM     36  C   UNL     1      18.110 -13.419  67.648  1.00  0.00     0.008 C 
BRANCH  35  37
ATOM     37  C   UNL     1      18.682 -10.989  67.777  1.00  0.00     0.008 C 
ATOM     38  C   UNL     1      19.958 -10.924  66.915  1.00  0.00     0.012 C 
ATOM     39  C   UNL     1      17.938  -9.644  67.745  1.00  0.00     0.012 C 
ENDBRANCH  35  37
ENDBRANCH  34  35
ENDBRANCH   1  34
TORSDOF 9
ENDMDL
MODEL 7
REMARK VINA RESULT:    -7.682      2.908      5.342
REMARK INTER + INTRA:         -13.450
REMARK INTER:                 -11.412
REMARK INTRA:                  -2.038
REMARK UNBOUND:                -1.951
REMARK SMILES C=C(CC[C@@H](C(=O)[O-])[C@H]1[C@H](O)C[C@]2(C)C3=C(CC[C@]12C)[C@@]1(C)CC[C@@H](OC(C)=O)C(C)(C)[C@H]1CC3)C(C)C
REMARK SMILES IDX 4 1 5 2 6 3 7 4 8 5 9 6 10 7 19 8 12 9 13 10 18 11 20 12
REMARK SMILES IDX 14 13 15 14 17 15 16 16 35 17 21 18 34 19 33 20 23 21 22 22
REMARK SMILES IDX 30 23 24 24 25 25 31 26 32 27 11 28 26 30 27 31 29 32 28 33
REMARK SMILES IDX 3 34 2 35 1 36 36 37 37 38 38 39
REMARK H PARENT 11 29
REMARK Flexibility Score: inf
ROOT
ATOM      1  C   UNL     1      12.614  -5.968  57.095  1.00  0.00     0.014 C 
ENDROOT
BRANCH   1   2
ATOM      2  C   UNL     1      13.188  -7.410  57.282  1.00  0.00     0.042 C 
BRANCH   2   3
ATOM      3  C   UNL     1      13.859  -7.950  56.038  1.00  0.00     0.045 C 
ATOM      4  O   UNL     1      13.189  -8.441  55.086  1.00  0.00    -0.550 OA
ATOM      5  O   UNL     1      15.247  -7.967  55.972  1.00  0.00    -0.550 OA
ENDBRANCH   2   3
BRANCH   2   6
ATOM      6  C   UNL     1      14.009  -7.625  58.605  1.00  0.00     0.033 C 
ATOM      7  C   UNL     1      14.693  -6.356  59.091  1.00  0.00     0.119 C 
ATOM      8  C   UNL     1      13.404  -8.295  59.912  1.00  0.00    -0.017 C 
ATOM      9  C   UNL     1      15.214  -6.723  60.467  1.00  0.00     0.043 C 
ATOM     10  C   UNL     1      14.079  -7.526  61.142  1.00  0.00    -0.003 C 
ATOM     11  C   UNL     1      13.831  -9.786  59.927  1.00  0.00     0.012 C 
ATOM     12  C   UNL     1      11.847  -8.234  59.952  1.00  0.00     0.013 C 
ATOM     13  C   UNL     1      13.120  -6.504  61.833  1.00  0.00     0.017 C 
ATOM     14  C   UNL     1      14.673  -8.417  62.273  1.00  0.00    -0.064 C 
ATOM     15  C   UNL     1      13.609 -10.417  61.287  1.00  0.00     0.032 C 
ATOM     16  C   UNL     1      14.477  -9.769  62.340  1.00  0.00    -0.064 C 
ATOM     17  C   UNL     1      15.395  -7.720  63.403  1.00  0.00     0.032 C 
ATOM     18  C   UNL     1      15.173 -10.687  63.401  1.00  0.00    -0.008 C 
ATOM     19  C   UNL     1      16.492  -8.570  63.998  1.00  0.00     0.009 C 
ATOM     20  C   UNL     1      15.902  -9.880  64.565  1.00  0.00     0.009 C 
ATOM     21  C   UNL     1      16.220 -11.543  62.621  1.00  0.00     0.015 C 
ATOM     22  C   UNL     1      14.059 -11.586  64.020  1.00  0.00     0.016 C 
ATOM     23  C   UNL     1      16.949 -10.716  65.437  1.00  0.00     0.005 C 
ATOM     24  C   UNL     1      17.134 -12.396  63.504  1.00  0.00     0.047 C 
ATOM     25  C   UNL     1      17.898 -11.557  64.537  1.00  0.00     0.182 C 
ATOM     26  C   UNL     1      16.221 -11.662  66.449  1.00  0.00     0.015 C 
ATOM     27  C   UNL     1      17.831  -9.794  66.334  1.00  0.00     0.015 C 
BRANCH   7  28
ATOM     28  O   UNL     1      15.752  -5.978  58.240  1.00  0.00    -0.393 OA
ATOM     29  H   UNL     1      16.071  -5.099  58.579  1.00  0.00     0.210 HD
ENDBRANCH   7  28
BRANCH  25  30
ATOM     30  O   UNL     1      18.837 -10.707  63.865  1.00  0.00    -0.462 OA
BRANCH  30  31
ATOM     31  C   UNL     1      20.183 -10.592  64.221  1.00  0.00     0.302 C 
ATOM     32  O   UNL     1      20.680 -11.323  65.115  1.00  0.00    -0.253 OA
ATOM     33  C   UNL     1      21.020  -9.551  63.569  1.00  0.00     0.139 C 
ENDBRANCH  30  31
ENDBRANCH  25  30
ENDBRANCH   2   6
ENDBRANCH   1   2
BRANCH   1  34
ATOM     34  C   UNL     1      11.247  -5.734  57.776  1.00  0.00     0.031 C 
BRANCH  34  35
ATOM     35  C   UNL     1      11.278  -4.623  58.801  1.00  0.00    -0.075 C 
ATOM     36  C   UNL     1      12.338  -3.794  58.851  1.00  0.00     0.008 C 
BRANCH  35  37
ATOM     37  C   UNL     1      10.109  -4.456  59.768  1.00  0.00     0.008 C 
ATOM     38  C   UNL     1       9.277  -5.750  59.850  1.00  0.00     0.012 C 
ATOM     39  C   UNL     1      10.576  -4.023  61.167  1.00  0.00     0.012 C 
ENDBRANCH  35  37
ENDBRANCH  34  35
ENDBRANCH   1  34
TORSDOF 9
ENDMDL
MODEL 8
REMARK VINA RESULT:    -7.544      3.453      6.995
REMARK INTER + INTRA:         -13.243
REMARK INTER:                 -11.455
REMARK INTRA:                  -1.788
REMARK UNBOUND:                -1.951
REMARK SMILES C=C(CC[C@@H](C(=O)[O-])[C@H]1[C@H](O)C[C@]2(C)C3=C(CC[C@]12C)[C@@]1(C)CC[C@@H](OC(C)=O)C(C)(C)[C@H]1CC3)C(C)C
REMARK SMILES IDX 4 1 5 2 6 3 7 4 8 5 9 6 10 7 19 8 12 9 13 10 18 11 20 12
REMARK SMILES IDX 14 13 15 14 17 15 16 16 35 17 21 18 34 19 33 20 23 21 22 22
REMARK SMILES IDX 30 23 24 24 25 25 31 26 32 27 11 28 26 30 27 31 29 32 28 33
REMARK SMILES IDX 3 34 2 35 1 36 36 37 37 38 38 39
REMARK H PARENT 11 29
REMARK Flexibility Score: inf
ROOT
ATOM      1  C   UNL     1      13.969  -4.210  55.740  1.00  0.00     0.014 C 
ENDROOT
BRANCH   1   2
ATOM      2  C   UNL     1      15.063  -3.923  56.818  1.00  0.00     0.042 C 
BRANCH   2   3
ATOM      3  C   UNL     1      15.149  -2.463  57.206  1.00  0.00     0.045 C 
ATOM      4  O   UNL     1      14.117  -1.793  57.491  1.00  0.00    -0.550 OA
ATOM      5  O   UNL     1      16.386  -1.829  57.182  1.00  0.00    -0.550 OA
ENDBRANCH   2   3
BRANCH   2   6
ATOM      6  C   UNL     1      15.064  -4.917  58.036  1.00  0.00     0.033 C 
ATOM      7  C   UNL     1      15.797  -4.368  59.250  1.00  0.00     0.119 C 
ATOM      8  C   UNL     1      13.747  -5.590  58.618  1.00  0.00    -0.017 C 
ATOM      9  C   UNL     1      15.477  -5.358  60.352  1.00  0.00     0.043 C 
ATOM     10  C   UNL     1      13.974  -5.682  60.199  1.00  0.00    -0.003 C 
ATOM     11  C   UNL     1      13.635  -7.017  58.020  1.00  0.00     0.012 C 
ATOM     12  C   UNL     1      12.455  -4.802  58.243  1.00  0.00     0.013 C 
ATOM     13  C   UNL     1      13.171  -4.606  61.001  1.00  0.00     0.017 C 
ATOM     14  C   UNL     1      13.666  -7.056  60.864  1.00  0.00    -0.064 C 
ATOM     15  C   UNL     1      12.624  -7.860  58.772  1.00  0.00     0.032 C 
ATOM     16  C   UNL     1      13.056  -8.086  60.203  1.00  0.00    -0.064 C 
ATOM     17  C   UNL     1      13.955  -7.197  62.340  1.00  0.00     0.032 C 
ATOM     18  C   UNL     1      12.857  -9.510  60.825  1.00  0.00    -0.008 C 
ATOM     19  C   UNL     1      14.327  -8.609  62.723  1.00  0.00     0.009 C 
ATOM     20  C   UNL     1      13.169  -9.575  62.385  1.00  0.00     0.009 C 
ATOM     21  C   UNL     1      13.823 -10.464  60.055  1.00  0.00     0.015 C 
ATOM     22  C   UNL     1      11.367  -9.903  60.584  1.00  0.00     0.016 C 
ATOM     23  C   UNL     1      13.376 -11.040  62.990  1.00  0.00     0.005 C 
ATOM     24  C   UNL     1      13.910 -11.882  60.624  1.00  0.00     0.047 C 
ATOM     25  C   UNL     1      14.322 -11.896  62.102  1.00  0.00     0.182 C 
ATOM     26  C   UNL     1      12.010 -11.784  63.158  1.00  0.00     0.015 C 
ATOM     27  C   UNL     1      13.976 -10.999  64.429  1.00  0.00     0.015 C 
BRANCH   7  28
ATOM     28  O   UNL     1      17.188  -4.298  59.030  1.00  0.00    -0.393 OA
ATOM     29  H   UNL     1      17.419  -3.331  59.058  1.00  0.00     0.210 HD
ENDBRANCH   7  28
BRANCH  25  30
ATOM     30  O   UNL     1      15.676 -11.440  62.226  1.00  0.00    -0.462 OA
BRANCH  30  31
ATOM     31  C   UNL     1      16.732 -12.238  62.674  1.00  0.00     0.302 C 
ATOM     32  O   UNL     1      16.995 -13.334  62.119  1.00  0.00    -0.253 OA
ATOM     33  C   UNL     1      17.516 -11.804  63.861  1.00  0.00     0.139 C 
ENDBRANCH  30  31
ENDBRANCH  25  30
ENDBRANCH   2   6
ENDBRANCH   1   2
BRANCH   1  34
ATOM     34  C   UNL     1      14.411  -5.188  54.629  1.00  0.00     0.031 C 
BRANCH  34  35
ATOM     35  C   UNL     1      13.526  -6.409  54.526  1.00  0.00    -0.075 C 
ATOM     36  C   UNL     1      12.208  -6.297  54.777  1.00  0.00     0.008 C 
BRANCH  35  37
ATOM     37  C   UNL     1      14.137  -7.754  54.142  1.00  0.00     0.008 C 
ATOM     38  C   UNL     1      15.390  -8.048  54.989  1.00  0.00     0.012 C 
ATOM     39  C   UNL     1      13.122  -8.903  54.260  1.00  0.00     0.012 C 
ENDBRANCH  35  37
ENDBRANCH  34  35
ENDBRANCH   1  34
TORSDOF 9
ENDMDL
MODEL 9
REMARK VINA RESULT:    -7.538      8.339     11.167
REMARK INTER + INTRA:         -13.235
REMARK INTER:                 -10.891
REMARK INTRA:                  -2.344
REMARK UNBOUND:                -1.951
REMARK SMILES C=C(CC[C@@H](C(=O)[O-])[C@H]1[C@H](O)C[C@]2(C)C3=C(CC[C@]12C)[C@@]1(C)CC[C@@H](OC(C)=O)C(C)(C)[C@H]1CC3)C(C)C
REMARK SMILES IDX 4 1 5 2 6 3 7 4 8 5 9 6 10 7 19 8 12 9 13 10 18 11 20 12
REMARK SMILES IDX 14 13 15 14 17 15 16 16 35 17 21 18 34 19 33 20 23 21 22 22
REMARK SMILES IDX 30 23 24 24 25 25 31 26 32 27 11 28 26 30 27 31 29 32 28 33
REMARK SMILES IDX 3 34 2 35 1 36 36 37 37 38 38 39
REMARK H PARENT 11 29
REMARK Flexibility Score: inf
ROOT
ATOM      1  C   UNL     1      15.622  -2.423  56.512  1.00  0.00     0.014 C 
ENDROOT
BRANCH   1   2
ATOM      2  C   UNL     1      14.175  -2.630  57.066  1.00  0.00     0.042 C 
BRANCH   2   3
ATOM      3  C   UNL     1      13.288  -1.417  56.885  1.00  0.00     0.045 C 
ATOM      4  O   UNL     1      12.777  -0.818  57.873  1.00  0.00    -0.550 OA
ATOM      5  O   UNL     1      12.976  -0.994  55.598  1.00  0.00    -0.550 OA
ENDBRANCH   2   3
BRANCH   2   6
ATOM      6  C   UNL     1      13.502  -3.990  56.657  1.00  0.00     0.033 C 
ATOM      7  C   UNL     1      13.905  -4.458  55.266  1.00  0.00     0.119 C 
ATOM      8  C   UNL     1      13.547  -5.296  57.561  1.00  0.00    -0.017 C 
ATOM      9  C   UNL     1      13.348  -5.864  55.175  1.00  0.00     0.043 C 
ATOM     10  C   UNL     1      13.652  -6.524  56.539  1.00  0.00    -0.003 C 
ATOM     11  C   UNL     1      12.213  -5.380  58.348  1.00  0.00     0.012 C 
ATOM     12  C   UNL     1      14.718  -5.273  58.590  1.00  0.00     0.013 C 
ATOM     13  C   UNL     1      15.086  -7.140  56.461  1.00  0.00     0.017 C 
ATOM     14  C   UNL     1      12.668  -7.707  56.777  1.00  0.00    -0.064 C 
ATOM     15  C   UNL     1      12.010  -6.752  58.959  1.00  0.00     0.032 C 
ATOM     16  C   UNL     1      11.883  -7.814  57.891  1.00  0.00    -0.064 C 
ATOM     17  C   UNL     1      12.684  -8.839  55.775  1.00  0.00     0.032 C 
ATOM     18  C   UNL     1      10.803  -8.933  58.078  1.00  0.00    -0.008 C 
ATOM     19  C   UNL     1      11.337  -9.505  55.636  1.00  0.00     0.009 C 
ATOM     20  C   UNL     1      10.891 -10.095  56.993  1.00  0.00     0.009 C 
ATOM     21  C   UNL     1       9.416  -8.225  57.977  1.00  0.00     0.015 C 
ATOM     22  C   UNL     1      11.023  -9.541  59.498  1.00  0.00     0.016 C 
ATOM     23  C   UNL     1       9.604 -11.036  56.878  1.00  0.00     0.005 C 
ATOM     24  C   UNL     1       8.213  -9.172  57.966  1.00  0.00     0.047 C 
ATOM     25  C   UNL     1       8.292 -10.203  56.833  1.00  0.00     0.182 C 
ATOM     26  C   UNL     1       9.533 -12.051  58.066  1.00  0.00     0.015 C 
ATOM     27  C   UNL     1       9.647 -11.932  55.602  1.00  0.00     0.015 C 
BRANCH   7  28
ATOM     28  O   UNL     1      13.355  -3.635  54.262  1.00  0.00    -0.393 OA
ATOM     29  H   UNL     1      12.810  -2.953  54.738  1.00  0.00     0.210 HD
ENDBRANCH   7  28
BRANCH  25  30
ATOM     30  O   UNL     1       8.162  -9.538  55.569  1.00  0.00    -0.462 OA
BRANCH  30  31
ATOM     31  C   UNL     1       6.939  -9.188  54.991  1.00  0.00     0.302 C 
ATOM     32  O   UNL     1       6.008 -10.026  54.891  1.00  0.00    -0.253 OA
ATOM     33  C   UNL     1       6.764  -7.818  54.439  1.00  0.00     0.139 C 
ENDBRANCH  30  31
ENDBRANCH  25  30
ENDBRANCH   2   6
ENDBRANCH   1   2
BRANCH   1  34
ATOM     34  C   UNL     1      16.491  -1.458  57.348  1.00  0.00     0.031 C 
BRANCH  34  35
ATOM     35  C   UNL     1      16.833  -2.003  58.716  1.00  0.00    -0.075 C 
ATOM     36  C   UNL     1      17.649  -3.069  58.823  1.00  0.00     0.008 C 
BRANCH  35  37
ATOM     37  C   UNL     1      16.247  -1.340  59.960  1.00  0.00     0.008 C 
ATOM     38  C   UNL     1      15.678   0.052  59.622  1.00  0.00     0.012 C 
ATOM     39  C   UNL     1      15.175  -2.216  60.628  1.00  0.00     0.012 C 
ENDBRANCH  35  37
ENDBRANCH  34  35
ENDBRANCH   1  34
TORSDOF 9
ENDMDL
