MODEL 1
REMARK VINA RESULT:    -4.071      0.000      0.000
REMARK INTER + INTRA:         -15.607
REMARK INTER:                 -10.616
REMARK INTRA:                  -4.991
REMARK UNBOUND:                -4.991
REMARK SMILES CCCCCCCCCCCCCCCCCCCCCCCCCCCCCO
REMARK SMILES IDX 16 1 15 2 14 3 13 4 12 5 11 6 10 7 9 8 8 9 7 10 6 11 5 12
REMARK SMILES IDX 4 13 3 14 2 15 1 16 17 17 18 18 19 19 20 20 21 21 22 22
REMARK SMILES IDX 23 23 24 24 25 25 26 26 27 27 28 28 29 29 30 30
REMARK H PARENT 30 31
REMARK Flexibility Score: inf
ROOT
ATOM      1  C   UNL     1      -1.649  22.358  22.524  1.00  0.00     0.000 C 
ENDROOT
BRANCH   1   2
ATOM      2  C   UNL     1      -0.388  22.187  23.382  1.00  0.00     0.000 C 
BRANCH   2   3
ATOM      3  C   UNL     1      -0.469  22.937  24.724  1.00  0.00     0.000 C 
BRANCH   3   4
ATOM      4  C   UNL     1      -0.605  22.038  25.970  1.00  0.00     0.000 C 
BRANCH   4   5
ATOM      5  C   UNL     1      -1.890  22.247  26.790  1.00  0.00     0.000 C 
BRANCH   5   6
ATOM      6  C   UNL     1      -2.559  20.923  27.201  1.00  0.00     0.000 C 
BRANCH   6   7
ATOM      7  C   UNL     1      -2.642  19.921  26.037  1.00  0.00     0.000 C 
BRANCH   7   8
ATOM      8  C   UNL     1      -4.022  19.922  25.356  1.00  0.00    -0.000 C 
BRANCH   8   9
ATOM      9  C   UNL     1      -3.949  19.527  23.872  1.00  0.00    -0.000 C 
BRANCH   9  10
ATOM     10  C   UNL     1      -2.535  19.109  23.437  1.00  0.00    -0.000 C 
BRANCH  10  11
ATOM     11  C   UNL     1      -2.545  18.567  21.999  1.00  0.00    -0.000 C 
BRANCH  11  12
ATOM     12  C   UNL     1      -3.280  19.494  21.020  1.00  0.00    -0.000 C 
BRANCH  12  13
ATOM     13  C   UNL     1      -2.656  19.486  19.616  1.00  0.00    -0.000 C 
BRANCH  13  14
ATOM     14  C   UNL     1      -1.412  20.388  19.563  1.00  0.00    -0.000 C 
BRANCH  14  15
ATOM     15  C   UNL     1      -0.836  20.516  18.145  1.00  0.00    -0.003 C 
ATOM     16  C   UNL     1      -0.571  19.161  17.489  1.00  0.00     0.004 C 
ENDBRANCH  14  15
ENDBRANCH  13  14
ENDBRANCH  12  13
ENDBRANCH  11  12
ENDBRANCH  10  11
ENDBRANCH   9  10
ENDBRANCH   8   9
ENDBRANCH   7   8
ENDBRANCH   6   7
ENDBRANCH   5   6
ENDBRANCH   4   5
ENDBRANCH   3   4
ENDBRANCH   2   3
ENDBRANCH   1   2
BRANCH   1  17
ATOM     17  C   UNL     1      -2.822  22.889  23.365  1.00  0.00     0.000 C 
BRANCH  17  18
ATOM     18  C   UNL     1      -4.071  23.189  22.511  1.00  0.00     0.000 C 
BRANCH  18  19
ATOM     19  C   UNL     1      -3.842  23.036  20.998  1.00  0.00     0.000 C 
BRANCH  19  20
ATOM     20  C   UNL     1      -3.581  24.375  20.293  1.00  0.00     0.000 C 
BRANCH  20  21
ATOM     21  C   UNL     1      -2.643  24.196  19.094  1.00  0.00     0.000 C 
BRANCH  21  22
ATOM     22  C   UNL     1      -1.443  25.150  19.189  1.00  0.00     0.000 C 
BRANCH  22  23
ATOM     23  C   UNL     1      -1.116  25.553  20.637  1.00  0.00     0.000 C 
BRANCH  23  24
ATOM     24  C   UNL     1       0.251  25.023  21.103  1.00  0.00     0.000 C 
BRANCH  24  25
ATOM     25  C   UNL     1       0.804  23.927  20.178  1.00  0.00     0.000 C 
BRANCH  25  26
ATOM     26  C   UNL     1       2.318  24.059  19.938  1.00  0.00     0.000 C 
BRANCH  26  27
ATOM     27  C   UNL     1       2.750  25.509  19.667  1.00  0.00     0.002 C 
BRANCH  27  28
ATOM     28  C   UNL     1       2.828  25.829  18.165  1.00  0.00     0.028 C 
BRANCH  28  29
ATOM     29  C   UNL     1       4.277  25.964  17.691  1.00  0.00     0.156 C 
BRANCH  29  30
ATOM     30  O   UNL     1       5.131  25.251  18.539  1.00  0.00    -0.396 OA
ATOM     31  H   UNL     1       4.732  24.347  18.636  1.00  0.00     0.210 HD
ENDBRANCH  29  30
ENDBRANCH  28  29
ENDBRANCH  27  28
ENDBRANCH  26  27
ENDBRANCH  25  26
ENDBRANCH  24  25
ENDBRANCH  23  24
ENDBRANCH  22  23
ENDBRANCH  21  22
ENDBRANCH  20  21
ENDBRANCH  19  20
ENDBRANCH  18  19
ENDBRANCH  17  18
ENDBRANCH   1  17
TORSDOF 28
ENDMDL
MODEL 2
REMARK VINA RESULT:    -3.794      1.071      1.678
REMARK INTER + INTRA:         -14.884
REMARK INTER:                 -10.596
REMARK INTRA:                  -4.288
REMARK UNBOUND:                -4.991
REMARK SMILES CCCCCCCCCCCCCCCCCCCCCCCCCCCCCO
REMARK SMILES IDX 16 1 15 2 14 3 13 4 12 5 11 6 10 7 9 8 8 9 7 10 6 11 5 12
REMARK SMILES IDX 4 13 3 14 2 15 1 16 17 17 18 18 19 19 20 20 21 21 22 22
REMARK SMILES IDX 23 23 24 24 25 25 26 26 27 27 28 28 29 29 30 30
REMARK H PARENT 30 31
REMARK Flexibility Score: inf
ROOT
ATOM      1  C   UNL     1       0.714  23.125  23.861  1.00  0.00     0.000 C 
ENDROOT
BRANCH   1   2
ATOM      2  C   UNL     1       0.031  22.142  24.824  1.00  0.00     0.000 C 
BRANCH   2   3
ATOM      3  C   UNL     1      -0.612  22.840  26.036  1.00  0.00     0.000 C 
BRANCH   3   4
ATOM      4  C   UNL     1      -2.150  22.751  26.103  1.00  0.00     0.000 C 
BRANCH   4   5
ATOM      5  C   UNL     1      -2.706  21.842  27.214  1.00  0.00     0.000 C 
BRANCH   5   6
ATOM      6  C   UNL     1      -1.945  20.510  27.331  1.00  0.00     0.000 C 
BRANCH   6   7
ATOM      7  C   UNL     1      -2.707  19.339  26.688  1.00  0.00     0.000 C 
BRANCH   7   8
ATOM      8  C   UNL     1      -3.963  19.801  25.926  1.00  0.00    -0.000 C 
BRANCH   8   9
ATOM      9  C   UNL     1      -3.879  19.515  24.418  1.00  0.00    -0.000 C 
BRANCH   9  10
ATOM     10  C   UNL     1      -2.471  19.749  23.847  1.00  0.00    -0.000 C 
BRANCH  10  11
ATOM     11  C   UNL     1      -2.294  19.006  22.514  1.00  0.00    -0.000 C 
BRANCH  11  12
ATOM     12  C   UNL     1      -3.620  18.809  21.764  1.00  0.00    -0.000 C 
BRANCH  12  13
ATOM     13  C   UNL     1      -3.562  19.324  20.317  1.00  0.00    -0.000 C 
BRANCH  13  14
ATOM     14  C   UNL     1      -2.138  19.210  19.750  1.00  0.00    -0.000 C 
BRANCH  14  15
ATOM     15  C   UNL     1      -2.026  19.761  18.320  1.00  0.00    -0.003 C 
ATOM     16  C   UNL     1      -0.585  20.076  17.919  1.00  0.00     0.004 C 
ENDBRANCH  14  15
ENDBRANCH  13  14
ENDBRANCH  12  13
ENDBRANCH  11  12
ENDBRANCH  10  11
ENDBRANCH   9  10
ENDBRANCH   8   9
ENDBRANCH   7   8
ENDBRANCH   6   7
ENDBRANCH   5   6
ENDBRANCH   4   5
ENDBRANCH   3   4
ENDBRANCH   2   3
ENDBRANCH   1   2
BRANCH   1  17
ATOM     17  C   UNL     1      -0.312  23.780  22.922  1.00  0.00     0.000 C 
BRANCH  17  18
ATOM     18  C   UNL     1      -1.102  22.743  22.098  1.00  0.00     0.000 C 
BRANCH  18  19
ATOM     19  C   UNL     1      -2.621  22.783  22.339  1.00  0.00     0.000 C 
BRANCH  19  20
ATOM     20  C   UNL     1      -3.428  22.978  21.048  1.00  0.00     0.000 C 
BRANCH  20  21
ATOM     21  C   UNL     1      -2.513  22.977  19.817  1.00  0.00     0.000 C 
BRANCH  21  22
ATOM     22  C   UNL     1      -2.884  24.117  18.856  1.00  0.00     0.000 C 
BRANCH  22  23
ATOM     23  C   UNL     1      -2.178  25.439  19.200  1.00  0.00     0.000 C 
BRANCH  23  24
ATOM     24  C   UNL     1      -0.659  25.268  19.379  1.00  0.00     0.000 C 
BRANCH  24  25
ATOM     25  C   UNL     1      -0.055  26.326  20.316  1.00  0.00     0.000 C 
BRANCH  25  26
ATOM     26  C   UNL     1       0.934  27.262  19.598  1.00  0.00     0.000 C 
BRANCH  26  27
ATOM     27  C   UNL     1       1.762  26.537  18.526  1.00  0.00     0.002 C 
BRANCH  27  28
ATOM     28  C   UNL     1       3.026  25.877  19.103  1.00  0.00     0.028 C 
BRANCH  28  29
ATOM     29  C   UNL     1       4.128  25.748  18.050  1.00  0.00     0.156 C 
BRANCH  29  30
ATOM     30  O   UNL     1       5.211  25.030  18.570  1.00  0.00    -0.396 OA
ATOM     31  H   UNL     1       5.878  24.968  17.837  1.00  0.00     0.210 HD
ENDBRANCH  29  30
ENDBRANCH  28  29
ENDBRANCH  27  28
ENDBRANCH  26  27
ENDBRANCH  25  26
ENDBRANCH  24  25
ENDBRANCH  23  24
ENDBRANCH  22  23
ENDBRANCH  21  22
ENDBRANCH  20  21
ENDBRANCH  19  20
ENDBRANCH  18  19
ENDBRANCH  17  18
ENDBRANCH   1  17
TORSDOF 28
ENDMDL
MODEL 3
REMARK VINA RESULT:    -3.782      1.797      2.849
REMARK INTER + INTRA:         -14.852
REMARK INTER:                 -10.248
REMARK INTRA:                  -4.605
REMARK UNBOUND:                -4.991
REMARK SMILES CCCCCCCCCCCCCCCCCCCCCCCCCCCCCO
REMARK SMILES IDX 16 1 15 2 14 3 13 4 12 5 11 6 10 7 9 8 8 9 7 10 6 11 5 12
REMARK SMILES IDX 4 13 3 14 2 15 1 16 17 17 18 18 19 19 20 20 21 21 22 22
REMARK SMILES IDX 23 23 24 24 25 25 26 26 27 27 28 28 29 29 30 30
REMARK H PARENT 30 31
REMARK Flexibility Score: inf
ROOT
ATOM      1  C   UNL     1      -0.434  22.924  22.062  1.00  0.00     0.000 C 
ENDROOT
BRANCH   1   2
ATOM      2  C   UNL     1      -0.377  22.269  23.450  1.00  0.00     0.000 C 
BRANCH   2   3
ATOM      3  C   UNL     1      -0.129  23.282  24.582  1.00  0.00     0.000 C 
BRANCH   3   4
ATOM      4  C   UNL     1      -0.262  22.715  26.010  1.00  0.00     0.000 C 
BRANCH   4   5
ATOM      5  C   UNL     1      -0.925  21.329  26.104  1.00  0.00     0.000 C 
BRANCH   5   6
ATOM      6  C   UNL     1      -1.958  21.237  27.241  1.00  0.00     0.000 C 
BRANCH   6   7
ATOM      7  C   UNL     1      -3.180  22.138  26.999  1.00  0.00     0.000 C 
BRANCH   7   8
ATOM      8  C   UNL     1      -3.879  21.837  25.662  1.00  0.00    -0.000 C 
BRANCH   8   9
ATOM      9  C   UNL     1      -3.911  23.054  24.723  1.00  0.00    -0.000 C 
BRANCH   9  10
ATOM     10  C   UNL     1      -4.024  22.660  23.242  1.00  0.00    -0.000 C 
BRANCH  10  11
ATOM     11  C   UNL     1      -3.757  21.158  23.056  1.00  0.00    -0.000 C 
BRANCH  11  12
ATOM     12  C   UNL     1      -3.922  20.703  21.598  1.00  0.00    -0.000 C 
BRANCH  12  13
ATOM     13  C   UNL     1      -3.454  21.765  20.590  1.00  0.00    -0.000 C 
BRANCH  13  14
ATOM     14  C   UNL     1      -3.013  21.112  19.270  1.00  0.00    -0.000 C 
BRANCH  14  15
ATOM     15  C   UNL     1      -1.600  21.537  18.844  1.00  0.00    -0.003 C 
ATOM     16  C   UNL     1      -0.737  20.358  18.397  1.00  0.00     0.004 C 
ENDBRANCH  14  15
ENDBRANCH  13  14
ENDBRANCH  12  13
ENDBRANCH  11  12
ENDBRANCH  10  11
ENDBRANCH   9  10
ENDBRANCH   8   9
ENDBRANCH   7   8
ENDBRANCH   6   7
ENDBRANCH   5   6
ENDBRANCH   4   5
ENDBRANCH   3   4
ENDBRANCH   2   3
ENDBRANCH   1   2
BRANCH   1  17
ATOM     17  C   UNL     1       0.339  24.253  22.047  1.00  0.00     0.000 C 
BRANCH  17  18
ATOM     18  C   UNL     1      -0.377  25.341  21.220  1.00  0.00     0.000 C 
BRANCH  18  19
ATOM     19  C   UNL     1      -1.201  24.787  20.045  1.00  0.00     0.000 C 
BRANCH  19  20
ATOM     20  C   UNL     1      -2.630  25.346  19.999  1.00  0.00     0.000 C 
BRANCH  20  21
ATOM     21  C   UNL     1      -3.076  25.608  18.556  1.00  0.00     0.000 C 
BRANCH  21  22
ATOM     22  C   UNL     1      -1.863  25.801  17.633  1.00  0.00     0.000 C 
BRANCH  22  23
ATOM     23  C   UNL     1      -2.185  26.659  16.398  1.00  0.00     0.000 C 
BRANCH  23  24
ATOM     24  C   UNL     1      -1.110  27.724  16.122  1.00  0.00     0.000 C 
BRANCH  24  25
ATOM     25  C   UNL     1       0.290  27.279  16.577  1.00  0.00     0.000 C 
BRANCH  25  26
ATOM     26  C   UNL     1       0.850  28.150  17.715  1.00  0.00     0.000 C 
BRANCH  26  27
ATOM     27  C   UNL     1       1.359  27.317  18.901  1.00  0.00     0.002 C 
BRANCH  27  28
ATOM     28  C   UNL     1       2.082  26.034  18.455  1.00  0.00     0.028 C 
BRANCH  28  29
ATOM     29  C   UNL     1       2.981  25.477  19.560  1.00  0.00     0.156 C 
BRANCH  29  30
ATOM     30  O   UNL     1       2.837  24.087  19.644  1.00  0.00    -0.396 OA
ATOM     31  H   UNL     1       3.756  23.720  19.731  1.00  0.00     0.210 HD
ENDBRANCH  29  30
ENDBRANCH  28  29
ENDBRANCH  27  28
ENDBRANCH  26  27
ENDBRANCH  25  26
ENDBRANCH  24  25
ENDBRANCH  23  24
ENDBRANCH  22  23
ENDBRANCH  21  22
ENDBRANCH  20  21
ENDBRANCH  19  20
ENDBRANCH  18  19
ENDBRANCH  17  18
ENDBRANCH   1  17
TORSDOF 28
ENDMDL
MODEL 4
REMARK VINA RESULT:    -3.683      2.440      7.445
REMARK INTER + INTRA:         -14.594
REMARK INTER:                  -9.903
REMARK INTRA:                  -4.691
REMARK UNBOUND:                -4.991
REMARK SMILES CCCCCCCCCCCCCCCCCCCCCCCCCCCCCO
REMARK SMILES IDX 16 1 15 2 14 3 13 4 12 5 11 6 10 7 9 8 8 9 7 10 6 11 5 12
REMARK SMILES IDX 4 13 3 14 2 15 1 16 17 17 18 18 19 19 20 20 21 21 22 22
REMARK SMILES IDX 23 23 24 24 25 25 26 26 27 27 28 28 29 29 30 30
REMARK H PARENT 30 31
REMARK Flexibility Score: inf
ROOT
ATOM      1  C   UNL     1      -0.081  22.668  23.768  1.00  0.00     0.000 C 
ENDROOT
BRANCH   1   2
ATOM      2  C   UNL     1      -0.178  23.698  22.633  1.00  0.00     0.000 C 
BRANCH   2   3
ATOM      3  C   UNL     1      -0.084  23.060  21.235  1.00  0.00     0.000 C 
BRANCH   3   4
ATOM      4  C   UNL     1      -1.080  23.611  20.195  1.00  0.00     0.000 C 
BRANCH   4   5
ATOM      5  C   UNL     1      -2.270  24.393  20.779  1.00  0.00     0.000 C 
BRANCH   5   6
ATOM      6  C   UNL     1      -2.975  25.275  19.734  1.00  0.00     0.000 C 
BRANCH   6   7
ATOM      7  C   UNL     1      -2.467  25.015  18.306  1.00  0.00     0.000 C 
BRANCH   7   8
ATOM      8  C   UNL     1      -2.607  26.249  17.396  1.00  0.00    -0.000 C 
BRANCH   8   9
ATOM      9  C   UNL     1      -1.639  26.216  16.202  1.00  0.00    -0.000 C 
BRANCH   9  10
ATOM     10  C   UNL     1      -0.744  27.463  16.128  1.00  0.00    -0.000 C 
BRANCH  10  11
ATOM     11  C   UNL     1       0.584  27.225  16.864  1.00  0.00    -0.000 C 
BRANCH  11  12
ATOM     12  C   UNL     1       0.955  28.380  17.808  1.00  0.00    -0.000 C 
BRANCH  12  13
ATOM     13  C   UNL     1       0.992  27.949  19.282  1.00  0.00    -0.000 C 
BRANCH  13  14
ATOM     14  C   UNL     1       0.837  26.426  19.413  1.00  0.00    -0.000 C 
BRANCH  14  15
ATOM     15  C   UNL     1       2.104  25.747  19.956  1.00  0.00    -0.003 C 
ATOM     16  C   UNL     1       3.148  25.489  18.870  1.00  0.00     0.004 C 
ENDBRANCH  14  15
ENDBRANCH  13  14
ENDBRANCH  12  13
ENDBRANCH  11  12
ENDBRANCH  10  11
ENDBRANCH   9  10
ENDBRANCH   8   9
ENDBRANCH   7   8
ENDBRANCH   6   7
ENDBRANCH   5   6
ENDBRANCH   4   5
ENDBRANCH   3   4
ENDBRANCH   2   3
ENDBRANCH   1   2
BRANCH   1  17
ATOM     17  C   UNL     1       0.356  23.336  25.082  1.00  0.00     0.000 C 
BRANCH  17  18
ATOM     18  C   UNL     1      -0.239  22.638  26.323  1.00  0.00     0.000 C 
BRANCH  18  19
ATOM     19  C   UNL     1      -1.063  21.382  25.995  1.00  0.00     0.000 C 
BRANCH  19  20
ATOM     20  C   UNL     1      -2.403  21.332  26.743  1.00  0.00     0.000 C 
BRANCH  20  21
ATOM     21  C   UNL     1      -3.579  21.214  25.766  1.00  0.00     0.000 C 
BRANCH  21  22
ATOM     22  C   UNL     1      -3.660  22.449  24.854  1.00  0.00     0.000 C 
BRANCH  22  23
ATOM     23  C   UNL     1      -3.675  22.085  23.360  1.00  0.00     0.000 C 
BRANCH  23  24
ATOM     24  C   UNL     1      -3.153  20.662  23.093  1.00  0.00     0.000 C 
BRANCH  24  25
ATOM     25  C   UNL     1      -2.440  20.543  21.736  1.00  0.00     0.000 C 
BRANCH  25  26
ATOM     26  C   UNL     1      -3.409  20.632  20.544  1.00  0.00     0.000 C 
BRANCH  26  27
ATOM     27  C   UNL     1      -2.722  20.345  19.201  1.00  0.00     0.002 C 
BRANCH  27  28
ATOM     28  C   UNL     1      -1.241  19.963  19.365  1.00  0.00     0.028 C 
BRANCH  28  29
ATOM     29  C   UNL     1      -0.799  18.948  18.310  1.00  0.00     0.156 C 
BRANCH  29  30
ATOM     30  O   UNL     1      -1.445  19.202  17.094  1.00  0.00    -0.396 OA
ATOM     31  H   UNL     1      -1.107  20.081  16.780  1.00  0.00     0.210 HD
ENDBRANCH  29  30
ENDBRANCH  28  29
ENDBRANCH  27  28
ENDBRANCH  26  27
ENDBRANCH  25  26
ENDBRANCH  24  25
ENDBRANCH  23  24
ENDBRANCH  22  23
ENDBRANCH  21  22
ENDBRANCH  20  21
ENDBRANCH  19  20
ENDBRANCH  18  19
ENDBRANCH  17  18
ENDBRANCH   1  17
TORSDOF 28
ENDMDL
MODEL 5
REMARK VINA RESULT:    -3.633      2.163      7.150
REMARK INTER + INTRA:         -14.465
REMARK INTER:                 -10.605
REMARK INTRA:                  -3.860
REMARK UNBOUND:                -4.991
REMARK SMILES CCCCCCCCCCCCCCCCCCCCCCCCCCCCCO
REMARK SMILES IDX 16 1 15 2 14 3 13 4 12 5 11 6 10 7 9 8 8 9 7 10 6 11 5 12
REMARK SMILES IDX 4 13 3 14 2 15 1 16 17 17 18 18 19 19 20 20 21 21 22 22
REMARK SMILES IDX 23 23 24 24 25 25 26 26 27 27 28 28 29 29 30 30
REMARK H PARENT 30 31
REMARK Flexibility Score: inf
ROOT
ATOM      1  C   UNL     1       0.039  22.753  25.698  1.00  0.00     0.000 C 
ENDROOT
BRANCH   1   2
ATOM      2  C   UNL     1      -0.348  23.432  24.376  1.00  0.00     0.000 C 
BRANCH   2   3
ATOM      3  C   UNL     1      -0.067  22.552  23.145  1.00  0.00     0.000 C 
BRANCH   3   4
ATOM      4  C   UNL     1      -0.309  23.235  21.783  1.00  0.00     0.000 C 
BRANCH   4   5
ATOM      5  C   UNL     1       0.511  24.514  21.537  1.00  0.00     0.000 C 
BRANCH   5   6
ATOM      6  C   UNL     1       1.400  24.421  20.285  1.00  0.00     0.000 C 
BRANCH   6   7
ATOM      7  C   UNL     1       2.043  25.770  19.920  1.00  0.00     0.000 C 
BRANCH   7   8
ATOM      8  C   UNL     1       2.873  25.696  18.625  1.00  0.00    -0.000 C 
BRANCH   8   9
ATOM      9  C   UNL     1       2.285  26.559  17.497  1.00  0.00    -0.000 C 
BRANCH   9  10
ATOM     10  C   UNL     1       1.122  27.445  17.970  1.00  0.00    -0.000 C 
BRANCH  10  11
ATOM     11  C   UNL     1       0.063  27.589  16.866  1.00  0.00    -0.000 C 
BRANCH  11  12
ATOM     12  C   UNL     1      -1.083  26.575  17.008  1.00  0.00    -0.000 C 
BRANCH  12  13
ATOM     13  C   UNL     1      -1.321  26.151  18.466  1.00  0.00    -0.000 C 
BRANCH  13  14
ATOM     14  C   UNL     1      -2.583  25.282  18.585  1.00  0.00    -0.000 C 
BRANCH  14  15
ATOM     15  C   UNL     1      -3.294  25.457  19.936  1.00  0.00    -0.003 C 
ATOM     16  C   UNL     1      -3.494  24.135  20.675  1.00  0.00     0.004 C 
ENDBRANCH  14  15
ENDBRANCH  13  14
ENDBRANCH  12  13
ENDBRANCH  11  12
ENDBRANCH  10  11
ENDBRANCH   9  10
ENDBRANCH   8   9
ENDBRANCH   7   8
ENDBRANCH   6   7
ENDBRANCH   5   6
ENDBRANCH   4   5
ENDBRANCH   3   4
ENDBRANCH   2   3
ENDBRANCH   1   2
BRANCH   1  17
ATOM     17  C   UNL     1      -0.861  21.538  25.978  1.00  0.00     0.000 C 
BRANCH  17  18
ATOM     18  C   UNL     1      -1.978  21.854  26.994  1.00  0.00     0.000 C 
BRANCH  18  19
ATOM     19  C   UNL     1      -3.393  21.833  26.391  1.00  0.00     0.000 C 
BRANCH  19  20
ATOM     20  C   UNL     1      -3.699  23.072  25.537  1.00  0.00     0.000 C 
BRANCH  20  21
ATOM     21  C   UNL     1      -3.903  22.693  24.066  1.00  0.00     0.000 C 
BRANCH  21  22
ATOM     22  C   UNL     1      -4.036  21.171  23.904  1.00  0.00     0.000 C 
BRANCH  22  23
ATOM     23  C   UNL     1      -2.924  20.567  23.029  1.00  0.00     0.000 C 
BRANCH  23  24
ATOM     24  C   UNL     1      -3.129  19.065  22.766  1.00  0.00     0.000 C 
BRANCH  24  25
ATOM     25  C   UNL     1      -3.248  18.742  21.268  1.00  0.00     0.000 C 
BRANCH  25  26
ATOM     26  C   UNL     1      -2.597  19.813  20.375  1.00  0.00     0.000 C 
BRANCH  26  27
ATOM     27  C   UNL     1      -1.378  19.280  19.605  1.00  0.00     0.002 C 
BRANCH  27  28
ATOM     28  C   UNL     1      -0.737  20.347  18.703  1.00  0.00     0.028 C 
BRANCH  28  29
ATOM     29  C   UNL     1      -0.254  19.753  17.379  1.00  0.00     0.156 C 
BRANCH  29  30
ATOM     30  O   UNL     1      -0.917  18.547  17.120  1.00  0.00    -0.396 OA
ATOM     31  H   UNL     1      -0.582  17.898  17.791  1.00  0.00     0.210 HD
ENDBRANCH  29  30
ENDBRANCH  28  29
ENDBRANCH  27  28
ENDBRANCH  26  27
ENDBRANCH  25  26
ENDBRANCH  24  25
ENDBRANCH  23  24
ENDBRANCH  22  23
ENDBRANCH  21  22
ENDBRANCH  20  21
ENDBRANCH  19  20
ENDBRANCH  18  19
ENDBRANCH  17  18
ENDBRANCH   1  17
TORSDOF 28
ENDMDL
MODEL 6
REMARK VINA RESULT:    -3.559      2.101      4.959
REMARK INTER + INTRA:         -14.272
REMARK INTER:                  -9.632
REMARK INTRA:                  -4.640
REMARK UNBOUND:                -4.991
REMARK SMILES CCCCCCCCCCCCCCCCCCCCCCCCCCCCCO
REMARK SMILES IDX 16 1 15 2 14 3 13 4 12 5 11 6 10 7 9 8 8 9 7 10 6 11 5 12
REMARK SMILES IDX 4 13 3 14 2 15 1 16 17 17 18 18 19 19 20 20 21 21 22 22
REMARK SMILES IDX 23 23 24 24 25 25 26 26 27 27 28 28 29 29 30 30
REMARK H PARENT 30 31
REMARK Flexibility Score: inf
ROOT
ATOM      1  C   UNL     1      -2.357  21.202  22.127  1.00  0.00     0.000 C 
ENDROOT
BRANCH   1   2
ATOM      2  C   UNL     1      -2.106  20.349  23.380  1.00  0.00     0.000 C 
BRANCH   2   3
ATOM      3  C   UNL     1      -3.280  20.386  24.375  1.00  0.00     0.000 C 
BRANCH   3   4
ATOM      4  C   UNL     1      -2.984  19.776  25.760  1.00  0.00     0.000 C 
BRANCH   4   5
ATOM      5  C   UNL     1      -3.163  20.735  26.950  1.00  0.00     0.000 C 
BRANCH   5   6
ATOM      6  C   UNL     1      -2.383  22.051  26.779  1.00  0.00     0.000 C 
BRANCH   6   7
ATOM      7  C   UNL     1      -0.863  21.828  26.713  1.00  0.00     0.000 C 
BRANCH   7   8
ATOM      8  C   UNL     1      -0.111  23.050  26.154  1.00  0.00    -0.000 C 
BRANCH   8   9
ATOM      9  C   UNL     1      -0.590  23.446  24.748  1.00  0.00    -0.000 C 
BRANCH   9  10
ATOM     10  C   UNL     1       0.436  23.108  23.654  1.00  0.00    -0.000 C 
BRANCH  10  11
ATOM     11  C   UNL     1       0.272  24.045  22.447  1.00  0.00    -0.000 C 
BRANCH  11  12
ATOM     12  C   UNL     1       0.012  23.285  21.137  1.00  0.00    -0.000 C 
BRANCH  12  13
ATOM     13  C   UNL     1       0.255  24.152  19.892  1.00  0.00    -0.000 C 
BRANCH  13  14
ATOM     14  C   UNL     1       0.345  25.639  20.268  1.00  0.00    -0.000 C 
BRANCH  14  15
ATOM     15  C   UNL     1       1.584  26.325  19.673  1.00  0.00    -0.003 C 
ATOM     16  C   UNL     1       2.770  25.374  19.520  1.00  0.00     0.004 C 
ENDBRANCH  14  15
ENDBRANCH  13  14
ENDBRANCH  12  13
ENDBRANCH  11  12
ENDBRANCH  10  11
ENDBRANCH   9  10
ENDBRANCH   8   9
ENDBRANCH   7   8
ENDBRANCH   6   7
ENDBRANCH   5   6
ENDBRANCH   4   5
ENDBRANCH   3   4
ENDBRANCH   2   3
ENDBRANCH   1   2
BRANCH   1  17
ATOM     17  C   UNL     1      -3.844  21.568  21.997  1.00  0.00     0.000 C 
BRANCH  17  18
ATOM     18  C   UNL     1      -4.105  23.068  22.249  1.00  0.00     0.000 C 
BRANCH  18  19
ATOM     19  C   UNL     1      -3.265  24.003  21.362  1.00  0.00     0.000 C 
BRANCH  19  20
ATOM     20  C   UNL     1      -4.045  24.548  20.157  1.00  0.00     0.000 C 
BRANCH  20  21
ATOM     21  C   UNL     1      -3.236  25.614  19.410  1.00  0.00     0.000 C 
BRANCH  21  22
ATOM     22  C   UNL     1      -2.859  25.131  18.001  1.00  0.00     0.000 C 
BRANCH  22  23
ATOM     23  C   UNL     1      -3.817  24.052  17.467  1.00  0.00     0.000 C 
BRANCH  23  24
ATOM     24  C   UNL     1      -3.075  22.811  16.943  1.00  0.00     0.000 C 
BRANCH  24  25
ATOM     25  C   UNL     1      -2.326  22.060  18.056  1.00  0.00     0.000 C 
BRANCH  25  26
ATOM     26  C   UNL     1      -3.169  20.937  18.687  1.00  0.00     0.000 C 
BRANCH  26  27
ATOM     27  C   UNL     1      -2.508  19.556  18.554  1.00  0.00     0.002 C 
BRANCH  27  28
ATOM     28  C   UNL     1      -1.053  19.548  19.051  1.00  0.00     0.028 C 
BRANCH  28  29
ATOM     29  C   UNL     1      -0.077  19.158  17.939  1.00  0.00     0.156 C 
BRANCH  29  30
ATOM     30  O   UNL     1      -0.743  18.430  16.945  1.00  0.00    -0.396 OA
ATOM     31  H   UNL     1      -1.311  17.769  17.421  1.00  0.00     0.210 HD
ENDBRANCH  29  30
ENDBRANCH  28  29
ENDBRANCH  27  28
ENDBRANCH  26  27
ENDBRANCH  25  26
ENDBRANCH  24  25
ENDBRANCH  23  24
ENDBRANCH  22  23
ENDBRANCH  21  22
ENDBRANCH  20  21
ENDBRANCH  19  20
ENDBRANCH  18  19
ENDBRANCH  17  18
ENDBRANCH   1  17
TORSDOF 28
ENDMDL
MODEL 7
REMARK VINA RESULT:    -3.548      2.206      5.968
REMARK INTER + INTRA:         -14.243
REMARK INTER:                 -10.477
REMARK INTRA:                  -3.766
REMARK UNBOUND:                -4.991
REMARK SMILES CCCCCCCCCCCCCCCCCCCCCCCCCCCCCO
REMARK SMILES IDX 16 1 15 2 14 3 13 4 12 5 11 6 10 7 9 8 8 9 7 10 6 11 5 12
REMARK SMILES IDX 4 13 3 14 2 15 1 16 17 17 18 18 19 19 20 20 21 21 22 22
REMARK SMILES IDX 23 23 24 24 25 25 26 26 27 27 28 28 29 29 30 30
REMARK H PARENT 30 31
REMARK Flexibility Score: inf
ROOT
ATOM      1  C   UNL     1       2.477  25.461  20.009  1.00  0.00     0.000 C 
ENDROOT
BRANCH   1   2
ATOM      2  C   UNL     1       1.517  24.262  20.024  1.00  0.00     0.000 C 
BRANCH   2   3
ATOM      3  C   UNL     1       0.404  24.399  21.078  1.00  0.00     0.000 C 
BRANCH   3   4
ATOM      4  C   UNL     1      -0.595  23.225  21.132  1.00  0.00     0.000 C 
BRANCH   4   5
ATOM      5  C   UNL     1      -2.067  23.627  21.330  1.00  0.00     0.000 C 
BRANCH   5   6
ATOM      6  C   UNL     1      -2.978  22.425  21.637  1.00  0.00     0.000 C 
BRANCH   6   7
ATOM      7  C   UNL     1      -2.443  21.562  22.791  1.00  0.00     0.000 C 
BRANCH   7   8
ATOM      8  C   UNL     1      -2.282  20.083  22.396  1.00  0.00    -0.000 C 
BRANCH   8   9
ATOM      9  C   UNL     1      -2.287  19.142  23.612  1.00  0.00    -0.000 C 
BRANCH   9  10
ATOM     10  C   UNL     1      -3.483  19.384  24.546  1.00  0.00    -0.000 C 
BRANCH  10  11
ATOM     11  C   UNL     1      -3.077  19.188  26.014  1.00  0.00    -0.000 C 
BRANCH  11  12
ATOM     12  C   UNL     1      -2.998  20.512  26.790  1.00  0.00    -0.000 C 
BRANCH  12  13
ATOM     13  C   UNL     1      -1.568  21.068  26.866  1.00  0.00    -0.000 C 
BRANCH  13  14
ATOM     14  C   UNL     1      -1.464  22.417  26.137  1.00  0.00    -0.000 C 
BRANCH  14  15
ATOM     15  C   UNL     1      -0.019  22.928  26.043  1.00  0.00    -0.003 C 
ATOM     16  C   UNL     1       0.510  22.946  24.608  1.00  0.00     0.004 C 
ENDBRANCH  14  15
ENDBRANCH  13  14
ENDBRANCH  12  13
ENDBRANCH  11  12
ENDBRANCH  10  11
ENDBRANCH   9  10
ENDBRANCH   8   9
ENDBRANCH   7   8
ENDBRANCH   6   7
ENDBRANCH   5   6
ENDBRANCH   4   5
ENDBRANCH   3   4
ENDBRANCH   2   3
ENDBRANCH   1   2
BRANCH   1  17
ATOM     17  C   UNL     1       3.278  25.510  18.697  1.00  0.00     0.000 C 
BRANCH  17  18
ATOM     18  C   UNL     1       2.570  26.341  17.607  1.00  0.00     0.000 C 
BRANCH  18  19
ATOM     19  C   UNL     1       1.501  27.303  18.153  1.00  0.00     0.000 C 
BRANCH  19  20
ATOM     20  C   UNL     1       0.154  27.178  17.426  1.00  0.00     0.000 C 
BRANCH  20  21
ATOM     21  C   UNL     1      -0.853  26.379  18.261  1.00  0.00     0.000 C 
BRANCH  21  22
ATOM     22  C   UNL     1      -2.090  26.013  17.426  1.00  0.00     0.000 C 
BRANCH  22  23
ATOM     23  C   UNL     1      -2.904  24.863  18.041  1.00  0.00     0.000 C 
BRANCH  23  24
ATOM     24  C   UNL     1      -3.709  24.080  16.990  1.00  0.00     0.000 C 
BRANCH  24  25
ATOM     25  C   UNL     1      -3.592  22.558  17.173  1.00  0.00     0.000 C 
BRANCH  25  26
ATOM     26  C   UNL     1      -2.352  22.151  17.988  1.00  0.00     0.000 C 
BRANCH  26  27
ATOM     27  C   UNL     1      -1.962  20.679  17.775  1.00  0.00     0.002 C 
BRANCH  27  28
ATOM     28  C   UNL     1      -0.678  20.295  18.528  1.00  0.00     0.028 C 
BRANCH  28  29
ATOM     29  C   UNL     1      -0.132  18.943  18.063  1.00  0.00     0.156 C 
BRANCH  29  30
ATOM     30  O   UNL     1      -0.847  18.493  16.946  1.00  0.00    -0.396 OA
ATOM     31  H   UNL     1      -1.653  19.068  16.884  1.00  0.00     0.210 HD
ENDBRANCH  29  30
ENDBRANCH  28  29
ENDBRANCH  27  28
ENDBRANCH  26  27
ENDBRANCH  25  26
ENDBRANCH  24  25
ENDBRANCH  23  24
ENDBRANCH  22  23
ENDBRANCH  21  22
ENDBRANCH  20  21
ENDBRANCH  19  20
ENDBRANCH  18  19
ENDBRANCH  17  18
ENDBRANCH   1  17
TORSDOF 28
ENDMDL
MODEL 8
REMARK VINA RESULT:    -3.437      2.408      6.658
REMARK INTER + INTRA:         -13.952
REMARK INTER:                  -9.287
REMARK INTRA:                  -4.665
REMARK UNBOUND:                -4.991
REMARK SMILES CCCCCCCCCCCCCCCCCCCCCCCCCCCCCO
REMARK SMILES IDX 16 1 15 2 14 3 13 4 12 5 11 6 10 7 9 8 8 9 7 10 6 11 5 12
REMARK SMILES IDX 4 13 3 14 2 15 1 16 17 17 18 18 19 19 20 20 21 21 22 22
REMARK SMILES IDX 23 23 24 24 25 25 26 26 27 27 28 28 29 29 30 30
REMARK H PARENT 30 31
REMARK Flexibility Score: inf
ROOT
ATOM      1  C   UNL     1      -0.121  22.743  25.933  1.00  0.00     0.000 C 
ENDROOT
BRANCH   1   2
ATOM      2  C   UNL     1      -0.358  23.402  24.566  1.00  0.00     0.000 C 
BRANCH   2   3
ATOM      3  C   UNL     1      -0.031  22.469  23.386  1.00  0.00     0.000 C 
BRANCH   3   4
ATOM      4  C   UNL     1      -0.154  23.112  21.990  1.00  0.00     0.000 C 
BRANCH   4   5
ATOM      5  C   UNL     1       0.302  24.579  21.902  1.00  0.00     0.000 C 
BRANCH   5   6
ATOM      6  C   UNL     1      -0.290  25.317  20.689  1.00  0.00     0.000 C 
BRANCH   6   7
ATOM      7  C   UNL     1      -1.357  24.485  19.958  1.00  0.00     0.000 C 
BRANCH   7   8
ATOM      8  C   UNL     1      -2.784  25.006  20.206  1.00  0.00    -0.000 C 
BRANCH   8   9
ATOM      9  C   UNL     1      -3.765  24.593  19.097  1.00  0.00    -0.000 C 
BRANCH   9  10
ATOM     10  C   UNL     1      -3.089  24.464  17.723  1.00  0.00    -0.000 C 
BRANCH  10  11
ATOM     11  C   UNL     1      -3.654  25.500  16.739  1.00  0.00    -0.000 C 
BRANCH  11  12
ATOM     12  C   UNL     1      -2.726  26.709  16.552  1.00  0.00    -0.000 C 
BRANCH  12  13
ATOM     13  C   UNL     1      -1.249  26.305  16.415  1.00  0.00    -0.000 C 
BRANCH  13  14
ATOM     14  C   UNL     1      -0.332  27.533  16.529  1.00  0.00    -0.000 C 
BRANCH  14  15
ATOM     15  C   UNL     1       0.488  27.539  17.828  1.00  0.00    -0.003 C 
ATOM     16  C   UNL     1       1.813  26.789  17.695  1.00  0.00     0.004 C 
ENDBRANCH  14  15
ENDBRANCH  13  14
ENDBRANCH  12  13
ENDBRANCH  11  12
ENDBRANCH  10  11
ENDBRANCH   9  10
ENDBRANCH   8   9
ENDBRANCH   7   8
ENDBRANCH   6   7
ENDBRANCH   5   6
ENDBRANCH   4   5
ENDBRANCH   3   4
ENDBRANCH   2   3
ENDBRANCH   1   2
BRANCH   1  17
ATOM     17  C   UNL     1      -0.789  21.360  26.002  1.00  0.00     0.000 C 
BRANCH  17  18
ATOM     18  C   UNL     1      -1.784  21.245  27.176  1.00  0.00     0.000 C 
BRANCH  18  19
ATOM     19  C   UNL     1      -3.257  21.404  26.761  1.00  0.00     0.000 C 
BRANCH  19  20
ATOM     20  C   UNL     1      -3.755  22.853  26.863  1.00  0.00     0.000 C 
BRANCH  20  21
ATOM     21  C   UNL     1      -4.122  23.410  25.482  1.00  0.00     0.000 C 
BRANCH  21  22
ATOM     22  C   UNL     1      -4.074  22.306  24.414  1.00  0.00     0.000 C 
BRANCH  22  23
ATOM     23  C   UNL     1      -3.682  22.839  23.026  1.00  0.00     0.000 C 
BRANCH  23  24
ATOM     24  C   UNL     1      -4.123  21.903  21.888  1.00  0.00     0.000 C 
BRANCH  24  25
ATOM     25  C   UNL     1      -3.104  20.784  21.619  1.00  0.00     0.000 C 
BRANCH  25  26
ATOM     26  C   UNL     1      -2.370  20.957  20.277  1.00  0.00     0.000 C 
BRANCH  26  27
ATOM     27  C   UNL     1      -3.149  20.359  19.095  1.00  0.00     0.002 C 
BRANCH  27  28
ATOM     28  C   UNL     1      -2.445  20.591  17.747  1.00  0.00     0.028 C 
BRANCH  28  29
ATOM     29  C   UNL     1      -1.036  19.995  17.735  1.00  0.00     0.156 C 
BRANCH  29  30
ATOM     30  O   UNL     1      -1.079  18.664  17.302  1.00  0.00    -0.396 OA
ATOM     31  H   UNL     1      -0.854  18.109  18.093  1.00  0.00     0.210 HD
ENDBRANCH  29  30
ENDBRANCH  28  29
ENDBRANCH  27  28
ENDBRANCH  26  27
ENDBRANCH  25  26
ENDBRANCH  24  25
ENDBRANCH  23  24
ENDBRANCH  22  23
ENDBRANCH  21  22
ENDBRANCH  20  21
ENDBRANCH  19  20
ENDBRANCH  18  19
ENDBRANCH  17  18
ENDBRANCH   1  17
TORSDOF 28
ENDMDL
MODEL 9
REMARK VINA RESULT:    -3.401      2.373      7.648
REMARK INTER + INTRA:         -13.859
REMARK INTER:                 -10.273
REMARK INTRA:                  -3.586
REMARK UNBOUND:                -4.991
REMARK SMILES CCCCCCCCCCCCCCCCCCCCCCCCCCCCCO
REMARK SMILES IDX 16 1 15 2 14 3 13 4 12 5 11 6 10 7 9 8 8 9 7 10 6 11 5 12
REMARK SMILES IDX 4 13 3 14 2 15 1 16 17 17 18 18 19 19 20 20 21 21 22 22
REMARK SMILES IDX 23 23 24 24 25 25 26 26 27 27 28 28 29 29 30 30
REMARK H PARENT 30 31
REMARK Flexibility Score: inf
ROOT
ATOM      1  C   UNL     1       2.625  24.779  19.612  1.00  0.00     0.000 C 
ENDROOT
BRANCH   1   2
ATOM      2  C   UNL     1       3.062  25.750  18.505  1.00  0.00     0.000 C 
BRANCH   2   3
ATOM      3  C   UNL     1       1.950  26.733  18.097  1.00  0.00     0.000 C 
BRANCH   3   4
ATOM      4  C   UNL     1       1.814  26.975  16.580  1.00  0.00     0.000 C 
BRANCH   4   5
ATOM      5  C   UNL     1       0.370  27.087  16.062  1.00  0.00     0.000 C 
BRANCH   5   6
ATOM      6  C   UNL     1      -0.679  26.871  17.167  1.00  0.00     0.000 C 
BRANCH   6   7
ATOM      7  C   UNL     1      -1.988  26.271  16.626  1.00  0.00     0.000 C 
BRANCH   7   8
ATOM      8  C   UNL     1      -2.921  25.782  17.748  1.00  0.00    -0.000 C 
BRANCH   8   9
ATOM      9  C   UNL     1      -2.173  25.517  19.065  1.00  0.00    -0.000 C 
BRANCH   9  10
ATOM     10  C   UNL     1      -2.966  24.620  20.029  1.00  0.00    -0.000 C 
BRANCH  10  11
ATOM     11  C   UNL     1      -3.398  23.320  19.333  1.00  0.00    -0.000 C 
BRANCH  11  12
ATOM     12  C   UNL     1      -2.206  22.434  18.939  1.00  0.00    -0.000 C 
BRANCH  12  13
ATOM     13  C   UNL     1      -2.470  21.623  17.660  1.00  0.00    -0.000 C 
BRANCH  13  14
ATOM     14  C   UNL     1      -2.215  20.126  17.897  1.00  0.00    -0.000 C 
BRANCH  14  15
ATOM     15  C   UNL     1      -0.832  19.677  17.403  1.00  0.00    -0.003 C 
ATOM     16  C   UNL     1       0.003  19.018  18.501  1.00  0.00     0.004 C 
ENDBRANCH  14  15
ENDBRANCH  13  14
ENDBRANCH  12  13
ENDBRANCH  11  12
ENDBRANCH  10  11
ENDBRANCH   9  10
ENDBRANCH   8   9
ENDBRANCH   7   8
ENDBRANCH   6   7
ENDBRANCH   5   6
ENDBRANCH   4   5
ENDBRANCH   3   4
ENDBRANCH   2   3
ENDBRANCH   1   2
BRANCH   1  17
ATOM     17  C   UNL     1       1.202  25.099  20.097  1.00  0.00     0.000 C 
BRANCH  17  18
ATOM     18  C   UNL     1       0.544  23.904  20.819  1.00  0.00     0.000 C 
BRANCH  18  19
ATOM     19  C   UNL     1       0.077  24.221  22.249  1.00  0.00     0.000 C 
BRANCH  19  20
ATOM     20  C   UNL     1      -0.154  22.963  23.098  1.00  0.00     0.000 C 
BRANCH  20  21
ATOM     21  C   UNL     1      -1.127  22.000  22.408  1.00  0.00     0.000 C 
BRANCH  21  22
ATOM     22  C   UNL     1      -2.564  22.222  22.904  1.00  0.00     0.000 C 
BRANCH  22  23
ATOM     23  C   UNL     1      -3.344  20.908  23.077  1.00  0.00     0.000 C 
BRANCH  23  24
ATOM     24  C   UNL     1      -2.503  19.805  23.743  1.00  0.00     0.000 C 
BRANCH  24  25
ATOM     25  C   UNL     1      -3.294  19.024  24.805  1.00  0.00     0.000 C 
BRANCH  25  26
ATOM     26  C   UNL     1      -3.542  19.843  26.084  1.00  0.00     0.000 C 
BRANCH  26  27
ATOM     27  C   UNL     1      -2.250  20.122  26.868  1.00  0.00     0.002 C 
BRANCH  27  28
ATOM     28  C   UNL     1      -2.168  21.571  27.376  1.00  0.00     0.028 C 
BRANCH  28  29
ATOM     29  C   UNL     1      -1.677  22.526  26.286  1.00  0.00     0.156 C 
BRANCH  29  30
ATOM     30  O   UNL     1      -0.478  23.132  26.681  1.00  0.00    -0.396 OA
ATOM     31  H   UNL     1       0.176  22.949  25.956  1.00  0.00     0.210 HD
ENDBRANCH  29  30
ENDBRANCH  28  29
ENDBRANCH  27  28
ENDBRANCH  26  27
ENDBRANCH  25  26
ENDBRANCH  24  25
ENDBRANCH  23  24
ENDBRANCH  22  23
ENDBRANCH  21  22
ENDBRANCH  20  21
ENDBRANCH  19  20
ENDBRANCH  18  19
ENDBRANCH  17  18
ENDBRANCH   1  17
TORSDOF 28
ENDMDL
