MODEL 1
REMARK VINA RESULT:    -3.191      0.000      0.000
REMARK INTER + INTRA:          -4.651
REMARK INTER:                  -4.497
REMARK INTRA:                  -0.154
REMARK UNBOUND:                -0.154
REMARK SMILES CCCCCCCCC(=O)[O-]
REMARK SMILES IDX 6 1 7 2 8 3 9 4 10 5 11 6 5 7 4 8 3 9 2 10 1 11
REMARK H PARENT
REMARK Flexibility Score: inf
ROOT
ATOM      1  C   UNL     1       4.449   8.064  -9.698  1.00  0.00     0.000 C 
ENDROOT
BRANCH   1   2
ATOM      2  C   UNL     1       4.030   6.810  -8.913  1.00  0.00     0.006 C 
BRANCH   2   3
ATOM      3  C   UNL     1       4.522   6.844  -7.461  1.00  0.00     0.053 C 
BRANCH   3   4
ATOM      4  C   UNL     1       3.577   7.592  -6.571  1.00  0.00     0.041 C 
ATOM      5  O   UNL     1       2.540   8.121  -7.050  1.00  0.00    -0.550 OA
ATOM      6  O   UNL     1       3.826   7.677  -5.206  1.00  0.00    -0.550 OA
ENDBRANCH   3   4
ENDBRANCH   2   3
ENDBRANCH   1   2
BRANCH   1   7
ATOM      7  C   UNL     1       5.042   7.687 -11.060  1.00  0.00     0.000 C 
BRANCH   7   8
ATOM      8  C   UNL     1       4.064   6.816 -11.864  1.00  0.00    -0.000 C 
BRANCH   8   9
ATOM      9  C   UNL     1       3.586   7.501 -13.155  1.00  0.00    -0.000 C 
BRANCH   9  10
ATOM     10  C   UNL     1       2.232   6.966 -13.641  1.00  0.00    -0.003 C 
ATOM     11  C   UNL     1       1.253   8.108 -13.900  1.00  0.00     0.004 C 
ENDBRANCH   9  10
ENDBRANCH   8   9
ENDBRANCH   7   8
ENDBRANCH   1   7
TORSDOF 7
ENDMDL
MODEL 2
REMARK VINA RESULT:    -2.857     21.230     22.210
REMARK INTER + INTRA:          -4.180
REMARK INTER:                  -3.856
REMARK INTRA:                  -0.323
REMARK UNBOUND:                -0.154
REMARK SMILES CCCCCCCCC(=O)[O-]
REMARK SMILES IDX 6 1 7 2 8 3 9 4 10 5 11 6 5 7 4 8 3 9 2 10 1 11
REMARK H PARENT
REMARK Flexibility Score: inf
ROOT
ATOM      1  C   UNL     1      -8.905  -7.633  -2.502  1.00  0.00     0.000 C 
ENDROOT
BRANCH   1   2
ATOM      2  C   UNL     1      -7.574  -8.401  -2.549  1.00  0.00     0.006 C 
BRANCH   2   3
ATOM      3  C   UNL     1      -6.988  -8.632  -1.151  1.00  0.00     0.053 C 
BRANCH   3   4
ATOM      4  C   UNL     1      -5.523  -8.940  -1.205  1.00  0.00     0.041 C 
ATOM      5  O   UNL     1      -4.692  -8.161  -0.670  1.00  0.00    -0.550 OA
ATOM      6  O   UNL     1      -5.079 -10.105  -1.819  1.00  0.00    -0.550 OA
ENDBRANCH   3   4
ENDBRANCH   2   3
ENDBRANCH   1   2
BRANCH   1   7
ATOM      7  C   UNL     1      -9.615  -7.847  -1.161  1.00  0.00     0.000 C 
BRANCH   7   8
ATOM      8  C   UNL     1     -10.513  -9.093  -1.207  1.00  0.00    -0.000 C 
BRANCH   8   9
ATOM      9  C   UNL     1     -10.953  -9.453  -2.635  1.00  0.00    -0.000 C 
BRANCH   9  10
ATOM     10  C   UNL     1     -11.110 -10.966  -2.842  1.00  0.00    -0.003 C 
ATOM     11  C   UNL     1     -11.123 -11.318  -4.327  1.00  0.00     0.004 C 
ENDBRANCH   9  10
ENDBRANCH   8   9
ENDBRANCH   7   8
ENDBRANCH   1   7
TORSDOF 7
ENDMDL
MODEL 3
REMARK VINA RESULT:    -2.825     20.994     22.199
REMARK INTER + INTRA:          -4.136
REMARK INTER:                  -3.679
REMARK INTRA:                  -0.457
REMARK UNBOUND:                -0.154
REMARK SMILES CCCCCCCCC(=O)[O-]
REMARK SMILES IDX 6 1 7 2 8 3 9 4 10 5 11 6 5 7 4 8 3 9 2 10 1 11
REMARK H PARENT
REMARK Flexibility Score: inf
ROOT
ATOM      1  C   UNL     1      -8.139 -11.310 -12.526  1.00  0.00     0.000 C 
ENDROOT
BRANCH   1   2
ATOM      2  C   UNL     1      -7.140 -11.373 -13.692  1.00  0.00     0.006 C 
BRANCH   2   3
ATOM      3  C   UNL     1      -6.453 -10.024 -13.941  1.00  0.00     0.053 C 
BRANCH   3   4
ATOM      4  C   UNL     1      -5.019 -10.042 -13.509  1.00  0.00     0.041 C 
ATOM      5  O   UNL     1      -4.381 -11.127 -13.473  1.00  0.00    -0.550 OA
ATOM      6  O   UNL     1      -4.377  -8.855 -13.177  1.00  0.00    -0.550 OA
ENDBRANCH   3   4
ENDBRANCH   2   3
ENDBRANCH   1   2
BRANCH   1   7
ATOM      7  C   UNL     1      -8.971 -10.024 -12.585  1.00  0.00     0.000 C 
BRANCH   7   8
ATOM      8  C   UNL     1     -10.344 -10.227 -11.926  1.00  0.00    -0.000 C 
BRANCH   8   9
ATOM      9  C   UNL     1     -10.650 -11.707 -11.641  1.00  0.00    -0.000 C 
BRANCH   9  10
ATOM     10  C   UNL     1     -11.125 -11.945 -10.200  1.00  0.00    -0.003 C 
ATOM     11  C   UNL     1     -10.326 -11.099  -9.213  1.00  0.00     0.004 C 
ENDBRANCH   9  10
ENDBRANCH   8   9
ENDBRANCH   7   8
ENDBRANCH   1   7
TORSDOF 7
ENDMDL
MODEL 4
REMARK VINA RESULT:    -2.434     20.855     22.013
REMARK INTER + INTRA:          -3.583
REMARK INTER:                  -3.174
REMARK INTRA:                  -0.410
REMARK UNBOUND:                -0.154
REMARK SMILES CCCCCCCCC(=O)[O-]
REMARK SMILES IDX 6 1 7 2 8 3 9 4 10 5 11 6 5 7 4 8 3 9 2 10 1 11
REMARK H PARENT
REMARK Flexibility Score: inf
ROOT
ATOM      1  C   UNL     1      -8.860 -10.303 -14.058  1.00  0.00     0.000 C 
ENDROOT
BRANCH   1   2
ATOM      2  C   UNL     1      -9.945 -11.019 -13.238  1.00  0.00     0.006 C 
BRANCH   2   3
ATOM      3  C   UNL     1     -10.217 -10.321 -11.900  1.00  0.00     0.053 C 
BRANCH   3   4
ATOM      4  C   UNL     1      -9.861 -11.192 -10.735  1.00  0.00     0.041 C 
ATOM      5  O   UNL     1     -10.612 -11.238  -9.725  1.00  0.00    -0.550 OA
ATOM      6  O   UNL     1      -8.717 -11.979 -10.778  1.00  0.00    -0.550 OA
ENDBRANCH   3   4
ENDBRANCH   2   3
ENDBRANCH   1   2
BRANCH   1   7
ATOM      7  C   UNL     1      -7.540 -11.082 -14.023  1.00  0.00     0.000 C 
BRANCH   7   8
ATOM      8  C   UNL     1      -6.530 -10.410 -13.080  1.00  0.00    -0.000 C 
BRANCH   8   9
ATOM      9  C   UNL     1      -5.419  -9.665 -13.838  1.00  0.00    -0.000 C 
BRANCH   9  10
ATOM     10  C   UNL     1      -4.018 -10.201 -13.508  1.00  0.00    -0.003 C 
ATOM     11  C   UNL     1      -3.802 -11.582 -14.119  1.00  0.00     0.004 C 
ENDBRANCH   9  10
ENDBRANCH   8   9
ENDBRANCH   7   8
ENDBRANCH   1   7
TORSDOF 7
ENDMDL
MODEL 5
REMARK VINA RESULT:    -2.343     20.812     21.902
REMARK INTER + INTRA:          -3.455
REMARK INTER:                  -3.195
REMARK INTRA:                  -0.260
REMARK UNBOUND:                -0.154
REMARK SMILES CCCCCCCCC(=O)[O-]
REMARK SMILES IDX 6 1 7 2 8 3 9 4 10 5 11 6 5 7 4 8 3 9 2 10 1 11
REMARK H PARENT
REMARK Flexibility Score: inf
ROOT
ATOM      1  C   UNL     1      -7.621 -10.720 -12.535  1.00  0.00     0.000 C 
ENDROOT
BRANCH   1   2
ATOM      2  C   UNL     1      -8.156 -12.125 -12.214  1.00  0.00     0.006 C 
BRANCH   2   3
ATOM      3  C   UNL     1      -9.122 -12.119 -11.021  1.00  0.00     0.053 C 
BRANCH   3   4
ATOM      4  C   UNL     1     -10.183 -11.073 -11.170  1.00  0.00     0.041 C 
ATOM      5  O   UNL     1     -10.317 -10.177 -10.296  1.00  0.00    -0.550 OA
ATOM      6  O   UNL     1     -11.003 -11.068 -12.292  1.00  0.00    -0.550 OA
ENDBRANCH   3   4
ENDBRANCH   2   3
ENDBRANCH   1   2
BRANCH   1   7
ATOM      7  C   UNL     1      -6.893 -10.705 -13.884  1.00  0.00     0.000 C 
BRANCH   7   8
ATOM      8  C   UNL     1      -6.025  -9.445 -14.026  1.00  0.00    -0.000 C 
BRANCH   8   9
ATOM      9  C   UNL     1      -4.570  -9.676 -13.586  1.00  0.00    -0.000 C 
BRANCH   9  10
ATOM     10  C   UNL     1      -4.276 -11.150 -13.267  1.00  0.00    -0.003 C 
ATOM     11  C   UNL     1      -3.130 -11.678 -14.125  1.00  0.00     0.004 C 
ENDBRANCH   9  10
ENDBRANCH   8   9
ENDBRANCH   7   8
ENDBRANCH   1   7
TORSDOF 7
ENDMDL
MODEL 6
REMARK VINA RESULT:    -2.177     20.644     21.745
REMARK INTER + INTRA:          -3.221
REMARK INTER:                  -3.875
REMARK INTRA:                   0.654
REMARK UNBOUND:                -0.154
REMARK SMILES CCCCCCCCC(=O)[O-]
REMARK SMILES IDX 6 1 7 2 8 3 9 4 10 5 11 6 5 7 4 8 3 9 2 10 1 11
REMARK H PARENT
REMARK Flexibility Score: inf
ROOT
ATOM      1  C   UNL     1      -9.087  -7.847  -0.415  1.00  0.00     0.000 C 
ENDROOT
BRANCH   1   2
ATOM      2  C   UNL     1      -7.649  -8.353  -0.222  1.00  0.00     0.006 C 
BRANCH   2   3
ATOM      3  C   UNL     1      -6.965  -8.681  -1.555  1.00  0.00     0.053 C 
BRANCH   3   4
ATOM      4  C   UNL     1      -5.528  -9.058  -1.365  1.00  0.00     0.041 C 
ATOM      5  O   UNL     1      -5.098 -10.158  -1.802  1.00  0.00    -0.550 OA
ATOM      6  O   UNL     1      -4.655  -8.180  -0.734  1.00  0.00    -0.550 OA
ENDBRANCH   3   4
ENDBRANCH   2   3
ENDBRANCH   1   2
BRANCH   1   7
ATOM      7  C   UNL     1     -10.066  -9.018  -0.559  1.00  0.00     0.000 C 
BRANCH   7   8
ATOM      8  C   UNL     1     -10.441  -9.244  -2.031  1.00  0.00    -0.000 C 
BRANCH   8   9
ATOM      9  C   UNL     1     -11.125  -8.020  -2.662  1.00  0.00    -0.000 C 
BRANCH   9  10
ATOM     10  C   UNL     1     -10.317  -6.728  -2.471  1.00  0.00    -0.003 C 
ATOM     11  C   UNL     1     -11.112  -5.510  -2.932  1.00  0.00     0.004 C 
ENDBRANCH   9  10
ENDBRANCH   8   9
ENDBRANCH   7   8
ENDBRANCH   1   7
TORSDOF 7
ENDMDL
MODEL 7
REMARK VINA RESULT:    -2.063     20.417     21.536
REMARK INTER + INTRA:          -3.061
REMARK INTER:                  -2.796
REMARK INTRA:                  -0.265
REMARK UNBOUND:                -0.154
REMARK SMILES CCCCCCCCC(=O)[O-]
REMARK SMILES IDX 6 1 7 2 8 3 9 4 10 5 11 6 5 7 4 8 3 9 2 10 1 11
REMARK H PARENT
REMARK Flexibility Score: inf
ROOT
ATOM      1  C   UNL     1      -7.942 -10.956 -14.087  1.00  0.00     0.000 C 
ENDROOT
BRANCH   1   2
ATOM      2  C   UNL     1      -9.221 -11.119 -13.250  1.00  0.00     0.006 C 
BRANCH   2   3
ATOM      3  C   UNL     1      -8.953 -10.972 -11.746  1.00  0.00     0.053 C 
BRANCH   3   4
ATOM      4  C   UNL     1     -10.146 -11.361 -10.928  1.00  0.00     0.041 C 
ATOM      5  O   UNL     1     -11.086 -12.015 -11.450  1.00  0.00    -0.550 OA
ATOM      6  O   UNL     1     -10.204 -11.028  -9.580  1.00  0.00    -0.550 OA
ENDBRANCH   3   4
ENDBRANCH   2   3
ENDBRANCH   1   2
BRANCH   1   7
ATOM      7  C   UNL     1      -6.691 -11.176 -13.227  1.00  0.00     0.000 C 
BRANCH   7   8
ATOM      8  C   UNL     1      -5.437 -10.641 -13.935  1.00  0.00    -0.000 C 
BRANCH   8   9
ATOM      9  C   UNL     1      -5.442  -9.109 -14.069  1.00  0.00    -0.000 C 
BRANCH   9  10
ATOM     10  C   UNL     1      -4.026  -8.517 -14.122  1.00  0.00    -0.003 C 
ATOM     11  C   UNL     1      -4.070  -6.991 -14.112  1.00  0.00     0.004 C 
ENDBRANCH   9  10
ENDBRANCH   8   9
ENDBRANCH   7   8
ENDBRANCH   1   7
TORSDOF 7
ENDMDL
MODEL 8
REMARK VINA RESULT:    -1.629     19.275     20.494
REMARK INTER + INTRA:          -2.450
REMARK INTER:                  -2.155
REMARK INTRA:                  -0.294
REMARK UNBOUND:                -0.154
REMARK SMILES CCCCCCCCC(=O)[O-]
REMARK SMILES IDX 6 1 7 2 8 3 9 4 10 5 11 6 5 7 4 8 3 9 2 10 1 11
REMARK H PARENT
REMARK Flexibility Score: inf
ROOT
ATOM      1  C   UNL     1      -5.667 -10.726 -13.220  1.00  0.00     0.000 C 
ENDROOT
BRANCH   1   2
ATOM      2  C   UNL     1      -4.466  -9.804 -13.484  1.00  0.00     0.006 C 
BRANCH   2   3
ATOM      3  C   UNL     1      -4.885  -8.474 -14.125  1.00  0.00     0.053 C 
BRANCH   3   4
ATOM      4  C   UNL     1      -4.109  -7.320 -13.570  1.00  0.00     0.041 C 
ATOM      5  O   UNL     1      -3.299  -7.497 -12.623  1.00  0.00    -0.550 OA
ATOM      6  O   UNL     1      -4.257  -6.052 -14.121  1.00  0.00    -0.550 OA
ENDBRANCH   3   4
ENDBRANCH   2   3
ENDBRANCH   1   2
BRANCH   1   7
ATOM      7  C   UNL     1      -6.975 -10.066 -13.671  1.00  0.00     0.000 C 
BRANCH   7   8
ATOM      8  C   UNL     1      -8.158 -11.035 -13.522  1.00  0.00    -0.000 C 
BRANCH   8   9
ATOM      9  C   UNL     1      -8.458 -11.384 -12.055  1.00  0.00    -0.000 C 
BRANCH   9  10
ATOM     10  C   UNL     1      -9.920 -11.798 -11.833  1.00  0.00    -0.003 C 
ATOM     11  C   UNL     1     -10.832 -10.576 -11.774  1.00  0.00     0.004 C 
ENDBRANCH   9  10
ENDBRANCH   8   9
ENDBRANCH   7   8
ENDBRANCH   1   7
TORSDOF 7
ENDMDL
