MODEL 1
REMARK VINA RESULT:    -3.010      0.000      0.000
REMARK INTER + INTRA:          -7.860
REMARK INTER:                  -5.474
REMARK INTRA:                  -2.386
REMARK UNBOUND:                -2.386
REMARK SMILES CCCCCCCCCCCCCC[C@H](C)C(=O)[O-]
REMARK SMILES IDX 9 1 10 2 11 3 12 4 13 5 14 6 15 7 16 8 17 9 18 10 19 11 8 12
REMARK SMILES IDX 7 13 6 14 5 15 4 16 3 17 2 18 1 19
REMARK H PARENT
REMARK Flexibility Score: inf
ROOT
ATOM      1  C   UNL     1     144.984 141.080 148.632  1.00  0.00     0.000 C 
ENDROOT
BRANCH   1   2
ATOM      2  C   UNL     1     143.875 141.266 149.685  1.00  0.00     0.000 C 
BRANCH   2   3
ATOM      3  C   UNL     1     142.550 140.542 149.379  1.00  0.00     0.000 C 
BRANCH   3   4
ATOM      4  C   UNL     1     141.312 141.396 149.695  1.00  0.00     0.000 C 
BRANCH   4   5
ATOM      5  C   UNL     1     141.696 142.649 150.491  1.00  0.00     0.001 C 
BRANCH   5   6
ATOM      6  C   UNL     1     140.684 142.915 151.620  1.00  0.00     0.009 C 
BRANCH   6   7
ATOM      7  C   UNL     1     141.305 142.973 153.032  1.00  0.00     0.032 C 
ATOM      8  C   UNL     1     141.278 141.614 153.746  1.00  0.00     0.014 C 
BRANCH   7   9
ATOM      9  C   UNL     1     140.678 144.054 153.872  1.00  0.00     0.044 C 
ATOM     10  O   UNL     1     140.911 144.102 155.109  1.00  0.00    -0.550 OA
ATOM     11  O   UNL     1     139.882 145.036 153.291  1.00  0.00    -0.550 OA
ENDBRANCH   7   9
ENDBRANCH   6   7
ENDBRANCH   5   6
ENDBRANCH   4   5
ENDBRANCH   3   4
ENDBRANCH   2   3
ENDBRANCH   1   2
BRANCH   1  12
ATOM     12  C   UNL     1     144.599 140.086 147.524  1.00  0.00     0.000 C 
BRANCH  12  13
ATOM     13  C   UNL     1     144.940 140.596 146.111  1.00  0.00    -0.000 C 
BRANCH  13  14
ATOM     14  C   UNL     1     143.835 140.410 145.054  1.00  0.00    -0.000 C 
BRANCH  14  15
ATOM     15  C   UNL     1     142.517 139.888 145.646  1.00  0.00    -0.000 C 
BRANCH  15  16
ATOM     16  C   UNL     1     141.444 140.985 145.772  1.00  0.00    -0.000 C 
BRANCH  16  17
ATOM     17  C   UNL     1     141.978 142.407 145.496  1.00  0.00    -0.000 C 
BRANCH  17  18
ATOM     18  C   UNL     1     141.805 143.334 146.708  1.00  0.00    -0.003 C 
ATOM     19  C   UNL     1     143.147 143.891 147.173  1.00  0.00     0.004 C 
ENDBRANCH  17  18
ENDBRANCH  16  17
ENDBRANCH  15  16
ENDBRANCH  14  15
ENDBRANCH  13  14
ENDBRANCH  12  13
ENDBRANCH   1  12
TORSDOF 14
ENDMDL
MODEL 2
REMARK VINA RESULT:    -2.806      1.585      3.321
REMARK INTER + INTRA:          -7.489
REMARK INTER:                  -5.818
REMARK INTRA:                  -1.671
REMARK UNBOUND:                -2.386
REMARK SMILES CCCCCCCCCCCCCC[C@H](C)C(=O)[O-]
REMARK SMILES IDX 9 1 10 2 11 3 12 4 13 5 14 6 15 7 16 8 17 9 18 10 19 11 8 12
REMARK SMILES IDX 7 13 6 14 5 15 4 16 3 17 2 18 1 19
REMARK H PARENT
REMARK Flexibility Score: inf
ROOT
ATOM      1  C   UNL     1     142.006 144.547 147.608  1.00  0.00     0.000 C 
ENDROOT
BRANCH   1   2
ATOM      2  C   UNL     1     141.406 143.928 148.885  1.00  0.00     0.000 C 
BRANCH   2   3
ATOM      3  C   UNL     1     140.955 144.939 149.956  1.00  0.00     0.000 C 
BRANCH   3   4
ATOM      4  C   UNL     1     140.290 144.272 151.171  1.00  0.00     0.000 C 
BRANCH   4   5
ATOM      5  C   UNL     1     140.688 142.794 151.273  1.00  0.00     0.001 C 
BRANCH   5   6
ATOM      6  C   UNL     1     139.892 142.086 152.384  1.00  0.00     0.009 C 
BRANCH   6   7
ATOM      7  C   UNL     1     140.554 142.145 153.778  1.00  0.00     0.032 C 
ATOM      8  C   UNL     1     140.118 143.373 154.589  1.00  0.00     0.014 C 
BRANCH   7   9
ATOM      9  C   UNL     1     142.054 142.043 153.687  1.00  0.00     0.044 C 
ATOM     10  O   UNL     1     142.769 143.037 153.980  1.00  0.00    -0.550 OA
ATOM     11  O   UNL     1     142.666 140.846 153.330  1.00  0.00    -0.550 OA
ENDBRANCH   7   9
ENDBRANCH   6   7
ENDBRANCH   5   6
ENDBRANCH   4   5
ENDBRANCH   3   4
ENDBRANCH   2   3
ENDBRANCH   1   2
BRANCH   1  12
ATOM     12  C   UNL     1     141.798 143.670 146.362  1.00  0.00     0.000 C 
BRANCH  12  13
ATOM     13  C   UNL     1     141.072 142.347 146.671  1.00  0.00    -0.000 C 
BRANCH  13  14
ATOM     14  C   UNL     1     140.991 141.346 145.503  1.00  0.00    -0.000 C 
BRANCH  14  15
ATOM     15  C   UNL     1     142.190 140.386 145.448  1.00  0.00    -0.000 C 
BRANCH  15  16
ATOM     16  C   UNL     1     142.836 140.160 146.827  1.00  0.00    -0.000 C 
BRANCH  16  17
ATOM     17  C   UNL     1     144.273 140.714 146.936  1.00  0.00    -0.000 C 
BRANCH  17  18
ATOM     18  C   UNL     1     144.613 141.162 148.364  1.00  0.00    -0.003 C 
ATOM     19  C   UNL     1     143.427 140.962 149.302  1.00  0.00     0.004 C 
ENDBRANCH  17  18
ENDBRANCH  16  17
ENDBRANCH  15  16
ENDBRANCH  14  15
ENDBRANCH  13  14
ENDBRANCH  12  13
ENDBRANCH   1  12
TORSDOF 14
ENDMDL
MODEL 3
REMARK VINA RESULT:    -2.801      1.393      2.650
REMARK INTER + INTRA:          -7.479
REMARK INTER:                  -5.825
REMARK INTRA:                  -1.655
REMARK UNBOUND:                -2.386
REMARK SMILES CCCCCCCCCCCCCC[C@H](C)C(=O)[O-]
REMARK SMILES IDX 9 1 10 2 11 3 12 4 13 5 14 6 15 7 16 8 17 9 18 10 19 11 8 12
REMARK SMILES IDX 7 13 6 14 5 15 4 16 3 17 2 18 1 19
REMARK H PARENT
REMARK Flexibility Score: inf
ROOT
ATOM      1  C   UNL     1     143.981 142.759 148.675  1.00  0.00     0.000 C 
ENDROOT
BRANCH   1   2
ATOM      2  C   UNL     1     143.799 141.257 148.968  1.00  0.00     0.000 C 
BRANCH   2   3
ATOM      3  C   UNL     1     143.650 140.891 150.456  1.00  0.00     0.000 C 
BRANCH   3   4
ATOM      4  C   UNL     1     144.506 141.771 151.381  1.00  0.00     0.000 C 
BRANCH   4   5
ATOM      5  C   UNL     1     143.907 141.833 152.791  1.00  0.00     0.001 C 
BRANCH   5   6
ATOM      6  C   UNL     1     142.828 142.927 152.882  1.00  0.00     0.009 C 
BRANCH   6   7
ATOM      7  C   UNL     1     141.866 142.775 154.080  1.00  0.00     0.032 C 
ATOM      8  C   UNL     1     140.884 141.608 153.906  1.00  0.00     0.014 C 
BRANCH   7   9
ATOM      9  C   UNL     1     141.147 144.063 154.385  1.00  0.00     0.044 C 
ATOM     10  O   UNL     1     140.384 144.575 153.524  1.00  0.00    -0.550 OA
ATOM     11  O   UNL     1     141.277 144.674 155.628  1.00  0.00    -0.550 OA
ENDBRANCH   7   9
ENDBRANCH   6   7
ENDBRANCH   5   6
ENDBRANCH   4   5
ENDBRANCH   3   4
ENDBRANCH   2   3
ENDBRANCH   1   2
BRANCH   1  12
ATOM     12  C   UNL     1     143.104 143.254 147.513  1.00  0.00     0.000 C 
BRANCH  12  13
ATOM     13  C   UNL     1     141.736 142.549 147.449  1.00  0.00    -0.000 C 
BRANCH  13  14
ATOM     14  C   UNL     1     141.094 142.474 146.051  1.00  0.00    -0.000 C 
BRANCH  14  15
ATOM     15  C   UNL     1     140.995 141.039 145.509  1.00  0.00    -0.000 C 
BRANCH  15  16
ATOM     16  C   UNL     1     142.227 140.185 145.856  1.00  0.00    -0.000 C 
BRANCH  16  17
ATOM     17  C   UNL     1     143.231 140.045 144.691  1.00  0.00    -0.000 C 
BRANCH  17  18
ATOM     18  C   UNL     1     144.477 140.919 144.894  1.00  0.00    -0.003 C 
ATOM     19  C   UNL     1     144.378 142.216 144.099  1.00  0.00     0.004 C 
ENDBRANCH  17  18
ENDBRANCH  16  17
ENDBRANCH  15  16
ENDBRANCH  14  15
ENDBRANCH  13  14
ENDBRANCH  12  13
ENDBRANCH   1  12
TORSDOF 14
ENDMDL
MODEL 4
REMARK VINA RESULT:    -2.798      0.903      2.028
REMARK INTER + INTRA:          -7.474
REMARK INTER:                  -5.347
REMARK INTRA:                  -2.128
REMARK UNBOUND:                -2.386
REMARK SMILES CCCCCCCCCCCCCC[C@H](C)C(=O)[O-]
REMARK SMILES IDX 9 1 10 2 11 3 12 4 13 5 14 6 15 7 16 8 17 9 18 10 19 11 8 12
REMARK SMILES IDX 7 13 6 14 5 15 4 16 3 17 2 18 1 19
REMARK H PARENT
REMARK Flexibility Score: inf
ROOT
ATOM      1  C   UNL     1     145.027 141.079 149.554  1.00  0.00     0.000 C 
ENDROOT
BRANCH   1   2
ATOM      2  C   UNL     1     143.753 140.694 150.331  1.00  0.00     0.000 C 
BRANCH   2   3
ATOM      3  C   UNL     1     142.470 140.601 149.484  1.00  0.00     0.000 C 
BRANCH   3   4
ATOM      4  C   UNL     1     141.314 141.441 150.049  1.00  0.00     0.000 C 
BRANCH   4   5
ATOM      5  C   UNL     1     141.840 142.702 150.746  1.00  0.00     0.001 C 
BRANCH   5   6
ATOM      6  C   UNL     1     140.812 143.241 151.756  1.00  0.00     0.009 C 
BRANCH   6   7
ATOM      7  C   UNL     1     141.239 143.104 153.234  1.00  0.00     0.032 C 
ATOM      8  C   UNL     1     140.850 141.748 153.839  1.00  0.00     0.014 C 
BRANCH   7   9
ATOM      9  C   UNL     1     140.732 144.250 154.069  1.00  0.00     0.044 C 
ATOM     10  O   UNL     1     141.119 144.378 155.260  1.00  0.00    -0.550 OA
ATOM     11  O   UNL     1     139.877 145.204 153.525  1.00  0.00    -0.550 OA
ENDBRANCH   7   9
ENDBRANCH   6   7
ENDBRANCH   5   6
ENDBRANCH   4   5
ENDBRANCH   3   4
ENDBRANCH   2   3
ENDBRANCH   1   2
BRANCH   1  12
ATOM     12  C   UNL     1     144.785 141.233 148.043  1.00  0.00     0.000 C 
BRANCH  12  13
ATOM     13  C   UNL     1     144.927 142.687 147.555  1.00  0.00    -0.000 C 
BRANCH  13  14
ATOM     14  C   UNL     1     143.659 143.553 147.676  1.00  0.00    -0.000 C 
BRANCH  14  15
ATOM     15  C   UNL     1     143.296 144.277 146.370  1.00  0.00    -0.000 C 
BRANCH  15  16
ATOM     16  C   UNL     1     141.962 143.793 145.772  1.00  0.00    -0.000 C 
BRANCH  16  17
ATOM     17  C   UNL     1     141.286 142.674 146.592  1.00  0.00    -0.000 C 
BRANCH  17  18
ATOM     18  C   UNL     1     140.906 141.468 145.721  1.00  0.00    -0.003 C 
ATOM     19  C   UNL     1     142.077 140.502 145.574  1.00  0.00     0.004 C 
ENDBRANCH  17  18
ENDBRANCH  16  17
ENDBRANCH  15  16
ENDBRANCH  14  15
ENDBRANCH  13  14
ENDBRANCH  12  13
ENDBRANCH   1  12
TORSDOF 14
ENDMDL
MODEL 5
REMARK VINA RESULT:    -2.791      4.973      7.727
REMARK INTER + INTRA:          -7.462
REMARK INTER:                  -4.771
REMARK INTRA:                  -2.691
REMARK UNBOUND:                -2.386
REMARK SMILES CCCCCCCCCCCCCC[C@H](C)C(=O)[O-]
REMARK SMILES IDX 9 1 10 2 11 3 12 4 13 5 14 6 15 7 16 8 17 9 18 10 19 11 8 12
REMARK SMILES IDX 7 13 6 14 5 15 4 16 3 17 2 18 1 19
REMARK H PARENT
REMARK Flexibility Score: inf
ROOT
ATOM      1  C   UNL     1     144.210 145.762 152.835  1.00  0.00     0.000 C 
ENDROOT
BRANCH   1   2
ATOM      2  C   UNL     1     145.119 144.617 153.323  1.00  0.00     0.000 C 
BRANCH   2   3
ATOM      3  C   UNL     1     145.556 144.707 154.797  1.00  0.00     0.000 C 
BRANCH   3   4
ATOM      4  C   UNL     1     144.884 143.651 155.689  1.00  0.00     0.000 C 
BRANCH   4   5
ATOM      5  C   UNL     1     144.150 144.310 156.863  1.00  0.00     0.001 C 
BRANCH   5   6
ATOM      6  C   UNL     1     144.689 145.729 157.122  1.00  0.00     0.009 C 
BRANCH   6   7
ATOM      7  C   UNL     1     143.595 146.812 157.249  1.00  0.00     0.032 C 
ATOM      8  C   UNL     1     143.962 148.111 156.520  1.00  0.00     0.014 C 
BRANCH   7   9
ATOM      9  C   UNL     1     143.230 147.067 158.688  1.00  0.00     0.044 C 
ATOM     10  O   UNL     1     142.892 148.223 159.054  1.00  0.00    -0.550 OA
ATOM     11  O   UNL     1     143.211 146.027 159.613  1.00  0.00    -0.550 OA
ENDBRANCH   7   9
ENDBRANCH   6   7
ENDBRANCH   5   6
ENDBRANCH   4   5
ENDBRANCH   3   4
ENDBRANCH   2   3
ENDBRANCH   1   2
BRANCH   1  12
ATOM     12  C   UNL     1     142.713 145.429 152.947  1.00  0.00     0.000 C 
BRANCH  12  13
ATOM     13  C   UNL     1     141.964 146.346 153.933  1.00  0.00    -0.000 C 
BRANCH  13  14
ATOM     14  C   UNL     1     140.939 145.643 154.844  1.00  0.00    -0.000 C 
BRANCH  14  15
ATOM     15  C   UNL     1     141.162 144.125 154.943  1.00  0.00    -0.000 C 
BRANCH  15  16
ATOM     16  C   UNL     1     139.962 143.312 154.426  1.00  0.00    -0.000 C 
BRANCH  16  17
ATOM     17  C   UNL     1     140.363 142.110 153.544  1.00  0.00    -0.000 C 
BRANCH  17  18
ATOM     18  C   UNL     1     141.866 141.810 153.623  1.00  0.00    -0.003 C 
ATOM     19  C   UNL     1     142.498 141.785 152.234  1.00  0.00     0.004 C 
ENDBRANCH  17  18
ENDBRANCH  16  17
ENDBRANCH  15  16
ENDBRANCH  14  15
ENDBRANCH  13  14
ENDBRANCH  12  13
ENDBRANCH   1  12
TORSDOF 14
ENDMDL
MODEL 6
REMARK VINA RESULT:    -2.790      5.602      8.442
REMARK INTER + INTRA:          -7.459
REMARK INTER:                  -4.960
REMARK INTRA:                  -2.499
REMARK UNBOUND:                -2.386
REMARK SMILES CCCCCCCCCCCCCC[C@H](C)C(=O)[O-]
REMARK SMILES IDX 9 1 10 2 11 3 12 4 13 5 14 6 15 7 16 8 17 9 18 10 19 11 8 12
REMARK SMILES IDX 7 13 6 14 5 15 4 16 3 17 2 18 1 19
REMARK H PARENT
REMARK Flexibility Score: inf
ROOT
ATOM      1  C   UNL     1     143.305 144.850 146.700  1.00  0.00     0.000 C 
ENDROOT
BRANCH   1   2
ATOM      2  C   UNL     1     144.300 144.903 145.525  1.00  0.00     0.000 C 
BRANCH   2   3
ATOM      3  C   UNL     1     143.832 144.205 144.235  1.00  0.00     0.000 C 
BRANCH   3   4
ATOM      4  C   UNL     1     144.361 144.880 142.960  1.00  0.00     0.000 C 
BRANCH   4   5
ATOM      5  C   UNL     1     145.080 143.868 142.059  1.00  0.00     0.001 C 
BRANCH   5   6
ATOM      6  C   UNL     1     146.580 143.801 142.397  1.00  0.00     0.009 C 
BRANCH   6   7
ATOM      7  C   UNL     1     147.007 142.520 143.147  1.00  0.00     0.032 C 
ATOM      8  C   UNL     1     147.425 142.795 144.598  1.00  0.00     0.014 C 
BRANCH   7   9
ATOM      9  C   UNL     1     148.072 141.764 142.397  1.00  0.00     0.044 C 
ATOM     10  O   UNL     1     148.629 140.769 142.930  1.00  0.00    -0.550 OA
ATOM     11  O   UNL     1     148.416 142.121 141.097  1.00  0.00    -0.550 OA
ENDBRANCH   7   9
ENDBRANCH   6   7
ENDBRANCH   5   6
ENDBRANCH   4   5
ENDBRANCH   3   4
ENDBRANCH   2   3
ENDBRANCH   1   2
BRANCH   1  12
ATOM     12  C   UNL     1     142.013 144.089 146.358  1.00  0.00     0.000 C 
BRANCH  12  13
ATOM     13  C   UNL     1     141.558 143.139 147.482  1.00  0.00    -0.000 C 
BRANCH  13  14
ATOM     14  C   UNL     1     141.122 141.734 147.026  1.00  0.00    -0.000 C 
BRANCH  14  15
ATOM     15  C   UNL     1     141.399 141.470 145.538  1.00  0.00    -0.000 C 
BRANCH  15  16
ATOM     16  C   UNL     1     142.363 140.292 145.311  1.00  0.00    -0.000 C 
BRANCH  16  17
ATOM     17  C   UNL     1     143.795 140.728 144.934  1.00  0.00    -0.000 C 
BRANCH  17  18
ATOM     18  C   UNL     1     144.813 140.377 146.029  1.00  0.00    -0.003 C 
ATOM     19  C   UNL     1     144.911 141.489 147.069  1.00  0.00     0.004 C 
ENDBRANCH  17  18
ENDBRANCH  16  17
ENDBRANCH  15  16
ENDBRANCH  14  15
ENDBRANCH  13  14
ENDBRANCH  12  13
ENDBRANCH   1  12
TORSDOF 14
ENDMDL
MODEL 7
REMARK VINA RESULT:    -2.775      1.327      3.083
REMARK INTER + INTRA:          -7.433
REMARK INTER:                  -5.872
REMARK INTRA:                  -1.561
REMARK UNBOUND:                -2.386
REMARK SMILES CCCCCCCCCCCCCC[C@H](C)C(=O)[O-]
REMARK SMILES IDX 9 1 10 2 11 3 12 4 13 5 14 6 15 7 16 8 17 9 18 10 19 11 8 12
REMARK SMILES IDX 7 13 6 14 5 15 4 16 3 17 2 18 1 19
REMARK H PARENT
REMARK Flexibility Score: inf
ROOT
ATOM      1  C   UNL     1     142.212 143.578 148.847  1.00  0.00     0.000 C 
ENDROOT
BRANCH   1   2
ATOM      2  C   UNL     1     142.333 142.630 150.056  1.00  0.00     0.000 C 
BRANCH   2   3
ATOM      3  C   UNL     1     141.023 141.945 150.488  1.00  0.00     0.000 C 
BRANCH   3   4
ATOM      4  C   UNL     1     140.221 142.769 151.508  1.00  0.00     0.000 C 
BRANCH   4   5
ATOM      5  C   UNL     1     140.114 142.031 152.848  1.00  0.00     0.001 C 
BRANCH   5   6
ATOM      6  C   UNL     1     141.385 142.236 153.691  1.00  0.00     0.009 C 
BRANCH   6   7
ATOM      7  C   UNL     1     141.895 143.693 153.730  1.00  0.00     0.032 C 
ATOM      8  C   UNL     1     143.392 143.805 153.412  1.00  0.00     0.014 C 
BRANCH   7   9
ATOM      9  C   UNL     1     141.552 144.368 155.033  1.00  0.00     0.044 C 
ATOM     10  O   UNL     1     140.373 144.751 155.249  1.00  0.00    -0.550 OA
ATOM     11  O   UNL     1     142.514 144.530 156.025  1.00  0.00    -0.550 OA
ENDBRANCH   7   9
ENDBRANCH   6   7
ENDBRANCH   5   6
ENDBRANCH   4   5
ENDBRANCH   3   4
ENDBRANCH   2   3
ENDBRANCH   1   2
BRANCH   1  12
ATOM     12  C   UNL     1     141.055 143.204 147.906  1.00  0.00     0.000 C 
BRANCH  12  13
ATOM     13  C   UNL     1     141.523 142.877 146.475  1.00  0.00    -0.000 C 
BRANCH  13  14
ATOM     14  C   UNL     1     140.922 141.601 145.857  1.00  0.00    -0.000 C 
BRANCH  14  15
ATOM     15  C   UNL     1     141.970 140.509 145.591  1.00  0.00    -0.000 C 
BRANCH  15  16
ATOM     16  C   UNL     1     142.883 140.252 146.803  1.00  0.00    -0.000 C 
BRANCH  16  17
ATOM     17  C   UNL     1     144.310 140.815 146.634  1.00  0.00    -0.000 C 
BRANCH  17  18
ATOM     18  C   UNL     1     144.695 140.981 145.157  1.00  0.00    -0.003 C 
ATOM     19  C   UNL     1     145.644 139.875 144.706  1.00  0.00     0.004 C 
ENDBRANCH  17  18
ENDBRANCH  16  17
ENDBRANCH  15  16
ENDBRANCH  14  15
ENDBRANCH  13  14
ENDBRANCH  12  13
ENDBRANCH   1  12
TORSDOF 14
ENDMDL
MODEL 8
REMARK VINA RESULT:    -2.768      1.452      2.927
REMARK INTER + INTRA:          -7.420
REMARK INTER:                  -4.759
REMARK INTRA:                  -2.661
REMARK UNBOUND:                -2.386
REMARK SMILES CCCCCCCCCCCCCC[C@H](C)C(=O)[O-]
REMARK SMILES IDX 9 1 10 2 11 3 12 4 13 5 14 6 15 7 16 8 17 9 18 10 19 11 8 12
REMARK SMILES IDX 7 13 6 14 5 15 4 16 3 17 2 18 1 19
REMARK H PARENT
REMARK Flexibility Score: inf
ROOT
ATOM      1  C   UNL     1     142.864 143.852 147.224  1.00  0.00     0.000 C 
ENDROOT
BRANCH   1   2
ATOM      2  C   UNL     1     143.819 143.465 148.370  1.00  0.00     0.000 C 
BRANCH   2   3
ATOM      3  C   UNL     1     144.274 141.993 148.378  1.00  0.00     0.000 C 
BRANCH   3   4
ATOM      4  C   UNL     1     143.700 141.193 149.558  1.00  0.00     0.000 C 
BRANCH   4   5
ATOM      5  C   UNL     1     143.054 142.125 150.592  1.00  0.00     0.001 C 
BRANCH   5   6
ATOM      6  C   UNL     1     141.578 141.753 150.820  1.00  0.00     0.009 C 
BRANCH   6   7
ATOM      7  C   UNL     1     140.770 142.806 151.608  1.00  0.00     0.032 C 
ATOM      8  C   UNL     1     141.011 144.236 151.104  1.00  0.00     0.014 C 
BRANCH   7   9
ATOM      9  C   UNL     1     141.007 142.693 153.092  1.00  0.00     0.044 C 
ATOM     10  O   UNL     1     140.968 143.724 153.813  1.00  0.00    -0.550 OA
ATOM     11  O   UNL     1     141.220 141.454 153.686  1.00  0.00    -0.550 OA
ENDBRANCH   7   9
ENDBRANCH   6   7
ENDBRANCH   5   6
ENDBRANCH   4   5
ENDBRANCH   3   4
ENDBRANCH   2   3
ENDBRANCH   1   2
BRANCH   1  12
ATOM     12  C   UNL     1     141.401 143.474 147.509  1.00  0.00     0.000 C 
BRANCH  12  13
ATOM     13  C   UNL     1     141.028 142.073 146.987  1.00  0.00    -0.000 C 
BRANCH  13  14
ATOM     14  C   UNL     1     141.615 141.700 145.613  1.00  0.00    -0.000 C 
BRANCH  14  15
ATOM     15  C   UNL     1     142.195 140.277 145.572  1.00  0.00    -0.000 C 
BRANCH  15  16
ATOM     16  C   UNL     1     143.654 140.242 145.085  1.00  0.00    -0.000 C 
BRANCH  16  17
ATOM     17  C   UNL     1     144.113 141.553 144.410  1.00  0.00    -0.000 C 
BRANCH  17  18
ATOM     18  C   UNL     1     145.497 142.002 144.901  1.00  0.00    -0.003 C 
ATOM     19  C   UNL     1     145.636 143.520 144.849  1.00  0.00     0.004 C 
ENDBRANCH  17  18
ENDBRANCH  16  17
ENDBRANCH  15  16
ENDBRANCH  14  15
ENDBRANCH  13  14
ENDBRANCH  12  13
ENDBRANCH   1  12
TORSDOF 14
ENDMDL
