MODEL 1
REMARK VINA RESULT:    -3.889      0.000      0.000
REMARK INTER + INTRA:          -4.170
REMARK INTER:                  -4.230
REMARK INTRA:                   0.060
REMARK UNBOUND:                 0.060
REMARK SMILES CC(=O)[C@H]1CC[C@@H]2[C@H]3CC=C4C[C@@H](O)CC[C@@]4(C)[C@H]3CC[C@]12C
REMARK SMILES IDX 4 1 5 2 6 3 7 4 22 5 21 6 20 7 19 8 8 9 9 10 10 11 11 12
REMARK SMILES IDX 17 13 16 14 15 15 13 16 12 17 18 18 23 19 2 20 1 21 3 22
REMARK SMILES IDX 14 23
REMARK H PARENT 14 24
REMARK Flexibility Score: inf
ROOT
ATOM      1  C   UNL     1     226.980 226.769 215.667  1.00  0.00     0.062 C 
ATOM      2  C   UNL     1     228.022 225.847 215.025  1.00  0.00     0.012 C 
ATOM      3  C   UNL     1     228.536 226.560 213.776  1.00  0.00     0.005 C 
ATOM      4  C   UNL     1     227.891 227.959 213.746  1.00  0.00    -0.001 C 
ATOM      5  C   UNL     1     227.345 228.206 215.180  1.00  0.00    -0.020 C 
ATOM      6  C   UNL     1     228.448 228.786 216.113  1.00  0.00     0.008 C 
ATOM      7  C   UNL     1     229.236 229.952 215.499  1.00  0.00     0.005 C 
ATOM      8  C   UNL     1     229.923 229.522 214.182  1.00  0.00     0.003 C 
ATOM      9  C   UNL     1     228.855 229.039 213.165  1.00  0.00     0.000 C 
ATOM     10  C   UNL     1     228.074 230.221 212.565  1.00  0.00     0.031 C 
ATOM     11  C   UNL     1     228.962 231.335 212.100  1.00  0.00    -0.027 C 
ATOM     12  C   UNL     1     230.182 231.584 212.617  1.00  0.00    -0.065 C 
ATOM     13  C   UNL     1     230.907 230.585 213.528  1.00  0.00    -0.008 C 
ATOM     14  C   UNL     1     231.689 231.390 214.614  1.00  0.00     0.014 C 
ATOM     15  C   UNL     1     232.552 232.530 214.045  1.00  0.00     0.033 C 
ATOM     16  C   UNL     1     231.706 233.510 213.219  1.00  0.00     0.118 C 
ATOM     17  C   UNL     1     230.957 232.781 212.093  1.00  0.00     0.063 C 
ATOM     18  C   UNL     1     231.933 229.804 212.658  1.00  0.00     0.016 C 
ATOM     19  C   UNL     1     226.106 229.142 215.218  1.00  0.00     0.012 C 
ENDROOT
BRANCH   1  20
ATOM     20  C   UNL     1     225.576 226.317 215.276  1.00  0.00     0.133 C 
ATOM     21  C   UNL     1     224.435 226.406 216.246  1.00  0.00     0.088 C 
ATOM     22  O   UNL     1     225.364 225.871 214.159  1.00  0.00    -0.300 OA
ENDBRANCH   1  20
BRANCH  16  23
ATOM     23  O   UNL     1     230.795 234.171 214.061  1.00  0.00    -0.393 OA
ATOM     24  H   UNL     1     231.329 234.600 214.780  1.00  0.00     0.210 HD
ENDBRANCH  16  23
TORSDOF 2
ENDMDL
MODEL 2
REMARK VINA RESULT:    -3.877      3.418      5.039
REMARK INTER + INTRA:          -4.156
REMARK INTER:                  -4.223
REMARK INTRA:                   0.066
REMARK UNBOUND:                 0.060
REMARK SMILES CC(=O)[C@H]1CC[C@@H]2[C@H]3CC=C4C[C@@H](O)CC[C@@]4(C)[C@H]3CC[C@]12C
REMARK SMILES IDX 4 1 5 2 6 3 7 4 22 5 21 6 20 7 19 8 8 9 9 10 10 11 11 12
REMARK SMILES IDX 17 13 16 14 15 15 13 16 12 17 18 18 23 19 2 20 1 21 3 22
REMARK SMILES IDX 14 23
REMARK H PARENT 14 24
REMARK Flexibility Score: inf
ROOT
ATOM      1  C   UNL     1     226.789 233.183 215.644  1.00  0.00     0.062 C 
ATOM      2  C   UNL     1     225.882 232.139 214.985  1.00  0.00     0.012 C 
ATOM      3  C   UNL     1     226.613 231.636 213.743  1.00  0.00     0.005 C 
ATOM      4  C   UNL     1     228.008 232.291 213.734  1.00  0.00    -0.001 C 
ATOM      5  C   UNL     1     228.233 232.830 215.173  1.00  0.00    -0.020 C 
ATOM      6  C   UNL     1     228.810 231.727 216.107  1.00  0.00     0.008 C 
ATOM      7  C   UNL     1     229.988 230.950 215.504  1.00  0.00     0.005 C 
ATOM      8  C   UNL     1     229.579 230.266 214.178  1.00  0.00     0.003 C 
ATOM      9  C   UNL     1     229.101 231.337 213.161  1.00  0.00     0.000 C 
ATOM     10  C   UNL     1     230.285 232.128 212.579  1.00  0.00     0.031 C 
ATOM     11  C   UNL     1     231.411 231.250 212.124  1.00  0.00    -0.027 C 
ATOM     12  C   UNL     1     231.662 230.029 212.637  1.00  0.00    -0.065 C 
ATOM     13  C   UNL     1     230.656 229.293 213.532  1.00  0.00    -0.008 C 
ATOM     14  C   UNL     1     231.454 228.510 214.624  1.00  0.00     0.014 C 
ATOM     15  C   UNL     1     232.606 227.658 214.064  1.00  0.00     0.033 C 
ATOM     16  C   UNL     1     233.590 228.515 213.255  1.00  0.00     0.118 C 
ATOM     17  C   UNL     1     232.871 229.265 212.124  1.00  0.00     0.063 C 
ATOM     18  C   UNL     1     229.893 228.266 212.647  1.00  0.00     0.016 C 
ATOM     19  C   UNL     1     229.161 234.076 215.229  1.00  0.00     0.012 C 
ENDROOT
BRANCH   1  20
ATOM     20  C   UNL     1     226.332 234.586 215.256  1.00  0.00     0.133 C 
ATOM     21  C   UNL     1     226.431 235.730 216.221  1.00  0.00     0.088 C 
ATOM     22  O   UNL     1     225.873 234.795 214.143  1.00  0.00    -0.300 OA
ENDBRANCH   1  20
BRANCH  16  23
ATOM     23  O   UNL     1     234.235 229.426 214.109  1.00  0.00    -0.393 OA
ATOM     24  H   UNL     1     233.664 229.514 214.918  1.00  0.00     0.210 HD
ENDBRANCH  16  23
TORSDOF 2
ENDMDL
MODEL 3
REMARK VINA RESULT:    -3.859      2.103      7.194
REMARK INTER + INTRA:          -4.137
REMARK INTER:                  -4.180
REMARK INTRA:                   0.043
REMARK UNBOUND:                 0.060
REMARK SMILES CC(=O)[C@H]1CC[C@@H]2[C@H]3CC=C4C[C@@H](O)CC[C@@]4(C)[C@H]3CC[C@]12C
REMARK SMILES IDX 4 1 5 2 6 3 7 4 22 5 21 6 20 7 19 8 8 9 9 10 10 11 11 12
REMARK SMILES IDX 17 13 16 14 15 15 13 16 12 17 18 18 23 19 2 20 1 21 3 22
REMARK SMILES IDX 14 23
REMARK H PARENT 14 24
REMARK Flexibility Score: inf
ROOT
ATOM      1  C   UNL     1     233.515 233.339 215.879  1.00  0.00     0.062 C 
ATOM      2  C   UNL     1     232.506 234.344 215.316  1.00  0.00     0.012 C 
ATOM      3  C   UNL     1     231.950 233.742 214.028  1.00  0.00     0.005 C 
ATOM      4  C   UNL     1     232.537 232.324 213.892  1.00  0.00    -0.001 C 
ATOM      5  C   UNL     1     233.087 231.955 215.298  1.00  0.00    -0.020 C 
ATOM      6  C   UNL     1     231.971 231.356 216.203  1.00  0.00     0.008 C 
ATOM      7  C   UNL     1     231.130 230.268 215.521  1.00  0.00     0.005 C 
ATOM      8  C   UNL     1     230.446 230.817 214.245  1.00  0.00     0.003 C 
ATOM      9  C   UNL     1     231.523 231.327 213.251  1.00  0.00     0.000 C 
ATOM     10  C   UNL     1     232.248 230.159 212.559  1.00  0.00     0.031 C 
ATOM     11  C   UNL     1     231.311 229.116 212.031  1.00  0.00    -0.027 C 
ATOM     12  C   UNL     1     230.087 228.881 212.545  1.00  0.00    -0.065 C 
ATOM     13  C   UNL     1     229.413 229.843 213.533  1.00  0.00    -0.008 C 
ATOM     14  C   UNL     1     228.610 228.995 214.571  1.00  0.00     0.014 C 
ATOM     15  C   UNL     1     227.695 227.933 213.935  1.00  0.00     0.033 C 
ATOM     16  C   UNL     1     228.492 226.981 213.032  1.00  0.00     0.118 C 
ATOM     17  C   UNL     1     229.258 227.756 211.949  1.00  0.00     0.063 C 
ATOM     18  C   UNL     1     228.410 230.723 212.733  1.00  0.00     0.016 C 
ATOM     19  C   UNL     1     234.287 230.970 215.255  1.00  0.00     0.012 C 
ENDROOT
BRANCH   1  20
ATOM     20  C   UNL     1     234.933 233.760 215.502  1.00  0.00     0.133 C 
ATOM     21  C   UNL     1     236.063 233.642 216.481  1.00  0.00     0.088 C 
ATOM     22  O   UNL     1     235.164 234.206 214.388  1.00  0.00    -0.300 OA
ENDBRANCH   1  20
BRANCH  16  23
ATOM     23  O   UNL     1     229.384 226.227 213.813  1.00  0.00    -0.393 OA
ATOM     24  H   UNL     1     229.315 226.573 214.742  1.00  0.00     0.210 HD
ENDBRANCH  16  23
TORSDOF 2
ENDMDL
MODEL 4
REMARK VINA RESULT:    -3.856      3.469      4.969
REMARK INTER + INTRA:          -4.134
REMARK INTER:                  -4.183
REMARK INTRA:                   0.050
REMARK UNBOUND:                 0.060
REMARK SMILES CC(=O)[C@H]1CC[C@@H]2[C@H]3CC=C4C[C@@H](O)CC[C@@]4(C)[C@H]3CC[C@]12C
REMARK SMILES IDX 4 1 5 2 6 3 7 4 22 5 21 6 20 7 19 8 8 9 9 10 10 11 11 12
REMARK SMILES IDX 17 13 16 14 15 15 13 16 12 17 18 18 23 19 2 20 1 21 3 22
REMARK SMILES IDX 14 23
REMARK H PARENT 14 24
REMARK Flexibility Score: inf
ROOT
ATOM      1  C   UNL     1     233.344 226.774 215.850  1.00  0.00     0.062 C 
ATOM      2  C   UNL     1     234.351 227.788 215.298  1.00  0.00     0.012 C 
ATOM      3  C   UNL     1     233.752 228.352 214.011  1.00  0.00     0.005 C 
ATOM      4  C   UNL     1     232.335 227.767 213.868  1.00  0.00    -0.001 C 
ATOM      5  C   UNL     1     231.963 227.206 215.269  1.00  0.00    -0.020 C 
ATOM      6  C   UNL     1     231.360 228.315 216.180  1.00  0.00     0.008 C 
ATOM      7  C   UNL     1     230.275 229.162 215.501  1.00  0.00     0.005 C 
ATOM      8  C   UNL     1     230.826 229.854 214.232  1.00  0.00     0.003 C 
ATOM      9  C   UNL     1     231.339 228.785 213.231  1.00  0.00     0.000 C 
ATOM     10  C   UNL     1     230.173 228.065 212.531  1.00  0.00     0.031 C 
ATOM     11  C   UNL     1     229.132 229.006 212.007  1.00  0.00    -0.027 C 
ATOM     12  C   UNL     1     228.896 230.226 212.529  1.00  0.00    -0.065 C 
ATOM     13  C   UNL     1     229.855 230.892 213.524  1.00  0.00    -0.008 C 
ATOM     14  C   UNL     1     229.004 231.688 214.566  1.00  0.00     0.014 C 
ATOM     15  C   UNL     1     227.944 232.608 213.934  1.00  0.00     0.033 C 
ATOM     16  C   UNL     1     226.994 231.817 213.023  1.00  0.00     0.118 C 
ATOM     17  C   UNL     1     227.772 231.059 211.937  1.00  0.00     0.063 C 
ATOM     18  C   UNL     1     230.737 231.901 212.734  1.00  0.00     0.016 C 
ATOM     19  C   UNL     1     230.978 226.006 215.214  1.00  0.00     0.012 C 
ENDROOT
BRANCH   1  20
ATOM     20  C   UNL     1     233.767 225.359 215.464  1.00  0.00     0.133 C 
ATOM     21  C   UNL     1     233.608 224.214 216.420  1.00  0.00     0.088 C 
ATOM     22  O   UNL     1     234.247 225.142 214.362  1.00  0.00    -0.300 OA
ENDBRANCH   1  20
BRANCH  16  23
ATOM     23  O   UNL     1     226.237 230.920 213.795  1.00  0.00    -0.393 OA
ATOM     24  H   UNL     1     226.783 230.700 214.596  1.00  0.00     0.210 HD
ENDBRANCH  16  23
TORSDOF 2
ENDMDL
MODEL 5
REMARK VINA RESULT:    -3.770      8.039      9.393
REMARK INTER + INTRA:          -4.041
REMARK INTER:                  -4.084
REMARK INTRA:                   0.043
REMARK UNBOUND:                 0.060
REMARK SMILES CC(=O)[C@H]1CC[C@@H]2[C@H]3CC=C4C[C@@H](O)CC[C@@]4(C)[C@H]3CC[C@]12C
REMARK SMILES IDX 4 1 5 2 6 3 7 4 22 5 21 6 20 7 19 8 8 9 9 10 10 11 11 12
REMARK SMILES IDX 17 13 16 14 15 15 13 16 12 17 18 18 23 19 2 20 1 21 3 22
REMARK SMILES IDX 14 23
REMARK H PARENT 14 24
REMARK Flexibility Score: inf
ROOT
ATOM      1  C   UNL     1     221.457 234.641 215.251  1.00  0.00     0.062 C 
ATOM      2  C   UNL     1     220.544 235.685 214.600  1.00  0.00     0.012 C 
ATOM      3  C   UNL     1     221.161 237.053 214.884  1.00  0.00     0.005 C 
ATOM      4  C   UNL     1     222.507 236.812 215.595  1.00  0.00    -0.001 C 
ATOM      5  C   UNL     1     222.858 235.319 215.344  1.00  0.00    -0.020 C 
ATOM      6  C   UNL     1     223.597 235.133 213.986  1.00  0.00     0.008 C 
ATOM      7  C   UNL     1     224.744 236.126 213.756  1.00  0.00     0.005 C 
ATOM      8  C   UNL     1     224.231 237.585 213.807  1.00  0.00     0.003 C 
ATOM      9  C   UNL     1     223.583 237.865 215.189  1.00  0.00     0.000 C 
ATOM     10  C   UNL     1     224.649 238.028 216.287  1.00  0.00     0.031 C 
ATOM     11  C   UNL     1     225.765 238.945 215.890  1.00  0.00    -0.027 C 
ATOM     12  C   UNL     1     226.141 239.157 214.613  1.00  0.00    -0.065 C 
ATOM     13  C   UNL     1     225.283 238.710 213.421  1.00  0.00    -0.008 C 
ATOM     14  C   UNL     1     226.240 238.237 212.280  1.00  0.00     0.014 C 
ATOM     15  C   UNL     1     227.371 239.231 211.961  1.00  0.00     0.033 C 
ATOM     16  C   UNL     1     228.209 239.540 213.210  1.00  0.00     0.118 C 
ATOM     17  C   UNL     1     227.327 240.069 214.351  1.00  0.00     0.063 C 
ATOM     18  C   UNL     1     224.488 239.948 212.916  1.00  0.00     0.016 C 
ATOM     19  C   UNL     1     223.713 234.686 216.475  1.00  0.00     0.012 C 
ENDROOT
BRANCH   1  20
ATOM     20  C   UNL     1     220.881 234.215 216.598  1.00  0.00     0.133 C 
ATOM     21  C   UNL     1     220.857 232.773 217.011  1.00  0.00     0.088 C 
ATOM     22  O   UNL     1     220.425 235.052 217.362  1.00  0.00    -0.300 OA
ENDBRANCH   1  20
BRANCH  16  23
ATOM     23  O   UNL     1     228.890 238.382 213.619  1.00  0.00    -0.393 OA
ATOM     24  H   UNL     1     229.620 238.231 212.961  1.00  0.00     0.210 HD
ENDBRANCH  16  23
TORSDOF 2
ENDMDL
MODEL 6
REMARK VINA RESULT:    -3.691      1.782      6.829
REMARK INTER + INTRA:          -3.955
REMARK INTER:                  -4.002
REMARK INTRA:                   0.047
REMARK UNBOUND:                 0.060
REMARK SMILES CC(=O)[C@H]1CC[C@@H]2[C@H]3CC=C4C[C@@H](O)CC[C@@]4(C)[C@H]3CC[C@]12C
REMARK SMILES IDX 4 1 5 2 6 3 7 4 22 5 21 6 20 7 19 8 8 9 9 10 10 11 11 12
REMARK SMILES IDX 17 13 16 14 15 15 13 16 12 17 18 18 23 19 2 20 1 21 3 22
REMARK SMILES IDX 14 23
REMARK H PARENT 14 24
REMARK Flexibility Score: inf
ROOT
ATOM      1  C   UNL     1     231.081 233.371 214.024  1.00  0.00     0.062 C 
ATOM      2  C   UNL     1     231.121 233.098 212.517  1.00  0.00     0.012 C 
ATOM      3  C   UNL     1     231.511 231.632 212.342  1.00  0.00     0.005 C 
ATOM      4  C   UNL     1     231.579 231.002 213.746  1.00  0.00    -0.001 C 
ATOM      5  C   UNL     1     230.825 231.982 214.688  1.00  0.00    -0.020 C 
ATOM      6  C   UNL     1     229.294 231.701 214.689  1.00  0.00     0.008 C 
ATOM      7  C   UNL     1     228.930 230.219 214.854  1.00  0.00     0.005 C 
ATOM      8  C   UNL     1     229.557 229.366 213.726  1.00  0.00     0.003 C 
ATOM      9  C   UNL     1     231.102 229.518 213.749  1.00  0.00     0.000 C 
ATOM     10  C   UNL     1     231.726 228.731 214.915  1.00  0.00     0.031 C 
ATOM     11  C   UNL     1     231.204 227.331 215.024  1.00  0.00    -0.027 C 
ATOM     12  C   UNL     1     229.986 226.950 214.590  1.00  0.00    -0.065 C 
ATOM     13  C   UNL     1     229.125 227.838 213.682  1.00  0.00    -0.008 C 
ATOM     14  C   UNL     1     227.628 227.651 214.091  1.00  0.00     0.014 C 
ATOM     15  C   UNL     1     227.191 226.180 214.204  1.00  0.00     0.033 C 
ATOM     16  C   UNL     1     228.073 225.412 215.198  1.00  0.00     0.118 C 
ATOM     17  C   UNL     1     229.557 225.510 214.812  1.00  0.00     0.063 C 
ATOM     18  C   UNL     1     229.302 227.339 212.219  1.00  0.00     0.016 C 
ATOM     19  C   UNL     1     231.344 231.957 216.152  1.00  0.00     0.012 C 
ENDROOT
BRANCH   1  20
ATOM     20  C   UNL     1     232.378 234.042 214.465  1.00  0.00     0.133 C 
ATOM     21  C   UNL     1     232.364 235.255 215.347  1.00  0.00     0.088 C 
ATOM     22  O   UNL     1     233.455 233.596 214.098  1.00  0.00    -0.300 OA
ENDBRANCH   1  20
BRANCH  16  23
ATOM     23  O   UNL     1     227.874 225.919 216.494  1.00  0.00    -0.393 OA
ATOM     24  H   UNL     1     228.341 226.794 216.535  1.00  0.00     0.210 HD
ENDBRANCH  16  23
TORSDOF 2
ENDMDL
MODEL 7
REMARK VINA RESULT:    -3.685      2.888      4.730
REMARK INTER + INTRA:          -3.948
REMARK INTER:                  -3.999
REMARK INTRA:                   0.051
REMARK UNBOUND:                 0.060
REMARK SMILES CC(=O)[C@H]1CC[C@@H]2[C@H]3CC=C4C[C@@H](O)CC[C@@]4(C)[C@H]3CC[C@]12C
REMARK SMILES IDX 4 1 5 2 6 3 7 4 22 5 21 6 20 7 19 8 8 9 9 10 10 11 11 12
REMARK SMILES IDX 17 13 16 14 15 15 13 16 12 17 18 18 23 19 2 20 1 21 3 22
REMARK SMILES IDX 14 23
REMARK H PARENT 14 24
REMARK Flexibility Score: inf
ROOT
ATOM      1  C   UNL     1     226.921 231.079 214.027  1.00  0.00     0.062 C 
ATOM      2  C   UNL     1     227.204 231.126 212.522  1.00  0.00     0.012 C 
ATOM      3  C   UNL     1     228.673 231.506 212.359  1.00  0.00     0.005 C 
ATOM      4  C   UNL     1     229.294 231.562 213.767  1.00  0.00    -0.001 C 
ATOM      5  C   UNL     1     228.304 230.809 214.698  1.00  0.00    -0.020 C 
ATOM      6  C   UNL     1     228.575 229.277 214.692  1.00  0.00     0.008 C 
ATOM      7  C   UNL     1     230.053 228.902 214.864  1.00  0.00     0.005 C 
ATOM      8  C   UNL     1     230.917 229.530 213.745  1.00  0.00     0.003 C 
ATOM      9  C   UNL     1     230.776 231.075 213.776  1.00  0.00     0.000 C 
ATOM     10  C   UNL     1     231.559 231.687 214.951  1.00  0.00     0.031 C 
ATOM     11  C   UNL     1     232.955 231.155 215.066  1.00  0.00    -0.027 C 
ATOM     12  C   UNL     1     233.330 229.937 214.627  1.00  0.00    -0.065 C 
ATOM     13  C   UNL     1     232.442 229.087 213.708  1.00  0.00    -0.008 C 
ATOM     14  C   UNL     1     232.617 227.587 214.110  1.00  0.00     0.014 C 
ATOM     15  C   UNL     1     234.085 227.140 214.229  1.00  0.00     0.033 C 
ATOM     16  C   UNL     1     234.852 228.011 215.234  1.00  0.00     0.118 C 
ATOM     17  C   UNL     1     234.767 229.497 214.856  1.00  0.00     0.063 C 
ATOM     18  C   UNL     1     232.952 229.270 212.250  1.00  0.00     0.016 C 
ATOM     19  C   UNL     1     228.323 231.320 216.165  1.00  0.00     0.012 C 
ENDROOT
BRANCH   1  20
ATOM     20  C   UNL     1     226.256 232.378 214.472  1.00  0.00     0.133 C 
ATOM     21  C   UNL     1     225.025 232.365 215.329  1.00  0.00     0.088 C 
ATOM     22  O   UNL     1     226.721 233.454 214.128  1.00  0.00    -0.300 OA
ENDBRANCH   1  20
BRANCH  16  23
ATOM     23  O   UNL     1     234.336 227.807 216.525  1.00  0.00    -0.393 OA
ATOM     24  H   UNL     1     234.098 228.703 216.884  1.00  0.00     0.210 HD
ENDBRANCH  16  23
TORSDOF 2
ENDMDL
MODEL 8
REMARK VINA RESULT:    -3.639      1.903      6.963
REMARK INTER + INTRA:          -3.898
REMARK INTER:                  -3.952
REMARK INTRA:                   0.054
REMARK UNBOUND:                 0.060
REMARK SMILES CC(=O)[C@H]1CC[C@@H]2[C@H]3CC=C4C[C@@H](O)CC[C@@]4(C)[C@H]3CC[C@]12C
REMARK SMILES IDX 4 1 5 2 6 3 7 4 22 5 21 6 20 7 19 8 8 9 9 10 10 11 11 12
REMARK SMILES IDX 17 13 16 14 15 15 13 16 12 17 18 18 23 19 2 20 1 21 3 22
REMARK SMILES IDX 14 23
REMARK H PARENT 14 24
REMARK Flexibility Score: inf
ROOT
ATOM      1  C   UNL     1     229.328 230.870 213.070  1.00  0.00     0.062 C 
ATOM      2  C   UNL     1     228.488 230.406 211.875  1.00  0.00     0.012 C 
ATOM      3  C   UNL     1     228.516 228.879 211.881  1.00  0.00     0.005 C 
ATOM      4  C   UNL     1     229.267 228.437 213.151  1.00  0.00    -0.001 C 
ATOM      5  C   UNL     1     229.301 229.682 214.080  1.00  0.00    -0.020 C 
ATOM      6  C   UNL     1     228.006 229.782 214.938  1.00  0.00     0.008 C 
ATOM      7  C   UNL     1     227.601 228.466 215.617  1.00  0.00     0.005 C 
ATOM      8  C   UNL     1     227.376 227.350 214.569  1.00  0.00     0.003 C 
ATOM      9  C   UNL     1     228.678 227.125 213.755  1.00  0.00     0.000 C 
ATOM     10  C   UNL     1     229.733 226.366 214.579  1.00  0.00     0.031 C 
ATOM     11  C   UNL     1     229.178 225.159 215.274  1.00  0.00    -0.027 C 
ATOM     12  C   UNL     1     227.886 225.033 215.637  1.00  0.00    -0.065 C 
ATOM     13  C   UNL     1     226.793 225.980 215.123  1.00  0.00    -0.008 C 
ATOM     14  C   UNL     1     225.766 226.215 216.276  1.00  0.00     0.014 C 
ATOM     15  C   UNL     1     225.274 224.920 216.947  1.00  0.00     0.033 C 
ATOM     16  C   UNL     1     226.448 224.095 217.493  1.00  0.00     0.118 C 
ATOM     17  C   UNL     1     227.465 223.780 216.386  1.00  0.00     0.063 C 
ATOM     18  C   UNL     1     226.061 225.270 213.948  1.00  0.00     0.016 C 
ATOM     19  C   UNL     1     230.536 229.718 215.021  1.00  0.00     0.012 C 
ENDROOT
BRANCH   1  20
ATOM     20  C   UNL     1     230.727 231.258 212.602  1.00  0.00     0.133 C 
ATOM     21  C   UNL     1     231.351 232.559 213.013  1.00  0.00     0.088 C 
ATOM     22  O   UNL     1     231.361 230.506 211.876  1.00  0.00    -0.300 OA
ENDBRANCH   1  20
BRANCH  16  23
ATOM     23  O   UNL     1     227.070 224.796 218.540  1.00  0.00    -0.393 OA
ATOM     24  H   UNL     1     227.612 225.516 218.121  1.00  0.00     0.210 HD
ENDBRANCH  16  23
TORSDOF 2
ENDMDL
MODEL 9
REMARK VINA RESULT:    -3.632      2.912      5.071
REMARK INTER + INTRA:          -3.890
REMARK INTER:                  -3.931
REMARK INTRA:                   0.040
REMARK UNBOUND:                 0.060
REMARK SMILES CC(=O)[C@H]1CC[C@@H]2[C@H]3CC=C4C[C@@H](O)CC[C@@]4(C)[C@H]3CC[C@]12C
REMARK SMILES IDX 4 1 5 2 6 3 7 4 22 5 21 6 20 7 19 8 8 9 9 10 10 11 11 12
REMARK SMILES IDX 17 13 16 14 15 15 13 16 12 17 18 18 23 19 2 20 1 21 3 22
REMARK SMILES IDX 14 23
REMARK H PARENT 14 24
REMARK Flexibility Score: inf
ROOT
ATOM      1  C   UNL     1     229.495 230.042 212.218  1.00  0.00     0.062 C 
ATOM      2  C   UNL     1     228.411 231.119 212.107  1.00  0.00     0.012 C 
ATOM      3  C   UNL     1     228.414 231.890 213.426  1.00  0.00     0.005 C 
ATOM      4  C   UNL     1     229.585 231.351 214.270  1.00  0.00    -0.001 C 
ATOM      5  C   UNL     1     230.502 230.579 213.282  1.00  0.00    -0.020 C 
ATOM      6  C   UNL     1     231.510 231.535 212.582  1.00  0.00     0.008 C 
ATOM      7  C   UNL     1     232.234 232.492 213.539  1.00  0.00     0.005 C 
ATOM      8  C   UNL     1     231.222 233.372 214.311  1.00  0.00     0.003 C 
ATOM      9  C   UNL     1     230.256 232.470 215.125  1.00  0.00     0.000 C 
ATOM     10  C   UNL     1     230.948 231.885 216.369  1.00  0.00     0.031 C 
ATOM     11  C   UNL     1     231.705 232.911 217.156  1.00  0.00    -0.027 C 
ATOM     12  C   UNL     1     232.222 234.034 216.619  1.00  0.00    -0.065 C 
ATOM     13  C   UNL     1     231.843 234.521 215.214  1.00  0.00    -0.008 C 
ATOM     14  C   UNL     1     233.112 235.150 214.555  1.00  0.00     0.014 C 
ATOM     15  C   UNL     1     233.838 236.172 215.448  1.00  0.00     0.033 C 
ATOM     16  C   UNL     1     234.239 235.549 216.793  1.00  0.00     0.118 C 
ATOM     17  C   UNL     1     233.017 234.965 217.519  1.00  0.00     0.063 C 
ATOM     18  C   UNL     1     230.766 235.633 215.369  1.00  0.00     0.016 C 
ATOM     19  C   UNL     1     231.287 229.415 213.948  1.00  0.00     0.012 C 
ENDROOT
BRANCH   1  20
ATOM     20  C   UNL     1     228.861 228.703 212.581  1.00  0.00     0.133 C 
ATOM     21  C   UNL     1     229.257 227.440 211.875  1.00  0.00     0.088 C 
ATOM     22  O   UNL     1     228.011 228.644 213.457  1.00  0.00    -0.300 OA
ENDBRANCH   1  20
BRANCH  16  23
ATOM     23  O   UNL     1     235.203 234.548 216.581  1.00  0.00    -0.393 OA
ATOM     24  H   UNL     1     235.807 234.879 215.866  1.00  0.00     0.210 HD
ENDBRANCH  16  23
TORSDOF 2
ENDMDL
