MODEL 1
REMARK VINA RESULT:    -3.076      0.000      0.000
REMARK INTER + INTRA:          -3.367
REMARK INTER:                  -3.346
REMARK INTRA:                  -0.021
REMARK UNBOUND:                -0.021
REMARK SMILES OCc1ccco1
REMARK SMILES IDX 2 1 3 2 5 3 6 4 4 5 7 6 1 7
REMARK H PARENT 1 8
REMARK Flexibility Score: inf
ROOT
ATOM      1  C   UNL     1       7.121   1.234  32.490  1.00  0.00     0.231 C 
ENDROOT
BRANCH   1   2
ATOM      2  C   UNL     1       5.886   0.665  31.868  1.00  0.00     0.129 A 
ATOM      3  C   UNL     1       3.969  -0.363  31.567  1.00  0.00     0.042 A 
ATOM      4  C   UNL     1       4.487   0.086  30.368  1.00  0.00     0.195 A 
ATOM      5  C   UNL     1       4.874   0.007  32.538  1.00  0.00     0.048 A 
ATOM      6  O   UNL     1       5.633   0.692  30.580  1.00  0.00    -0.467 OA
ENDBRANCH   1   2
BRANCH   1   7
ATOM      7  O   UNL     1       7.903   1.866  31.515  1.00  0.00    -0.388 OA
ATOM      8  H   UNL     1       7.273   2.338  30.909  1.00  0.00     0.211 HD
ENDBRANCH   1   7
TORSDOF 2
ENDMDL
MODEL 2
REMARK VINA RESULT:    -3.048      2.787      3.524
REMARK INTER + INTRA:          -3.337
REMARK INTER:                  -3.320
REMARK INTRA:                  -0.018
REMARK UNBOUND:                -0.021
REMARK SMILES OCc1ccco1
REMARK SMILES IDX 2 1 3 2 5 3 6 4 4 5 7 6 1 7
REMARK H PARENT 1 8
REMARK Flexibility Score: inf
ROOT
ATOM      1  C   UNL     1       7.933   3.548  33.252  1.00  0.00     0.231 C 
ENDROOT
BRANCH   1   2
ATOM      2  C   UNL     1       7.917   2.079  32.973  1.00  0.00     0.129 A 
ATOM      3  C   UNL     1       7.312   0.073  32.313  1.00  0.00     0.042 A 
ATOM      4  C   UNL     1       8.518   0.033  32.985  1.00  0.00     0.195 A 
ATOM      5  C   UNL     1       6.921   1.395  32.306  1.00  0.00     0.048 A 
ATOM      6  O   UNL     1       8.850   1.245  33.369  1.00  0.00    -0.467 OA
ENDBRANCH   1   2
BRANCH   1   7
ATOM      7  O   UNL     1       8.061   3.774  34.628  1.00  0.00    -0.388 OA
ATOM      8  H   UNL     1       8.165   4.755  34.746  1.00  0.00     0.211 HD
ENDBRANCH   1   7
TORSDOF 2
ENDMDL
MODEL 3
REMARK VINA RESULT:    -2.905      9.467     10.805
REMARK INTER + INTRA:          -3.181
REMARK INTER:                  -3.161
REMARK INTRA:                  -0.021
REMARK UNBOUND:                -0.021
REMARK SMILES OCc1ccco1
REMARK SMILES IDX 2 1 3 2 5 3 6 4 4 5 7 6 1 7
REMARK H PARENT 1 8
REMARK Flexibility Score: inf
ROOT
ATOM      1  C   UNL     1       8.542   2.747  42.701  1.00  0.00     0.231 C 
ENDROOT
BRANCH   1   2
ATOM      2  C   UNL     1       8.977   3.383  41.420  1.00  0.00     0.129 A 
ATOM      3  C   UNL     1      10.023   4.626  39.942  1.00  0.00     0.042 A 
ATOM      4  C   UNL     1       9.005   3.902  39.353  1.00  0.00     0.195 A 
ATOM      5  C   UNL     1      10.004   4.294  41.280  1.00  0.00     0.048 A 
ATOM      6  O   UNL     1       8.398   3.173  40.261  1.00  0.00    -0.467 OA
ENDBRANCH   1   2
BRANCH   1   7
ATOM      7  O   UNL     1       7.185   2.404  42.631  1.00  0.00    -0.388 OA
ATOM      8  H   UNL     1       7.115   1.461  42.934  1.00  0.00     0.211 HD
ENDBRANCH   1   7
TORSDOF 2
ENDMDL
MODEL 4
REMARK VINA RESULT:    -2.895     17.131     17.891
REMARK INTER + INTRA:          -3.170
REMARK INTER:                  -3.156
REMARK INTRA:                  -0.014
REMARK UNBOUND:                -0.021
REMARK SMILES OCc1ccco1
REMARK SMILES IDX 2 1 3 2 5 3 6 4 4 5 7 6 1 7
REMARK H PARENT 1 8
REMARK Flexibility Score: inf
ROOT
ATOM      1  C   UNL     1      -7.433  -1.774  42.804  1.00  0.00     0.231 C 
ENDROOT
BRANCH   1   2
ATOM      2  C   UNL     1      -8.093  -0.433  42.799  1.00  0.00     0.129 A 
ATOM      3  C   UNL     1      -9.075   1.423  42.152  1.00  0.00     0.042 A 
ATOM      4  C   UNL     1      -8.834   1.435  43.512  1.00  0.00     0.195 A 
ATOM      5  C   UNL     1      -8.593   0.217  41.689  1.00  0.00     0.048 A 
ATOM      6  O   UNL     1      -8.244   0.316  43.867  1.00  0.00    -0.467 OA
ENDBRANCH   1   2
BRANCH   1   7
ATOM      7  O   UNL     1      -6.136  -1.673  42.283  1.00  0.00    -0.388 OA
ATOM      8  H   UNL     1      -5.514  -1.837  43.040  1.00  0.00     0.211 HD
ENDBRANCH   1   7
TORSDOF 2
ENDMDL
MODEL 5
REMARK VINA RESULT:    -2.827      2.869      3.998
REMARK INTER + INTRA:          -3.096
REMARK INTER:                  -3.080
REMARK INTRA:                  -0.016
REMARK UNBOUND:                -0.021
REMARK SMILES OCc1ccco1
REMARK SMILES IDX 2 1 3 2 5 3 6 4 4 5 7 6 1 7
REMARK H PARENT 1 8
REMARK Flexibility Score: inf
ROOT
ATOM      1  C   UNL     1       4.006  -2.949  33.688  1.00  0.00     0.231 C 
ENDROOT
BRANCH   1   2
ATOM      2  C   UNL     1       4.464  -1.712  32.985  1.00  0.00     0.129 A 
ATOM      3  C   UNL     1       4.515   0.113  31.763  1.00  0.00     0.042 A 
ATOM      4  C   UNL     1       5.773  -0.204  32.237  1.00  0.00     0.195 A 
ATOM      5  C   UNL     1       3.668  -0.863  32.243  1.00  0.00     0.048 A 
ATOM      6  O   UNL     1       5.710  -1.299  32.960  1.00  0.00    -0.467 OA
ENDBRANCH   1   2
BRANCH   1   7
ATOM      7  O   UNL     1       2.717  -3.295  33.261  1.00  0.00    -0.388 OA
ATOM      8  H   UNL     1       2.821  -4.059  32.635  1.00  0.00     0.211 HD
ENDBRANCH   1   7
TORSDOF 2
ENDMDL
MODEL 6
REMARK VINA RESULT:    -2.801      8.924     10.382
REMARK INTER + INTRA:          -3.067
REMARK INTER:                  -3.053
REMARK INTRA:                  -0.015
REMARK UNBOUND:                -0.021
REMARK SMILES OCc1ccco1
REMARK SMILES IDX 2 1 3 2 5 3 6 4 4 5 7 6 1 7
REMARK H PARENT 1 8
REMARK Flexibility Score: inf
ROOT
ATOM      1  C   UNL     1       9.525   4.064  38.671  1.00  0.00     0.231 C 
ENDROOT
BRANCH   1   2
ATOM      2  C   UNL     1       9.367   3.790  40.132  1.00  0.00     0.129 A 
ATOM      3  C   UNL     1       9.686   3.728  42.305  1.00  0.00     0.042 A 
ATOM      4  C   UNL     1       8.586   2.976  41.942  1.00  0.00     0.195 A 
ATOM      5  C   UNL     1      10.194   4.252  41.135  1.00  0.00     0.048 A 
ATOM      6  O   UNL     1       8.423   3.030  40.639  1.00  0.00    -0.467 OA
ENDBRANCH   1   2
BRANCH   1   7
ATOM      7  O   UNL     1       8.441   4.819  38.204  1.00  0.00    -0.388 OA
ATOM      8  H   UNL     1       7.751   4.795  38.917  1.00  0.00     0.211 HD
ENDBRANCH   1   7
TORSDOF 2
ENDMDL
MODEL 7
REMARK VINA RESULT:    -2.724      6.250      7.319
REMARK INTER + INTRA:          -2.985
REMARK INTER:                  -2.964
REMARK INTRA:                  -0.021
REMARK UNBOUND:                -0.021
REMARK SMILES OCc1ccco1
REMARK SMILES IDX 2 1 3 2 5 3 6 4 4 5 7 6 1 7
REMARK H PARENT 1 8
REMARK Flexibility Score: inf
ROOT
ATOM      1  C   UNL     1       1.809  -4.884  34.801  1.00  0.00     0.231 C 
ENDROOT
BRANCH   1   2
ATOM      2  C   UNL     1       3.116  -4.560  35.451  1.00  0.00     0.129 A 
ATOM      3  C   UNL     1       4.898  -4.629  36.734  1.00  0.00     0.042 A 
ATOM      4  C   UNL     1       4.880  -3.480  35.967  1.00  0.00     0.195 A 
ATOM      5  C   UNL     1       3.756  -5.327  36.403  1.00  0.00     0.048 A 
ATOM      6  O   UNL     1       3.803  -3.466  35.216  1.00  0.00    -0.467 OA
ENDBRANCH   1   2
BRANCH   1   7
ATOM      7  O   UNL     1       1.635  -4.099  33.654  1.00  0.00    -0.388 OA
ATOM      8  H   UNL     1       0.819  -4.436  33.200  1.00  0.00     0.211 HD
ENDBRANCH   1   7
TORSDOF 2
ENDMDL
MODEL 8
REMARK VINA RESULT:    -2.646     15.635     16.183
REMARK INTER + INTRA:          -2.899
REMARK INTER:                  -2.887
REMARK INTRA:                  -0.012
REMARK UNBOUND:                -0.021
REMARK SMILES OCc1ccco1
REMARK SMILES IDX 2 1 3 2 5 3 6 4 4 5 7 6 1 7
REMARK H PARENT 1 8
REMARK Flexibility Score: inf
ROOT
ATOM      1  C   UNL     1       0.236   2.781  47.338  1.00  0.00     0.231 C 
ENDROOT
BRANCH   1   2
ATOM      2  C   UNL     1      -0.314   3.742  46.333  1.00  0.00     0.129 A 
ATOM      3  C   UNL     1      -0.490   5.225  44.722  1.00  0.00     0.042 A 
ATOM      4  C   UNL     1      -1.724   4.940  45.274  1.00  0.00     0.195 A 
ATOM      5  C   UNL     1       0.424   4.453  45.408  1.00  0.00     0.048 A 
ATOM      6  O   UNL     1      -1.585   4.055  46.234  1.00  0.00    -0.467 OA
ENDBRANCH   1   2
BRANCH   1   7
ATOM      7  O   UNL     1       0.636   1.598  46.704  1.00  0.00    -0.388 OA
ATOM      8  H   UNL     1       0.210   1.600  45.807  1.00  0.00     0.211 HD
ENDBRANCH   1   7
TORSDOF 2
ENDMDL
MODEL 9
REMARK VINA RESULT:    -2.626      6.684      7.554
REMARK INTER + INTRA:          -2.877
REMARK INTER:                  -2.857
REMARK INTRA:                  -0.020
REMARK UNBOUND:                -0.021
REMARK SMILES OCc1ccco1
REMARK SMILES IDX 2 1 3 2 5 3 6 4 4 5 7 6 1 7
REMARK H PARENT 1 8
REMARK Flexibility Score: inf
ROOT
ATOM      1  C   UNL     1       3.158  -3.930  34.380  1.00  0.00     0.231 C 
ENDROOT
BRANCH   1   2
ATOM      2  C   UNL     1       2.061  -4.933  34.545  1.00  0.00     0.129 A 
ATOM      3  C   UNL     1       0.696  -6.433  35.389  1.00  0.00     0.042 A 
ATOM      4  C   UNL     1       0.448  -6.234  34.045  1.00  0.00     0.195 A 
ATOM      5  C   UNL     1       1.741  -5.594  35.713  1.00  0.00     0.048 A 
ATOM      6  O   UNL     1       1.281  -5.336  33.569  1.00  0.00    -0.467 OA
ENDBRANCH   1   2
BRANCH   1   7
ATOM      7  O   UNL     1       2.895  -3.107  33.277  1.00  0.00    -0.388 OA
ATOM      8  H   UNL     1       2.953  -3.685  32.472  1.00  0.00     0.211 HD
ENDBRANCH   1   7
TORSDOF 2
ENDMDL
