MODEL 1
REMARK VINA RESULT:     2.047      0.000      0.000
REMARK INTER + INTRA:           2.216
REMARK INTER:                   2.466
REMARK INTRA:                  -0.250
REMARK UNBOUND:                -0.250
REMARK SMILES O=c1c(O)c(-c2ccc(O)c(O)c2)oc2cc(O)cc(O)c12
REMARK SMILES IDX 5 1 3 2 2 3 1 4 22 5 20 6 19 7 17 8 16 9 15 10 14 11 6 12
REMARK SMILES IDX 7 13 8 14 9 15 13 16 11 17 10 18 12 20 4 22 21 24 18 26
REMARK H PARENT 10 19 12 21 4 23 21 25 18 27
REMARK Flexibility Score: inf
ROOT
ATOM      1  C   UNL     1      36.743 -29.980  -5.051  1.00  0.00     0.180 A 
ATOM      2  C   UNL     1      37.789 -30.207  -5.962  1.00  0.00     0.208 A 
ATOM      3  C   UNL     1      37.643 -29.771  -7.288  1.00  0.00     0.238 A 
ATOM      4  O   UNL     1      38.612 -29.911  -8.079  1.00  0.00    -0.285 OA
ATOM      5  C   UNL     1      36.432 -29.164  -7.702  1.00  0.00     0.111 A 
ATOM      6  C   UNL     1      36.157 -28.723  -9.032  1.00  0.00     0.134 A 
ATOM      7  C   UNL     1      34.965 -28.039  -9.301  1.00  0.00     0.093 A 
ATOM      8  C   UNL     1      34.010 -27.837  -8.302  1.00  0.00     0.123 A 
ATOM      9  C   UNL     1      34.245 -28.310  -7.014  1.00  0.00     0.094 A 
ATOM     10  C   UNL     1      35.441 -28.963  -6.706  1.00  0.00     0.146 A 
ATOM     11  O   UNL     1      35.632 -29.378  -5.459  1.00  0.00    -0.452 OA
ENDROOT
BRANCH   1  12
ATOM     12  C   UNL     1      36.829 -30.397  -3.633  1.00  0.00     0.025 A 
ATOM     13  C   UNL     1      36.990 -29.457  -2.601  1.00  0.00     0.016 A 
ATOM     14  C   UNL     1      37.044 -29.873  -1.267  1.00  0.00     0.051 A 
ATOM     15  C   UNL     1      36.924 -31.232  -0.945  1.00  0.00     0.157 A 
ATOM     16  C   UNL     1      36.688 -31.756  -3.303  1.00  0.00     0.062 A 
ATOM     17  C   UNL     1      36.742 -32.176  -1.969  1.00  0.00     0.158 A 
BRANCH  15  18
ATOM     18  O   UNL     1      36.980 -31.644   0.386  1.00  0.00    -0.504 OA
ATOM     19  H   UNL     1      36.273 -31.369   1.057  1.00  0.00     0.293 HD
ENDBRANCH  15  18
BRANCH  17  20
ATOM     20  O   UNL     1      36.613 -33.535  -1.682  1.00  0.00    -0.504 OA
ATOM     21  H   UNL     1      35.708 -33.984  -1.597  1.00  0.00     0.293 HD
ENDBRANCH  17  20
ENDBRANCH   1  12
BRANCH   2  22
ATOM     22  O   UNL     1      38.946 -30.877  -5.553  1.00  0.00    -0.502 OA
ATOM     23  H   UNL     1      39.853 -30.698  -5.966  1.00  0.00     0.293 HD
ENDBRANCH   2  22
BRANCH   6  24
ATOM     24  O   UNL     1      37.001 -28.952 -10.124  1.00  0.00    -0.507 OA
ATOM     25  H   UNL     1      37.403 -28.232 -10.704  1.00  0.00     0.293 HD
ENDBRANCH   6  24
BRANCH   8  26
ATOM     26  O   UNL     1      32.819 -27.170  -8.582  1.00  0.00    -0.508 OA
ATOM     27  H   UNL     1      32.339 -26.622  -7.878  1.00  0.00     0.293 HD
ENDBRANCH   8  26
TORSDOF 6
ENDMDL
MODEL 2
REMARK VINA RESULT:     3.004      2.751      4.402
REMARK INTER + INTRA:           3.369
REMARK INTER:                   2.936
REMARK INTRA:                   0.433
REMARK UNBOUND:                -0.250
REMARK SMILES O=c1c(O)c(-c2ccc(O)c(O)c2)oc2cc(O)cc(O)c12
REMARK SMILES IDX 5 1 3 2 2 3 1 4 22 5 20 6 19 7 17 8 16 9 15 10 14 11 6 12
REMARK SMILES IDX 7 13 8 14 9 15 13 16 11 17 10 18 12 20 4 22 21 24 18 26
REMARK H PARENT 10 19 12 21 4 23 21 25 18 27
REMARK Flexibility Score: inf
ROOT
ATOM      1  C   UNL     1      37.922 -31.220  -5.392  1.00  0.00     0.180 A 
ATOM      2  C   UNL     1      38.225 -30.212  -6.322  1.00  0.00     0.208 A 
ATOM      3  C   UNL     1      38.725 -30.576  -7.583  1.00  0.00     0.238 A 
ATOM      4  O   UNL     1      38.925 -29.674  -8.436  1.00  0.00    -0.285 OA
ATOM      5  C   UNL     1      38.969 -31.940  -7.877  1.00  0.00     0.111 A 
ATOM      6  C   UNL     1      39.516 -32.421  -9.106  1.00  0.00     0.134 A 
ATOM      7  C   UNL     1      39.614 -33.800  -9.325  1.00  0.00     0.093 A 
ATOM      8  C   UNL     1      39.244 -34.715  -8.337  1.00  0.00     0.123 A 
ATOM      9  C   UNL     1      38.760 -34.255  -7.115  1.00  0.00     0.094 A 
ATOM     10  C   UNL     1      38.616 -32.886  -6.880  1.00  0.00     0.146 A 
ATOM     11  O   UNL     1      38.130 -32.493  -5.708  1.00  0.00    -0.452 OA
ENDROOT
BRANCH   1  12
ATOM     12  C   UNL     1      37.377 -30.916  -4.049  1.00  0.00     0.025 A 
ATOM     13  C   UNL     1      36.928 -29.626  -3.716  1.00  0.00     0.016 A 
ATOM     14  C   UNL     1      36.396 -29.369  -2.449  1.00  0.00     0.051 A 
ATOM     15  C   UNL     1      36.292 -30.397  -1.503  1.00  0.00     0.157 A 
ATOM     16  C   UNL     1      37.251 -31.948  -3.105  1.00  0.00     0.062 A 
ATOM     17  C   UNL     1      36.719 -31.693  -1.836  1.00  0.00     0.158 A 
BRANCH  15  18
ATOM     18  O   UNL     1      35.762 -30.137  -0.240  1.00  0.00    -0.504 OA
ATOM     19  H   UNL     1      35.848 -29.225   0.194  1.00  0.00     0.293 HD
ENDBRANCH  15  18
BRANCH  17  20
ATOM     20  O   UNL     1      36.623 -32.741  -0.919  1.00  0.00    -0.504 OA
ATOM     21  H   UNL     1      37.375 -33.405  -0.779  1.00  0.00     0.293 HD
ENDBRANCH  17  20
ENDBRANCH   1  12
BRANCH   2  22
ATOM     22  O   UNL     1      38.050 -28.867  -5.985  1.00  0.00    -0.502 OA
ATOM     23  H   UNL     1      38.298 -28.111  -6.613  1.00  0.00     0.293 HD
ENDBRANCH   2  22
BRANCH   6  24
ATOM     24  O   UNL     1      40.000 -31.594 -10.125  1.00  0.00    -0.507 OA
ATOM     25  H   UNL     1      39.445 -30.928 -10.640  1.00  0.00     0.293 HD
ENDBRANCH   6  24
BRANCH   8  26
ATOM     26  O   UNL     1      39.360 -36.086  -8.558  1.00  0.00    -0.508 OA
ATOM     27  H   UNL     1      40.261 -36.526  -8.703  1.00  0.00     0.293 HD
ENDBRANCH   8  26
TORSDOF 6
ENDMDL
MODEL 3
REMARK VINA RESULT:     3.635      2.521      6.617
REMARK INTER + INTRA:           4.129
REMARK INTER:                   4.234
REMARK INTRA:                  -0.105
REMARK UNBOUND:                -0.250
REMARK SMILES O=c1c(O)c(-c2ccc(O)c(O)c2)oc2cc(O)cc(O)c12
REMARK SMILES IDX 5 1 3 2 2 3 1 4 22 5 20 6 19 7 17 8 16 9 15 10 14 11 6 12
REMARK SMILES IDX 7 13 8 14 9 15 13 16 11 17 10 18 12 20 4 22 21 24 18 26
REMARK H PARENT 10 19 12 21 4 23 21 25 18 27
REMARK Flexibility Score: inf
ROOT
ATOM      1  C   UNL     1      36.529 -29.691  -7.207  1.00  0.00     0.180 A 
ATOM      2  C   UNL     1      36.680 -30.107  -5.874  1.00  0.00     0.208 A 
ATOM      3  C   UNL     1      37.732 -30.977  -5.547  1.00  0.00     0.238 A 
ATOM      4  O   UNL     1      37.907 -31.286  -4.339  1.00  0.00    -0.285 OA
ATOM      5  C   UNL     1      38.585 -31.466  -6.566  1.00  0.00     0.111 A 
ATOM      6  C   UNL     1      39.656 -32.388  -6.357  1.00  0.00     0.134 A 
ATOM      7  C   UNL     1      40.501 -32.719  -7.423  1.00  0.00     0.093 A 
ATOM      8  C   UNL     1      40.275 -32.213  -8.705  1.00  0.00     0.123 A 
ATOM      9  C   UNL     1      39.201 -31.355  -8.931  1.00  0.00     0.094 A 
ATOM     10  C   UNL     1      38.363 -30.977  -7.880  1.00  0.00     0.146 A 
ATOM     11  O   UNL     1      37.364 -30.141  -8.137  1.00  0.00    -0.452 OA
ENDROOT
BRANCH   1  12
ATOM     12  C   UNL     1      35.453 -28.764  -7.627  1.00  0.00     0.025 A 
ATOM     13  C   UNL     1      35.319 -27.489  -7.050  1.00  0.00     0.016 A 
ATOM     14  C   UNL     1      34.311 -26.621  -7.479  1.00  0.00     0.051 A 
ATOM     15  C   UNL     1      33.432 -27.009  -8.500  1.00  0.00     0.157 A 
ATOM     16  C   UNL     1      34.584 -29.138  -8.664  1.00  0.00     0.062 A 
ATOM     17  C   UNL     1      33.573 -28.273  -9.096  1.00  0.00     0.158 A 
BRANCH  15  18
ATOM     18  O   UNL     1      32.426 -26.142  -8.924  1.00  0.00    -0.504 OA
ATOM     19  H   UNL     1      32.492 -25.141  -8.781  1.00  0.00     0.293 HD
ENDBRANCH  15  18
BRANCH  17  20
ATOM     20  O   UNL     1      32.719 -28.685 -10.119  1.00  0.00    -0.504 OA
ATOM     21  H   UNL     1      31.715 -28.556 -10.068  1.00  0.00     0.293 HD
ENDBRANCH  17  20
ENDBRANCH   1  12
BRANCH   2  22
ATOM     22  O   UNL     1      35.781 -29.673  -4.895  1.00  0.00    -0.502 OA
ATOM     23  H   UNL     1      35.724 -30.103  -3.979  1.00  0.00     0.293 HD
ENDBRANCH   2  22
BRANCH   6  24
ATOM     24  O   UNL     1      39.917 -33.022  -5.138  1.00  0.00    -0.507 OA
ATOM     25  H   UNL     1      40.141 -32.549  -4.277  1.00  0.00     0.293 HD
ENDBRANCH   6  24
BRANCH   8  26
ATOM     26  O   UNL     1      41.111 -32.561  -9.764  1.00  0.00    -0.508 OA
ATOM     27  H   UNL     1      40.913 -32.271 -10.714  1.00  0.00     0.293 HD
ENDBRANCH   8  26
TORSDOF 6
ENDMDL
MODEL 4
REMARK VINA RESULT:     3.835      1.797      3.630
REMARK INTER + INTRA:           4.369
REMARK INTER:                   4.599
REMARK INTRA:                  -0.230
REMARK UNBOUND:                -0.250
REMARK SMILES O=c1c(O)c(-c2ccc(O)c(O)c2)oc2cc(O)cc(O)c12
REMARK SMILES IDX 5 1 3 2 2 3 1 4 22 5 20 6 19 7 17 8 16 9 15 10 14 11 6 12
REMARK SMILES IDX 7 13 8 14 9 15 13 16 11 17 10 18 12 20 4 22 21 24 18 26
REMARK H PARENT 10 19 12 21 4 23 21 25 18 27
REMARK Flexibility Score: inf
ROOT
ATOM      1  C   UNL     1      37.083 -30.794  -4.437  1.00  0.00     0.180 A 
ATOM      2  C   UNL     1      36.125 -29.907  -4.956  1.00  0.00     0.208 A 
ATOM      3  C   UNL     1      36.224 -29.507  -6.299  1.00  0.00     0.238 A 
ATOM      4  O   UNL     1      35.322 -28.773  -6.777  1.00  0.00    -0.285 OA
ATOM      5  C   UNL     1      37.312 -29.954  -7.089  1.00  0.00     0.111 A 
ATOM      6  C   UNL     1      37.538 -29.577  -8.448  1.00  0.00     0.134 A 
ATOM      7  C   UNL     1      38.588 -30.165  -9.163  1.00  0.00     0.093 A 
ATOM      8  C   UNL     1      39.459 -31.069  -8.549  1.00  0.00     0.123 A 
ATOM      9  C   UNL     1      39.280 -31.402  -7.209  1.00  0.00     0.094 A 
ATOM     10  C   UNL     1      38.219 -30.860  -6.480  1.00  0.00     0.146 A 
ATOM     11  O   UNL     1      38.073 -31.222  -5.211  1.00  0.00    -0.452 OA
ENDROOT
BRANCH   1  12
ATOM     12  C   UNL     1      37.037 -31.273  -3.036  1.00  0.00     0.025 A 
ATOM     13  C   UNL     1      36.711 -32.604  -2.727  1.00  0.00     0.016 A 
ATOM     14  C   UNL     1      36.697 -33.039  -1.399  1.00  0.00     0.051 A 
ATOM     15  C   UNL     1      37.022 -32.154  -0.362  1.00  0.00     0.157 A 
ATOM     16  C   UNL     1      37.383 -30.395  -1.995  1.00  0.00     0.062 A 
ATOM     17  C   UNL     1      37.369 -30.827  -0.664  1.00  0.00     0.158 A 
BRANCH  15  18
ATOM     18  O   UNL     1      37.006 -32.590   0.962  1.00  0.00    -0.504 OA
ATOM     19  H   UNL     1      37.477 -33.439   1.247  1.00  0.00     0.293 HD
ENDBRANCH  15  18
BRANCH  17  20
ATOM     20  O   UNL     1      37.704 -29.923   0.344  1.00  0.00    -0.504 OA
ATOM     21  H   UNL     1      38.416 -29.213   0.217  1.00  0.00     0.293 HD
ENDBRANCH  17  20
ENDBRANCH   1  12
BRANCH   2  22
ATOM     22  O   UNL     1      35.103 -29.417  -4.138  1.00  0.00    -0.502 OA
ATOM     23  H   UNL     1      34.283 -29.965  -3.905  1.00  0.00     0.293 HD
ENDBRANCH   2  22
BRANCH   6  24
ATOM     24  O   UNL     1      36.783 -28.617  -9.130  1.00  0.00    -0.507 OA
ATOM     25  H   UNL     1      37.069 -28.153  -9.978  1.00  0.00     0.293 HD
ENDBRANCH   6  24
BRANCH   8  26
ATOM     26  O   UNL     1      40.512 -31.636  -9.264  1.00  0.00    -0.508 OA
ATOM     27  H   UNL     1      41.119 -31.076  -9.851  1.00  0.00     0.293 HD
ENDBRANCH   8  26
TORSDOF 6
ENDMDL
MODEL 5
REMARK VINA RESULT:     4.725      2.892      6.805
REMARK INTER + INTRA:           5.442
REMARK INTER:                   5.158
REMARK INTRA:                   0.283
REMARK UNBOUND:                -0.250
REMARK SMILES O=c1c(O)c(-c2ccc(O)c(O)c2)oc2cc(O)cc(O)c12
REMARK SMILES IDX 5 1 3 2 2 3 1 4 22 5 20 6 19 7 17 8 16 9 15 10 14 11 6 12
REMARK SMILES IDX 7 13 8 14 9 15 13 16 11 17 10 18 12 20 4 22 21 24 18 26
REMARK H PARENT 10 19 12 21 4 23 21 25 18 27
REMARK Flexibility Score: inf
ROOT
ATOM      1  C   UNL     1      37.974 -31.235  -5.323  1.00  0.00     0.180 A 
ATOM      2  C   UNL     1      37.564 -29.903  -5.145  1.00  0.00     0.208 A 
ATOM      3  C   UNL     1      37.009 -29.520  -3.913  1.00  0.00     0.238 A 
ATOM      4  O   UNL     1      36.713 -28.310  -3.735  1.00  0.00    -0.285 OA
ATOM      5  C   UNL     1      36.817 -30.486  -2.896  1.00  0.00     0.111 A 
ATOM      6  C   UNL     1      36.223 -30.220  -1.624  1.00  0.00     0.134 A 
ATOM      7  C   UNL     1      36.182 -31.231  -0.656  1.00  0.00     0.093 A 
ATOM      8  C   UNL     1      36.656 -32.515  -0.934  1.00  0.00     0.123 A 
ATOM      9  C   UNL     1      37.189 -32.799  -2.189  1.00  0.00     0.094 A 
ATOM     10  C   UNL     1      37.277 -31.802  -3.164  1.00  0.00     0.146 A 
ATOM     11  O   UNL     1      37.812 -32.111  -4.339  1.00  0.00    -0.452 OA
ENDROOT
BRANCH   1  12
ATOM     12  C   UNL     1      38.581 -31.710  -6.587  1.00  0.00     0.025 A 
ATOM     13  C   UNL     1      39.290 -30.839  -7.432  1.00  0.00     0.016 A 
ATOM     14  C   UNL     1      39.875 -31.316  -8.608  1.00  0.00     0.051 A 
ATOM     15  C   UNL     1      39.773 -32.671  -8.950  1.00  0.00     0.157 A 
ATOM     16  C   UNL     1      38.500 -33.071  -6.923  1.00  0.00     0.062 A 
ATOM     17  C   UNL     1      39.084 -33.552  -8.100  1.00  0.00     0.158 A 
BRANCH  15  18
ATOM     18  O   UNL     1      40.356 -33.143 -10.125  1.00  0.00    -0.504 OA
ATOM     19  H   UNL     1      39.907 -33.851 -10.693  1.00  0.00     0.293 HD
ENDBRANCH  15  18
BRANCH  17  20
ATOM     20  O   UNL     1      38.970 -34.908  -8.408  1.00  0.00    -0.504 OA
ATOM     21  H   UNL     1      39.297 -35.632  -7.779  1.00  0.00     0.293 HD
ENDBRANCH  17  20
ENDBRANCH   1  12
BRANCH   2  22
ATOM     22  O   UNL     1      37.691 -28.981  -6.188  1.00  0.00    -0.502 OA
ATOM     23  H   UNL     1      37.887 -29.263  -7.142  1.00  0.00     0.293 HD
ENDBRANCH   2  22
BRANCH   6  24
ATOM     24  O   UNL     1      35.638 -28.999  -1.272  1.00  0.00    -0.507 OA
ATOM     25  H   UNL     1      35.055 -28.850  -0.464  1.00  0.00     0.293 HD
ENDBRANCH   6  24
BRANCH   8  26
ATOM     26  O   UNL     1      36.597 -33.519   0.030  1.00  0.00    -0.508 OA
ATOM     27  H   UNL     1      37.426 -33.836   0.518  1.00  0.00     0.293 HD
ENDBRANCH   8  26
TORSDOF 6
ENDMDL
