MODEL 1
REMARK VINA RESULT:    -3.655      0.000      0.000
REMARK INTER + INTRA:          -5.374
REMARK INTER:                  -4.937
REMARK INTRA:                  -0.437
REMARK UNBOUND:                -0.437
REMARK SMILES CCCCCCCC(=O)[O-]
REMARK SMILES IDX 5 1 6 2 7 3 8 4 9 5 10 6 4 7 3 8 2 9 1 10
REMARK H PARENT
REMARK Flexibility Score: inf
ROOT
ATOM      1  C   UNL     1      16.528   9.664   4.996  1.00  0.00     0.000 C 
ENDROOT
BRANCH   1   2
ATOM      2  C   UNL     1      16.099   8.210   4.739  1.00  0.00     0.006 C 
BRANCH   2   3
ATOM      3  C   UNL     1      16.177   7.339   6.000  1.00  0.00     0.053 C 
BRANCH   3   4
ATOM      4  C   UNL     1      17.465   6.578   6.030  1.00  0.00     0.041 C 
ATOM      5  O   UNL     1      17.900   6.111   7.115  1.00  0.00    -0.550 OA
ATOM      6  O   UNL     1      18.210   6.428   4.867  1.00  0.00    -0.550 OA
ENDBRANCH   3   4
ENDBRANCH   2   3
ENDBRANCH   1   2
BRANCH   1   7
ATOM      7  C   UNL     1      17.906   9.987   4.397  1.00  0.00     0.000 C 
BRANCH   7   8
ATOM      8  C   UNL     1      18.774  10.754   5.401  1.00  0.00    -0.000 C 
BRANCH   8   9
ATOM      9  C   UNL     1      19.290   9.824   6.506  1.00  0.00    -0.003 C 
ATOM     10  C   UNL     1      20.123  10.591   7.528  1.00  0.00     0.004 C 
ENDBRANCH   8   9
ENDBRANCH   7   8
ENDBRANCH   1   7
TORSDOF 6
ENDMDL
MODEL 2
REMARK VINA RESULT:    -3.559     17.516     19.163
REMARK INTER + INTRA:          -5.244
REMARK INTER:                  -4.900
REMARK INTRA:                  -0.344
REMARK UNBOUND:                -0.437
REMARK SMILES CCCCCCCC(=O)[O-]
REMARK SMILES IDX 5 1 6 2 7 3 8 4 9 5 10 6 4 7 3 8 2 9 1 10
REMARK H PARENT
REMARK Flexibility Score: inf
ROOT
ATOM      1  C   UNL     1      25.649  -7.504  -0.029  1.00  0.00     0.000 C 
ENDROOT
BRANCH   1   2
ATOM      2  C   UNL     1      26.755  -6.928   0.869  1.00  0.00     0.006 C 
BRANCH   2   3
ATOM      3  C   UNL     1      26.580  -5.426   1.132  1.00  0.00     0.053 C 
BRANCH   3   4
ATOM      4  C   UNL     1      27.226  -5.045   2.426  1.00  0.00     0.041 C 
ATOM      5  O   UNL     1      28.086  -4.125   2.458  1.00  0.00    -0.550 OA
ATOM      6  O   UNL     1      26.917  -5.738   3.589  1.00  0.00    -0.550 OA
ENDBRANCH   3   4
ENDBRANCH   2   3
ENDBRANCH   1   2
BRANCH   1   7
ATOM      7  C   UNL     1      26.193  -8.053  -1.357  1.00  0.00     0.000 C 
BRANCH   7   8
ATOM      8  C   UNL     1      27.559  -8.721  -1.156  1.00  0.00    -0.000 C 
BRANCH   8   9
ATOM      9  C   UNL     1      28.491  -8.437  -2.339  1.00  0.00    -0.003 C 
ATOM     10  C   UNL     1      27.998  -7.246  -3.156  1.00  0.00     0.004 C 
ENDBRANCH   8   9
ENDBRANCH   7   8
ENDBRANCH   1   7
TORSDOF 6
ENDMDL
MODEL 3
REMARK VINA RESULT:    -3.537      2.300      4.491
REMARK INTER + INTRA:          -5.214
REMARK INTER:                  -4.660
REMARK INTRA:                  -0.554
REMARK UNBOUND:                -0.437
REMARK SMILES CCCCCCCC(=O)[O-]
REMARK SMILES IDX 5 1 6 2 7 3 8 4 9 5 10 6 4 7 3 8 2 9 1 10
REMARK H PARENT
REMARK Flexibility Score: inf
ROOT
ATOM      1  C   UNL     1      19.607   7.594   6.422  1.00  0.00     0.000 C 
ENDROOT
BRANCH   1   2
ATOM      2  C   UNL     1      19.908   8.956   7.067  1.00  0.00     0.006 C 
BRANCH   2   3
ATOM      3  C   UNL     1      19.148  10.108   6.398  1.00  0.00     0.053 C 
BRANCH   3   4
ATOM      4  C   UNL     1      17.730  10.144   6.874  1.00  0.00     0.041 C 
ATOM      5  O   UNL     1      17.476  10.349   8.090  1.00  0.00    -0.550 OA
ATOM      6  O   UNL     1      16.692   9.902   5.985  1.00  0.00    -0.550 OA
ENDBRANCH   3   4
ENDBRANCH   2   3
ENDBRANCH   1   2
BRANCH   1   7
ATOM      7  C   UNL     1      18.798   6.670   7.345  1.00  0.00     0.000 C 
BRANCH   7   8
ATOM      8  C   UNL     1      17.394   6.422   6.779  1.00  0.00    -0.000 C 
BRANCH   8   9
ATOM      9  C   UNL     1      17.432   6.284   5.253  1.00  0.00    -0.003 C 
ATOM     10  C   UNL     1      16.096   6.673   4.630  1.00  0.00     0.004 C 
ENDBRANCH   8   9
ENDBRANCH   7   8
ENDBRANCH   1   7
TORSDOF 6
ENDMDL
MODEL 4
REMARK VINA RESULT:    -3.531     17.700     19.333
REMARK INTER + INTRA:          -5.207
REMARK INTER:                  -4.914
REMARK INTRA:                  -0.293
REMARK UNBOUND:                -0.437
REMARK SMILES CCCCCCCC(=O)[O-]
REMARK SMILES IDX 5 1 6 2 7 3 8 4 9 5 10 6 4 7 3 8 2 9 1 10
REMARK H PARENT
REMARK Flexibility Score: inf
ROOT
ATOM      1  C   UNL     1      26.557  -7.122   0.160  1.00  0.00     0.000 C 
ENDROOT
BRANCH   1   2
ATOM      2  C   UNL     1      26.067  -7.894   1.396  1.00  0.00     0.006 C 
BRANCH   2   3
ATOM      3  C   UNL     1      24.639  -8.430   1.230  1.00  0.00     0.053 C 
BRANCH   3   4
ATOM      4  C   UNL     1      23.643  -7.334   1.444  1.00  0.00     0.041 C 
ATOM      5  O   UNL     1      23.875  -6.420   2.278  1.00  0.00    -0.550 OA
ATOM      6  O   UNL     1      22.435  -7.350   0.759  1.00  0.00    -0.550 OA
ENDBRANCH   3   4
ENDBRANCH   2   3
ENDBRANCH   1   2
BRANCH   1   7
ATOM      7  C   UNL     1      26.379  -7.917  -1.142  1.00  0.00     0.000 C 
BRANCH   7   8
ATOM      8  C   UNL     1      27.523  -8.921  -1.332  1.00  0.00    -0.000 C 
BRANCH   8   9
ATOM      9  C   UNL     1      28.534  -8.414  -2.367  1.00  0.00    -0.003 C 
ATOM     10  C   UNL     1      27.937  -7.301  -3.223  1.00  0.00     0.004 C 
ENDBRANCH   8   9
ENDBRANCH   7   8
ENDBRANCH   1   7
TORSDOF 6
ENDMDL
MODEL 5
REMARK VINA RESULT:    -3.516      1.885      2.514
REMARK INTER + INTRA:          -5.186
REMARK INTER:                  -4.740
REMARK INTRA:                  -0.446
REMARK UNBOUND:                -0.437
REMARK SMILES CCCCCCCC(=O)[O-]
REMARK SMILES IDX 5 1 6 2 7 3 8 4 9 5 10 6 4 7 3 8 2 9 1 10
REMARK H PARENT
REMARK Flexibility Score: inf
ROOT
ATOM      1  C   UNL     1      18.795   7.271   7.072  1.00  0.00     0.000 C 
ENDROOT
BRANCH   1   2
ATOM      2  C   UNL     1      17.393   7.897   7.144  1.00  0.00     0.006 C 
BRANCH   2   3
ATOM      3  C   UNL     1      16.322   7.026   6.474  1.00  0.00     0.053 C 
BRANCH   3   4
ATOM      4  C   UNL     1      16.302   7.267   4.997  1.00  0.00     0.041 C 
ATOM      5  O   UNL     1      16.518   8.421   4.541  1.00  0.00    -0.550 OA
ATOM      6  O   UNL     1      15.997   6.229   4.128  1.00  0.00    -0.550 OA
ENDBRANCH   3   4
ENDBRANCH   2   3
ENDBRANCH   1   2
BRANCH   1   7
ATOM      7  C   UNL     1      19.892   8.308   6.784  1.00  0.00     0.000 C 
BRANCH   7   8
ATOM      8  C   UNL     1      19.279   9.658   6.392  1.00  0.00    -0.000 C 
BRANCH   8   9
ATOM      9  C   UNL     1      19.939  10.807   7.162  1.00  0.00    -0.003 C 
ATOM     10  C   UNL     1      20.709  10.289   8.373  1.00  0.00     0.004 C 
ENDBRANCH   8   9
ENDBRANCH   7   8
ENDBRANCH   1   7
TORSDOF 6
ENDMDL
MODEL 6
REMARK VINA RESULT:    -3.499      1.490      3.400
REMARK INTER + INTRA:          -5.163
REMARK INTER:                  -4.511
REMARK INTRA:                  -0.653
REMARK UNBOUND:                -0.437
REMARK SMILES CCCCCCCC(=O)[O-]
REMARK SMILES IDX 5 1 6 2 7 3 8 4 9 5 10 6 4 7 3 8 2 9 1 10
REMARK H PARENT
REMARK Flexibility Score: inf
ROOT
ATOM      1  C   UNL     1      20.057  10.619   7.240  1.00  0.00     0.000 C 
ENDROOT
BRANCH   1   2
ATOM      2  C   UNL     1      19.908   9.326   8.058  1.00  0.00     0.006 C 
BRANCH   2   3
ATOM      3  C   UNL     1      20.660   8.142   7.435  1.00  0.00     0.053 C 
BRANCH   3   4
ATOM      4  C   UNL     1      19.699   7.192   6.794  1.00  0.00     0.041 C 
ATOM      5  O   UNL     1      19.726   7.007   5.549  1.00  0.00    -0.550 OA
ATOM      6  O   UNL     1      18.740   6.548   7.565  1.00  0.00    -0.550 OA
ENDBRANCH   3   4
ENDBRANCH   2   3
ENDBRANCH   1   2
BRANCH   1   7
ATOM      7  C   UNL     1      18.754  11.025   6.535  1.00  0.00     0.000 C 
BRANCH   7   8
ATOM      8  C   UNL     1      18.728  10.508   5.092  1.00  0.00    -0.000 C 
BRANCH   8   9
ATOM      9  C   UNL     1      17.535   9.572   4.863  1.00  0.00    -0.003 C 
ATOM     10  C   UNL     1      16.680   9.451   6.120  1.00  0.00     0.004 C 
ENDBRANCH   8   9
ENDBRANCH   7   8
ENDBRANCH   1   7
TORSDOF 6
ENDMDL
MODEL 7
REMARK VINA RESULT:    -3.487      2.288      2.993
REMARK INTER + INTRA:          -5.147
REMARK INTER:                  -4.468
REMARK INTRA:                  -0.679
REMARK UNBOUND:                -0.437
REMARK SMILES CCCCCCCC(=O)[O-]
REMARK SMILES IDX 5 1 6 2 7 3 8 4 9 5 10 6 4 7 3 8 2 9 1 10
REMARK H PARENT
REMARK Flexibility Score: inf
ROOT
ATOM      1  C   UNL     1      16.763   6.703   7.239  1.00  0.00     0.000 C 
ENDROOT
BRANCH   1   2
ATOM      2  C   UNL     1      16.531   7.167   5.793  1.00  0.00     0.006 C 
BRANCH   2   3
ATOM      3  C   UNL     1      17.287   6.311   4.769  1.00  0.00     0.053 C 
BRANCH   3   4
ATOM      4  C   UNL     1      18.268   7.148   4.010  1.00  0.00     0.041 C 
ATOM      5  O   UNL     1      19.264   6.612   3.457  1.00  0.00    -0.550 OA
ATOM      6  O   UNL     1      18.110   8.526   3.957  1.00  0.00    -0.550 OA
ENDBRANCH   3   4
ENDBRANCH   2   3
ENDBRANCH   1   2
BRANCH   1   7
ATOM      7  C   UNL     1      18.191   6.988   7.730  1.00  0.00     0.000 C 
BRANCH   7   8
ATOM      8  C   UNL     1      18.537   8.474   7.574  1.00  0.00    -0.000 C 
BRANCH   8   9
ATOM      9  C   UNL     1      19.967   8.655   7.052  1.00  0.00    -0.003 C 
ATOM     10  C   UNL     1      20.669   7.310   6.890  1.00  0.00     0.004 C 
ENDBRANCH   8   9
ENDBRANCH   7   8
ENDBRANCH   1   7
TORSDOF 6
ENDMDL
MODEL 8
REMARK VINA RESULT:    -3.483      1.808      2.241
REMARK INTER + INTRA:          -5.142
REMARK INTER:                  -4.695
REMARK INTRA:                  -0.448
REMARK UNBOUND:                -0.437
REMARK SMILES CCCCCCCC(=O)[O-]
REMARK SMILES IDX 5 1 6 2 7 3 8 4 9 5 10 6 4 7 3 8 2 9 1 10
REMARK H PARENT
REMARK Flexibility Score: inf
ROOT
ATOM      1  C   UNL     1      16.777   8.232   6.332  1.00  0.00     0.000 C 
ENDROOT
BRANCH   1   2
ATOM      2  C   UNL     1      16.127   7.117   5.497  1.00  0.00     0.006 C 
BRANCH   2   3
ATOM      3  C   UNL     1      17.158   6.255   4.758  1.00  0.00     0.053 C 
BRANCH   3   4
ATOM      4  C   UNL     1      17.152   6.573   3.296  1.00  0.00     0.041 C 
ATOM      5  O   UNL     1      16.223   6.149   2.559  1.00  0.00    -0.550 OA
ATOM      6  O   UNL     1      18.199   7.294   2.738  1.00  0.00    -0.550 OA
ENDBRANCH   3   4
ENDBRANCH   2   3
ENDBRANCH   1   2
BRANCH   1   7
ATOM      7  C   UNL     1      16.835   9.572   5.583  1.00  0.00     0.000 C 
BRANCH   7   8
ATOM      8  C   UNL     1      18.270   9.892   5.144  1.00  0.00    -0.000 C 
BRANCH   8   9
ATOM      9  C   UNL     1      19.271   9.569   6.259  1.00  0.00    -0.003 C 
ATOM     10  C   UNL     1      19.743  10.838   6.962  1.00  0.00     0.004 C 
ENDBRANCH   8   9
ENDBRANCH   7   8
ENDBRANCH   1   7
TORSDOF 6
ENDMDL
MODEL 9
REMARK VINA RESULT:    -3.447      1.892      3.589
REMARK INTER + INTRA:          -5.093
REMARK INTER:                  -4.442
REMARK INTRA:                  -0.650
REMARK UNBOUND:                -0.437
REMARK SMILES CCCCCCCC(=O)[O-]
REMARK SMILES IDX 5 1 6 2 7 3 8 4 9 5 10 6 4 7 3 8 2 9 1 10
REMARK H PARENT
REMARK Flexibility Score: inf
ROOT
ATOM      1  C   UNL     1      19.635  10.114   6.840  1.00  0.00     0.000 C 
ENDROOT
BRANCH   1   2
ATOM      2  C   UNL     1      18.433  10.601   6.014  1.00  0.00     0.006 C 
BRANCH   2   3
ATOM      3  C   UNL     1      18.550  10.236   4.528  1.00  0.00     0.053 C 
BRANCH   3   4
ATOM      4  C   UNL     1      18.055   8.844   4.292  1.00  0.00     0.041 C 
ATOM      5  O   UNL     1      18.838   7.957   3.862  1.00  0.00    -0.550 OA
ATOM      6  O   UNL     1      16.716   8.538   4.500  1.00  0.00    -0.550 OA
ENDBRANCH   3   4
ENDBRANCH   2   3
ENDBRANCH   1   2
BRANCH   1   7
ATOM      7  C   UNL     1      19.232   9.117   7.938  1.00  0.00     0.000 C 
BRANCH   7   8
ATOM      8  C   UNL     1      17.717   8.879   7.932  1.00  0.00    -0.000 C 
BRANCH   8   9
ATOM      9  C   UNL     1      17.396   7.380   7.915  1.00  0.00    -0.003 C 
ATOM     10  C   UNL     1      18.513   6.584   7.247  1.00  0.00     0.004 C 
ENDBRANCH   8   9
ENDBRANCH   7   8
ENDBRANCH   1   7
TORSDOF 6
ENDMDL
