MODEL 1
REMARK VINA RESULT:    11.502      0.000      0.000
REMARK INTER + INTRA:          13.825
REMARK INTER:                  13.519
REMARK INTRA:                   0.306
REMARK UNBOUND:                 0.306
REMARK SMILES O=c1c(O)c(-c2ccc(O)c(O)c2)oc2cc(O)ccc12
REMARK SMILES IDX 5 1 3 2 2 3 1 4 21 5 15 6 14 7 16 8 17 9 19 10 20 11 6 12
REMARK SMILES IDX 7 13 8 14 9 15 13 16 11 17 10 18 12 20 4 22 18 24
REMARK H PARENT 10 19 12 21 4 23 18 25
REMARK Flexibility Score: inf
ROOT
ATOM      1  C   UNL     1      -1.897 -20.282  -9.495  1.00  0.00     0.180 A 
ATOM      2  C   UNL     1      -0.568 -20.686  -9.737  1.00  0.00     0.208 A 
ATOM      3  C   UNL     1      -0.241 -22.046  -9.611  1.00  0.00     0.235 A 
ATOM      4  O   UNL     1       0.943 -22.431  -9.812  1.00  0.00    -0.285 OA
ATOM      5  C   UNL     1      -1.242 -22.968  -9.269  1.00  0.00     0.069 A 
ATOM      6  C   UNL     1      -2.554 -22.486  -9.067  1.00  0.00     0.142 A 
ATOM      7  O   UNL     1      -2.820 -21.190  -9.186  1.00  0.00    -0.452 OA
ATOM      8  C   UNL     1      -3.583 -23.375  -8.734  1.00  0.00     0.094 A 
ATOM      9  C   UNL     1      -3.318 -24.741  -8.599  1.00  0.00     0.119 A 
ATOM     10  C   UNL     1      -2.017 -25.223  -8.798  1.00  0.00     0.047 A 
ATOM     11  C   UNL     1      -0.982 -24.344  -9.132  1.00  0.00     0.020 A 
ENDROOT
BRANCH   1  12
ATOM     12  C   UNL     1      -2.317 -18.865  -9.589  1.00  0.00     0.025 A 
ATOM     13  C   UNL     1      -3.607 -18.511 -10.021  1.00  0.00     0.016 A 
ATOM     14  C   UNL     1      -3.973 -17.167 -10.125  1.00  0.00     0.051 A 
ATOM     15  C   UNL     1      -3.053 -16.156  -9.814  1.00  0.00     0.157 A 
ATOM     16  C   UNL     1      -1.391 -17.849  -9.299  1.00  0.00     0.062 A 
ATOM     17  C   UNL     1      -1.756 -16.501  -9.402  1.00  0.00     0.158 A 
BRANCH  15  18
ATOM     18  O   UNL     1      -3.422 -14.817  -9.917  1.00  0.00    -0.504 OA
ATOM     19  H   UNL     1      -3.181 -14.143  -9.199  1.00  0.00     0.293 HD
ENDBRANCH  15  18
BRANCH  17  20
ATOM     20  O   UNL     1      -0.813 -15.520  -9.093  1.00  0.00    -0.504 OA
ATOM     21  H   UNL     1      -0.119 -15.212  -9.763  1.00  0.00     0.293 HD
ENDBRANCH  17  20
ENDBRANCH   1  12
BRANCH   2  22
ATOM     22  O   UNL     1       0.397 -19.753 -10.123  1.00  0.00    -0.502 OA
ATOM     23  H   UNL     1       1.387 -19.969 -10.130  1.00  0.00     0.293 HD
ENDBRANCH   2  22
BRANCH   9  24
ATOM     24  O   UNL     1      -4.354 -25.612  -8.267  1.00  0.00    -0.508 OA
ATOM     25  H   UNL     1      -4.326 -26.170  -7.421  1.00  0.00     0.293 HD
ENDBRANCH   9  24
TORSDOF 5
ENDMDL
