MODEL 1
REMARK VINA RESULT:    35.631      0.000      0.000
REMARK INTER + INTRA:          43.167
REMARK INTER:                  42.922
REMARK INTRA:                   0.245
REMARK UNBOUND:                 0.245
REMARK SMILES O=c1c(O)c(-c2ccc(O)c(O)c2)oc2cc(O)cc(O)c12
REMARK SMILES IDX 5 1 3 2 2 3 1 4 22 5 20 6 19 7 17 8 16 9 15 10 14 11 6 12
REMARK SMILES IDX 7 13 8 14 9 15 13 16 11 17 10 18 12 20 4 22 21 24 18 26
REMARK H PARENT 10 19 12 21 4 23 21 25 18 27
REMARK Flexibility Score: inf
ROOT
ATOM      1  C   UNL     1     -22.692  28.757  -7.453  1.00  0.00     0.180 A 
ATOM      2  C   UNL     1     -22.125  29.775  -8.241  1.00  0.00     0.208 A 
ATOM      3  C   UNL     1     -22.955  30.794  -8.736  1.00  0.00     0.238 A 
ATOM      4  O   UNL     1     -22.453  31.672  -9.485  1.00  0.00    -0.285 OA
ATOM      5  C   UNL     1     -24.336  30.793  -8.424  1.00  0.00     0.111 A 
ATOM      6  C   UNL     1     -25.261  31.798  -8.838  1.00  0.00     0.134 A 
ATOM      7  C   UNL     1     -26.627  31.626  -8.581  1.00  0.00     0.093 A 
ATOM      8  C   UNL     1     -27.093  30.521  -7.871  1.00  0.00     0.123 A 
ATOM      9  C   UNL     1     -26.190  29.562  -7.409  1.00  0.00     0.094 A 
ATOM     10  C   UNL     1     -24.826  29.688  -7.681  1.00  0.00     0.146 A 
ATOM     11  O   UNL     1     -24.002  28.749  -7.233  1.00  0.00    -0.452 OA
ENDROOT
BRANCH   1  12
ATOM     12  C   UNL     1     -21.878  27.664  -6.876  1.00  0.00     0.025 A 
ATOM     13  C   UNL     1     -22.200  27.160  -5.605  1.00  0.00     0.016 A 
ATOM     14  C   UNL     1     -21.434  26.143  -5.032  1.00  0.00     0.051 A 
ATOM     15  C   UNL     1     -20.325  25.624  -5.713  1.00  0.00     0.157 A 
ATOM     16  C   UNL     1     -20.752  27.154  -7.548  1.00  0.00     0.062 A 
ATOM     17  C   UNL     1     -19.981  26.136  -6.975  1.00  0.00     0.158 A 
BRANCH  15  18
ATOM     18  O   UNL     1     -19.563  24.607  -5.139  1.00  0.00    -0.504 OA
ATOM     19  H   UNL     1     -18.569  24.525  -5.316  1.00  0.00     0.293 HD
ENDBRANCH  15  18
BRANCH  17  20
ATOM     20  O   UNL     1     -18.875  25.651  -7.673  1.00  0.00    -0.504 OA
ATOM     21  H   UNL     1     -18.073  26.234  -7.881  1.00  0.00     0.293 HD
ENDBRANCH  17  20
ENDBRANCH   1  12
BRANCH   2  22
ATOM     22  O   UNL     1     -20.764  29.745  -8.555  1.00  0.00    -0.502 OA
ATOM     23  H   UNL     1     -20.426  29.558  -9.492  1.00  0.00     0.293 HD
ENDBRANCH   2  22
BRANCH   6  24
ATOM     24  O   UNL     1     -24.890  32.986  -9.474  1.00  0.00    -0.507 OA
ATOM     25  H   UNL     1     -24.802  33.100 -10.473  1.00  0.00     0.293 HD
ENDBRANCH   6  24
BRANCH   8  26
ATOM     26  O   UNL     1     -28.458  30.390  -7.620  1.00  0.00    -0.508 OA
ATOM     27  H   UNL     1     -28.969  31.087  -7.092  1.00  0.00     0.293 HD
ENDBRANCH   8  26
TORSDOF 6
ENDMDL
MODEL 2
REMARK VINA RESULT:    36.117      1.311      2.815
REMARK INTER + INTRA:          43.752
REMARK INTER:                  43.965
REMARK INTRA:                  -0.213
REMARK UNBOUND:                 0.245
REMARK SMILES O=c1c(O)c(-c2ccc(O)c(O)c2)oc2cc(O)cc(O)c12
REMARK SMILES IDX 5 1 3 2 2 3 1 4 22 5 20 6 19 7 17 8 16 9 15 10 14 11 6 12
REMARK SMILES IDX 7 13 8 14 9 15 13 16 11 17 10 18 12 20 4 22 21 24 18 26
REMARK H PARENT 10 19 12 21 4 23 21 25 18 27
REMARK Flexibility Score: inf
ROOT
ATOM      1  C   UNL     1     -22.908  28.063  -7.183  1.00  0.00     0.180 A 
ATOM      2  C   UNL     1     -24.251  27.673  -7.325  1.00  0.00     0.208 A 
ATOM      3  C   UNL     1     -25.166  28.577  -7.890  1.00  0.00     0.238 A 
ATOM      4  O   UNL     1     -26.377  28.243  -7.965  1.00  0.00    -0.285 OA
ATOM      5  C   UNL     1     -24.724  29.851  -8.320  1.00  0.00     0.111 A 
ATOM      6  C   UNL     1     -25.555  30.829  -8.943  1.00  0.00     0.134 A 
ATOM      7  C   UNL     1     -25.041  32.105  -9.208  1.00  0.00     0.093 A 
ATOM      8  C   UNL     1     -23.710  32.416  -8.934  1.00  0.00     0.123 A 
ATOM      9  C   UNL     1     -22.871  31.447  -8.380  1.00  0.00     0.094 A 
ATOM     10  C   UNL     1     -23.365  30.178  -8.071  1.00  0.00     0.146 A 
ATOM     11  O   UNL     1     -22.538  29.289  -7.536  1.00  0.00    -0.452 OA
ENDROOT
BRANCH   1  12
ATOM     12  C   UNL     1     -21.881  27.157  -6.621  1.00  0.00     0.025 A 
ATOM     13  C   UNL     1     -21.891  26.870  -5.247  1.00  0.00     0.016 A 
ATOM     14  C   UNL     1     -20.919  26.034  -4.691  1.00  0.00     0.051 A 
ATOM     15  C   UNL     1     -19.913  25.486  -5.497  1.00  0.00     0.157 A 
ATOM     16  C   UNL     1     -20.858  26.620  -7.424  1.00  0.00     0.062 A 
ATOM     17  C   UNL     1     -19.881  25.785  -6.870  1.00  0.00     0.158 A 
BRANCH  15  18
ATOM     18  O   UNL     1     -18.946  24.650  -4.941  1.00  0.00    -0.504 OA
ATOM     19  H   UNL     1     -18.017  24.989  -4.718  1.00  0.00     0.293 HD
ENDBRANCH  15  18
BRANCH  17  20
ATOM     20  O   UNL     1     -18.885  25.267  -7.697  1.00  0.00    -0.504 OA
ATOM     21  H   UNL     1     -18.551  24.315  -7.606  1.00  0.00     0.293 HD
ENDBRANCH  17  20
ENDBRANCH   1  12
BRANCH   2  22
ATOM     22  O   UNL     1     -24.671  26.419  -6.875  1.00  0.00    -0.502 OA
ATOM     23  H   UNL     1     -24.576  25.580  -7.434  1.00  0.00     0.293 HD
ENDBRANCH   2  22
BRANCH   6  24
ATOM     24  O   UNL     1     -26.874  30.594  -9.343  1.00  0.00    -0.507 OA
ATOM     25  H   UNL     1     -27.390  31.171  -9.990  1.00  0.00     0.293 HD
ENDBRANCH   6  24
BRANCH   8  26
ATOM     26  O   UNL     1     -23.226  33.690  -9.226  1.00  0.00    -0.508 OA
ATOM     27  H   UNL     1     -23.730  34.525  -8.951  1.00  0.00     0.293 HD
ENDBRANCH   8  26
TORSDOF 6
ENDMDL
MODEL 3
REMARK VINA RESULT:    37.820      0.775      1.515
REMARK INTER + INTRA:          45.803
REMARK INTER:                  45.759
REMARK INTRA:                   0.044
REMARK UNBOUND:                 0.245
REMARK SMILES O=c1c(O)c(-c2ccc(O)c(O)c2)oc2cc(O)cc(O)c12
REMARK SMILES IDX 5 1 3 2 2 3 1 4 22 5 20 6 19 7 17 8 16 9 15 10 14 11 6 12
REMARK SMILES IDX 7 13 8 14 9 15 13 16 11 17 10 18 12 20 4 22 21 24 18 26
REMARK H PARENT 10 19 12 21 4 23 21 25 18 27
REMARK Flexibility Score: inf
ROOT
ATOM      1  C   UNL     1     -22.634  28.570  -7.355  1.00  0.00     0.180 A 
ATOM      2  C   UNL     1     -22.243  29.712  -8.076  1.00  0.00     0.208 A 
ATOM      3  C   UNL     1     -23.229  30.615  -8.508  1.00  0.00     0.238 A 
ATOM      4  O   UNL     1     -22.879  31.607  -9.199  1.00  0.00    -0.285 OA
ATOM      5  C   UNL     1     -24.590  30.373  -8.199  1.00  0.00     0.111 A 
ATOM      6  C   UNL     1     -25.666  31.241  -8.551  1.00  0.00     0.134 A 
ATOM      7  C   UNL     1     -26.986  30.838  -8.309  1.00  0.00     0.093 A 
ATOM      8  C   UNL     1     -27.264  29.630  -7.670  1.00  0.00     0.123 A 
ATOM      9  C   UNL     1     -26.216  28.801  -7.268  1.00  0.00     0.094 A 
ATOM     10  C   UNL     1     -24.891  29.159  -7.528  1.00  0.00     0.146 A 
ATOM     11  O   UNL     1     -23.924  28.338  -7.139  1.00  0.00    -0.452 OA
ENDROOT
BRANCH   1  12
ATOM     12  C   UNL     1     -21.652  27.587  -6.846  1.00  0.00     0.025 A 
ATOM     13  C   UNL     1     -20.688  27.057  -7.718  1.00  0.00     0.016 A 
ATOM     14  C   UNL     1     -19.764  26.113  -7.264  1.00  0.00     0.051 A 
ATOM     15  C   UNL     1     -19.800  25.672  -5.935  1.00  0.00     0.157 A 
ATOM     16  C   UNL     1     -21.697  27.127  -5.516  1.00  0.00     0.062 A 
ATOM     17  C   UNL     1     -20.774  26.179  -5.059  1.00  0.00     0.158 A 
BRANCH  15  18
ATOM     18  O   UNL     1     -18.875  24.731  -5.483  1.00  0.00    -0.504 OA
ATOM     19  H   UNL     1     -18.086  24.447  -6.052  1.00  0.00     0.293 HD
ENDBRANCH  15  18
BRANCH  17  20
ATOM     20  O   UNL     1     -20.846  25.750  -3.734  1.00  0.00    -0.504 OA
ATOM     21  H   UNL     1     -20.567  26.342  -2.961  1.00  0.00     0.293 HD
ENDBRANCH  17  20
ENDBRANCH   1  12
BRANCH   2  22
ATOM     22  O   UNL     1     -20.897  29.920  -8.389  1.00  0.00    -0.502 OA
ATOM     23  H   UNL     1     -20.449  29.478  -9.182  1.00  0.00     0.293 HD
ENDBRANCH   2  22
BRANCH   6  24
ATOM     24  O   UNL     1     -25.495  32.511  -9.110  1.00  0.00    -0.507 OA
ATOM     25  H   UNL     1     -25.831  33.369  -8.700  1.00  0.00     0.293 HD
ENDBRANCH   6  24
BRANCH   8  26
ATOM     26  O   UNL     1     -28.587  29.267  -7.431  1.00  0.00    -0.508 OA
ATOM     27  H   UNL     1     -29.360  29.777  -7.841  1.00  0.00     0.293 HD
ENDBRANCH   8  26
TORSDOF 6
ENDMDL
