MODEL 1
REMARK VINA RESULT:    12.303      0.000      0.000
REMARK INTER + INTRA:          21.135
REMARK INTER:                  17.338
REMARK INTRA:                   3.797
REMARK UNBOUND:                 3.797
REMARK SMILES CC1=CCC(=C(C)C)C(=O)CC(C)=CCC1
REMARK SMILES IDX 12 1 14 2 13 3 15 4 16 5 2 6 1 7 3 8 11 10 9 11 10 12 5 13
REMARK SMILES IDX 6 14 7 15 8 16 4 17
REMARK H PARENT
REMARK Flexibility Score: 60.00
ROOT
ATOM      1  C   UNL     1      75.174  23.823  13.280  1.00  0.00    -0.070 C 
ATOM      2  C   UNL     1      76.443  23.783  13.741  1.00  0.00    -0.027 C 
ATOM      3  C   UNL     1      74.132  24.496  14.139  1.00  0.00     0.039 C 
ENDROOT
BRANCH   2   4
ATOM      4  C   UNL     1      77.640  23.242  12.988  1.00  0.00     0.032 C 
BRANCH   4   5
ATOM      5  C   UNL     1      77.580  21.733  12.675  1.00  0.00     0.034 C 
BRANCH   5   6
ATOM      6  C   UNL     1      76.955  21.426  11.325  1.00  0.00    -0.077 C 
ATOM      7  C   UNL     1      76.383  20.048  11.115  1.00  0.00     0.039 C 
ATOM      8  C   UNL     1      76.817  22.330  10.323  1.00  0.00    -0.023 CG0
ATOM      9  G   UNL     1      77.329  23.757  10.303  1.00  0.00     0.000 G0
ENDBRANCH   5   6
ENDBRANCH   4   5
ENDBRANCH   2   4
BRANCH   1  10
ATOM     10  C   UNL     1      74.769  23.313  11.913  1.00  0.00     0.111 C 
BRANCH  10  11
ATOM     11  C   UNL     1      74.919  24.375  10.856  1.00  0.00     0.163 C 
ATOM     12  O   UNL     1      73.877  24.951  10.441  1.00  0.00    -0.294 OA
BRANCH  11  13
ATOM     13  C   UNL     1      76.251  24.806  10.336  1.00  0.00    -0.002 C 
ATOM     14  C   UNL     1      76.479  26.110   9.994  1.00  0.00    -0.069 C 
ATOM     15  C   UNL     1      77.857  26.610   9.617  1.00  0.00     0.039 C 
ATOM     16  C   UNL     1      75.357  27.125   9.979  1.00  0.00     0.039 C 
BRANCH  13  17
ATOM     17  C   UNL     1      77.354  23.761  10.298  1.00  0.00     0.066 CG0
ATOM     18  G   UNL     1      76.809  22.347  10.330  1.00  0.00     0.000 G0
ENDBRANCH  13  17
ENDBRANCH  11  13
ENDBRANCH  10  11
ENDBRANCH   1  10
TORSDOF 0
ENDMDL
MODEL 2
REMARK VINA RESULT:    13.265      1.825      3.780
REMARK INTER + INTRA:          22.490
REMARK INTER:                  17.539
REMARK INTRA:                   4.951
REMARK UNBOUND:                 3.797
REMARK SMILES CC1=CCC(=C(C)C)C(=O)CC(C)=CCC1
REMARK SMILES IDX 12 1 14 2 13 3 15 4 16 5 2 6 1 7 3 8 11 10 9 11 10 12 5 13
REMARK SMILES IDX 6 14 7 15 8 16 4 17
REMARK H PARENT
REMARK Flexibility Score: 60.00
ROOT
ATOM      1  C   UNL     1      77.096  21.358  11.209  1.00  0.00    -0.070 C 
ATOM      2  C   UNL     1      77.884  21.394  12.307  1.00  0.00    -0.027 C 
ATOM      3  C   UNL     1      76.104  20.228  11.091  1.00  0.00     0.039 C 
ENDROOT
BRANCH   2   4
ATOM      4  C   UNL     1      78.867  22.492  12.652  1.00  0.00     0.032 C 
BRANCH   4   5
ATOM      5  C   UNL     1      79.006  22.786  14.160  1.00  0.00     0.034 C 
BRANCH   5   6
ATOM      6  C   UNL     1      77.905  23.682  14.699  1.00  0.00    -0.077 C 
ATOM      7  C   UNL     1      78.243  24.592  15.853  1.00  0.00     0.039 C 
ATOM      8  C   UNL     1      76.660  23.768  14.168  1.00  0.00    -0.023 CG0
ATOM      9  G   UNL     1      76.094  22.944  13.028  1.00  0.00     0.000 G0
ENDBRANCH   5   6
ENDBRANCH   4   5
ENDBRANCH   2   4
BRANCH   1  10
ATOM     10  C   UNL     1      77.097  22.438  10.148  1.00  0.00     0.111 C 
BRANCH  10  11
ATOM     11  C   UNL     1      76.411  23.690  10.629  1.00  0.00     0.163 C 
ATOM     12  O   UNL     1      76.496  24.725   9.913  1.00  0.00    -0.294 OA
BRANCH  11  13
ATOM     13  C   UNL     1      75.591  23.726  11.875  1.00  0.00    -0.002 C 
ATOM     14  C   UNL     1      74.392  24.383  11.906  1.00  0.00    -0.069 C 
ATOM     15  C   UNL     1      73.466  24.306  13.100  1.00  0.00     0.039 C 
ATOM     16  C   UNL     1      73.929  25.224  10.736  1.00  0.00     0.039 C 
BRANCH  13  17
ATOM     17  C   UNL     1      76.099  22.927  13.066  1.00  0.00     0.066 CG0
ATOM     18  G   UNL     1      76.654  23.817  14.161  1.00  0.00     0.000 G0
ENDBRANCH  13  17
ENDBRANCH  11  13
ENDBRANCH  10  11
ENDBRANCH   1  10
TORSDOF 0
ENDMDL
MODEL 3
REMARK VINA RESULT:    13.391      1.932      4.539
REMARK INTER + INTRA:          22.669
REMARK INTER:                  21.345
REMARK INTRA:                   1.323
REMARK UNBOUND:                 3.797
REMARK SMILES CC1=CCC(=C(C)C)C(=O)CC(C)=CCC1
REMARK SMILES IDX 12 1 14 2 13 3 15 4 16 5 2 6 1 7 3 8 11 10 9 11 10 12 5 13
REMARK SMILES IDX 6 14 7 15 8 16 4 17
REMARK H PARENT
REMARK Flexibility Score: 60.00
ROOT
ATOM      1  C   UNL     1      76.131  24.760  10.240  1.00  0.00    -0.070 C 
ATOM      2  C   UNL     1      74.883  25.020  10.689  1.00  0.00    -0.027 C 
ATOM      3  C   UNL     1      77.042  25.931   9.971  1.00  0.00     0.039 C 
ENDROOT
BRANCH   2   4
ATOM      4  C   UNL     1      73.860  23.985  11.106  1.00  0.00     0.032 C 
BRANCH   4   5
ATOM      5  C   UNL     1      73.229  24.220  12.494  1.00  0.00     0.034 C 
BRANCH   5   6
ATOM      6  C   UNL     1      74.194  24.830  13.495  1.00  0.00    -0.077 C 
ATOM      7  C   UNL     1      73.917  26.234  13.971  1.00  0.00     0.039 C 
ATOM      8  C   UNL     1      75.248  24.173  14.039  1.00  0.00    -0.023 CG0
ATOM      9  G   UNL     1      75.726  22.775  13.701  1.00  0.00     0.000 G0
ENDBRANCH   5   6
ENDBRANCH   4   5
ENDBRANCH   2   4
BRANCH   1  10
ATOM     10  C   UNL     1      76.682  23.358  10.084  1.00  0.00     0.111 C 
BRANCH  10  11
ATOM     11  C   UNL     1      76.275  22.469  11.229  1.00  0.00     0.163 C 
ATOM     12  O   UNL     1      75.532  21.481  10.978  1.00  0.00    -0.294 OA
BRANCH  11  13
ATOM     13  C   UNL     1      76.766  22.681  12.623  1.00  0.00    -0.002 C 
ATOM     14  C   UNL     1      78.097  22.873  12.874  1.00  0.00    -0.069 C 
ATOM     15  C   UNL     1      78.607  23.247  14.248  1.00  0.00     0.039 C 
ATOM     16  C   UNL     1      79.130  22.721  11.779  1.00  0.00     0.039 C 
BRANCH  13  17
ATOM     17  C   UNL     1      75.721  22.769  13.724  1.00  0.00     0.066 CG0
ATOM     18  G   UNL     1      75.301  24.199  14.005  1.00  0.00     0.000 G0
ENDBRANCH  13  17
ENDBRANCH  11  13
ENDBRANCH  10  11
ENDBRANCH   1  10
TORSDOF 0
ENDMDL
MODEL 4
REMARK VINA RESULT:    13.606      2.310      3.253
REMARK INTER + INTRA:          22.971
REMARK INTER:                  22.070
REMARK INTRA:                   0.901
REMARK UNBOUND:                 3.797
REMARK SMILES CC1=CCC(=C(C)C)C(=O)CC(C)=CCC1
REMARK SMILES IDX 12 1 14 2 13 3 15 4 16 5 2 6 1 7 3 8 11 10 9 11 10 12 5 13
REMARK SMILES IDX 6 14 7 15 8 16 4 17
REMARK H PARENT
REMARK Flexibility Score: 60.00
ROOT
ATOM      1  C   UNL     1      78.301  22.866  13.682  1.00  0.00    -0.070 C 
ATOM      2  C   UNL     1      78.842  22.139  12.680  1.00  0.00    -0.027 C 
ATOM      3  C   UNL     1      78.603  22.449  15.099  1.00  0.00     0.039 C 
ENDROOT
BRANCH   2   4
ATOM      4  C   UNL     1      78.736  22.453  11.203  1.00  0.00     0.032 C 
BRANCH   4   5
ATOM      5  C   UNL     1      77.928  21.429  10.379  1.00  0.00     0.034 C 
BRANCH   5   6
ATOM      6  C   UNL     1      76.715  20.891  11.116  1.00  0.00    -0.077 C 
ATOM      7  C   UNL     1      76.712  19.431  11.492  1.00  0.00     0.039 C 
ATOM      8  C   UNL     1      75.666  21.651  11.518  1.00  0.00    -0.023 CG0
ATOM      9  G   UNL     1      75.445  23.125  11.239  1.00  0.00     0.000 G0
ENDBRANCH   5   6
ENDBRANCH   4   5
ENDBRANCH   2   4
BRANCH   1  10
ATOM     10  C   UNL     1      77.489  24.124  13.452  1.00  0.00     0.111 C 
BRANCH  10  11
ATOM     11  C   UNL     1      76.015  23.876  13.636  1.00  0.00     0.163 C 
ATOM     12  O   UNL     1      75.584  23.713  14.810  1.00  0.00    -0.294 OA
BRANCH  11  13
ATOM     13  C   UNL     1      75.053  23.881  12.495  1.00  0.00    -0.002 C 
ATOM     14  C   UNL     1      73.900  24.614  12.555  1.00  0.00    -0.069 C 
ATOM     15  C   UNL     1      72.985  24.768  11.360  1.00  0.00     0.039 C 
ATOM     16  C   UNL     1      73.483  25.316  13.830  1.00  0.00     0.039 C 
BRANCH  13  17
ATOM     17  C   UNL     1      75.456  23.120  11.242  1.00  0.00     0.066 CG0
ATOM     18  G   UNL     1      75.692  21.647  11.513  1.00  0.00     0.000 G0
ENDBRANCH  13  17
ENDBRANCH  11  13
ENDBRANCH  10  11
ENDBRANCH   1  10
TORSDOF 0
ENDMDL
MODEL 5
REMARK VINA RESULT:    13.869      1.983      4.649
REMARK INTER + INTRA:          23.343
REMARK INTER:                  22.335
REMARK INTRA:                   1.008
REMARK UNBOUND:                 3.797
REMARK SMILES CC1=CCC(=C(C)C)C(=O)CC(C)=CCC1
REMARK SMILES IDX 12 1 14 2 13 3 15 4 16 5 2 6 1 7 3 8 11 10 9 11 10 12 5 13
REMARK SMILES IDX 6 14 7 15 8 16 4 17
REMARK H PARENT
REMARK Flexibility Score: 60.00
ROOT
ATOM      1  C   UNL     1      77.100  22.902   9.464  1.00  0.00    -0.070 C 
ATOM      2  C   UNL     1      76.411  24.049   9.273  1.00  0.00    -0.027 C 
ATOM      3  C   UNL     1      77.201  21.940   8.307  1.00  0.00     0.039 C 
ENDROOT
BRANCH   2   4
ATOM      4  C   UNL     1      76.278  25.177  10.274  1.00  0.00     0.032 C 
BRANCH   4   5
ATOM      5  C   UNL     1      74.830  25.501  10.697  1.00  0.00     0.034 C 
BRANCH   5   6
ATOM      6  C   UNL     1      74.095  24.305  11.275  1.00  0.00    -0.077 C 
ATOM      7  C   UNL     1      72.893  23.792  10.523  1.00  0.00     0.039 C 
ATOM      8  C   UNL     1      74.486  23.628  12.382  1.00  0.00    -0.023 CG0
ATOM      9  G   UNL     1      75.643  23.970  13.301  1.00  0.00     0.000 G0
ENDBRANCH   5   6
ENDBRANCH   4   5
ENDBRANCH   2   4
BRANCH   1  10
ATOM     10  C   UNL     1      77.845  22.583  10.743  1.00  0.00     0.111 C 
BRANCH  10  11
ATOM     11  C   UNL     1      76.901  22.261  11.872  1.00  0.00     0.163 C 
ATOM     12  O   UNL     1      76.177  21.234  11.765  1.00  0.00    -0.294 OA
BRANCH  11  13
ATOM     13  C   UNL     1      76.841  23.073  13.123  1.00  0.00    -0.002 C 
ATOM     14  C   UNL     1      77.880  23.068  14.011  1.00  0.00    -0.069 C 
ATOM     15  C   UNL     1      77.920  23.997  15.204  1.00  0.00     0.039 C 
ATOM     16  C   UNL     1      79.052  22.125  13.840  1.00  0.00     0.039 C 
BRANCH  13  17
ATOM     17  C   UNL     1      75.627  23.970  13.313  1.00  0.00     0.066 CG0
ATOM     18  G   UNL     1      74.489  23.603  12.381  1.00  0.00     0.000 G0
ENDBRANCH  13  17
ENDBRANCH  11  13
ENDBRANCH  10  11
ENDBRANCH   1  10
TORSDOF 0
ENDMDL
MODEL 6
REMARK VINA RESULT:    14.028      1.810      3.886
REMARK INTER + INTRA:          23.567
REMARK INTER:                  22.416
REMARK INTRA:                   1.150
REMARK UNBOUND:                 3.797
REMARK SMILES CC1=CCC(=C(C)C)C(=O)CC(C)=CCC1
REMARK SMILES IDX 12 1 14 2 13 3 15 4 16 5 2 6 1 7 3 8 11 10 9 11 10 12 5 13
REMARK SMILES IDX 6 14 7 15 8 16 4 17
REMARK H PARENT
REMARK Flexibility Score: 60.00
ROOT
ATOM      1  C   UNL     1      74.818  24.265  11.327  1.00  0.00    -0.070 C 
ATOM      2  C   UNL     1      74.504  24.087  12.629  1.00  0.00    -0.027 C 
ATOM      3  C   UNL     1      73.685  24.431  10.345  1.00  0.00     0.039 C 
ENDROOT
BRANCH   2   4
ATOM      4  C   UNL     1      75.492  23.999  13.772  1.00  0.00     0.032 C 
BRANCH   4   5
ATOM      5  C   UNL     1      76.473  22.811  13.691  1.00  0.00     0.034 C 
BRANCH   5   6
ATOM      6  C   UNL     1      77.928  23.227  13.810  1.00  0.00    -0.077 C 
ATOM      7  C   UNL     1      78.338  23.998  15.039  1.00  0.00     0.039 C 
ATOM      8  C   UNL     1      78.894  22.892  12.920  1.00  0.00    -0.023 CG0
ATOM      9  G   UNL     1      78.714  22.144  11.614  1.00  0.00     0.000 G0
ENDBRANCH   5   6
ENDBRANCH   4   5
ENDBRANCH   2   4
BRANCH   1  10
ATOM     10  C   UNL     1      76.241  24.396  10.825  1.00  0.00     0.111 C 
BRANCH  10  11
ATOM     11  C   UNL     1      76.756  23.095  10.268  1.00  0.00     0.163 C 
ATOM     12  O   UNL     1      76.771  22.951   9.015  1.00  0.00    -0.294 OA
BRANCH  11  13
ATOM     13  C   UNL     1      77.300  22.010  11.137  1.00  0.00    -0.002 C 
ATOM     14  C   UNL     1      76.551  20.904  11.428  1.00  0.00    -0.069 C 
ATOM     15  C   UNL     1      77.127  19.719  12.172  1.00  0.00     0.039 C 
ATOM     16  C   UNL     1      75.098  20.811  11.015  1.00  0.00     0.039 C 
BRANCH  13  17
ATOM     17  C   UNL     1      78.743  22.147  11.598  1.00  0.00     0.066 CG0
ATOM     18  G   UNL     1      78.860  22.895  12.912  1.00  0.00     0.000 G0
ENDBRANCH  13  17
ENDBRANCH  11  13
ENDBRANCH  10  11
ENDBRANCH   1  10
TORSDOF 0
ENDMDL
MODEL 7
REMARK VINA RESULT:    14.181      2.036      3.990
REMARK INTER + INTRA:          23.781
REMARK INTER:                  22.649
REMARK INTRA:                   1.132
REMARK UNBOUND:                 3.797
REMARK SMILES CC1=CCC(=C(C)C)C(=O)CC(C)=CCC1
REMARK SMILES IDX 12 1 14 2 13 3 15 4 16 5 2 6 1 7 3 8 11 10 9 11 10 12 5 13
REMARK SMILES IDX 6 14 7 15 8 16 4 17
REMARK H PARENT
REMARK Flexibility Score: 60.00
ROOT
ATOM      1  C   UNL     1      78.355  22.878  13.703  1.00  0.00    -0.070 C 
ATOM      2  C   UNL     1      77.662  23.546  14.652  1.00  0.00    -0.027 C 
ATOM      3  C   UNL     1      79.240  21.740  14.146  1.00  0.00     0.039 C 
ENDROOT
BRANCH   2   4
ATOM      4  C   UNL     1      76.654  24.647  14.400  1.00  0.00     0.032 C 
BRANCH   4   5
ATOM      5  C   UNL     1      75.234  24.358  14.930  1.00  0.00     0.034 C 
BRANCH   5   6
ATOM      6  C   UNL     1      74.138  24.901  14.030  1.00  0.00    -0.077 C 
ATOM      7  C   UNL     1      73.386  26.121  14.500  1.00  0.00     0.039 C 
ATOM      8  C   UNL     1      73.839  24.405  12.805  1.00  0.00    -0.023 CG0
ATOM      9  G   UNL     1      74.445  23.185  12.140  1.00  0.00     0.000 G0
ENDBRANCH   5   6
ENDBRANCH   4   5
ENDBRANCH   2   4
BRANCH   1  10
ATOM     10  C   UNL     1      78.214  23.156  12.221  1.00  0.00     0.111 C 
BRANCH  10  11
ATOM     11  C   UNL     1      76.915  22.621  11.676  1.00  0.00     0.163 C 
ATOM     12  O   UNL     1      76.814  21.377  11.499  1.00  0.00    -0.294 OA
BRANCH  11  13
ATOM     13  C   UNL     1      75.739  23.499  11.403  1.00  0.00    -0.002 C 
ATOM     14  C   UNL     1      75.809  24.490  10.463  1.00  0.00    -0.069 C 
ATOM     15  C   UNL     1      74.593  25.291  10.051  1.00  0.00     0.039 C 
ATOM     16  C   UNL     1      77.116  24.835   9.783  1.00  0.00     0.039 C 
BRANCH  13  17
ATOM     17  C   UNL     1      74.448  23.181  12.140  1.00  0.00     0.066 CG0
ATOM     18  G   UNL     1      73.834  24.410  12.783  1.00  0.00     0.000 G0
ENDBRANCH  13  17
ENDBRANCH  11  13
ENDBRANCH  10  11
ENDBRANCH   1  10
TORSDOF 0
ENDMDL
MODEL 8
REMARK VINA RESULT:    14.334      2.103      4.139
REMARK INTER + INTRA:          23.997
REMARK INTER:                  20.358
REMARK INTRA:                   3.639
REMARK UNBOUND:                 3.797
REMARK SMILES CC1=CCC(=C(C)C)C(=O)CC(C)=CCC1
REMARK SMILES IDX 12 1 14 2 13 3 15 4 16 5 2 6 1 7 3 8 11 10 9 11 10 12 5 13
REMARK SMILES IDX 6 14 7 15 8 16 4 17
REMARK H PARENT
REMARK Flexibility Score: 60.00
ROOT
ATOM      1  C   UNL     1      77.869  23.467  14.428  1.00  0.00    -0.070 C 
ATOM      2  C   UNL     1      76.617  23.972  14.366  1.00  0.00    -0.027 C 
ATOM      3  C   UNL     1      78.859  24.146  15.340  1.00  0.00     0.039 C 
ENDROOT
BRANCH   2   4
ATOM      4  C   UNL     1      75.462  23.378  13.589  1.00  0.00     0.032 C 
BRANCH   4   5
ATOM      5  C   UNL     1      74.487  24.411  12.986  1.00  0.00     0.034 C 
BRANCH   5   6
ATOM      6  C   UNL     1      74.236  24.202  11.504  1.00  0.00    -0.077 C 
ATOM      7  C   UNL     1      72.814  24.300  11.013  1.00  0.00     0.039 C 
ATOM      8  C   UNL     1      75.212  24.003  10.583  1.00  0.00    -0.023 CG0
ATOM      9  G   UNL     1      76.697  23.851  10.845  1.00  0.00     0.000 G0
ENDBRANCH   5   6
ENDBRANCH   4   5
ENDBRANCH   2   4
BRANCH   1  10
ATOM     10  C   UNL     1      78.294  22.207  13.703  1.00  0.00     0.111 C 
BRANCH  10  11
ATOM     11  C   UNL     1      78.341  22.412  12.212  1.00  0.00     0.163 C 
ATOM     12  O   UNL     1      79.472  22.474  11.657  1.00  0.00    -0.294 OA
BRANCH  11  13
ATOM     13  C   UNL     1      77.108  22.481  11.373  1.00  0.00    -0.002 C 
ATOM     14  C   UNL     1      76.325  21.376  11.189  1.00  0.00    -0.069 C 
ATOM     15  C   UNL     1      74.990  21.448  10.479  1.00  0.00     0.039 C 
ATOM     16  C   UNL     1      76.758  20.016  11.691  1.00  0.00     0.039 C 
BRANCH  13  17
ATOM     17  C   UNL     1      76.717  23.843  10.821  1.00  0.00     0.066 CG0
ATOM     18  G   UNL     1      75.222  23.970  10.606  1.00  0.00     0.000 G0
ENDBRANCH  13  17
ENDBRANCH  11  13
ENDBRANCH  10  11
ENDBRANCH   1  10
TORSDOF 0
ENDMDL
MODEL 9
REMARK VINA RESULT:    14.458      1.540      3.475
REMARK INTER + INTRA:          24.172
REMARK INTER:                  21.833
REMARK INTRA:                   2.339
REMARK UNBOUND:                 3.797
REMARK SMILES CC1=CCC(=C(C)C)C(=O)CC(C)=CCC1
REMARK SMILES IDX 12 1 14 2 13 3 15 4 16 5 2 6 1 7 3 8 11 10 9 11 10 12 5 13
REMARK SMILES IDX 6 14 7 15 8 16 4 17
REMARK H PARENT
REMARK Flexibility Score: 60.00
ROOT
ATOM      1  C   UNL     1      75.989  25.236  10.046  1.00  0.00    -0.070 C 
ATOM      2  C   UNL     1      77.111  24.530  10.311  1.00  0.00    -0.027 C 
ATOM      3  C   UNL     1      76.102  26.739   9.979  1.00  0.00     0.039 C 
ENDROOT
BRANCH   2   4
ATOM      4  C   UNL     1      77.221  23.020  10.324  1.00  0.00     0.032 C 
BRANCH   4   5
ATOM      5  C   UNL     1      78.216  22.453  11.358  1.00  0.00     0.034 C 
BRANCH   5   6
ATOM      6  C   UNL     1      77.805  22.723  12.794  1.00  0.00    -0.077 C 
ATOM      7  C   UNL     1      78.900  22.874  13.820  1.00  0.00     0.039 C 
ATOM      8  C   UNL     1      76.525  22.907  13.202  1.00  0.00    -0.023 CG0
ATOM      9  G   UNL     1      75.271  22.785  12.358  1.00  0.00     0.000 G0
ENDBRANCH   5   6
ENDBRANCH   4   5
ENDBRANCH   2   4
BRANCH   1  10
ATOM     10  C   UNL     1      74.657  24.592   9.725  1.00  0.00     0.111 C 
BRANCH  10  11
ATOM     11  C   UNL     1      73.837  24.363  10.968  1.00  0.00     0.163 C 
ATOM     12  O   UNL     1      72.581  24.400  10.864  1.00  0.00    -0.294 OA
BRANCH  11  13
ATOM     13  C   UNL     1      74.454  24.034  12.286  1.00  0.00    -0.002 C 
ATOM     14  C   UNL     1      74.212  24.811  13.385  1.00  0.00    -0.069 C 
ATOM     15  C   UNL     1      74.691  24.419  14.765  1.00  0.00     0.039 C 
ATOM     16  C   UNL     1      73.445  26.111  13.272  1.00  0.00     0.039 C 
BRANCH  13  17
ATOM     17  C   UNL     1      75.276  22.757  12.371  1.00  0.00     0.066 CG0
ATOM     18  G   UNL     1      76.518  22.927  13.224  1.00  0.00     0.000 G0
ENDBRANCH  13  17
ENDBRANCH  11  13
ENDBRANCH  10  11
ENDBRANCH   1  10
TORSDOF 0
ENDMDL
