MODEL 1
REMARK VINA RESULT:    -6.731      0.000      0.000
REMARK INTER + INTRA:         -10.666
REMARK INTER:                  -9.092
REMARK INTRA:                  -1.574
REMARK UNBOUND:                -1.574
REMARK SMILES CC[C@@H](CC[C@H](C)[C@H]1CC[C@H]2[C@@H]3CC(=O)C4=CC(=O)CC[C@@]4(C)[C@H]3CC[C@]12C)C(C)C
REMARK SMILES IDX 4 1 3 2 2 3 1 4 29 5 30 6 31 7 5 8 6 9 7 10 8 11 9 12 27 13
REMARK SMILES IDX 10 14 11 15 26 16 28 17 12 18 25 19 24 20 13 21 22 22 14 23
REMARK SMILES IDX 16 24 21 25 23 26 15 27 17 28 20 29 18 30 19 31
REMARK H PARENT
REMARK Flexibility Score: inf
ROOT
ATOM      1  C   UNL     1      -4.328 -29.741 -18.510  1.00  0.00     0.004 C 
ENDROOT
BRANCH   1   2
ATOM      2  C   UNL     1      -4.814 -28.895 -19.722  1.00  0.00    -0.009 C 
BRANCH   2   3
ATOM      3  C   UNL     1      -6.305 -28.468 -19.523  1.00  0.00     0.000 C 
ATOM      4  C   UNL     1      -6.968 -29.213 -18.365  1.00  0.00     0.004 C 
ENDBRANCH   2   3
BRANCH   2   5
ATOM      5  C   UNL     1      -4.632 -29.636 -21.093  1.00  0.00    -0.014 C 
ATOM      6  C   UNL     1      -5.762 -29.259 -22.074  1.00  0.00     0.007 C 
ATOM      7  C   UNL     1      -3.284 -29.343 -21.777  1.00  0.00     0.007 C 
ENDBRANCH   2   5
ENDBRANCH   1   2
BRANCH   1   8
ATOM      8  C   UNL     1      -3.197 -29.054 -17.714  1.00  0.00     0.004 C 
BRANCH   8   9
ATOM      9  C   UNL     1      -2.171 -28.315 -18.614  1.00  0.00    -0.011 C 
ATOM     10  C   UNL     1      -0.850 -29.113 -18.681  1.00  0.00     0.008 C 
BRANCH   9  11
ATOM     11  C   UNL     1      -2.015 -26.822 -18.142  1.00  0.00    -0.002 C 
ATOM     12  C   UNL     1      -0.814 -26.019 -18.705  1.00  0.00     0.005 C 
ATOM     13  C   UNL     1      -3.232 -25.883 -18.346  1.00  0.00    -0.026 C 
ATOM     14  C   UNL     1      -1.241 -24.538 -18.685  1.00  0.00     0.005 C 
ATOM     15  C   UNL     1      -2.595 -24.538 -17.978  1.00  0.00    -0.001 C 
ATOM     16  C   UNL     1      -4.399 -26.122 -17.359  1.00  0.00     0.007 C 
ATOM     17  C   UNL     1      -3.740 -25.933 -19.821  1.00  0.00     0.012 C 
ATOM     18  C   UNL     1      -3.544 -23.333 -18.173  1.00  0.00     0.004 C 
ATOM     19  C   UNL     1      -5.438 -24.982 -17.444  1.00  0.00     0.005 C 
ATOM     20  C   UNL     1      -4.825 -23.547 -17.301  1.00  0.00     0.003 C 
ATOM     21  C   UNL     1      -2.833 -22.042 -17.717  1.00  0.00     0.085 C 
ATOM     22  C   UNL     1      -5.885 -22.368 -17.464  1.00  0.00    -0.000 C 
ATOM     23  C   UNL     1      -3.757 -20.868 -17.720  1.00  0.00     0.159 C 
ATOM     24  C   UNL     1      -5.213 -21.056 -17.901  1.00  0.00     0.005 C 
ATOM     25  C   UNL     1      -6.998 -22.714 -18.505  1.00  0.00     0.020 C 
ATOM     26  C   UNL     1      -6.541 -22.120 -16.080  1.00  0.00     0.017 C 
ATOM     27  O   UNL     1      -3.273 -19.712 -17.578  1.00  0.00    -0.295 OA
ATOM     28  C   UNL     1      -5.925 -20.065 -18.471  1.00  0.00     0.055 C 
ATOM     29  C   UNL     1      -8.006 -21.574 -18.729  1.00  0.00     0.081 C 
ATOM     30  C   UNL     1      -7.332 -20.244 -18.854  1.00  0.00     0.156 C 
ATOM     31  O   UNL     1      -7.984 -19.257 -19.290  1.00  0.00    -0.295 OA
ENDBRANCH   9  11
ENDBRANCH   8   9
ENDBRANCH   1   8
TORSDOF 6
ENDMDL
MODEL 2
REMARK VINA RESULT:    -6.439      2.966      7.591
REMARK INTER + INTRA:         -10.272
REMARK INTER:                  -8.407
REMARK INTRA:                  -1.865
REMARK UNBOUND:                -1.574
REMARK SMILES CC[C@@H](CC[C@H](C)[C@H]1CC[C@H]2[C@@H]3CC(=O)C4=CC(=O)CC[C@@]4(C)[C@H]3CC[C@]12C)C(C)C
REMARK SMILES IDX 4 1 3 2 2 3 1 4 29 5 30 6 31 7 5 8 6 9 7 10 8 11 9 12 27 13
REMARK SMILES IDX 10 14 11 15 26 16 28 17 12 18 25 19 24 20 13 21 22 22 14 23
REMARK SMILES IDX 16 24 21 25 23 26 15 27 17 28 20 29 18 30 19 31
REMARK H PARENT
REMARK Flexibility Score: inf
ROOT
ATOM      1  C   UNL     1      -7.705 -20.982 -18.144  1.00  0.00     0.004 C 
ENDROOT
BRANCH   1   2
ATOM      2  C   UNL     1      -6.471 -20.942 -19.091  1.00  0.00    -0.009 C 
BRANCH   2   3
ATOM      3  C   UNL     1      -5.258 -20.264 -18.372  1.00  0.00     0.000 C 
ATOM      4  C   UNL     1      -4.032 -21.175 -18.332  1.00  0.00     0.004 C 
ENDBRANCH   2   3
BRANCH   2   5
ATOM      5  C   UNL     1      -6.773 -20.226 -20.455  1.00  0.00    -0.014 C 
ATOM      6  C   UNL     1      -6.624 -21.209 -21.635  1.00  0.00     0.007 C 
ATOM      7  C   UNL     1      -8.178 -19.600 -20.523  1.00  0.00     0.007 C 
ENDBRANCH   2   5
ENDBRANCH   1   2
BRANCH   1   8
ATOM      8  C   UNL     1      -8.518 -22.288 -18.275  1.00  0.00     0.004 C 
BRANCH   8   9
ATOM      9  C   UNL     1      -8.164 -23.346 -17.196  1.00  0.00    -0.011 C 
ATOM     10  C   UNL     1      -8.736 -22.923 -15.825  1.00  0.00     0.008 C 
BRANCH   9  11
ATOM     11  C   UNL     1      -6.616 -23.629 -17.204  1.00  0.00    -0.002 C 
ATOM     12  C   UNL     1      -5.945 -23.964 -15.847  1.00  0.00     0.005 C 
ATOM     13  C   UNL     1      -6.101 -24.730 -18.167  1.00  0.00    -0.026 C 
ATOM     14  C   UNL     1      -4.713 -24.829 -16.179  1.00  0.00     0.005 C 
ATOM     15  C   UNL     1      -4.642 -24.828 -17.704  1.00  0.00    -0.001 C 
ATOM     16  C   UNL     1      -6.081 -24.321 -19.659  1.00  0.00     0.007 C 
ATOM     17  C   UNL     1      -6.891 -26.062 -17.972  1.00  0.00     0.012 C 
ATOM     18  C   UNL     1      -3.841 -25.940 -18.420  1.00  0.00     0.004 C 
ATOM     19  C   UNL     1      -5.305 -25.353 -20.506  1.00  0.00     0.005 C 
ATOM     20  C   UNL     1      -3.872 -25.679 -19.962  1.00  0.00     0.003 C 
ATOM     21  C   UNL     1      -2.378 -25.913 -17.932  1.00  0.00     0.085 C 
ATOM     22  C   UNL     1      -3.100 -26.799 -20.793  1.00  0.00    -0.000 C 
ATOM     23  C   UNL     1      -1.516 -26.851 -18.712  1.00  0.00     0.159 C 
ATOM     24  C   UNL     1      -2.022 -27.493 -19.944  1.00  0.00     0.005 C 
ATOM     25  C   UNL     1      -4.066 -27.896 -21.344  1.00  0.00     0.020 C 
ATOM     26  C   UNL     1      -2.386 -26.105 -21.982  1.00  0.00     0.017 C 
ATOM     27  O   UNL     1      -0.351 -27.096 -18.294  1.00  0.00    -0.295 OA
ATOM     28  C   UNL     1      -1.533 -28.700 -20.290  1.00  0.00     0.055 C 
ATOM     29  C   UNL     1      -3.346 -29.024 -22.102  1.00  0.00     0.081 C 
ATOM     30  C   UNL     1      -2.113 -29.484 -21.389  1.00  0.00     0.156 C 
ATOM     31  O   UNL     1      -1.559 -30.559 -21.741  1.00  0.00    -0.295 OA
ENDBRANCH   9  11
ENDBRANCH   8   9
ENDBRANCH   1   8
TORSDOF 6
ENDMDL
MODEL 3
REMARK VINA RESULT:    -6.435      3.004      7.331
REMARK INTER + INTRA:         -10.266
REMARK INTER:                  -8.965
REMARK INTRA:                  -1.302
REMARK UNBOUND:                -1.574
REMARK SMILES CC[C@@H](CC[C@H](C)[C@H]1CC[C@H]2[C@@H]3CC(=O)C4=CC(=O)CC[C@@]4(C)[C@H]3CC[C@]12C)C(C)C
REMARK SMILES IDX 4 1 3 2 2 3 1 4 29 5 30 6 31 7 5 8 6 9 7 10 8 11 9 12 27 13
REMARK SMILES IDX 10 14 11 15 26 16 28 17 12 18 25 19 24 20 13 21 22 22 14 23
REMARK SMILES IDX 16 24 21 25 23 26 15 27 17 28 20 29 18 30 19 31
REMARK H PARENT
REMARK Flexibility Score: inf
ROOT
ATOM      1  C   UNL     1      -6.288 -20.163 -18.425  1.00  0.00     0.004 C 
ENDROOT
BRANCH   1   2
ATOM      2  C   UNL     1      -7.369 -20.811 -19.337  1.00  0.00    -0.009 C 
BRANCH   2   3
ATOM      3  C   UNL     1      -8.385 -19.728 -19.827  1.00  0.00     0.000 C 
ATOM      4  C   UNL     1      -8.301 -19.500 -21.335  1.00  0.00     0.004 C 
ENDBRANCH   2   3
BRANCH   2   5
ATOM      5  C   UNL     1      -8.123 -21.998 -18.641  1.00  0.00    -0.014 C 
ATOM      6  C   UNL     1      -8.028 -21.883 -17.105  1.00  0.00     0.007 C 
ATOM      7  C   UNL     1      -9.611 -22.092 -19.026  1.00  0.00     0.007 C 
ENDBRANCH   2   5
ENDBRANCH   1   2
BRANCH   1   8
ATOM      8  C   UNL     1      -4.857 -20.330 -18.979  1.00  0.00     0.004 C 
BRANCH   8   9
ATOM      9  C   UNL     1      -3.805 -20.656 -17.886  1.00  0.00    -0.011 C 
ATOM     10  C   UNL     1      -2.798 -19.493 -17.751  1.00  0.00     0.008 C 
BRANCH   9  11
ATOM     11  C   UNL     1      -3.154 -22.061 -18.163  1.00  0.00    -0.002 C 
ATOM     12  C   UNL     1      -1.950 -22.476 -17.279  1.00  0.00     0.005 C 
ATOM     13  C   UNL     1      -4.092 -23.296 -18.135  1.00  0.00    -0.026 C 
ATOM     14  C   UNL     1      -1.953 -24.017 -17.245  1.00  0.00     0.005 C 
ATOM     15  C   UNL     1      -3.054 -24.421 -18.223  1.00  0.00    -0.001 C 
ATOM     16  C   UNL     1      -5.016 -23.428 -19.368  1.00  0.00     0.007 C 
ATOM     17  C   UNL     1      -4.926 -23.338 -16.816  1.00  0.00     0.012 C 
ATOM     18  C   UNL     1      -3.669 -25.836 -18.120  1.00  0.00     0.004 C 
ATOM     19  C   UNL     1      -5.707 -24.810 -19.397  1.00  0.00     0.005 C 
ATOM     20  C   UNL     1      -4.721 -26.020 -19.263  1.00  0.00     0.003 C 
ATOM     21  C   UNL     1      -2.556 -26.891 -18.282  1.00  0.00     0.085 C 
ATOM     22  C   UNL     1      -5.438 -27.442 -19.218  1.00  0.00    -0.000 C 
ATOM     23  C   UNL     1      -3.111 -28.276 -18.363  1.00  0.00     0.159 C 
ATOM     24  C   UNL     1      -4.565 -28.497 -18.519  1.00  0.00     0.005 C 
ATOM     25  C   UNL     1      -6.815 -27.385 -18.480  1.00  0.00     0.020 C 
ATOM     26  C   UNL     1      -5.663 -27.911 -20.679  1.00  0.00     0.017 C 
ATOM     27  O   UNL     1      -2.319 -29.254 -18.283  1.00  0.00    -0.295 OA
ATOM     28  C   UNL     1      -5.102 -29.627 -18.021  1.00  0.00     0.055 C 
ATOM     29  C   UNL     1      -7.509 -28.753 -18.367  1.00  0.00     0.081 C 
ATOM     30  C   UNL     1      -6.556 -29.836 -17.969  1.00  0.00     0.156 C 
ATOM     31  O   UNL     1      -7.007 -30.950 -17.589  1.00  0.00    -0.295 OA
ENDBRANCH   9  11
ENDBRANCH   8   9
ENDBRANCH   1   8
TORSDOF 6
ENDMDL
MODEL 4
REMARK VINA RESULT:    -6.354      1.544      4.435
REMARK INTER + INTRA:         -10.157
REMARK INTER:                  -8.507
REMARK INTRA:                  -1.650
REMARK UNBOUND:                -1.574
REMARK SMILES CC[C@@H](CC[C@H](C)[C@H]1CC[C@H]2[C@@H]3CC(=O)C4=CC(=O)CC[C@@]4(C)[C@H]3CC[C@]12C)C(C)C
REMARK SMILES IDX 4 1 3 2 2 3 1 4 29 5 30 6 31 7 5 8 6 9 7 10 8 11 9 12 27 13
REMARK SMILES IDX 10 14 11 15 26 16 28 17 12 18 25 19 24 20 13 21 22 22 14 23
REMARK SMILES IDX 16 24 21 25 23 26 15 27 17 28 20 29 18 30 19 31
REMARK H PARENT
REMARK Flexibility Score: inf
ROOT
ATOM      1  C   UNL     1      -4.662 -29.715 -19.031  1.00  0.00     0.004 C 
ENDROOT
BRANCH   1   2
ATOM      2  C   UNL     1      -3.367 -28.882 -19.254  1.00  0.00    -0.009 C 
BRANCH   2   3
ATOM      3  C   UNL     1      -2.446 -29.582 -20.307  1.00  0.00     0.000 C 
ATOM      4  C   UNL     1      -3.059 -29.567 -21.706  1.00  0.00     0.004 C 
ENDBRANCH   2   3
BRANCH   2   5
ATOM      5  C   UNL     1      -2.578 -28.614 -17.924  1.00  0.00    -0.014 C 
ATOM      6  C   UNL     1      -2.000 -27.184 -17.907  1.00  0.00     0.007 C 
ATOM      7  C   UNL     1      -3.429 -28.804 -16.655  1.00  0.00     0.007 C 
ENDBRANCH   2   5
ENDBRANCH   1   2
BRANCH   1   8
ATOM      8  C   UNL     1      -5.921 -29.032 -19.607  1.00  0.00     0.004 C 
BRANCH   8   9
ATOM      9  C   UNL     1      -6.914 -28.547 -18.518  1.00  0.00    -0.011 C 
ATOM     10  C   UNL     1      -8.098 -29.532 -18.399  1.00  0.00     0.008 C 
BRANCH   9  11
ATOM     11  C   UNL     1      -7.326 -27.053 -18.788  1.00  0.00    -0.002 C 
ATOM     12  C   UNL     1      -8.529 -26.490 -17.988  1.00  0.00     0.005 C 
ATOM     13  C   UNL     1      -6.224 -25.973 -18.631  1.00  0.00    -0.026 C 
ATOM     14  C   UNL     1      -8.304 -24.968 -17.888  1.00  0.00     0.005 C 
ATOM     15  C   UNL     1      -7.075 -24.704 -18.755  1.00  0.00    -0.001 C 
ATOM     16  C   UNL     1      -5.187 -25.943 -19.778  1.00  0.00     0.007 C 
ATOM     17  C   UNL     1      -5.511 -26.095 -17.247  1.00  0.00     0.012 C 
ATOM     18  C   UNL     1      -6.272 -23.400 -18.543  1.00  0.00     0.004 C 
ATOM     19  C   UNL     1      -4.302 -24.680 -19.692  1.00  0.00     0.005 C 
ATOM     20  C   UNL     1      -5.109 -23.341 -19.587  1.00  0.00     0.003 C 
ATOM     21  C   UNL     1      -7.201 -22.186 -18.751  1.00  0.00     0.085 C 
ATOM     22  C   UNL     1      -4.198 -22.044 -19.424  1.00  0.00    -0.000 C 
ATOM     23  C   UNL     1      -6.444 -20.898 -18.728  1.00  0.00     0.159 C 
ATOM     24  C   UNL     1      -4.965 -20.891 -18.754  1.00  0.00     0.005 C 
ATOM     25  C   UNL     1      -2.914 -22.327 -18.579  1.00  0.00     0.020 C 
ATOM     26  C   UNL     1      -3.781 -21.570 -20.840  1.00  0.00     0.017 C 
ATOM     27  O   UNL     1      -7.089 -19.816 -18.671  1.00  0.00    -0.295 OA
ATOM     28  C   UNL     1      -4.314 -19.869 -18.167  1.00  0.00     0.055 C 
ATOM     29  C   UNL     1      -2.040 -21.082 -18.352  1.00  0.00     0.081 C 
ATOM     30  C   UNL     1      -2.856 -19.881 -17.988  1.00  0.00     0.156 C 
ATOM     31  O   UNL     1      -2.282 -18.859 -17.526  1.00  0.00    -0.295 OA
ENDBRANCH   9  11
ENDBRANCH   8   9
ENDBRANCH   1   8
TORSDOF 6
ENDMDL
MODEL 5
REMARK VINA RESULT:    -6.201      3.369      7.722
REMARK INTER + INTRA:          -9.950
REMARK INTER:                  -8.184
REMARK INTRA:                  -1.766
REMARK UNBOUND:                -1.574
REMARK SMILES CC[C@@H](CC[C@H](C)[C@H]1CC[C@H]2[C@@H]3CC(=O)C4=CC(=O)CC[C@@]4(C)[C@H]3CC[C@]12C)C(C)C
REMARK SMILES IDX 4 1 3 2 2 3 1 4 29 5 30 6 31 7 5 8 6 9 7 10 8 11 9 12 27 13
REMARK SMILES IDX 10 14 11 15 26 16 28 17 12 18 25 19 24 20 13 21 22 22 14 23
REMARK SMILES IDX 16 24 21 25 23 26 15 27 17 28 20 29 18 30 19 31
REMARK H PARENT
REMARK Flexibility Score: inf
ROOT
ATOM      1  C   UNL     1      -2.163 -22.144 -17.515  1.00  0.00     0.004 C 
ENDROOT
BRANCH   1   2
ATOM      2  C   UNL     1      -1.200 -21.335 -18.430  1.00  0.00    -0.009 C 
BRANCH   2   3
ATOM      3  C   UNL     1      -1.371 -19.801 -18.176  1.00  0.00     0.000 C 
ATOM      4  C   UNL     1      -0.059 -19.038 -18.356  1.00  0.00     0.004 C 
ENDBRANCH   2   3
BRANCH   2   5
ATOM      5  C   UNL     1      -1.386 -21.664 -19.953  1.00  0.00    -0.014 C 
ATOM      6  C   UNL     1      -2.051 -23.044 -20.139  1.00  0.00     0.007 C 
ATOM      7  C   UNL     1      -2.226 -20.619 -20.711  1.00  0.00     0.007 C 
ENDBRANCH   2   5
ENDBRANCH   1   2
BRANCH   1   8
ATOM      8  C   UNL     1      -3.376 -21.316 -17.039  1.00  0.00     0.004 C 
BRANCH   8   9
ATOM      9  C   UNL     1      -4.558 -21.318 -18.045  1.00  0.00    -0.011 C 
ATOM     10  C   UNL     1      -5.000 -19.870 -18.352  1.00  0.00     0.008 C 
BRANCH   9  11
ATOM     11  C   UNL     1      -5.706 -22.261 -17.529  1.00  0.00    -0.002 C 
ATOM     12  C   UNL     1      -7.128 -21.654 -17.410  1.00  0.00     0.005 C 
ATOM     13  C   UNL     1      -5.923 -23.596 -18.286  1.00  0.00    -0.026 C 
ATOM     14  C   UNL     1      -8.112 -22.829 -17.573  1.00  0.00     0.005 C 
ATOM     15  C   UNL     1      -7.223 -24.070 -17.625  1.00  0.00    -0.001 C 
ATOM     16  C   UNL     1      -4.849 -24.674 -18.009  1.00  0.00     0.007 C 
ATOM     17  C   UNL     1      -6.074 -23.353 -19.821  1.00  0.00     0.012 C 
ATOM     18  C   UNL     1      -7.787 -25.373 -18.238  1.00  0.00     0.004 C 
ATOM     19  C   UNL     1      -5.282 -26.046 -18.571  1.00  0.00     0.005 C 
ATOM     20  C   UNL     1      -6.711 -26.501 -18.116  1.00  0.00     0.003 C 
ATOM     21  C   UNL     1      -9.053 -25.796 -17.465  1.00  0.00     0.085 C 
ATOM     22  C   UNL     1      -7.188 -27.881 -18.756  1.00  0.00    -0.000 C 
ATOM     23  C   UNL     1      -9.545 -27.138 -17.899  1.00  0.00     0.159 C 
ATOM     24  C   UNL     1      -8.721 -27.995 -18.778  1.00  0.00     0.005 C 
ATOM     25  C   UNL     1      -6.666 -28.065 -20.217  1.00  0.00     0.020 C 
ATOM     26  C   UNL     1      -6.644 -29.032 -17.871  1.00  0.00     0.017 C 
ATOM     27  O   UNL     1     -10.684 -27.522 -17.514  1.00  0.00    -0.295 OA
ATOM     28  C   UNL     1      -9.343 -28.858 -19.605  1.00  0.00     0.055 C 
ATOM     29  C   UNL     1      -7.156 -29.361 -20.886  1.00  0.00     0.081 C 
ATOM     30  C   UNL     1      -8.611 -29.607 -20.636  1.00  0.00     0.156 C 
ATOM     31  O   UNL     1      -9.218 -30.476 -21.316  1.00  0.00    -0.295 OA
ENDBRANCH   9  11
ENDBRANCH   8   9
ENDBRANCH   1   8
TORSDOF 6
ENDMDL
MODEL 6
REMARK VINA RESULT:    -6.184      3.381      6.597
REMARK INTER + INTRA:          -9.927
REMARK INTER:                  -8.185
REMARK INTRA:                  -1.742
REMARK UNBOUND:                -1.574
REMARK SMILES CC[C@@H](CC[C@H](C)[C@H]1CC[C@H]2[C@@H]3CC(=O)C4=CC(=O)CC[C@@]4(C)[C@H]3CC[C@]12C)C(C)C
REMARK SMILES IDX 4 1 3 2 2 3 1 4 29 5 30 6 31 7 5 8 6 9 7 10 8 11 9 12 27 13
REMARK SMILES IDX 10 14 11 15 26 16 28 17 12 18 25 19 24 20 13 21 22 22 14 23
REMARK SMILES IDX 16 24 21 25 23 26 15 27 17 28 20 29 18 30 19 31
REMARK H PARENT
REMARK Flexibility Score: inf
ROOT
ATOM      1  C   UNL     1      -1.567 -22.935 -18.190  1.00  0.00     0.004 C 
ENDROOT
BRANCH   1   2
ATOM      2  C   UNL     1      -2.503 -21.785 -18.664  1.00  0.00    -0.009 C 
BRANCH   2   3
ATOM      3  C   UNL     1      -1.664 -20.639 -19.319  1.00  0.00     0.000 C 
ATOM      4  C   UNL     1      -1.363 -19.511 -18.334  1.00  0.00     0.004 C 
ENDBRANCH   2   3
BRANCH   2   5
ATOM      5  C   UNL     1      -3.403 -21.218 -17.510  1.00  0.00    -0.014 C 
ATOM      6  C   UNL     1      -4.804 -20.847 -18.039  1.00  0.00     0.007 C 
ATOM      7  C   UNL     1      -3.576 -22.191 -16.329  1.00  0.00     0.007 C 
ENDBRANCH   2   5
ENDBRANCH   1   2
BRANCH   1   8
ATOM      8  C   UNL     1      -1.595 -24.157 -19.133  1.00  0.00     0.004 C 
BRANCH   8   9
ATOM      9  C   UNL     1      -1.832 -25.501 -18.394  1.00  0.00    -0.011 C 
ATOM     10  C   UNL     1      -0.547 -26.358 -18.421  1.00  0.00     0.008 C 
BRANCH   9  11
ATOM     11  C   UNL     1      -3.112 -26.215 -18.967  1.00  0.00    -0.002 C 
ATOM     12  C   UNL     1      -3.062 -27.758 -19.112  1.00  0.00     0.005 C 
ATOM     13  C   UNL     1      -4.459 -25.941 -18.250  1.00  0.00    -0.026 C 
ATOM     14  C   UNL     1      -4.521 -28.246 -19.007  1.00  0.00     0.005 C 
ATOM     15  C   UNL     1      -5.352 -26.966 -18.959  1.00  0.00    -0.001 C 
ATOM     16  C   UNL     1      -5.059 -24.543 -18.523  1.00  0.00     0.007 C 
ATOM     17  C   UNL     1      -4.340 -26.198 -16.714  1.00  0.00     0.012 C 
ATOM     18  C   UNL     1      -6.791 -27.024 -18.396  1.00  0.00     0.004 C 
ATOM     19  C   UNL     1      -6.513 -24.453 -18.008  1.00  0.00     0.005 C 
ATOM     20  C   UNL     1      -7.443 -25.607 -18.515  1.00  0.00     0.003 C 
ATOM     21  C   UNL     1      -7.621 -28.033 -19.215  1.00  0.00     0.085 C 
ATOM     22  C   UNL     1      -8.922 -25.558 -17.924  1.00  0.00    -0.000 C 
ATOM     23  C   UNL     1      -9.064 -28.008 -18.829  1.00  0.00     0.159 C 
ATOM     24  C   UNL     1      -9.590 -26.943 -17.948  1.00  0.00     0.005 C 
ATOM     25  C   UNL     1      -8.953 -25.030 -16.453  1.00  0.00     0.020 C 
ATOM     26  C   UNL     1      -9.764 -24.615 -18.822  1.00  0.00     0.017 C 
ATOM     27  O   UNL     1      -9.824 -28.919 -19.257  1.00  0.00    -0.295 OA
ATOM     28  C   UNL     1     -10.648 -27.220 -17.162  1.00  0.00     0.055 C 
ATOM     29  C   UNL     1     -10.360 -25.024 -15.832  1.00  0.00     0.081 C 
ATOM     30  C   UNL     1     -11.112 -26.283 -16.130  1.00  0.00     0.156 C 
ATOM     31  O   UNL     1     -12.165 -26.541 -15.489  1.00  0.00    -0.295 OA
ENDBRANCH   9  11
ENDBRANCH   8   9
ENDBRANCH   1   8
TORSDOF 6
ENDMDL
MODEL 7
REMARK VINA RESULT:    -6.162      3.234      7.241
REMARK INTER + INTRA:          -9.897
REMARK INTER:                  -7.557
REMARK INTRA:                  -2.340
REMARK UNBOUND:                -1.574
REMARK SMILES CC[C@@H](CC[C@H](C)[C@H]1CC[C@H]2[C@@H]3CC(=O)C4=CC(=O)CC[C@@]4(C)[C@H]3CC[C@]12C)C(C)C
REMARK SMILES IDX 4 1 3 2 2 3 1 4 29 5 30 6 31 7 5 8 6 9 7 10 8 11 9 12 27 13
REMARK SMILES IDX 10 14 11 15 26 16 28 17 12 18 25 19 24 20 13 21 22 22 14 23
REMARK SMILES IDX 16 24 21 25 23 26 15 27 17 28 20 29 18 30 19 31
REMARK H PARENT
REMARK Flexibility Score: inf
ROOT
ATOM      1  C   UNL     1      -1.296 -22.736 -18.973  1.00  0.00     0.004 C 
ENDROOT
BRANCH   1   2
ATOM      2  C   UNL     1      -1.366 -21.641 -17.870  1.00  0.00    -0.009 C 
BRANCH   2   3
ATOM      3  C   UNL     1      -2.459 -22.005 -16.812  1.00  0.00     0.000 C 
ATOM      4  C   UNL     1      -2.784 -23.498 -16.811  1.00  0.00     0.004 C 
ENDBRANCH   2   3
BRANCH   2   5
ATOM      5  C   UNL     1      -1.620 -20.206 -18.452  1.00  0.00    -0.014 C 
ATOM      6  C   UNL     1      -2.831 -19.541 -17.764  1.00  0.00     0.007 C 
ATOM      7  C   UNL     1      -0.410 -19.263 -18.314  1.00  0.00     0.007 C 
ENDBRANCH   2   5
ENDBRANCH   1   2
BRANCH   1   8
ATOM      8  C   UNL     1      -1.339 -22.152 -20.401  1.00  0.00     0.004 C 
BRANCH   8   9
ATOM      9  C   UNL     1      -2.725 -22.294 -21.086  1.00  0.00    -0.011 C 
ATOM     10  C   UNL     1      -3.063 -21.010 -21.874  1.00  0.00     0.008 C 
BRANCH   9  11
ATOM     11  C   UNL     1      -3.808 -22.722 -20.028  1.00  0.00    -0.002 C 
ATOM     12  C   UNL     1      -4.950 -21.716 -19.731  1.00  0.00     0.005 C 
ATOM     13  C   UNL     1      -4.538 -24.069 -20.265  1.00  0.00    -0.026 C 
ATOM     14  C   UNL     1      -6.156 -22.559 -19.270  1.00  0.00     0.005 C 
ATOM     15  C   UNL     1      -5.615 -23.984 -19.178  1.00  0.00    -0.001 C 
ATOM     16  C   UNL     1      -3.684 -25.323 -19.967  1.00  0.00     0.007 C 
ATOM     17  C   UNL     1      -5.133 -24.139 -21.707  1.00  0.00     0.012 C 
ATOM     18  C   UNL     1      -6.610 -25.168 -19.201  1.00  0.00     0.004 C 
ATOM     19  C   UNL     1      -4.556 -26.598 -19.958  1.00  0.00     0.005 C 
ATOM     20  C   UNL     1      -5.815 -26.505 -19.030  1.00  0.00     0.003 C 
ATOM     21  C   UNL     1      -7.608 -25.021 -18.034  1.00  0.00     0.085 C 
ATOM     22  C   UNL     1      -6.755 -27.791 -19.078  1.00  0.00    -0.000 C 
ATOM     23  C   UNL     1      -8.486 -26.222 -17.900  1.00  0.00     0.159 C 
ATOM     24  C   UNL     1      -8.198 -27.455 -18.664  1.00  0.00     0.005 C 
ATOM     25  C   UNL     1      -6.796 -28.439 -20.499  1.00  0.00     0.020 C 
ATOM     26  C   UNL     1      -6.204 -28.824 -18.062  1.00  0.00     0.017 C 
ATOM     27  O   UNL     1      -9.486 -26.162 -17.134  1.00  0.00    -0.295 OA
ATOM     28  C   UNL     1      -9.224 -28.260 -19.001  1.00  0.00     0.055 C 
ATOM     29  C   UNL     1      -7.740 -29.650 -20.595  1.00  0.00     0.081 C 
ATOM     30  C   UNL     1      -9.048 -29.399 -19.912  1.00  0.00     0.156 C 
ATOM     31  O   UNL     1     -10.014 -30.182 -20.117  1.00  0.00    -0.295 OA
ENDBRANCH   9  11
ENDBRANCH   8   9
ENDBRANCH   1   8
TORSDOF 6
ENDMDL
MODEL 8
REMARK VINA RESULT:    -6.156      3.250      7.453
REMARK INTER + INTRA:          -9.890
REMARK INTER:                  -8.117
REMARK INTRA:                  -1.773
REMARK UNBOUND:                -1.574
REMARK SMILES CC[C@@H](CC[C@H](C)[C@H]1CC[C@H]2[C@@H]3CC(=O)C4=CC(=O)CC[C@@]4(C)[C@H]3CC[C@]12C)C(C)C
REMARK SMILES IDX 4 1 3 2 2 3 1 4 29 5 30 6 31 7 5 8 6 9 7 10 8 11 9 12 27 13
REMARK SMILES IDX 10 14 11 15 26 16 28 17 12 18 25 19 24 20 13 21 22 22 14 23
REMARK SMILES IDX 16 24 21 25 23 26 15 27 17 28 20 29 18 30 19 31
REMARK H PARENT
REMARK Flexibility Score: inf
ROOT
ATOM      1  C   UNL     1      -8.253 -21.533 -18.544  1.00  0.00     0.004 C 
ENDROOT
BRANCH   1   2
ATOM      2  C   UNL     1      -8.369 -22.796 -17.644  1.00  0.00    -0.009 C 
BRANCH   2   3
ATOM      3  C   UNL     1      -9.582 -23.674 -18.096  1.00  0.00     0.000 C 
ATOM      4  C   UNL     1      -9.172 -25.119 -18.376  1.00  0.00     0.004 C 
ENDBRANCH   2   3
BRANCH   2   5
ATOM      5  C   UNL     1      -8.480 -22.448 -16.118  1.00  0.00    -0.014 C 
ATOM      6  C   UNL     1      -9.300 -23.519 -15.369  1.00  0.00     0.007 C 
ATOM      7  C   UNL     1      -7.115 -22.311 -15.417  1.00  0.00     0.007 C 
ENDBRANCH   2   5
ENDBRANCH   1   2
BRANCH   1   8
ATOM      8  C   UNL     1      -6.972 -21.527 -19.407  1.00  0.00     0.004 C 
BRANCH   8   9
ATOM      9  C   UNL     1      -5.664 -21.526 -18.571  1.00  0.00    -0.011 C 
ATOM     10  C   UNL     1      -5.106 -20.091 -18.455  1.00  0.00     0.008 C 
BRANCH   9  11
ATOM     11  C   UNL     1      -4.652 -22.582 -19.150  1.00  0.00    -0.002 C 
ATOM     12  C   UNL     1      -3.264 -22.062 -19.606  1.00  0.00     0.005 C 
ATOM     13  C   UNL     1      -4.327 -23.813 -18.265  1.00  0.00    -0.026 C 
ATOM     14  C   UNL     1      -2.292 -23.250 -19.461  1.00  0.00     0.005 C 
ATOM     15  C   UNL     1      -3.182 -24.430 -19.077  1.00  0.00    -0.001 C 
ATOM     16  C   UNL     1      -5.456 -24.868 -18.192  1.00  0.00     0.007 C 
ATOM     17  C   UNL     1      -3.889 -23.376 -16.832  1.00  0.00     0.012 C 
ATOM     18  C   UNL     1      -2.542 -25.665 -18.401  1.00  0.00     0.004 C 
ATOM     19  C   UNL     1      -4.955 -26.171 -17.531  1.00  0.00     0.005 C 
ATOM     20  C   UNL     1      -3.646 -26.748 -18.169  1.00  0.00     0.003 C 
ATOM     21  C   UNL     1      -1.450 -26.245 -19.323  1.00  0.00     0.085 C 
ATOM     22  C   UNL     1      -3.087 -28.051 -17.440  1.00  0.00    -0.000 C 
ATOM     23  C   UNL     1      -0.914 -27.539 -18.802  1.00  0.00     0.159 C 
ATOM     24  C   UNL     1      -1.579 -28.233 -17.678  1.00  0.00     0.005 C 
ATOM     25  C   UNL     1      -3.334 -28.016 -15.897  1.00  0.00     0.020 C 
ATOM     26  C   UNL     1      -3.810 -29.284 -18.044  1.00  0.00     0.017 C 
ATOM     27  O   UNL     1       0.125 -28.023 -19.330  1.00  0.00    -0.295 OA
ATOM     28  C   UNL     1      -0.834 -29.006 -16.866  1.00  0.00     0.055 C 
ATOM     29  C   UNL     1      -2.756 -29.232 -15.154  1.00  0.00     0.081 C 
ATOM     30  C   UNL     1      -1.378 -29.577 -15.626  1.00  0.00     0.156 C 
ATOM     31  O   UNL     1      -0.674 -30.375 -14.952  1.00  0.00    -0.295 OA
ENDBRANCH   9  11
ENDBRANCH   8   9
ENDBRANCH   1   8
TORSDOF 6
ENDMDL
MODEL 9
REMARK VINA RESULT:    -5.891     14.999     17.487
REMARK INTER + INTRA:          -9.531
REMARK INTER:                  -7.503
REMARK INTRA:                  -2.029
REMARK UNBOUND:                -1.574
REMARK SMILES CC[C@@H](CC[C@H](C)[C@H]1CC[C@H]2[C@@H]3CC(=O)C4=CC(=O)CC[C@@]4(C)[C@H]3CC[C@]12C)C(C)C
REMARK SMILES IDX 4 1 3 2 2 3 1 4 29 5 30 6 31 7 5 8 6 9 7 10 8 11 9 12 27 13
REMARK SMILES IDX 10 14 11 15 26 16 28 17 12 18 25 19 24 20 13 21 22 22 14 23
REMARK SMILES IDX 16 24 21 25 23 26 15 27 17 28 20 29 18 30 19 31
REMARK H PARENT
REMARK Flexibility Score: inf
ROOT
ATOM      1  C   UNL     1      -3.278 -32.612  -6.379  1.00  0.00     0.004 C 
ENDROOT
BRANCH   1   2
ATOM      2  C   UNL     1      -2.464 -33.211  -7.563  1.00  0.00    -0.009 C 
BRANCH   2   3
ATOM      3  C   UNL     1      -1.874 -32.066  -8.450  1.00  0.00     0.000 C 
ATOM      4  C   UNL     1      -2.952 -31.095  -8.929  1.00  0.00     0.004 C 
ENDBRANCH   2   3
BRANCH   2   5
ATOM      5  C   UNL     1      -3.305 -34.207  -8.437  1.00  0.00    -0.014 C 
ATOM      6  C   UNL     1      -2.881 -35.666  -8.167  1.00  0.00     0.007 C 
ATOM      7  C   UNL     1      -4.824 -34.096  -8.208  1.00  0.00     0.007 C 
ENDBRANCH   2   5
ENDBRANCH   1   2
BRANCH   1   8
ATOM      8  C   UNL     1      -2.554 -32.753  -5.023  1.00  0.00     0.004 C 
BRANCH   8   9
ATOM      9  C   UNL     1      -3.301 -33.671  -4.018  1.00  0.00    -0.011 C 
ATOM     10  C   UNL     1      -2.309 -34.653  -3.355  1.00  0.00     0.008 C 
BRANCH   9  11
ATOM     11  C   UNL     1      -4.532 -34.353  -4.721  1.00  0.00    -0.002 C 
ATOM     12  C   UNL     1      -4.495 -35.894  -4.886  1.00  0.00     0.005 C 
ATOM     13  C   UNL     1      -5.936 -34.066  -4.128  1.00  0.00    -0.026 C 
ATOM     14  C   UNL     1      -5.965 -36.357  -4.926  1.00  0.00     0.005 C 
ATOM     15  C   UNL     1      -6.775 -35.064  -4.936  1.00  0.00    -0.001 C 
ATOM     16  C   UNL     1      -6.485 -32.653  -4.433  1.00  0.00     0.007 C 
ATOM     17  C   UNL     1      -5.966 -34.348  -2.593  1.00  0.00     0.012 C 
ATOM     18  C   UNL     1      -8.261 -35.105  -4.511  1.00  0.00     0.004 C 
ATOM     19  C   UNL     1      -7.979 -32.545  -4.055  1.00  0.00     0.005 C 
ATOM     20  C   UNL     1      -8.876 -33.675  -4.667  1.00  0.00     0.003 C 
ATOM     21  C   UNL     1      -9.027 -36.086  -5.422  1.00  0.00     0.085 C 
ATOM     22  C   UNL     1     -10.404 -33.608  -4.216  1.00  0.00    -0.000 C 
ATOM     23  C   UNL     1     -10.499 -36.041  -5.172  1.00  0.00     0.159 C 
ATOM     24  C   UNL     1     -11.089 -34.980  -4.327  1.00  0.00     0.005 C 
ATOM     25  C   UNL     1     -10.564 -33.102  -2.746  1.00  0.00     0.020 C 
ATOM     26  C   UNL     1     -11.142 -32.636  -5.173  1.00  0.00     0.017 C 
ATOM     27  O   UNL     1     -11.230 -36.932  -5.684  1.00  0.00    -0.295 OA
ATOM     28  C   UNL     1     -12.220 -35.251  -3.648  1.00  0.00     0.055 C 
ATOM     29  C   UNL     1     -12.023 -33.080  -2.259  1.00  0.00     0.081 C 
ATOM     30  C   UNL     1     -12.764 -34.321  -2.648  1.00  0.00     0.156 C 
ATOM     31  O   UNL     1     -13.877 -34.570  -2.113  1.00  0.00    -0.295 OA
ENDBRANCH   9  11
ENDBRANCH   8   9
ENDBRANCH   1   8
TORSDOF 6
ENDMDL
