MODEL 1
REMARK VINA RESULT:    -1.106      0.000      0.000
REMARK INTER + INTRA:          -1.605
REMARK INTER:                  -1.267
REMARK INTRA:                  -0.337
REMARK UNBOUND:                -0.337
REMARK SMILES COc1ccc(C(C)=O)c(O)c1
REMARK SMILES IDX 6 1 10 2 12 3 3 4 4 5 5 6 7 7 8 8 9 9 11 10 2 12 1 13
REMARK H PARENT 11 11
REMARK Flexibility Score: inf
ROOT
ATOM      1  C   UNL     1      93.763  16.385 119.964  1.00  0.00     0.059 A 
ATOM      2  C   UNL     1      93.011  16.460 118.767  1.00  0.00     0.130 A 
ATOM      3  C   UNL     1      91.763  17.098 118.768  1.00  0.00     0.093 A 
ATOM      4  C   UNL     1      91.261  17.696 119.936  1.00  0.00     0.122 A 
ATOM      5  C   UNL     1      92.021  17.645 121.107  1.00  0.00     0.047 A 
ATOM      6  C   UNL     1      93.258  16.998 121.124  1.00  0.00     0.019 A 
ENDROOT
BRANCH   1   7
ATOM      7  C   UNL     1      95.048  15.649 120.039  1.00  0.00     0.163 C 
ATOM      8  C   UNL     1      96.250  16.257 120.693  1.00  0.00     0.093 C 
ATOM      9  O   UNL     1      95.118  14.462 119.623  1.00  0.00    -0.294 OA
ENDBRANCH   1   7
BRANCH   2  10
ATOM     10  O   UNL     1      93.478  15.944 117.556  1.00  0.00    -0.507 OA
ATOM     11  H   UNL     1      93.849  16.518 116.813  1.00  0.00     0.293 HD
ENDBRANCH   2  10
BRANCH   4  12
ATOM     12  O   UNL     1      90.020  18.350 119.976  1.00  0.00    -0.497 OA
ATOM     13  C   UNL     1      89.084  18.235 121.042  1.00  0.00     0.278 C 
ENDBRANCH   4  12
TORSDOF 3
ENDMDL
