MODEL 1
REMARK VINA RESULT:    -3.006      0.000      0.000
REMARK INTER + INTRA:          -3.270
REMARK INTER:                  -3.270
REMARK INTRA:                   0.000
REMARK UNBOUND:                 0.000
REMARK SMILES Cc1cc(O)c2c(c1)C(=O)c1cc(O)cc(O)c1C2=O
REMARK SMILES IDX 1 1 2 2 8 3 7 4 6 5 4 6 3 7 19 8 20 9 18 10 11 11 9 12 10 13
REMARK SMILES IDX 12 14 13 15 15 16 16 17 5 18 17 20 14 22
REMARK H PARENT 5 19 17 21 14 23
REMARK Flexibility Score: inf
ROOT
ATOM      1  C   UNL     1      14.771 -31.473  13.453  1.00  0.00     0.044 C 
ATOM      2  C   UNL     1      13.386 -31.617  14.016  1.00  0.00    -0.047 A 
ATOM      3  C   UNL     1      12.558 -32.659  13.587  1.00  0.00     0.016 A 
ATOM      4  C   UNL     1      11.250 -32.785  14.086  1.00  0.00     0.038 A 
ATOM      5  C   UNL     1      10.765 -31.853  15.030  1.00  0.00     0.076 A 
ATOM      6  C   UNL     1      11.580 -30.751  15.397  1.00  0.00     0.127 A 
ATOM      7  C   UNL     1      12.885 -30.658  14.902  1.00  0.00     0.050 A 
ATOM      8  C   UNL     1       9.436 -32.103  15.646  1.00  0.00     0.201 C 
ATOM      9  O   UNL     1       9.203 -31.702  16.817  1.00  0.00    -0.288 OA
ATOM     10  C   UNL     1       8.456 -32.982  14.955  1.00  0.00     0.076 A 
ATOM     11  C   UNL     1       8.945 -33.911  14.009  1.00  0.00     0.041 A 
ATOM     12  C   UNL     1      10.376 -33.888  13.622  1.00  0.00     0.194 C 
ATOM     13  O   UNL     1      10.842 -34.792  12.875  1.00  0.00    -0.289 OA
ATOM     14  C   UNL     1       8.071 -34.851  13.437  1.00  0.00     0.059 A 
ATOM     15  C   UNL     1       6.720 -34.866  13.783  1.00  0.00     0.120 A 
ATOM     16  C   UNL     1       6.224 -33.923  14.687  1.00  0.00     0.093 A 
ATOM     17  C   UNL     1       7.069 -32.964  15.254  1.00  0.00     0.131 A 
ENDROOT
BRANCH   6  18
ATOM     18  O   UNL     1      11.126 -29.714  16.214  1.00  0.00    -0.507 OA
ATOM     19  H   UNL     1      11.176 -28.738  15.957  1.00  0.00     0.293 HD
ENDBRANCH   6  18
BRANCH  17  20
ATOM     20  O   UNL     1       6.486 -31.998  16.078  1.00  0.00    -0.507 OA
ATOM     21  H   UNL     1       6.588 -31.003  15.931  1.00  0.00     0.293 HD
ENDBRANCH  17  20
BRANCH  15  22
ATOM     22  O   UNL     1       5.875 -35.815  13.212  1.00  0.00    -0.508 OA
ATOM     23  H   UNL     1       6.236 -36.571  12.642  1.00  0.00     0.293 HD
ENDBRANCH  15  22
TORSDOF 3
ENDMDL
MODEL 2
REMARK VINA RESULT:    -1.215      2.949      3.877
REMARK INTER + INTRA:          -1.322
REMARK INTER:                  -1.322
REMARK INTRA:                   0.000
REMARK UNBOUND:                 0.000
REMARK SMILES Cc1cc(O)c2c(c1)C(=O)c1cc(O)cc(O)c1C2=O
REMARK SMILES IDX 1 1 2 2 8 3 7 4 6 5 4 6 3 7 19 8 20 9 18 10 11 11 9 12 10 13
REMARK SMILES IDX 12 14 13 15 15 16 16 17 5 18 17 20 14 22
REMARK H PARENT 5 19 17 21 14 23
REMARK Flexibility Score: inf
ROOT
ATOM      1  C   UNL     1      10.370 -29.352  17.315  1.00  0.00     0.044 C 
ATOM      2  C   UNL     1       9.729 -30.707  17.414  1.00  0.00    -0.047 A 
ATOM      3  C   UNL     1       9.464 -31.444  16.254  1.00  0.00     0.016 A 
ATOM      4  C   UNL     1       8.839 -32.701  16.333  1.00  0.00     0.038 A 
ATOM      5  C   UNL     1       8.474 -33.226  17.592  1.00  0.00     0.076 A 
ATOM      6  C   UNL     1       8.669 -32.437  18.755  1.00  0.00     0.127 A 
ATOM      7  C   UNL     1       9.311 -31.198  18.654  1.00  0.00     0.050 A 
ATOM      8  C   UNL     1       7.953 -34.617  17.649  1.00  0.00     0.201 C 
ATOM      9  O   UNL     1       8.148 -35.317  18.678  1.00  0.00    -0.288 OA
ATOM     10  C   UNL     1       7.370 -35.236  16.430  1.00  0.00     0.076 A 
ATOM     11  C   UNL     1       7.736 -34.706  15.173  1.00  0.00     0.041 A 
ATOM     12  C   UNL     1       8.555 -33.473  15.101  1.00  0.00     0.194 C 
ATOM     13  O   UNL     1       8.988 -33.067  13.987  1.00  0.00    -0.289 OA
ATOM     14  C   UNL     1       7.317 -35.348  13.995  1.00  0.00     0.059 A 
ATOM     15  C   UNL     1       6.531 -36.499  14.055  1.00  0.00     0.120 A 
ATOM     16  C   UNL     1       6.133 -37.003  15.296  1.00  0.00     0.093 A 
ATOM     17  C   UNL     1       6.519 -36.371  16.482  1.00  0.00     0.131 A 
ENDROOT
BRANCH   6  18
ATOM     18  O   UNL     1       8.211 -32.824  20.016  1.00  0.00    -0.507 OA
ATOM     19  H   UNL     1       8.324 -33.756  20.389  1.00  0.00     0.293 HD
ENDBRANCH   6  18
BRANCH  17  20
ATOM     20  O   UNL     1       6.008 -36.879  17.679  1.00  0.00    -0.507 OA
ATOM     21  H   UNL     1       6.349 -36.608  18.591  1.00  0.00     0.293 HD
ENDBRANCH  17  20
BRANCH  15  22
ATOM     22  O   UNL     1       6.138 -37.125  12.875  1.00  0.00    -0.508 OA
ATOM     23  H   UNL     1       6.458 -36.799  11.970  1.00  0.00     0.293 HD
ENDBRANCH  15  22
TORSDOF 3
ENDMDL
MODEL 3
REMARK VINA RESULT:    -0.929      1.541      5.560
REMARK INTER + INTRA:          -1.011
REMARK INTER:                  -1.011
REMARK INTRA:                   0.000
REMARK UNBOUND:                 0.000
REMARK SMILES Cc1cc(O)c2c(c1)C(=O)c1cc(O)cc(O)c1C2=O
REMARK SMILES IDX 1 1 2 2 8 3 7 4 6 5 4 6 3 7 19 8 20 9 18 10 11 11 9 12 10 13
REMARK SMILES IDX 12 14 13 15 15 16 16 17 5 18 17 20 14 22
REMARK H PARENT 5 19 17 21 14 23
REMARK Flexibility Score: inf
ROOT
ATOM      1  C   UNL     1       5.904 -37.125  14.578  1.00  0.00     0.044 C 
ATOM      2  C   UNL     1       6.741 -35.879  14.546  1.00  0.00    -0.047 A 
ATOM      3  C   UNL     1       8.037 -35.916  14.019  1.00  0.00     0.016 A 
ATOM      4  C   UNL     1       8.839 -34.762  14.011  1.00  0.00     0.038 A 
ATOM      5  C   UNL     1       8.335 -33.552  14.538  1.00  0.00     0.076 A 
ATOM      6  C   UNL     1       7.053 -33.542  15.147  1.00  0.00     0.127 A 
ATOM      7  C   UNL     1       6.266 -34.698  15.125  1.00  0.00     0.050 A 
ATOM      8  C   UNL     1       9.153 -32.321  14.378  1.00  0.00     0.201 C 
ATOM      9  O   UNL     1       8.585 -31.200  14.284  1.00  0.00    -0.288 OA
ATOM     10  C   UNL     1      10.616 -32.433  14.142  1.00  0.00     0.076 A 
ATOM     11  C   UNL     1      11.116 -33.645  13.617  1.00  0.00     0.041 A 
ATOM     12  C   UNL     1      10.213 -34.810  13.458  1.00  0.00     0.194 C 
ATOM     13  O   UNL     1      10.623 -35.851  12.875  1.00  0.00    -0.289 OA
ATOM     14  C   UNL     1      12.469 -33.743  13.251  1.00  0.00     0.059 A 
ATOM     15  C   UNL     1      13.329 -32.657  13.415  1.00  0.00     0.120 A 
ATOM     16  C   UNL     1      12.848 -31.469  13.972  1.00  0.00     0.093 A 
ATOM     17  C   UNL     1      11.510 -31.353  14.363  1.00  0.00     0.131 A 
ENDROOT
BRANCH   6  18
ATOM     18  O   UNL     1       6.541 -32.426  15.812  1.00  0.00    -0.507 OA
ATOM     19  H   UNL     1       5.991 -31.710  15.358  1.00  0.00     0.293 HD
ENDBRANCH   6  18
BRANCH  17  20
ATOM     20  O   UNL     1      11.124 -30.169  14.995  1.00  0.00    -0.507 OA
ATOM     21  H   UNL     1      10.946 -30.098  15.987  1.00  0.00     0.293 HD
ENDBRANCH  17  20
BRANCH  15  22
ATOM     22  O   UNL     1      14.663 -32.773  13.035  1.00  0.00    -0.508 OA
ATOM     23  H   UNL     1      15.058 -32.196  12.301  1.00  0.00     0.293 HD
ENDBRANCH  15  22
TORSDOF 3
ENDMDL
MODEL 4
REMARK VINA RESULT:    -0.566      3.004      5.734
REMARK INTER + INTRA:          -0.616
REMARK INTER:                  -0.616
REMARK INTRA:                   0.000
REMARK UNBOUND:                 0.000
REMARK SMILES Cc1cc(O)c2c(c1)C(=O)c1cc(O)cc(O)c1C2=O
REMARK SMILES IDX 1 1 2 2 8 3 7 4 6 5 4 6 3 7 19 8 20 9 18 10 11 11 9 12 10 13
REMARK SMILES IDX 12 14 13 15 15 16 16 17 5 18 17 20 14 22
REMARK H PARENT 5 19 17 21 14 23
REMARK Flexibility Score: inf
ROOT
ATOM      1  C   UNL     1       6.038 -36.210  13.136  1.00  0.00     0.044 C 
ATOM      2  C   UNL     1       6.831 -35.118  13.794  1.00  0.00    -0.047 A 
ATOM      3  C   UNL     1       7.082 -35.162  15.169  1.00  0.00     0.016 A 
ATOM      4  C   UNL     1       7.799 -34.131  15.800  1.00  0.00     0.038 A 
ATOM      5  C   UNL     1       8.272 -33.038  15.040  1.00  0.00     0.076 A 
ATOM      6  C   UNL     1       7.942 -32.957  13.663  1.00  0.00     0.127 A 
ATOM      7  C   UNL     1       7.244 -34.006  13.053  1.00  0.00     0.050 A 
ATOM      8  C   UNL     1       9.151 -32.044  15.710  1.00  0.00     0.201 C 
ATOM      9  O   UNL     1      10.025 -31.430  15.042  1.00  0.00    -0.288 OA
ATOM     10  C   UNL     1       9.124 -31.916  17.190  1.00  0.00     0.076 A 
ATOM     11  C   UNL     1       8.648 -33.010  17.947  1.00  0.00     0.041 A 
ATOM     12  C   UNL     1       8.055 -34.181  17.258  1.00  0.00     0.194 C 
ATOM     13  O   UNL     1       7.744 -35.211  17.919  1.00  0.00    -0.289 OA
ATOM     14  C   UNL     1       8.735 -32.981  19.349  1.00  0.00     0.059 A 
ATOM     15  C   UNL     1       9.275 -31.875  20.004  1.00  0.00     0.120 A 
ATOM     16  C   UNL     1       9.709 -30.773  19.262  1.00  0.00     0.093 A 
ATOM     17  C   UNL     1       9.615 -30.769  17.867  1.00  0.00     0.131 A 
ENDROOT
BRANCH   6  18
ATOM     18  O   UNL     1       8.251 -31.846  12.875  1.00  0.00    -0.507 OA
ATOM     19  H   UNL     1       8.721 -31.025  13.230  1.00  0.00     0.293 HD
ENDBRANCH   6  18
BRANCH  17  20
ATOM     20  O   UNL     1       9.984 -29.598  17.200  1.00  0.00    -0.507 OA
ATOM     21  H   UNL     1       9.556 -29.287  16.339  1.00  0.00     0.293 HD
ENDBRANCH  17  20
BRANCH  15  22
ATOM     22  O   UNL     1       9.362 -31.874  21.394  1.00  0.00    -0.508 OA
ATOM     23  H   UNL     1       8.923 -31.151  21.952  1.00  0.00     0.293 HD
ENDBRANCH  15  22
TORSDOF 3
ENDMDL
