MODEL 1
REMARK VINA RESULT:    -5.384      0.000      0.000
REMARK INTER + INTRA:          -6.330
REMARK INTER:                  -6.329
REMARK INTRA:                  -0.002
REMARK UNBOUND:                -0.002
REMARK SMILES COc1cc2ccc(=O)oc2c(OC)c1OC
REMARK SMILES IDX 3 1 15 2 12 3 11 4 5 5 4 6 6 7 7 8 8 9 9 10 10 11 2 12 1 13
REMARK SMILES IDX 16 14 17 15 13 16 14 17
REMARK H PARENT
REMARK Flexibility Score: inf
ROOT
ATOM      1  C   UNL     1     -16.299 -10.805 -15.561  1.00  0.00     0.165 A 
ATOM      2  C   UNL     1     -15.613 -10.027 -14.613  1.00  0.00     0.207 A 
ATOM      3  C   UNL     1     -14.410  -9.373 -14.968  1.00  0.00     0.208 A 
ATOM      4  C   UNL     1     -13.958  -9.424 -16.292  1.00  0.00     0.184 A 
ATOM      5  C   UNL     1     -14.665 -10.178 -17.251  1.00  0.00     0.025 A 
ATOM      6  C   UNL     1     -15.819 -10.878 -16.881  1.00  0.00     0.062 A 
ATOM      7  C   UNL     1     -14.177 -10.217 -18.562  1.00  0.00     0.020 A 
ATOM      8  C   UNL     1     -13.017  -9.514 -18.882  1.00  0.00     0.094 A 
ATOM      9  C   UNL     1     -12.367  -8.789 -17.880  1.00  0.00     0.336 A 
ATOM     10  O   UNL     1     -11.316  -8.150 -18.147  1.00  0.00    -0.246 OA
ATOM     11  O   UNL     1     -12.850  -8.771 -16.641  1.00  0.00    -0.419 OA
ENDROOT
BRANCH   1  12
ATOM     12  O   UNL     1     -17.464 -11.473 -15.153  1.00  0.00    -0.493 OA
ATOM     13  C   UNL     1     -18.736 -10.854 -14.993  1.00  0.00     0.278 C 
ENDBRANCH   1  12
BRANCH   2  14
ATOM     14  O   UNL     1     -16.158  -9.909 -13.331  1.00  0.00    -0.490 OA
ATOM     15  C   UNL     1     -15.949 -10.890 -12.322  1.00  0.00     0.278 C 
ENDBRANCH   2  14
BRANCH   3  16
ATOM     16  O   UNL     1     -13.643  -8.680 -14.026  1.00  0.00    -0.490 OA
ATOM     17  C   UNL     1     -13.781  -7.279 -13.810  1.00  0.00     0.278 C 
ENDBRANCH   3  16
TORSDOF 3
ENDMDL
MODEL 2
REMARK VINA RESULT:    -4.879      1.485      4.716
REMARK INTER + INTRA:          -5.736
REMARK INTER:                  -5.449
REMARK INTRA:                  -0.287
REMARK UNBOUND:                -0.002
REMARK SMILES COc1cc2ccc(=O)oc2c(OC)c1OC
REMARK SMILES IDX 3 1 15 2 12 3 11 4 5 5 4 6 6 7 7 8 8 9 9 10 10 11 2 12 1 13
REMARK SMILES IDX 16 14 17 15 13 16 14 17
REMARK H PARENT
REMARK Flexibility Score: inf
ROOT
ATOM      1  C   UNL     1     -13.137 -10.084 -17.705  1.00  0.00     0.165 A 
ATOM      2  C   UNL     1     -12.918  -9.606 -16.402  1.00  0.00     0.207 A 
ATOM      3  C   UNL     1     -13.965  -9.630 -15.452  1.00  0.00     0.208 A 
ATOM      4  C   UNL     1     -15.190 -10.219 -15.784  1.00  0.00     0.184 A 
ATOM      5  C   UNL     1     -15.400 -10.728 -17.083  1.00  0.00     0.025 A 
ATOM      6  C   UNL     1     -14.383 -10.644 -18.041  1.00  0.00     0.062 A 
ATOM      7  C   UNL     1     -16.641 -11.300 -17.384  1.00  0.00     0.020 A 
ATOM      8  C   UNL     1     -17.628 -11.351 -16.402  1.00  0.00     0.094 A 
ATOM      9  C   UNL     1     -17.352 -10.825 -15.138  1.00  0.00     0.336 A 
ATOM     10  O   UNL     1     -18.231 -10.858 -14.236  1.00  0.00    -0.246 OA
ATOM     11  O   UNL     1     -16.164 -10.285 -14.877  1.00  0.00    -0.419 OA
ENDROOT
BRANCH   1  12
ATOM     12  O   UNL     1     -12.084 -10.000 -18.629  1.00  0.00    -0.493 OA
ATOM     13  C   UNL     1     -11.290 -11.103 -19.051  1.00  0.00     0.278 C 
ENDBRANCH   1  12
BRANCH   2  14
ATOM     14  O   UNL     1     -11.645  -9.130 -16.075  1.00  0.00    -0.490 OA
ATOM     15  C   UNL     1     -10.677  -9.937 -15.413  1.00  0.00     0.278 C 
ENDBRANCH   2  14
BRANCH   3  16
ATOM     16  O   UNL     1     -13.819  -9.066 -14.180  1.00  0.00    -0.490 OA
ATOM     17  C   UNL     1     -13.890  -7.662 -13.954  1.00  0.00     0.278 C 
ENDBRANCH   3  16
TORSDOF 3
ENDMDL
MODEL 3
REMARK VINA RESULT:    -4.690      3.048      5.048
REMARK INTER + INTRA:          -5.514
REMARK INTER:                  -5.248
REMARK INTRA:                  -0.266
REMARK UNBOUND:                -0.002
REMARK SMILES COc1cc2ccc(=O)oc2c(OC)c1OC
REMARK SMILES IDX 3 1 15 2 12 3 11 4 5 5 4 6 6 7 7 8 8 9 9 10 10 11 2 12 1 13
REMARK SMILES IDX 16 14 17 15 13 16 14 17
REMARK H PARENT
REMARK Flexibility Score: inf
ROOT
ATOM      1  C   UNL     1     -13.026  -9.139 -15.823  1.00  0.00     0.165 A 
ATOM      2  C   UNL     1     -12.378  -8.711 -16.993  1.00  0.00     0.207 A 
ATOM      3  C   UNL     1     -11.222  -9.384 -17.451  1.00  0.00     0.208 A 
ATOM      4  C   UNL     1     -10.783 -10.537 -16.790  1.00  0.00     0.184 A 
ATOM      5  C   UNL     1     -11.453 -10.986 -15.633  1.00  0.00     0.025 A 
ATOM      6  C   UNL     1     -12.558 -10.280 -15.145  1.00  0.00     0.062 A 
ATOM      7  C   UNL     1     -10.980 -12.136 -14.991  1.00  0.00     0.020 A 
ATOM      8  C   UNL     1      -9.869 -12.800 -15.507  1.00  0.00     0.094 A 
ATOM      9  C   UNL     1      -9.252 -12.297 -16.655  1.00  0.00     0.336 A 
ATOM     10  O   UNL     1      -8.245 -12.880 -17.136  1.00  0.00    -0.246 OA
ATOM     11  O   UNL     1      -9.721 -11.201 -17.246  1.00  0.00    -0.419 OA
ENDROOT
BRANCH   1  12
ATOM     12  O   UNL     1     -14.143  -8.414 -15.379  1.00  0.00    -0.493 OA
ATOM     13  C   UNL     1     -14.122  -7.472 -14.312  1.00  0.00     0.278 C 
ENDBRANCH   1  12
BRANCH   2  14
ATOM     14  O   UNL     1     -12.914  -7.623 -17.689  1.00  0.00    -0.490 OA
ATOM     15  C   UNL     1     -13.794  -7.787 -18.795  1.00  0.00     0.278 C 
ENDBRANCH   2  14
BRANCH   3  16
ATOM     16  O   UNL     1     -10.487  -8.923 -18.549  1.00  0.00    -0.490 OA
ATOM     17  C   UNL     1      -9.498  -7.905 -18.433  1.00  0.00     0.278 C 
ENDBRANCH   3  16
TORSDOF 3
ENDMDL
MODEL 4
REMARK VINA RESULT:    -4.669      2.234      5.800
REMARK INTER + INTRA:          -5.490
REMARK INTER:                  -5.238
REMARK INTRA:                  -0.252
REMARK UNBOUND:                -0.002
REMARK SMILES COc1cc2ccc(=O)oc2c(OC)c1OC
REMARK SMILES IDX 3 1 15 2 12 3 11 4 5 5 4 6 6 7 7 8 8 9 9 10 10 11 2 12 1 13
REMARK SMILES IDX 16 14 17 15 13 16 14 17
REMARK H PARENT
REMARK Flexibility Score: inf
ROOT
ATOM      1  C   UNL     1     -11.590  -8.416 -17.995  1.00  0.00     0.165 A 
ATOM      2  C   UNL     1     -11.372  -9.748 -17.606  1.00  0.00     0.207 A 
ATOM      3  C   UNL     1     -12.099 -10.299 -16.525  1.00  0.00     0.208 A 
ATOM      4  C   UNL     1     -13.103  -9.544 -15.908  1.00  0.00     0.184 A 
ATOM      5  C   UNL     1     -13.343  -8.217 -16.320  1.00  0.00     0.025 A 
ATOM      6  C   UNL     1     -12.578  -7.653 -17.347  1.00  0.00     0.062 A 
ATOM      7  C   UNL     1     -14.347  -7.488 -15.672  1.00  0.00     0.020 A 
ATOM      8  C   UNL     1     -15.076  -8.087 -14.646  1.00  0.00     0.094 A 
ATOM      9  C   UNL     1     -14.781  -9.405 -14.288  1.00  0.00     0.336 A 
ATOM     10  O   UNL     1     -15.425  -9.965 -13.363  1.00  0.00    -0.246 OA
ATOM     11  O   UNL     1     -13.821 -10.076 -14.919  1.00  0.00    -0.419 OA
ENDROOT
BRANCH   1  12
ATOM     12  O   UNL     1     -10.815  -7.895 -19.044  1.00  0.00    -0.493 OA
ATOM     13  C   UNL     1      -9.833  -6.875 -18.893  1.00  0.00     0.278 C 
ENDBRANCH   1  12
BRANCH   2  14
ATOM     14  O   UNL     1     -10.441 -10.505 -18.322  1.00  0.00    -0.490 OA
ATOM     15  C   UNL     1      -9.064 -10.552 -17.966  1.00  0.00     0.278 C 
ENDBRANCH   2  14
BRANCH   3  16
ATOM     16  O   UNL     1     -11.835 -11.584 -16.039  1.00  0.00    -0.490 OA
ATOM     17  C   UNL     1     -10.880 -11.831 -15.011  1.00  0.00     0.278 C 
ENDBRANCH   3  16
TORSDOF 3
ENDMDL
MODEL 5
REMARK VINA RESULT:    -4.631      1.855      3.444
REMARK INTER + INTRA:          -5.445
REMARK INTER:                  -5.244
REMARK INTRA:                  -0.201
REMARK UNBOUND:                -0.002
REMARK SMILES COc1cc2ccc(=O)oc2c(OC)c1OC
REMARK SMILES IDX 3 1 15 2 12 3 11 4 5 5 4 6 6 7 7 8 8 9 9 10 10 11 2 12 1 13
REMARK SMILES IDX 16 14 17 15 13 16 14 17
REMARK H PARENT
REMARK Flexibility Score: inf
ROOT
ATOM      1  C   UNL     1     -14.866  -9.920 -14.682  1.00  0.00     0.165 A 
ATOM      2  C   UNL     1     -15.240 -10.116 -16.023  1.00  0.00     0.207 A 
ATOM      3  C   UNL     1     -14.256 -10.145 -17.037  1.00  0.00     0.208 A 
ATOM      4  C   UNL     1     -12.901 -10.075 -16.691  1.00  0.00     0.184 A 
ATOM      5  C   UNL     1     -12.524  -9.910 -15.342  1.00  0.00     0.025 A 
ATOM      6  C   UNL     1     -13.504  -9.816 -14.347  1.00  0.00     0.062 A 
ATOM      7  C   UNL     1     -11.161  -9.832 -15.034  1.00  0.00     0.020 A 
ATOM      8  C   UNL     1     -10.221  -9.918 -16.059  1.00  0.00     0.094 A 
ATOM      9  C   UNL     1     -10.667 -10.078 -17.374  1.00  0.00     0.336 A 
ATOM     10  O   UNL     1      -9.834 -10.156 -18.315  1.00  0.00    -0.246 OA
ATOM     11  O   UNL     1     -11.968 -10.148 -17.640  1.00  0.00    -0.419 OA
ENDROOT
BRANCH   1  12
ATOM     12  O   UNL     1     -15.880  -9.852 -13.713  1.00  0.00    -0.493 OA
ATOM     13  C   UNL     1     -16.144 -10.867 -12.750  1.00  0.00     0.278 C 
ENDBRANCH   1  12
BRANCH   2  14
ATOM     14  O   UNL     1     -16.595 -10.296 -16.314  1.00  0.00    -0.490 OA
ATOM     15  C   UNL     1     -17.181 -11.587 -16.441  1.00  0.00     0.278 C 
ENDBRANCH   2  14
BRANCH   3  16
ATOM     16  O   UNL     1     -14.595 -10.230 -18.392  1.00  0.00    -0.490 OA
ATOM     17  C   UNL     1     -14.516 -11.449 -19.124  1.00  0.00     0.278 C 
ENDBRANCH   3  16
TORSDOF 3
ENDMDL
MODEL 6
REMARK VINA RESULT:    -4.574      3.517      5.921
REMARK INTER + INTRA:          -5.378
REMARK INTER:                  -5.127
REMARK INTRA:                  -0.250
REMARK UNBOUND:                -0.002
REMARK SMILES COc1cc2ccc(=O)oc2c(OC)c1OC
REMARK SMILES IDX 3 1 15 2 12 3 11 4 5 5 4 6 6 7 7 8 8 9 9 10 10 11 2 12 1 13
REMARK SMILES IDX 16 14 17 15 13 16 14 17
REMARK H PARENT
REMARK Flexibility Score: inf
ROOT
ATOM      1  C   UNL     1     -10.187 -12.002 -15.907  1.00  0.00     0.165 A 
ATOM      2  C   UNL     1      -9.578 -11.123 -16.820  1.00  0.00     0.207 A 
ATOM      3  C   UNL     1     -10.263  -9.965 -17.253  1.00  0.00     0.208 A 
ATOM      4  C   UNL     1     -11.507  -9.645 -16.697  1.00  0.00     0.184 A 
ATOM      5  C   UNL     1     -12.103 -10.510 -15.756  1.00  0.00     0.025 A 
ATOM      6  C   UNL     1     -11.453 -11.690 -15.378  1.00  0.00     0.062 A 
ATOM      7  C   UNL     1     -13.353 -10.166 -15.230  1.00  0.00     0.020 A 
ATOM      8  C   UNL     1     -13.970  -8.987 -15.645  1.00  0.00     0.094 A 
ATOM      9  C   UNL     1     -13.322  -8.179 -16.583  1.00  0.00     0.336 A 
ATOM     10  O   UNL     1     -13.863  -7.111 -16.974  1.00  0.00    -0.246 OA
ATOM     11  O   UNL     1     -12.135  -8.531 -17.069  1.00  0.00    -0.419 OA
ENDROOT
BRANCH   1  12
ATOM     12  O   UNL     1      -9.490 -13.163 -15.538  1.00  0.00    -0.493 OA
ATOM     13  C   UNL     1      -9.781 -14.469 -16.026  1.00  0.00     0.278 C 
ENDBRANCH   1  12
BRANCH   2  14
ATOM     14  O   UNL     1      -8.287 -11.419 -17.266  1.00  0.00    -0.490 OA
ATOM     15  C   UNL     1      -8.043 -12.110 -18.486  1.00  0.00     0.278 C 
ENDBRANCH   2  14
BRANCH   3  16
ATOM     16  O   UNL     1      -9.738  -9.124 -18.241  1.00  0.00    -0.490 OA
ATOM     17  C   UNL     1      -8.780  -8.111 -17.951  1.00  0.00     0.278 C 
ENDBRANCH   3  16
TORSDOF 3
ENDMDL
MODEL 7
REMARK VINA RESULT:    -4.425     14.255     16.272
REMARK INTER + INTRA:          -5.202
REMARK INTER:                  -4.957
REMARK INTRA:                  -0.246
REMARK UNBOUND:                -0.002
REMARK SMILES COc1cc2ccc(=O)oc2c(OC)c1OC
REMARK SMILES IDX 3 1 15 2 12 3 11 4 5 5 4 6 6 7 7 8 8 9 9 10 10 11 2 12 1 13
REMARK SMILES IDX 16 14 17 15 13 16 14 17
REMARK H PARENT
REMARK Flexibility Score: inf
ROOT
ATOM      1  C   UNL     1      -5.692 -18.716  -8.083  1.00  0.00     0.165 A 
ATOM      2  C   UNL     1      -5.452 -19.932  -7.422  1.00  0.00     0.207 A 
ATOM      3  C   UNL     1      -6.489 -20.560  -6.693  1.00  0.00     0.208 A 
ATOM      4  C   UNL     1      -7.778 -20.017  -6.714  1.00  0.00     0.184 A 
ATOM      5  C   UNL     1      -8.027 -18.813  -7.404  1.00  0.00     0.025 A 
ATOM      6  C   UNL     1      -6.984 -18.159  -8.070  1.00  0.00     0.062 A 
ATOM      7  C   UNL     1      -9.326 -18.292  -7.393  1.00  0.00     0.020 A 
ATOM      8  C   UNL     1     -10.331 -18.972  -6.707  1.00  0.00     0.094 A 
ATOM      9  C   UNL     1     -10.012 -20.159  -6.042  1.00  0.00     0.336 A 
ATOM     10  O   UNL     1     -10.904 -20.787  -5.414  1.00  0.00    -0.246 OA
ATOM     11  O   UNL     1      -8.768 -20.631  -6.066  1.00  0.00    -0.419 OA
ENDROOT
BRANCH   1  12
ATOM     12  O   UNL     1      -4.623 -18.104  -8.756  1.00  0.00    -0.493 OA
ATOM     13  C   UNL     1      -4.006 -16.886  -8.352  1.00  0.00     0.278 C 
ENDBRANCH   1  12
BRANCH   2  14
ATOM     14  O   UNL     1      -4.179 -20.501  -7.520  1.00  0.00    -0.490 OA
ATOM     15  C   UNL     1      -3.188 -20.327  -6.514  1.00  0.00     0.278 C 
ENDBRANCH   2  14
BRANCH   3  16
ATOM     16  O   UNL     1      -6.262 -21.714  -5.934  1.00  0.00    -0.490 OA
ATOM     17  C   UNL     1      -6.274 -23.018  -6.505  1.00  0.00     0.278 C 
ENDBRANCH   3  16
TORSDOF 3
ENDMDL
MODEL 8
REMARK VINA RESULT:    -4.335      2.429      5.701
REMARK INTER + INTRA:          -5.097
REMARK INTER:                  -4.802
REMARK INTRA:                  -0.295
REMARK UNBOUND:                -0.002
REMARK SMILES COc1cc2ccc(=O)oc2c(OC)c1OC
REMARK SMILES IDX 3 1 15 2 12 3 11 4 5 5 4 6 6 7 7 8 8 9 9 10 10 11 2 12 1 13
REMARK SMILES IDX 16 14 17 15 13 16 14 17
REMARK H PARENT
REMARK Flexibility Score: inf
ROOT
ATOM      1  C   UNL     1     -11.033 -11.053 -17.409  1.00  0.00     0.165 A 
ATOM      2  C   UNL     1     -10.900  -9.728 -17.860  1.00  0.00     0.207 A 
ATOM      3  C   UNL     1     -11.792  -8.731 -17.404  1.00  0.00     0.208 A 
ATOM      4  C   UNL     1     -12.746  -9.046 -16.430  1.00  0.00     0.184 A 
ATOM      5  C   UNL     1     -12.858 -10.369 -15.953  1.00  0.00     0.025 A 
ATOM      6  C   UNL     1     -12.016 -11.368 -16.454  1.00  0.00     0.062 A 
ATOM      7  C   UNL     1     -13.831 -10.651 -14.988  1.00  0.00     0.020 A 
ATOM      8  C   UNL     1     -14.656  -9.626 -14.527  1.00  0.00     0.094 A 
ATOM      9  C   UNL     1     -14.491  -8.339 -15.046  1.00  0.00     0.336 A 
ATOM     10  O   UNL     1     -15.227  -7.400 -14.645  1.00  0.00    -0.246 OA
ATOM     11  O   UNL     1     -13.559  -8.098 -15.964  1.00  0.00    -0.419 OA
ENDROOT
BRANCH   1  12
ATOM     12  O   UNL     1     -10.154 -12.020 -17.921  1.00  0.00    -0.493 OA
ATOM     13  C   UNL     1      -9.022 -12.532 -17.226  1.00  0.00     0.278 C 
ENDBRANCH   1  12
BRANCH   2  14
ATOM     14  O   UNL     1      -9.861  -9.430 -18.747  1.00  0.00    -0.490 OA
ATOM     15  C   UNL     1      -8.613  -8.906 -18.308  1.00  0.00     0.278 C 
ENDBRANCH   2  14
BRANCH   3  16
ATOM     16  O   UNL     1     -11.761  -7.427 -17.911  1.00  0.00    -0.490 OA
ATOM     17  C   UNL     1     -12.410  -7.064 -19.125  1.00  0.00     0.278 C 
ENDBRANCH   3  16
TORSDOF 3
ENDMDL
MODEL 9
REMARK VINA RESULT:    -4.307      6.812      8.110
REMARK INTER + INTRA:          -5.064
REMARK INTER:                  -4.814
REMARK INTRA:                  -0.250
REMARK UNBOUND:                -0.002
REMARK SMILES COc1cc2ccc(=O)oc2c(OC)c1OC
REMARK SMILES IDX 3 1 15 2 12 3 11 4 5 5 4 6 6 7 7 8 8 9 9 10 10 11 2 12 1 13
REMARK SMILES IDX 16 14 17 15 13 16 14 17
REMARK H PARENT
REMARK Flexibility Score: inf
ROOT
ATOM      1  C   UNL     1      -9.316 -15.260 -15.568  1.00  0.00     0.165 A 
ATOM      2  C   UNL     1      -8.173 -15.228 -16.385  1.00  0.00     0.207 A 
ATOM      3  C   UNL     1      -7.823 -14.041 -17.070  1.00  0.00     0.208 A 
ATOM      4  C   UNL     1      -8.562 -12.872 -16.854  1.00  0.00     0.184 A 
ATOM      5  C   UNL     1      -9.691 -12.896 -16.008  1.00  0.00     0.025 A 
ATOM      6  C   UNL     1     -10.073 -14.089 -15.384  1.00  0.00     0.062 A 
ATOM      7  C   UNL     1     -10.414 -11.712 -15.825  1.00  0.00     0.020 A 
ATOM      8  C   UNL     1     -10.003 -10.551 -16.478  1.00  0.00     0.094 A 
ATOM      9  C   UNL     1      -8.877 -10.601 -17.303  1.00  0.00     0.336 A 
ATOM     10  O   UNL     1      -8.491  -9.564 -17.904  1.00  0.00    -0.246 OA
ATOM     11  O   UNL     1      -8.208 -11.741 -17.461  1.00  0.00    -0.419 OA
ENDROOT
BRANCH   1  12
ATOM     12  O   UNL     1      -9.652 -16.471 -14.944  1.00  0.00    -0.493 OA
ATOM     13  C   UNL     1     -10.723 -17.318 -15.347  1.00  0.00     0.278 C 
ENDBRANCH   1  12
BRANCH   2  14
ATOM     14  O   UNL     1      -7.395 -16.385 -16.485  1.00  0.00    -0.490 OA
ATOM     15  C   UNL     1      -7.573 -17.333 -17.532  1.00  0.00     0.278 C 
ENDBRANCH   2  14
BRANCH   3  16
ATOM     16  O   UNL     1      -6.757 -13.999 -17.975  1.00  0.00    -0.490 OA
ATOM     17  C   UNL     1      -5.413 -13.771 -17.563  1.00  0.00     0.278 C 
ENDBRANCH   3  16
TORSDOF 3
ENDMDL
