MODEL 1
REMARK VINA RESULT:    -5.288      0.000      0.000
REMARK INTER + INTRA:          -5.629
REMARK INTER:                  -5.597
REMARK INTRA:                  -0.032
REMARK UNBOUND:                -0.032
REMARK SMILES C=C(C)[C@H]1CC[C@H](C)[C@@]12CC=C(C)CC2
REMARK SMILES IDX 8 1 7 2 6 3 5 4 4 5 9 6 15 7 14 8 12 9 11 10 10 11 13 12
REMARK SMILES IDX 2 13 1 14 3 15
REMARK H PARENT
REMARK Flexibility Score: inf
ROOT
ATOM      1  C   UNL     1       5.559  -1.899  14.990  1.00  0.00     0.008 C 
ATOM      2  C   UNL     1       4.782  -2.508  16.167  1.00  0.00    -0.007 C 
ATOM      3  C   UNL     1       5.411  -2.106  17.508  1.00  0.00     0.004 C 
ATOM      4  C   UNL     1       4.280  -2.009  18.529  1.00  0.00     0.009 C 
ATOM      5  C   UNL     1       2.987  -2.417  17.810  1.00  0.00     0.021 C 
ATOM      6  C   UNL     1       3.258  -2.188  16.283  1.00  0.00    -0.017 C 
ATOM      7  C   UNL     1       2.893  -0.705  15.942  1.00  0.00     0.012 C 
ATOM      8  C   UNL     1       2.839  -0.349  14.440  1.00  0.00     0.031 C 
ATOM      9  C   UNL     1       2.524  -1.499  13.511  1.00  0.00    -0.077 C 
ATOM     10  C   UNL     1       2.395  -2.762  13.948  1.00  0.00    -0.027 C 
ATOM     11  C   UNL     1       2.376  -3.118  15.405  1.00  0.00     0.035 C 
ATOM     12  C   UNL     1       2.443  -1.228  12.034  1.00  0.00     0.039 C 
ENDROOT
BRANCH   5  13
ATOM     13  C   UNL     1       2.543  -3.839  18.191  1.00  0.00    -0.077 C 
ATOM     14  C   UNL     1       3.418  -4.798  18.540  1.00  0.00     0.008 C 
ATOM     15  C   UNL     1       1.076  -4.187  18.175  1.00  0.00     0.039 C 
ENDBRANCH   5  13
TORSDOF 1
ENDMDL
MODEL 2
REMARK VINA RESULT:    -5.259     12.165     13.838
REMARK INTER + INTRA:          -5.598
REMARK INTER:                  -5.566
REMARK INTRA:                  -0.032
REMARK UNBOUND:                -0.032
REMARK SMILES C=C(C)[C@H]1CC[C@H](C)[C@@]12CC=C(C)CC2
REMARK SMILES IDX 8 1 7 2 6 3 5 4 4 5 9 6 15 7 14 8 12 9 11 10 10 11 13 12
REMARK SMILES IDX 2 13 1 14 3 15
REMARK H PARENT
REMARK Flexibility Score: inf
ROOT
ATOM      1  C   UNL     1      10.510   1.858  28.915  1.00  0.00     0.008 C 
ATOM      2  C   UNL     1      11.401   1.017  27.989  1.00  0.00    -0.007 C 
ATOM      3  C   UNL     1      12.416   0.198  28.798  1.00  0.00     0.004 C 
ATOM      4  C   UNL     1      12.664  -1.100  28.035  1.00  0.00     0.009 C 
ATOM      5  C   UNL     1      11.847  -1.024  26.738  1.00  0.00     0.021 C 
ATOM      6  C   UNL     1      10.706   0.015  27.014  1.00  0.00    -0.017 C 
ATOM      7  C   UNL     1       9.496  -0.749  27.647  1.00  0.00     0.012 C 
ATOM      8  C   UNL     1       8.174   0.043  27.753  1.00  0.00     0.031 C 
ATOM      9  C   UNL     1       7.998   1.149  26.737  1.00  0.00    -0.077 C 
ATOM     10  C   UNL     1       8.962   1.485  25.864  1.00  0.00    -0.027 C 
ATOM     11  C   UNL     1      10.221   0.686  25.700  1.00  0.00     0.035 C 
ATOM     12  C   UNL     1       6.730   1.958  26.769  1.00  0.00     0.039 C 
ENDROOT
BRANCH   5  13
ATOM     13  C   UNL     1      12.731  -0.718  25.519  1.00  0.00    -0.077 C 
ATOM     14  C   UNL     1      12.482  -1.230  24.300  1.00  0.00     0.008 C 
ATOM     15  C   UNL     1      13.927   0.187  25.677  1.00  0.00     0.039 C 
ENDBRANCH   5  13
TORSDOF 1
ENDMDL
MODEL 3
REMARK VINA RESULT:    -5.254      1.748      4.174
REMARK INTER + INTRA:          -5.593
REMARK INTER:                  -5.522
REMARK INTRA:                  -0.072
REMARK UNBOUND:                -0.032
REMARK SMILES C=C(C)[C@H]1CC[C@H](C)[C@@]12CC=C(C)CC2
REMARK SMILES IDX 8 1 7 2 6 3 5 4 4 5 9 6 15 7 14 8 12 9 11 10 10 11 13 12
REMARK SMILES IDX 2 13 1 14 3 15
REMARK H PARENT
REMARK Flexibility Score: inf
ROOT
ATOM      1  C   UNL     1       4.677  -4.770  18.750  1.00  0.00     0.008 C 
ATOM      2  C   UNL     1       3.507  -3.978  18.149  1.00  0.00    -0.007 C 
ATOM      3  C   UNL     1       2.297  -3.981  19.094  1.00  0.00     0.004 C 
ATOM      4  C   UNL     1       1.567  -2.655  18.902  1.00  0.00     0.009 C 
ATOM      5  C   UNL     1       2.305  -1.890  17.794  1.00  0.00     0.021 C 
ATOM      6  C   UNL     1       3.754  -2.487  17.758  1.00  0.00    -0.017 C 
ATOM      7  C   UNL     1       4.630  -1.698  18.786  1.00  0.00     0.012 C 
ATOM      8  C   UNL     1       6.152  -1.954  18.717  1.00  0.00     0.031 C 
ATOM      9  C   UNL     1       6.675  -2.392  17.367  1.00  0.00    -0.077 C 
ATOM     10  C   UNL     1       5.864  -2.636  16.325  1.00  0.00    -0.027 C 
ATOM     11  C   UNL     1       4.396  -2.328  16.352  1.00  0.00     0.035 C 
ATOM     12  C   UNL     1       8.149  -2.650  17.218  1.00  0.00     0.039 C 
ENDROOT
BRANCH   5  13
ATOM     13  C   UNL     1       1.543  -1.935  16.460  1.00  0.00    -0.077 C 
ATOM     14  C   UNL     1       0.984  -3.063  15.986  1.00  0.00     0.008 C 
ATOM     15  C   UNL     1       1.410  -0.678  15.639  1.00  0.00     0.039 C 
ENDBRANCH   5  13
TORSDOF 1
ENDMDL
MODEL 4
REMARK VINA RESULT:    -5.169      1.748      3.502
REMARK INTER + INTRA:          -5.502
REMARK INTER:                  -5.431
REMARK INTRA:                  -0.071
REMARK UNBOUND:                -0.032
REMARK SMILES C=C(C)[C@H]1CC[C@H](C)[C@@]12CC=C(C)CC2
REMARK SMILES IDX 8 1 7 2 6 3 5 4 4 5 9 6 15 7 14 8 12 9 11 10 10 11 13 12
REMARK SMILES IDX 2 13 1 14 3 15
REMARK H PARENT
REMARK Flexibility Score: inf
ROOT
ATOM      1  C   UNL     1       0.470  -2.215  18.542  1.00  0.00     0.008 C 
ATOM      2  C   UNL     1       1.987  -2.439  18.615  1.00  0.00    -0.007 C 
ATOM      3  C   UNL     1       2.324  -3.641  19.508  1.00  0.00     0.004 C 
ATOM      4  C   UNL     1       3.587  -4.287  18.944  1.00  0.00     0.009 C 
ATOM      5  C   UNL     1       4.039  -3.429  17.754  1.00  0.00     0.021 C 
ATOM      6  C   UNL     1       2.761  -2.657  17.276  1.00  0.00    -0.017 C 
ATOM      7  C   UNL     1       2.005  -3.559  16.246  1.00  0.00     0.012 C 
ATOM      8  C   UNL     1       0.863  -2.878  15.459  1.00  0.00     0.031 C 
ATOM      9  C   UNL     1       0.994  -1.382  15.289  1.00  0.00    -0.077 C 
ATOM     10  C   UNL     1       1.983  -0.677  15.862  1.00  0.00    -0.027 C 
ATOM     11  C   UNL     1       3.136  -1.325  16.570  1.00  0.00     0.035 C 
ATOM     12  C   UNL     1      -0.073  -0.649  14.523  1.00  0.00     0.039 C 
ENDROOT
BRANCH   5  13
ATOM     13  C   UNL     1       5.245  -2.545  18.108  1.00  0.00    -0.077 C 
ATOM     14  C   UNL     1       5.325  -1.863  19.264  1.00  0.00     0.008 C 
ATOM     15  C   UNL     1       6.390  -2.426  17.134  1.00  0.00     0.039 C 
ENDBRANCH   5  13
TORSDOF 1
ENDMDL
MODEL 5
REMARK VINA RESULT:    -5.111      1.815      5.065
REMARK INTER + INTRA:          -5.442
REMARK INTER:                  -5.391
REMARK INTRA:                  -0.051
REMARK UNBOUND:                -0.032
REMARK SMILES C=C(C)[C@H]1CC[C@H](C)[C@@]12CC=C(C)CC2
REMARK SMILES IDX 8 1 7 2 6 3 5 4 4 5 9 6 15 7 14 8 12 9 11 10 10 11 13 12
REMARK SMILES IDX 2 13 1 14 3 15
REMARK H PARENT
REMARK Flexibility Score: inf
ROOT
ATOM      1  C   UNL     1       3.676  -2.910  19.075  1.00  0.00     0.008 C 
ATOM      2  C   UNL     1       3.099  -2.304  17.787  1.00  0.00    -0.007 C 
ATOM      3  C   UNL     1       3.992  -2.626  16.580  1.00  0.00     0.004 C 
ATOM      4  C   UNL     1       3.081  -2.750  15.361  1.00  0.00     0.009 C 
ATOM      5  C   UNL     1       1.654  -2.437  15.831  1.00  0.00     0.021 C 
ATOM      6  C   UNL     1       1.647  -2.703  17.376  1.00  0.00    -0.017 C 
ATOM      7  C   UNL     1       1.314  -4.214  17.607  1.00  0.00     0.012 C 
ATOM      8  C   UNL     1       1.000  -4.623  19.063  1.00  0.00     0.031 C 
ATOM      9  C   UNL     1       0.448  -3.524  19.942  1.00  0.00    -0.077 C 
ATOM     10  C   UNL     1       0.327  -2.256  19.517  1.00  0.00    -0.027 C 
ATOM     11  C   UNL     1       0.561  -1.853  18.091  1.00  0.00     0.035 C 
ATOM     12  C   UNL     1       0.106  -3.849  21.370  1.00  0.00     0.039 C 
ENDROOT
BRANCH   5  13
ATOM     13  C   UNL     1       1.205  -1.030  15.406  1.00  0.00    -0.077 C 
ATOM     14  C   UNL     1       2.063  -0.000  15.300  1.00  0.00     0.008 C 
ATOM     15  C   UNL     1      -0.249  -0.778  15.093  1.00  0.00     0.039 C 
ENDBRANCH   5  13
TORSDOF 1
ENDMDL
MODEL 6
REMARK VINA RESULT:    -5.039      2.865      4.478
REMARK INTER + INTRA:          -5.365
REMARK INTER:                  -5.290
REMARK INTRA:                  -0.075
REMARK UNBOUND:                -0.032
REMARK SMILES C=C(C)[C@H]1CC[C@H](C)[C@@]12CC=C(C)CC2
REMARK SMILES IDX 8 1 7 2 6 3 5 4 4 5 9 6 15 7 14 8 12 9 11 10 10 11 13 12
REMARK SMILES IDX 2 13 1 14 3 15
REMARK H PARENT
REMARK Flexibility Score: inf
ROOT
ATOM      1  C   UNL     1       1.176  -2.323  11.226  1.00  0.00     0.008 C 
ATOM      2  C   UNL     1       1.542  -2.154  12.708  1.00  0.00    -0.007 C 
ATOM      3  C   UNL     1       2.053  -0.734  12.990  1.00  0.00     0.004 C 
ATOM      4  C   UNL     1       1.637  -0.376  14.414  1.00  0.00     0.009 C 
ATOM      5  C   UNL     1       0.937  -1.609  15.003  1.00  0.00     0.021 C 
ATOM      6  C   UNL     1       0.437  -2.442  13.773  1.00  0.00    -0.017 C 
ATOM      7  C   UNL     1      -0.981  -1.917  13.374  1.00  0.00     0.012 C 
ATOM      8  C   UNL     1      -1.760  -2.776  12.354  1.00  0.00     0.031 C 
ATOM      9  C   UNL     1      -1.401  -4.244  12.333  1.00  0.00    -0.077 C 
ATOM     10  C   UNL     1      -0.407  -4.752  13.080  1.00  0.00    -0.027 C 
ATOM     11  C   UNL     1       0.313  -3.951  14.124  1.00  0.00     0.035 C 
ATOM     12  C   UNL     1      -2.125  -5.148  11.374  1.00  0.00     0.039 C 
ENDROOT
BRANCH   5  13
ATOM     13  C   UNL     1       1.842  -2.369  15.986  1.00  0.00    -0.077 C 
ATOM     14  C   UNL     1       3.151  -2.570  15.753  1.00  0.00     0.008 C 
ATOM     15  C   UNL     1       1.255  -2.918  17.262  1.00  0.00     0.039 C 
ENDBRANCH   5  13
TORSDOF 1
ENDMDL
MODEL 7
REMARK VINA RESULT:    -5.029      2.172      4.527
REMARK INTER + INTRA:          -5.354
REMARK INTER:                  -5.279
REMARK INTRA:                  -0.075
REMARK UNBOUND:                -0.032
REMARK SMILES C=C(C)[C@H]1CC[C@H](C)[C@@]12CC=C(C)CC2
REMARK SMILES IDX 8 1 7 2 6 3 5 4 4 5 9 6 15 7 14 8 12 9 11 10 10 11 13 12
REMARK SMILES IDX 2 13 1 14 3 15
REMARK H PARENT
REMARK Flexibility Score: inf
ROOT
ATOM      1  C   UNL     1      -0.031  -1.872  19.280  1.00  0.00     0.008 C 
ATOM      2  C   UNL     1       0.901  -2.826  20.041  1.00  0.00    -0.007 C 
ATOM      3  C   UNL     1       0.097  -3.829  20.879  1.00  0.00     0.004 C 
ATOM      4  C   UNL     1       0.896  -5.128  20.925  1.00  0.00     0.009 C 
ATOM      5  C   UNL     1       2.208  -4.877  20.169  1.00  0.00     0.021 C 
ATOM      6  C   UNL     1       1.924  -3.667  19.213  1.00  0.00    -0.017 C 
ATOM      7  C   UNL     1       1.345  -4.232  17.874  1.00  0.00     0.012 C 
ATOM      8  C   UNL     1       1.244  -3.229  16.704  1.00  0.00     0.031 C 
ATOM      9  C   UNL     1       2.226  -2.081  16.746  1.00  0.00    -0.077 C 
ATOM     10  C   UNL     1       3.065  -1.890  17.777  1.00  0.00    -0.027 C 
ATOM     11  C   UNL     1       3.226  -2.886  18.887  1.00  0.00     0.035 C 
ATOM     12  C   UNL     1       2.197  -1.069  15.634  1.00  0.00     0.039 C 
ENDROOT
BRANCH   5  13
ATOM     13  C   UNL     1       3.396  -4.691  21.127  1.00  0.00    -0.077 C 
ATOM     14  C   UNL     1       3.293  -4.006  22.279  1.00  0.00     0.008 C 
ATOM     15  C   UNL     1       4.734  -5.292  20.775  1.00  0.00     0.039 C 
ENDBRANCH   5  13
TORSDOF 1
ENDMDL
MODEL 8
REMARK VINA RESULT:    -4.946      1.207      3.021
REMARK INTER + INTRA:          -5.267
REMARK INTER:                  -5.369
REMARK INTRA:                   0.101
REMARK UNBOUND:                -0.032
REMARK SMILES C=C(C)[C@H]1CC[C@H](C)[C@@]12CC=C(C)CC2
REMARK SMILES IDX 8 1 7 2 6 3 5 4 4 5 9 6 15 7 14 8 12 9 11 10 10 11 13 12
REMARK SMILES IDX 2 13 1 14 3 15
REMARK H PARENT
REMARK Flexibility Score: inf
ROOT
ATOM      1  C   UNL     1       0.570  -0.807  15.438  1.00  0.00     0.008 C 
ATOM      2  C   UNL     1       1.713  -1.370  16.295  1.00  0.00    -0.007 C 
ATOM      3  C   UNL     1       1.167  -2.208  17.460  1.00  0.00     0.004 C 
ATOM      4  C   UNL     1       2.180  -3.315  17.738  1.00  0.00     0.009 C 
ATOM      5  C   UNL     1       3.361  -3.096  16.782  1.00  0.00     0.021 C 
ATOM      6  C   UNL     1       2.793  -2.251  15.590  1.00  0.00    -0.017 C 
ATOM      7  C   UNL     1       2.210  -3.240  14.527  1.00  0.00     0.012 C 
ATOM      8  C   UNL     1       1.839  -2.624  13.160  1.00  0.00     0.031 C 
ATOM      9  C   UNL     1       2.609  -1.380  12.778  1.00  0.00    -0.077 C 
ATOM     10  C   UNL     1       3.485  -0.793  13.609  1.00  0.00    -0.027 C 
ATOM     11  C   UNL     1       3.909  -1.411  14.909  1.00  0.00     0.035 C 
ATOM     12  C   UNL     1       2.312  -0.729  11.456  1.00  0.00     0.039 C 
ENDROOT
BRANCH   5  13
ATOM     13  C   UNL     1       4.575  -2.484  17.499  1.00  0.00    -0.077 C 
ATOM     14  C   UNL     1       4.471  -1.850  18.680  1.00  0.00     0.008 C 
ATOM     15  C   UNL     1       5.941  -2.589  16.868  1.00  0.00     0.039 C 
ENDBRANCH   5  13
TORSDOF 1
ENDMDL
MODEL 9
REMARK VINA RESULT:    -4.884      2.332      5.551
REMARK INTER + INTRA:          -5.201
REMARK INTER:                  -5.573
REMARK INTRA:                   0.372
REMARK UNBOUND:                -0.032
REMARK SMILES C=C(C)[C@H]1CC[C@H](C)[C@@]12CC=C(C)CC2
REMARK SMILES IDX 8 1 7 2 6 3 5 4 4 5 9 6 15 7 14 8 12 9 11 10 10 11 13 12
REMARK SMILES IDX 2 13 1 14 3 15
REMARK H PARENT
REMARK Flexibility Score: inf
ROOT
ATOM      1  C   UNL     1       5.640  -2.323  19.149  1.00  0.00     0.008 C 
ATOM      2  C   UNL     1       4.193  -2.362  18.633  1.00  0.00    -0.007 C 
ATOM      3  C   UNL     1       4.156  -2.335  17.099  1.00  0.00     0.004 C 
ATOM      4  C   UNL     1       2.937  -3.142  16.660  1.00  0.00     0.009 C 
ATOM      5  C   UNL     1       2.212  -3.594  17.936  1.00  0.00     0.021 C 
ATOM      6  C   UNL     1       3.290  -3.556  19.074  1.00  0.00    -0.017 C 
ATOM      7  C   UNL     1       4.026  -4.936  19.090  1.00  0.00     0.012 C 
ATOM      8  C   UNL     1       4.943  -5.200  20.305  1.00  0.00     0.031 C 
ATOM      9  C   UNL     1       4.574  -4.458  21.570  1.00  0.00    -0.077 C 
ATOM     10  C   UNL     1       3.578  -3.559  21.612  1.00  0.00    -0.027 C 
ATOM     11  C   UNL     1       2.636  -3.339  20.466  1.00  0.00     0.035 C 
ATOM     12  C   UNL     1       5.413  -4.673  22.800  1.00  0.00     0.039 C 
ENDROOT
BRANCH   5  13
ATOM     13  C   UNL     1       0.948  -2.762  18.202  1.00  0.00    -0.077 C 
ATOM     14  C   UNL     1       0.119  -3.018  19.230  1.00  0.00     0.008 C 
ATOM     15  C   UNL     1       0.608  -1.613  17.287  1.00  0.00     0.039 C 
ENDBRANCH   5  13
TORSDOF 1
ENDMDL
