MODEL 1
REMARK VINA RESULT:    -3.512      0.000      0.000
REMARK INTER + INTRA:          -8.318
REMARK INTER:                  -6.797
REMARK INTRA:                  -1.521
REMARK UNBOUND:                -1.521
REMARK SMILES CCCCCCCCCCCCCCCCCC(=O)[O-]
REMARK SMILES IDX 10 1 11 2 12 3 13 4 14 5 15 6 16 7 17 8 18 9 19 10 20 11
REMARK SMILES IDX 9 12 8 13 7 14 6 15 5 16 4 17 3 18 2 19 1 20
REMARK H PARENT
REMARK Flexibility Score: inf
ROOT
ATOM      1  C   UNL     1      66.051  26.749  59.887  1.00  0.00     0.000 C 
ENDROOT
BRANCH   1   2
ATOM      2  C   UNL     1      67.475  27.301  60.071  1.00  0.00     0.000 C 
BRANCH   2   3
ATOM      3  C   UNL     1      67.543  28.465  61.070  1.00  0.00     0.000 C 
BRANCH   3   4
ATOM      4  C   UNL     1      68.885  28.483  61.809  1.00  0.00     0.000 C 
BRANCH   4   5
ATOM      5  C   UNL     1      70.041  28.775  60.839  1.00  0.00     0.000 C 
BRANCH   5   6
ATOM      6  C   UNL     1      71.122  29.673  61.459  1.00  0.00     0.000 C 
BRANCH   6   7
ATOM      7  C   UNL     1      72.491  29.513  60.773  1.00  0.00     0.006 C 
BRANCH   7   8
ATOM      8  C   UNL     1      72.547  30.234  59.421  1.00  0.00     0.053 C 
BRANCH   8   9
ATOM      9  C   UNL     1      72.066  31.650  59.525  1.00  0.00     0.041 C 
ATOM     10  O   UNL     1      72.697  32.484  60.228  1.00  0.00    -0.550 OA
ATOM     11  O   UNL     1      70.942  32.057  58.817  1.00  0.00    -0.550 OA
ENDBRANCH   8   9
ENDBRANCH   7   8
ENDBRANCH   6   7
ENDBRANCH   5   6
ENDBRANCH   4   5
ENDBRANCH   3   4
ENDBRANCH   2   3
ENDBRANCH   1   2
BRANCH   1  12
ATOM     12  C   UNL     1      64.980  27.522  60.688  1.00  0.00     0.000 C 
BRANCH  12  13
ATOM     13  C   UNL     1      63.674  26.719  60.829  1.00  0.00    -0.000 C 
BRANCH  13  14
ATOM     14  C   UNL     1      62.639  27.403  61.741  1.00  0.00    -0.000 C 
BRANCH  14  15
ATOM     15  C   UNL     1      62.376  28.890  61.430  1.00  0.00    -0.000 C 
BRANCH  15  16
ATOM     16  C   UNL     1      61.575  29.100  60.132  1.00  0.00    -0.000 C 
BRANCH  16  17
ATOM     17  C   UNL     1      62.029  30.345  59.346  1.00  0.00    -0.000 C 
BRANCH  17  18
ATOM     18  C   UNL     1      63.540  30.425  59.065  1.00  0.00    -0.000 C 
BRANCH  18  19
ATOM     19  C   UNL     1      64.198  31.673  59.670  1.00  0.00    -0.003 C 
ATOM     20  C   UNL     1      65.139  31.301  60.812  1.00  0.00     0.004 C 
ENDBRANCH  18  19
ENDBRANCH  17  18
ENDBRANCH  16  17
ENDBRANCH  15  16
ENDBRANCH  14  15
ENDBRANCH  13  14
ENDBRANCH  12  13
ENDBRANCH   1  12
TORSDOF 16
ENDMDL
MODEL 2
REMARK VINA RESULT:    -3.503      3.956      5.915
REMARK INTER + INTRA:          -8.301
REMARK INTER:                  -5.659
REMARK INTRA:                  -2.642
REMARK UNBOUND:                -1.521
REMARK SMILES CCCCCCCCCCCCCCCCCC(=O)[O-]
REMARK SMILES IDX 10 1 11 2 12 3 13 4 14 5 15 6 16 7 17 8 18 9 19 10 20 11
REMARK SMILES IDX 9 12 8 13 7 14 6 15 5 16 4 17 3 18 2 19 1 20
REMARK H PARENT
REMARK Flexibility Score: inf
ROOT
ATOM      1  C   UNL     1      65.413  30.790  59.975  1.00  0.00     0.000 C 
ENDROOT
BRANCH   1   2
ATOM      2  C   UNL     1      66.384  31.008  58.802  1.00  0.00     0.000 C 
BRANCH   2   3
ATOM      3  C   UNL     1      65.906  32.087  57.821  1.00  0.00     0.000 C 
BRANCH   3   4
ATOM      4  C   UNL     1      65.555  33.386  58.554  1.00  0.00     0.000 C 
BRANCH   4   5
ATOM      5  C   UNL     1      64.117  33.825  58.236  1.00  0.00     0.000 C 
BRANCH   5   6
ATOM      6  C   UNL     1      63.305  34.152  59.498  1.00  0.00     0.000 C 
BRANCH   6   7
ATOM      7  C   UNL     1      64.183  34.254  60.758  1.00  0.00     0.006 C 
BRANCH   7   8
ATOM      8  C   UNL     1      64.045  35.616  61.450  1.00  0.00     0.053 C 
BRANCH   8   9
ATOM      9  C   UNL     1      65.211  35.906  62.344  1.00  0.00     0.041 C 
ATOM     10  O   UNL     1      65.042  36.034  63.586  1.00  0.00    -0.550 OA
ATOM     11  O   UNL     1      66.491  36.002  61.811  1.00  0.00    -0.550 OA
ENDBRANCH   8   9
ENDBRANCH   7   8
ENDBRANCH   6   7
ENDBRANCH   5   6
ENDBRANCH   4   5
ENDBRANCH   3   4
ENDBRANCH   2   3
ENDBRANCH   1   2
BRANCH   1  12
ATOM     12  C   UNL     1      65.498  29.378  60.594  1.00  0.00     0.000 C 
BRANCH  12  13
ATOM     13  C   UNL     1      64.244  29.033  61.418  1.00  0.00    -0.000 C 
BRANCH  13  14
ATOM     14  C   UNL     1      63.589  27.704  60.994  1.00  0.00    -0.000 C 
BRANCH  14  15
ATOM     15  C   UNL     1      62.056  27.652  61.153  1.00  0.00    -0.000 C 
BRANCH  15  16
ATOM     16  C   UNL     1      61.396  29.041  61.074  1.00  0.00    -0.000 C 
BRANCH  16  17
ATOM     17  C   UNL     1      61.065  29.464  59.630  1.00  0.00    -0.000 C 
BRANCH  17  18
ATOM     18  C   UNL     1      61.764  30.748  59.149  1.00  0.00    -0.000 C 
BRANCH  18  19
ATOM     19  C   UNL     1      62.457  30.581  57.790  1.00  0.00    -0.003 C 
ATOM     20  C   UNL     1      63.091  29.198  57.663  1.00  0.00     0.004 C 
ENDBRANCH  18  19
ENDBRANCH  17  18
ENDBRANCH  16  17
ENDBRANCH  15  16
ENDBRANCH  14  15
ENDBRANCH  13  14
ENDBRANCH  12  13
ENDBRANCH   1  12
TORSDOF 16
ENDMDL
MODEL 3
REMARK VINA RESULT:    -3.416      4.788      6.941
REMARK INTER + INTRA:          -8.132
REMARK INTER:                  -5.665
REMARK INTRA:                  -2.467
REMARK UNBOUND:                -1.521
REMARK SMILES CCCCCCCCCCCCCCCCCC(=O)[O-]
REMARK SMILES IDX 10 1 11 2 12 3 13 4 14 5 15 6 16 7 17 8 18 9 19 10 20 11
REMARK SMILES IDX 9 12 8 13 7 14 6 15 5 16 4 17 3 18 2 19 1 20
REMARK H PARENT
REMARK Flexibility Score: inf
ROOT
ATOM      1  C   UNL     1      61.721  31.718  58.028  1.00  0.00     0.000 C 
ENDROOT
BRANCH   1   2
ATOM      2  C   UNL     1      62.830  32.118  59.016  1.00  0.00     0.000 C 
BRANCH   2   3
ATOM      3  C   UNL     1      64.217  32.191  58.363  1.00  0.00     0.000 C 
BRANCH   3   4
ATOM      4  C   UNL     1      65.105  33.226  59.062  1.00  0.00     0.000 C 
BRANCH   4   5
ATOM      5  C   UNL     1      65.066  33.041  60.587  1.00  0.00     0.000 C 
BRANCH   5   6
ATOM      6  C   UNL     1      64.968  34.374  61.343  1.00  0.00     0.000 C 
BRANCH   6   7
ATOM      7  C   UNL     1      64.335  35.492  60.495  1.00  0.00     0.006 C 
BRANCH   7   8
ATOM      8  C   UNL     1      62.883  35.773  60.901  1.00  0.00     0.053 C 
BRANCH   8   9
ATOM      9  C   UNL     1      61.962  35.758  59.719  1.00  0.00     0.041 C 
ATOM     10  O   UNL     1      60.735  36.000  59.869  1.00  0.00    -0.550 OA
ATOM     11  O   UNL     1      62.464  35.510  58.448  1.00  0.00    -0.550 OA
ENDBRANCH   8   9
ENDBRANCH   7   8
ENDBRANCH   6   7
ENDBRANCH   5   6
ENDBRANCH   4   5
ENDBRANCH   3   4
ENDBRANCH   2   3
ENDBRANCH   1   2
BRANCH   1  12
ATOM     12  C   UNL     1      62.057  30.461  57.197  1.00  0.00     0.000 C 
BRANCH  12  13
ATOM     13  C   UNL     1      61.928  29.170  58.025  1.00  0.00    -0.000 C 
BRANCH  13  14
ATOM     14  C   UNL     1      60.654  29.132  58.891  1.00  0.00    -0.000 C 
BRANCH  14  15
ATOM     15  C   UNL     1      60.899  29.086  60.412  1.00  0.00    -0.000 C 
BRANCH  15  16
ATOM     16  C   UNL     1      61.473  27.739  60.888  1.00  0.00    -0.000 C 
BRANCH  16  17
ATOM     17  C   UNL     1      62.861  27.878  61.542  1.00  0.00    -0.000 C 
BRANCH  17  18
ATOM     18  C   UNL     1      63.513  29.266  61.402  1.00  0.00    -0.000 C 
BRANCH  18  19
ATOM     19  C   UNL     1      64.763  29.255  60.510  1.00  0.00    -0.003 C 
ATOM     20  C   UNL     1      65.494  27.919  60.606  1.00  0.00     0.004 C 
ENDBRANCH  18  19
ENDBRANCH  17  18
ENDBRANCH  16  17
ENDBRANCH  15  16
ENDBRANCH  14  15
ENDBRANCH  13  14
ENDBRANCH  12  13
ENDBRANCH   1  12
TORSDOF 16
ENDMDL
MODEL 4
REMARK VINA RESULT:    -3.403      5.932      8.712
REMARK INTER + INTRA:          -8.107
REMARK INTER:                  -6.452
REMARK INTRA:                  -1.655
REMARK UNBOUND:                -1.521
REMARK SMILES CCCCCCCCCCCCCCCCCC(=O)[O-]
REMARK SMILES IDX 10 1 11 2 12 3 13 4 14 5 15 6 16 7 17 8 18 9 19 10 20 11
REMARK SMILES IDX 9 12 8 13 7 14 6 15 5 16 4 17 3 18 2 19 1 20
REMARK H PARENT
REMARK Flexibility Score: inf
ROOT
ATOM      1  C   UNL     1      64.321  29.926  59.937  1.00  0.00     0.000 C 
ENDROOT
BRANCH   1   2
ATOM      2  C   UNL     1      64.008  29.482  61.376  1.00  0.00     0.000 C 
BRANCH   2   3
ATOM      3  C   UNL     1      62.860  28.468  61.455  1.00  0.00     0.000 C 
BRANCH   3   4
ATOM      4  C   UNL     1      61.522  29.114  61.079  1.00  0.00     0.000 C 
BRANCH   4   5
ATOM      5  C   UNL     1      60.953  28.491  59.795  1.00  0.00     0.000 C 
BRANCH   5   6
ATOM      6  C   UNL     1      60.184  27.189  60.060  1.00  0.00     0.000 C 
BRANCH   6   7
ATOM      7  C   UNL     1      59.307  27.264  61.323  1.00  0.00     0.006 C 
BRANCH   7   8
ATOM      8  C   UNL     1      59.149  25.896  61.999  1.00  0.00     0.053 C 
BRANCH   8   9
ATOM      9  C   UNL     1      60.475  25.256  62.275  1.00  0.00     0.041 C 
ATOM     10  O   UNL     1      61.225  25.715  63.177  1.00  0.00    -0.550 OA
ATOM     11  O   UNL     1      60.866  24.129  61.562  1.00  0.00    -0.550 OA
ENDBRANCH   8   9
ENDBRANCH   7   8
ENDBRANCH   6   7
ENDBRANCH   5   6
ENDBRANCH   4   5
ENDBRANCH   3   4
ENDBRANCH   2   3
ENDBRANCH   1   2
BRANCH   1  12
ATOM     12  C   UNL     1      64.080  31.430  59.687  1.00  0.00     0.000 C 
BRANCH  12  13
ATOM     13  C   UNL     1      62.862  31.675  58.777  1.00  0.00    -0.000 C 
BRANCH  13  14
ATOM     14  C   UNL     1      62.414  33.149  58.751  1.00  0.00    -0.000 C 
BRANCH  14  15
ATOM     15  C   UNL     1      63.411  34.123  58.095  1.00  0.00    -0.000 C 
BRANCH  15  16
ATOM     16  C   UNL     1      63.644  35.398  58.928  1.00  0.00    -0.000 C 
BRANCH  16  17
ATOM     17  C   UNL     1      62.837  35.409  60.240  1.00  0.00    -0.000 C 
BRANCH  17  18
ATOM     18  C   UNL     1      63.652  35.728  61.506  1.00  0.00    -0.000 C 
BRANCH  18  19
ATOM     19  C   UNL     1      64.968  34.940  61.586  1.00  0.00    -0.003 C 
ATOM     20  C   UNL     1      66.164  35.879  61.713  1.00  0.00     0.004 C 
ENDBRANCH  18  19
ENDBRANCH  17  18
ENDBRANCH  16  17
ENDBRANCH  15  16
ENDBRANCH  14  15
ENDBRANCH  13  14
ENDBRANCH  12  13
ENDBRANCH   1  12
TORSDOF 16
ENDMDL
MODEL 5
REMARK VINA RESULT:    -3.368      1.661      2.568
REMARK INTER + INTRA:          -8.040
REMARK INTER:                  -6.626
REMARK INTRA:                  -1.414
REMARK UNBOUND:                -1.521
REMARK SMILES CCCCCCCCCCCCCCCCCC(=O)[O-]
REMARK SMILES IDX 10 1 11 2 12 3 13 4 14 5 15 6 16 7 17 8 18 9 19 10 20 11
REMARK SMILES IDX 9 12 8 13 7 14 6 15 5 16 4 17 3 18 2 19 1 20
REMARK H PARENT
REMARK Flexibility Score: inf
ROOT
ATOM      1  C   UNL     1      65.087  26.725  59.430  1.00  0.00     0.000 C 
ENDROOT
BRANCH   1   2
ATOM      2  C   UNL     1      66.498  27.328  59.324  1.00  0.00     0.000 C 
BRANCH   2   3
ATOM      3  C   UNL     1      67.611  26.287  59.506  1.00  0.00     0.000 C 
BRANCH   3   4
ATOM      4  C   UNL     1      68.728  26.822  60.410  1.00  0.00     0.000 C 
BRANCH   4   5
ATOM      5  C   UNL     1      68.393  28.232  60.919  1.00  0.00     0.000 C 
BRANCH   5   6
ATOM      6  C   UNL     1      69.600  28.933  61.559  1.00  0.00     0.000 C 
BRANCH   6   7
ATOM      7  C   UNL     1      70.719  29.230  60.545  1.00  0.00     0.006 C 
BRANCH   7   8
ATOM      8  C   UNL     1      72.115  29.032  61.150  1.00  0.00     0.053 C 
BRANCH   8   9
ATOM      9  C   UNL     1      72.776  30.340  61.463  1.00  0.00     0.041 C 
ATOM     10  O   UNL     1      73.770  30.379  62.236  1.00  0.00    -0.550 OA
ATOM     11  O   UNL     1      72.318  31.511  60.872  1.00  0.00    -0.550 OA
ENDBRANCH   8   9
ENDBRANCH   7   8
ENDBRANCH   6   7
ENDBRANCH   5   6
ENDBRANCH   4   5
ENDBRANCH   3   4
ENDBRANCH   2   3
ENDBRANCH   1   2
BRANCH   1  12
ATOM     12  C   UNL     1      64.358  27.086  60.743  1.00  0.00     0.000 C 
BRANCH  12  13
ATOM     13  C   UNL     1      63.335  28.219  60.540  1.00  0.00    -0.000 C 
BRANCH  13  14
ATOM     14  C   UNL     1      63.603  29.443  61.436  1.00  0.00    -0.000 C 
BRANCH  14  15
ATOM     15  C   UNL     1      65.042  29.992  61.377  1.00  0.00    -0.000 C 
BRANCH  15  16
ATOM     16  C   UNL     1      65.261  30.984  60.219  1.00  0.00    -0.000 C 
BRANCH  16  17
ATOM     17  C   UNL     1      65.050  32.451  60.640  1.00  0.00    -0.000 C 
BRANCH  17  18
ATOM     18  C   UNL     1      64.112  33.264  59.730  1.00  0.00    -0.000 C 
BRANCH  18  19
ATOM     19  C   UNL     1      63.743  34.633  60.319  1.00  0.00    -0.003 C 
ATOM     20  C   UNL     1      64.675  35.005  61.470  1.00  0.00     0.004 C 
ENDBRANCH  18  19
ENDBRANCH  17  18
ENDBRANCH  16  17
ENDBRANCH  15  16
ENDBRANCH  14  15
ENDBRANCH  13  14
ENDBRANCH  12  13
ENDBRANCH   1  12
TORSDOF 16
ENDMDL
MODEL 6
REMARK VINA RESULT:    -3.356     11.204     12.745
REMARK INTER + INTRA:          -8.017
REMARK INTER:                  -5.793
REMARK INTRA:                  -2.224
REMARK UNBOUND:                -1.521
REMARK SMILES CCCCCCCCCCCCCCCCCC(=O)[O-]
REMARK SMILES IDX 10 1 11 2 12 3 13 4 14 5 15 6 16 7 17 8 18 9 19 10 20 11
REMARK SMILES IDX 9 12 8 13 7 14 6 15 5 16 4 17 3 18 2 19 1 20
REMARK H PARENT
REMARK Flexibility Score: inf
ROOT
ATOM      1  C   UNL     1      60.545  27.770  51.767  1.00  0.00     0.000 C 
ENDROOT
BRANCH   1   2
ATOM      2  C   UNL     1      60.622  28.561  50.450  1.00  0.00     0.000 C 
BRANCH   2   3
ATOM      3  C   UNL     1      61.266  27.763  49.308  1.00  0.00     0.000 C 
BRANCH   3   4
ATOM      4  C   UNL     1      61.860  26.446  49.820  1.00  0.00     0.000 C 
BRANCH   4   5
ATOM      5  C   UNL     1      63.387  26.427  49.643  1.00  0.00     0.000 C 
BRANCH   5   6
ATOM      6  C   UNL     1      63.863  27.343  48.506  1.00  0.00     0.000 C 
BRANCH   6   7
ATOM      7  C   UNL     1      64.922  28.360  48.968  1.00  0.00     0.006 C 
BRANCH   7   8
ATOM      8  C   UNL     1      64.596  29.785  48.504  1.00  0.00     0.053 C 
BRANCH   8   9
ATOM      9  C   UNL     1      63.742  30.512  49.497  1.00  0.00     0.041 C 
ATOM     10  O   UNL     1      63.760  30.180  50.712  1.00  0.00    -0.550 OA
ATOM     11  O   UNL     1      62.953  31.580  49.088  1.00  0.00    -0.550 OA
ENDBRANCH   8   9
ENDBRANCH   7   8
ENDBRANCH   6   7
ENDBRANCH   5   6
ENDBRANCH   4   5
ENDBRANCH   3   4
ENDBRANCH   2   3
ENDBRANCH   1   2
BRANCH   1  12
ATOM     12  C   UNL     1      59.147  27.794  52.422  1.00  0.00     0.000 C 
BRANCH  12  13
ATOM     13  C   UNL     1      58.455  26.420  52.355  1.00  0.00    -0.000 C 
BRANCH  13  14
ATOM     14  C   UNL     1      57.975  26.053  50.938  1.00  0.00    -0.000 C 
BRANCH  14  15
ATOM     15  C   UNL     1      58.696  24.853  50.295  1.00  0.00    -0.000 C 
BRANCH  15  16
ATOM     16  C   UNL     1      59.129  23.790  51.322  1.00  0.00    -0.000 C 
BRANCH  16  17
ATOM     17  C   UNL     1      60.583  23.321  51.118  1.00  0.00    -0.000 C 
BRANCH  17  18
ATOM     18  C   UNL     1      60.960  22.974  49.666  1.00  0.00    -0.000 C 
BRANCH  18  19
ATOM     19  C   UNL     1      61.508  21.548  49.513  1.00  0.00    -0.003 C 
ATOM     20  C   UNL     1      60.453  20.511  49.889  1.00  0.00     0.004 C 
ENDBRANCH  18  19
ENDBRANCH  17  18
ENDBRANCH  16  17
ENDBRANCH  15  16
ENDBRANCH  14  15
ENDBRANCH  13  14
ENDBRANCH  12  13
ENDBRANCH   1  12
TORSDOF 16
ENDMDL
MODEL 7
REMARK VINA RESULT:    -3.327     10.452     12.196
REMARK INTER + INTRA:          -7.961
REMARK INTER:                  -5.251
REMARK INTRA:                  -2.710
REMARK UNBOUND:                -1.521
REMARK SMILES CCCCCCCCCCCCCCCCCC(=O)[O-]
REMARK SMILES IDX 10 1 11 2 12 3 13 4 14 5 15 6 16 7 17 8 18 9 19 10 20 11
REMARK SMILES IDX 9 12 8 13 7 14 6 15 5 16 4 17 3 18 2 19 1 20
REMARK H PARENT
REMARK Flexibility Score: inf
ROOT
ATOM      1  C   UNL     1      64.430  26.495  49.568  1.00  0.00     0.000 C 
ENDROOT
BRANCH   1   2
ATOM      2  C   UNL     1      64.358  27.243  48.226  1.00  0.00     0.000 C 
BRANCH   2   3
ATOM      3  C   UNL     1      65.680  27.206  47.447  1.00  0.00     0.000 C 
BRANCH   3   4
ATOM      4  C   UNL     1      66.494  28.484  47.676  1.00  0.00     0.000 C 
BRANCH   4   5
ATOM      5  C   UNL     1      65.569  29.693  47.891  1.00  0.00     0.000 C 
BRANCH   5   6
ATOM      6  C   UNL     1      65.942  30.511  49.136  1.00  0.00     0.000 C 
BRANCH   6   7
ATOM      7  C   UNL     1      64.713  30.919  49.967  1.00  0.00     0.006 C 
BRANCH   7   8
ATOM      8  C   UNL     1      63.530  31.334  49.084  1.00  0.00     0.053 C 
BRANCH   8   9
ATOM      9  C   UNL     1      63.471  32.819  48.894  1.00  0.00     0.041 C 
ATOM     10  O   UNL     1      64.413  33.548  49.303  1.00  0.00    -0.550 OA
ATOM     11  O   UNL     1      62.393  33.394  48.233  1.00  0.00    -0.550 OA
ENDBRANCH   8   9
ENDBRANCH   7   8
ENDBRANCH   6   7
ENDBRANCH   5   6
ENDBRANCH   4   5
ENDBRANCH   3   4
ENDBRANCH   2   3
ENDBRANCH   1   2
BRANCH   1  12
ATOM     12  C   UNL     1      64.440  27.429  50.797  1.00  0.00     0.000 C 
BRANCH  12  13
ATOM     13  C   UNL     1      63.614  26.856  51.964  1.00  0.00    -0.000 C 
BRANCH  13  14
ATOM     14  C   UNL     1      62.330  27.658  52.247  1.00  0.00    -0.000 C 
BRANCH  14  15
ATOM     15  C   UNL     1      61.915  28.641  51.134  1.00  0.00    -0.000 C 
BRANCH  15  16
ATOM     16  C   UNL     1      60.627  28.217  50.406  1.00  0.00    -0.000 C 
BRANCH  16  17
ATOM     17  C   UNL     1      60.856  27.063  49.410  1.00  0.00    -0.000 C 
BRANCH  17  18
ATOM     18  C   UNL     1      59.922  25.852  49.587  1.00  0.00    -0.000 C 
BRANCH  18  19
ATOM     19  C   UNL     1      60.387  24.894  50.693  1.00  0.00    -0.003 C 
ATOM     20  C   UNL     1      61.670  24.172  50.292  1.00  0.00     0.004 C 
ENDBRANCH  18  19
ENDBRANCH  17  18
ENDBRANCH  16  17
ENDBRANCH  15  16
ENDBRANCH  14  15
ENDBRANCH  13  14
ENDBRANCH  12  13
ENDBRANCH   1  12
TORSDOF 16
ENDMDL
MODEL 8
REMARK VINA RESULT:    -3.327     10.389     13.103
REMARK INTER + INTRA:          -7.960
REMARK INTER:                  -4.995
REMARK INTRA:                  -2.965
REMARK UNBOUND:                -1.521
REMARK SMILES CCCCCCCCCCCCCCCCCC(=O)[O-]
REMARK SMILES IDX 10 1 11 2 12 3 13 4 14 5 15 6 16 7 17 8 18 9 19 10 20 11
REMARK SMILES IDX 9 12 8 13 7 14 6 15 5 16 4 17 3 18 2 19 1 20
REMARK H PARENT
REMARK Flexibility Score: inf
ROOT
ATOM      1  C   UNL     1      59.748  29.397  52.004  1.00  0.00     0.000 C 
ENDROOT
BRANCH   1   2
ATOM      2  C   UNL     1      60.306  28.134  51.328  1.00  0.00     0.000 C 
BRANCH   2   3
ATOM      3  C   UNL     1      60.654  28.350  49.849  1.00  0.00     0.000 C 
BRANCH   3   4
ATOM      4  C   UNL     1      61.694  27.330  49.370  1.00  0.00     0.000 C 
BRANCH   4   5
ATOM      5  C   UNL     1      62.395  26.661  50.562  1.00  0.00     0.000 C 
BRANCH   5   6
ATOM      6  C   UNL     1      62.664  25.167  50.328  1.00  0.00     0.000 C 
BRANCH   6   7
ATOM      7  C   UNL     1      61.604  24.264  50.985  1.00  0.00     0.006 C 
BRANCH   7   8
ATOM      8  C   UNL     1      60.468  23.909  50.018  1.00  0.00     0.053 C 
BRANCH   8   9
ATOM      9  C   UNL     1      59.170  24.534  50.431  1.00  0.00     0.041 C 
ATOM     10  O   UNL     1      58.569  25.322  49.653  1.00  0.00    -0.550 OA
ATOM     11  O   UNL     1      58.606  24.218  51.661  1.00  0.00    -0.550 OA
ENDBRANCH   8   9
ENDBRANCH   7   8
ENDBRANCH   6   7
ENDBRANCH   5   6
ENDBRANCH   4   5
ENDBRANCH   3   4
ENDBRANCH   2   3
ENDBRANCH   1   2
BRANCH   1  12
ATOM     12  C   UNL     1      60.479  29.773  53.312  1.00  0.00     0.000 C 
BRANCH  12  13
ATOM     13  C   UNL     1      61.932  29.266  53.326  1.00  0.00    -0.000 C 
BRANCH  13  14
ATOM     14  C   UNL     1      62.945  30.321  52.841  1.00  0.00    -0.000 C 
BRANCH  14  15
ATOM     15  C   UNL     1      63.575  30.038  51.464  1.00  0.00    -0.000 C 
BRANCH  15  16
ATOM     16  C   UNL     1      63.010  30.936  50.348  1.00  0.00    -0.000 C 
BRANCH  16  17
ATOM     17  C   UNL     1      63.587  30.598  48.959  1.00  0.00    -0.000 C 
BRANCH  17  18
ATOM     18  C   UNL     1      64.707  29.542  48.957  1.00  0.00    -0.000 C 
BRANCH  18  19
ATOM     19  C   UNL     1      64.776  28.743  47.648  1.00  0.00    -0.003 C 
ATOM     20  C   UNL     1      65.032  27.264  47.919  1.00  0.00     0.004 C 
ENDBRANCH  18  19
ENDBRANCH  17  18
ENDBRANCH  16  17
ENDBRANCH  15  16
ENDBRANCH  14  15
ENDBRANCH  13  14
ENDBRANCH  12  13
ENDBRANCH   1  12
TORSDOF 16
ENDMDL
MODEL 9
REMARK VINA RESULT:    -3.324      2.856      5.489
REMARK INTER + INTRA:          -7.955
REMARK INTER:                  -5.024
REMARK INTRA:                  -2.930
REMARK UNBOUND:                -1.521
REMARK SMILES CCCCCCCCCCCCCCCCCC(=O)[O-]
REMARK SMILES IDX 10 1 11 2 12 3 13 4 14 5 15 6 16 7 17 8 18 9 19 10 20 11
REMARK SMILES IDX 9 12 8 13 7 14 6 15 5 16 4 17 3 18 2 19 1 20
REMARK H PARENT
REMARK Flexibility Score: inf
ROOT
ATOM      1  C   UNL     1      60.711  27.847  60.078  1.00  0.00     0.000 C 
ENDROOT
BRANCH   1   2
ATOM      2  C   UNL     1      61.568  29.085  60.394  1.00  0.00     0.000 C 
BRANCH   2   3
ATOM      3  C   UNL     1      62.422  28.916  61.658  1.00  0.00     0.000 C 
BRANCH   3   4
ATOM      4  C   UNL     1      63.836  29.469  61.448  1.00  0.00     0.000 C 
BRANCH   4   5
ATOM      5  C   UNL     1      64.113  29.718  59.957  1.00  0.00     0.000 C 
BRANCH   5   6
ATOM      6  C   UNL     1      65.473  29.166  59.507  1.00  0.00     0.000 C 
BRANCH   6   7
ATOM      7  C   UNL     1      66.600  29.476  60.508  1.00  0.00     0.006 C 
BRANCH   7   8
ATOM      8  C   UNL     1      67.202  28.202  61.113  1.00  0.00     0.053 C 
BRANCH   8   9
ATOM      9  C   UNL     1      68.419  27.752  60.363  1.00  0.00     0.041 C 
ATOM     10  O   UNL     1      69.112  28.585  59.721  1.00  0.00    -0.550 OA
ATOM     11  O   UNL     1      68.808  26.419  60.402  1.00  0.00    -0.550 OA
ENDBRANCH   8   9
ENDBRANCH   7   8
ENDBRANCH   6   7
ENDBRANCH   5   6
ENDBRANCH   4   5
ENDBRANCH   3   4
ENDBRANCH   2   3
ENDBRANCH   1   2
BRANCH   1  12
ATOM     12  C   UNL     1      59.666  27.524  61.168  1.00  0.00     0.000 C 
BRANCH  12  13
ATOM     13  C   UNL     1      59.186  26.063  61.091  1.00  0.00    -0.000 C 
BRANCH  13  14
ATOM     14  C   UNL     1      60.223  25.057  61.626  1.00  0.00    -0.000 C 
BRANCH  14  15
ATOM     15  C   UNL     1      60.893  25.454  62.956  1.00  0.00    -0.000 C 
BRANCH  15  16
ATOM     16  C   UNL     1      62.431  25.464  62.876  1.00  0.00    -0.000 C 
BRANCH  16  17
ATOM     17  C   UNL     1      62.963  24.906  61.542  1.00  0.00    -0.000 C 
BRANCH  17  18
ATOM     18  C   UNL     1      64.025  25.777  60.847  1.00  0.00    -0.000 C 
BRANCH  18  19
ATOM     19  C   UNL     1      63.793  25.912  59.335  1.00  0.00    -0.003 C 
ATOM     20  C   UNL     1      62.675  24.984  58.865  1.00  0.00     0.004 C 
ENDBRANCH  18  19
ENDBRANCH  17  18
ENDBRANCH  16  17
ENDBRANCH  15  16
ENDBRANCH  14  15
ENDBRANCH  13  14
ENDBRANCH  12  13
ENDBRANCH   1  12
TORSDOF 16
ENDMDL
