MODEL 1
REMARK VINA RESULT:    -6.092      0.000      0.000
REMARK INTER + INTRA:          -9.425
REMARK INTER:                  -8.050
REMARK INTRA:                  -1.375
REMARK UNBOUND:                -1.375
REMARK SMILES CC[C@H](C=C[C@H](C)[C@@H]1CC[C@@H]2[C@@H]3CC=C4C[C@@H](O)CC[C@@]4(C)[C@H]3CC[C@]21C)C(C)C
REMARK SMILES IDX 6 1 7 2 5 3 4 4 3 5 2 6 1 7 28 8 29 9 30 10 8 11 9 12 26 13
REMARK SMILES IDX 10 14 11 15 25 16 27 17 12 18 24 19 23 20 13 21 21 22 14 23
REMARK SMILES IDX 15 24 20 25 22 26 16 27 19 28 17 29 18 30
REMARK H PARENT 18 31
REMARK Flexibility Score: inf
ROOT
ATOM      1  C   UNL     1      -3.043  37.727  42.152  1.00  0.00     0.012 C 
ATOM      2  C   UNL     1      -2.216  38.656  41.248  1.00  0.00     0.012 C 
ENDROOT
BRANCH   1   3
ATOM      3  C   UNL     1      -4.426  38.322  42.338  1.00  0.00    -0.028 C 
ATOM      4  C   UNL     1      -5.021  38.328  43.542  1.00  0.00    -0.027 C 
BRANCH   4   5
ATOM      5  C   UNL     1      -6.399  38.928  43.751  1.00  0.00     0.014 C 
BRANCH   5   6
ATOM      6  C   UNL     1      -7.463  37.823  43.971  1.00  0.00     0.004 C 
ATOM      7  C   UNL     1      -6.909  36.450  44.361  1.00  0.00     0.004 C 
ENDBRANCH   5   6
BRANCH   5   8
ATOM      8  C   UNL     1      -6.442  40.046  44.851  1.00  0.00    -0.011 C 
ATOM      9  C   UNL     1      -7.780  40.123  45.614  1.00  0.00     0.008 C 
ATOM     10  C   UNL     1      -5.287  39.902  45.855  1.00  0.00     0.008 C 
ENDBRANCH   5   8
ENDBRANCH   4   5
ENDBRANCH   1   3
BRANCH   1  11
ATOM     11  C   UNL     1      -3.011  36.266  41.595  1.00  0.00     0.002 C 
ATOM     12  C   UNL     1      -4.371  35.658  41.153  1.00  0.00     0.005 C 
ATOM     13  C   UNL     1      -2.329  35.163  42.462  1.00  0.00    -0.026 C 
ATOM     14  C   UNL     1      -4.258  34.136  41.365  1.00  0.00     0.005 C 
ATOM     15  C   UNL     1      -2.783  33.920  41.677  1.00  0.00    -0.001 C 
ATOM     16  C   UNL     1      -0.762  35.224  42.474  1.00  0.00     0.007 C 
ATOM     17  C   UNL     1      -2.888  35.191  43.918  1.00  0.00     0.012 C 
ATOM     18  C   UNL     1      -2.271  32.549  42.198  1.00  0.00     0.000 C 
ATOM     19  C   UNL     1      -0.066  33.838  42.300  1.00  0.00     0.005 C 
ATOM     20  C   UNL     1      -0.901  32.685  42.918  1.00  0.00     0.003 C 
ATOM     21  C   UNL     1      -3.205  31.747  43.103  1.00  0.00     0.031 C 
ATOM     22  C   UNL     1      -0.197  31.284  43.042  1.00  0.00    -0.008 C 
ATOM     23  C   UNL     1      -2.574  30.406  43.396  1.00  0.00    -0.027 C 
ATOM     24  C   UNL     1      -1.233  30.180  43.354  1.00  0.00    -0.065 C 
ATOM     25  C   UNL     1       0.544  30.897  41.726  1.00  0.00     0.014 C 
ATOM     26  C   UNL     1       0.822  31.353  44.213  1.00  0.00     0.016 C 
ATOM     27  C   UNL     1      -0.735  28.750  43.376  1.00  0.00     0.063 C 
ATOM     28  C   UNL     1       1.055  29.440  41.714  1.00  0.00     0.033 C 
ATOM     29  C   UNL     1      -0.058  28.422  42.038  1.00  0.00     0.118 C 
BRANCH  29  30
ATOM     30  O   UNL     1      -1.021  28.408  41.016  1.00  0.00    -0.393 OA
ATOM     31  H   UNL     1      -0.582  28.773  40.203  1.00  0.00     0.210 HD
ENDBRANCH  29  30
ENDBRANCH   1  11
TORSDOF 6
ENDMDL
MODEL 2
REMARK VINA RESULT:    -5.889      8.124     12.440
REMARK INTER + INTRA:          -9.158
REMARK INTER:                  -8.946
REMARK INTRA:                  -0.212
REMARK UNBOUND:                -1.375
REMARK SMILES CC[C@H](C=C[C@H](C)[C@@H]1CC[C@@H]2[C@@H]3CC=C4C[C@@H](O)CC[C@@]4(C)[C@H]3CC[C@]21C)C(C)C
REMARK SMILES IDX 6 1 7 2 5 3 4 4 3 5 2 6 1 7 28 8 29 9 30 10 8 11 9 12 26 13
REMARK SMILES IDX 10 14 11 15 25 16 27 17 12 18 24 19 23 20 13 21 21 22 14 23
REMARK SMILES IDX 15 24 20 25 22 26 16 27 19 28 17 29 18 30
REMARK H PARENT 18 31
REMARK Flexibility Score: inf
ROOT
ATOM      1  C   UNL     1       5.010  29.640  52.939  1.00  0.00     0.012 C 
ATOM      2  C   UNL     1       4.896  31.172  53.017  1.00  0.00     0.012 C 
ENDROOT
BRANCH   1   3
ATOM      3  C   UNL     1       4.550  29.042  54.255  1.00  0.00    -0.028 C 
ATOM      4  C   UNL     1       3.250  28.803  54.490  1.00  0.00    -0.027 C 
BRANCH   4   5
ATOM      5  C   UNL     1       2.771  28.196  55.796  1.00  0.00     0.014 C 
BRANCH   5   6
ATOM      6  C   UNL     1       3.716  28.569  56.967  1.00  0.00     0.004 C 
ATOM      7  C   UNL     1       4.240  27.386  57.785  1.00  0.00     0.004 C 
ENDBRANCH   5   6
BRANCH   5   8
ATOM      8  C   UNL     1       1.262  28.486  56.113  1.00  0.00    -0.011 C 
ATOM      9  C   UNL     1       1.032  29.229  57.444  1.00  0.00     0.008 C 
ATOM     10  C   UNL     1       0.578  29.257  54.972  1.00  0.00     0.008 C 
ENDBRANCH   5   8
ENDBRANCH   4   5
ENDBRANCH   1   3
BRANCH   1  11
ATOM     11  C   UNL     1       4.269  29.110  51.667  1.00  0.00     0.002 C 
ATOM     12  C   UNL     1       4.692  27.707  51.149  1.00  0.00     0.005 C 
ATOM     13  C   UNL     1       4.234  30.022  50.403  1.00  0.00    -0.026 C 
ATOM     14  C   UNL     1       4.451  27.714  49.626  1.00  0.00     0.005 C 
ATOM     15  C   UNL     1       3.685  29.008  49.385  1.00  0.00    -0.001 C 
ATOM     16  C   UNL     1       3.246  31.237  50.507  1.00  0.00     0.007 C 
ATOM     17  C   UNL     1       5.670  30.516  50.046  1.00  0.00     0.012 C 
ATOM     18  C   UNL     1       3.447  29.537  47.944  1.00  0.00     0.000 C 
ATOM     19  C   UNL     1       2.376  31.466  49.232  1.00  0.00     0.005 C 
ATOM     20  C   UNL     1       3.124  31.056  47.935  1.00  0.00     0.003 C 
ATOM     21  C   UNL     1       4.544  29.280  46.910  1.00  0.00     0.031 C 
ATOM     22  C   UNL     1       2.464  31.477  46.571  1.00  0.00    -0.008 C 
ATOM     23  C   UNL     1       4.069  29.759  45.559  1.00  0.00    -0.027 C 
ATOM     24  C   UNL     1       3.127  30.727  45.392  1.00  0.00    -0.065 C 
ATOM     25  C   UNL     1       0.937  31.161  46.551  1.00  0.00     0.014 C 
ATOM     26  C   UNL     1       2.684  33.003  46.374  1.00  0.00     0.016 C 
ATOM     27  C   UNL     1       2.519  30.921  44.019  1.00  0.00     0.063 C 
ATOM     28  C   UNL     1       0.291  31.341  45.161  1.00  0.00     0.033 C 
ATOM     29  C   UNL     1       1.029  30.552  44.060  1.00  0.00     0.118 C 
BRANCH  29  30
ATOM     30  O   UNL     1       0.895  29.171  44.274  1.00  0.00    -0.393 OA
ATOM     31  H   UNL     1      -0.007  29.026  44.665  1.00  0.00     0.210 HD
ENDBRANCH  29  30
ENDBRANCH   1  11
TORSDOF 6
ENDMDL
MODEL 3
REMARK VINA RESULT:    -5.806      1.065      1.865
REMARK INTER + INTRA:          -9.047
REMARK INTER:                  -7.764
REMARK INTRA:                  -1.283
REMARK UNBOUND:                -1.375
REMARK SMILES CC[C@H](C=C[C@H](C)[C@@H]1CC[C@@H]2[C@@H]3CC=C4C[C@@H](O)CC[C@@]4(C)[C@H]3CC[C@]21C)C(C)C
REMARK SMILES IDX 6 1 7 2 5 3 4 4 3 5 2 6 1 7 28 8 29 9 30 10 8 11 9 12 26 13
REMARK SMILES IDX 10 14 11 15 25 16 27 17 12 18 24 19 23 20 13 21 21 22 14 23
REMARK SMILES IDX 15 24 20 25 22 26 16 27 19 28 17 29 18 30
REMARK H PARENT 18 31
REMARK Flexibility Score: inf
ROOT
ATOM      1  C   UNL     1      -2.975  37.024  43.504  1.00  0.00     0.012 C 
ATOM      2  C   UNL     1      -2.088  38.152  42.952  1.00  0.00     0.012 C 
ENDROOT
BRANCH   1   3
ATOM      3  C   UNL     1      -4.385  37.550  43.689  1.00  0.00    -0.028 C 
ATOM      4  C   UNL     1      -5.155  37.127  44.705  1.00  0.00    -0.027 C 
BRANCH   4   5
ATOM      5  C   UNL     1      -6.564  37.649  44.913  1.00  0.00     0.014 C 
BRANCH   5   6
ATOM      6  C   UNL     1      -6.958  38.656  43.803  1.00  0.00     0.004 C 
ATOM      7  C   UNL     1      -6.989  40.125  44.234  1.00  0.00     0.004 C 
ENDBRANCH   5   6
BRANCH   5   8
ATOM      8  C   UNL     1      -7.633  36.520  45.122  1.00  0.00    -0.011 C 
ATOM      9  C   UNL     1      -7.387  35.259  44.271  1.00  0.00     0.008 C 
ATOM     10  C   UNL     1      -7.762  36.124  46.601  1.00  0.00     0.008 C 
ENDBRANCH   5   8
ENDBRANCH   4   5
ENDBRANCH   1   3
BRANCH   1  11
ATOM     11  C   UNL     1      -2.847  35.750  42.606  1.00  0.00     0.002 C 
ATOM     12  C   UNL     1      -4.145  35.253  41.912  1.00  0.00     0.005 C 
ATOM     13  C   UNL     1      -2.197  34.475  43.225  1.00  0.00    -0.026 C 
ATOM     14  C   UNL     1      -3.995  33.728  41.747  1.00  0.00     0.005 C 
ATOM     15  C   UNL     1      -2.542  33.463  42.120  1.00  0.00    -0.001 C 
ATOM     16  C   UNL     1      -0.638  34.554  43.386  1.00  0.00     0.007 C 
ATOM     17  C   UNL     1      -2.869  34.128  44.590  1.00  0.00     0.012 C 
ATOM     18  C   UNL     1      -2.024  32.013  42.325  1.00  0.00     0.000 C 
ATOM     19  C   UNL     1       0.118  33.267  42.932  1.00  0.00     0.005 C 
ATOM     20  C   UNL     1      -0.721  31.983  43.170  1.00  0.00     0.003 C 
ATOM     21  C   UNL     1      -2.998  30.995  42.919  1.00  0.00     0.031 C 
ATOM     22  C   UNL     1       0.020  30.606  43.001  1.00  0.00    -0.008 C 
ATOM     23  C   UNL     1      -2.345  29.633  42.921  1.00  0.00    -0.027 C 
ATOM     24  C   UNL     1      -0.998  29.444  42.939  1.00  0.00    -0.065 C 
ATOM     25  C   UNL     1       0.876  30.574  41.698  1.00  0.00     0.014 C 
ATOM     26  C   UNL     1       0.941  30.394  44.235  1.00  0.00     0.016 C 
ATOM     27  C   UNL     1      -0.452  28.062  42.646  1.00  0.00     0.063 C 
ATOM     28  C   UNL     1       1.438  29.174  41.367  1.00  0.00     0.033 C 
ATOM     29  C   UNL     1       0.340  28.091  41.331  1.00  0.00     0.118 C 
BRANCH  29  30
ATOM     30  O   UNL     1      -0.538  28.320  40.260  1.00  0.00    -0.393 OA
ATOM     31  H   UNL     1      -0.388  29.255  39.960  1.00  0.00     0.210 HD
ENDBRANCH  29  30
ENDBRANCH   1  11
TORSDOF 6
ENDMDL
MODEL 4
REMARK VINA RESULT:    -5.650      2.744      9.131
REMARK INTER + INTRA:          -8.841
REMARK INTER:                  -7.956
REMARK INTRA:                  -0.885
REMARK UNBOUND:                -1.375
REMARK SMILES CC[C@H](C=C[C@H](C)[C@@H]1CC[C@@H]2[C@@H]3CC=C4C[C@@H](O)CC[C@@]4(C)[C@H]3CC[C@]21C)C(C)C
REMARK SMILES IDX 6 1 7 2 5 3 4 4 3 5 2 6 1 7 28 8 29 9 30 10 8 11 9 12 26 13
REMARK SMILES IDX 10 14 11 15 25 16 27 17 12 18 24 19 23 20 13 21 21 22 14 23
REMARK SMILES IDX 15 24 20 25 22 26 16 27 19 28 17 29 18 30
REMARK H PARENT 18 31
REMARK Flexibility Score: inf
ROOT
ATOM      1  C   UNL     1      -0.631  33.524  42.671  1.00  0.00     0.012 C 
ATOM      2  C   UNL     1      -0.144  33.124  44.074  1.00  0.00     0.012 C 
ENDROOT
BRANCH   1   3
ATOM      3  C   UNL     1      -0.267  32.426  41.690  1.00  0.00    -0.028 C 
ATOM      4  C   UNL     1      -0.089  31.161  42.103  1.00  0.00    -0.027 C 
BRANCH   4   5
ATOM      5  C   UNL     1       0.265  30.046  41.136  1.00  0.00     0.014 C 
BRANCH   5   6
ATOM      6  C   UNL     1       1.791  29.778  41.124  1.00  0.00     0.004 C 
ATOM      7  C   UNL     1       2.512  30.042  42.449  1.00  0.00     0.004 C 
ENDBRANCH   5   6
BRANCH   5   8
ATOM      8  C   UNL     1      -0.582  28.741  41.337  1.00  0.00    -0.011 C 
ATOM      9  C   UNL     1       0.212  27.438  41.116  1.00  0.00     0.008 C 
ATOM     10  C   UNL     1      -1.252  28.704  42.720  1.00  0.00     0.008 C 
ENDBRANCH   5   8
ENDBRANCH   4   5
ENDBRANCH   1   3
BRANCH   1  11
ATOM     11  C   UNL     1      -2.147  33.907  42.717  1.00  0.00     0.002 C 
ATOM     12  C   UNL     1      -2.909  33.898  41.362  1.00  0.00     0.005 C 
ATOM     13  C   UNL     1      -2.547  35.248  43.405  1.00  0.00    -0.026 C 
ATOM     14  C   UNL     1      -4.033  34.945  41.488  1.00  0.00     0.005 C 
ATOM     15  C   UNL     1      -4.019  35.320  42.964  1.00  0.00    -0.001 C 
ATOM     16  C   UNL     1      -2.477  35.219  44.972  1.00  0.00     0.007 C 
ATOM     17  C   UNL     1      -1.692  36.425  42.843  1.00  0.00     0.012 C 
ATOM     18  C   UNL     1      -4.837  36.533  43.486  1.00  0.00     0.000 C 
ATOM     19  C   UNL     1      -3.705  35.870  45.680  1.00  0.00     0.005 C 
ATOM     20  C   UNL     1      -4.302  37.041  44.852  1.00  0.00     0.003 C 
ATOM     21  C   UNL     1      -4.982  37.737  42.556  1.00  0.00     0.031 C 
ATOM     22  C   UNL     1      -5.371  37.945  45.568  1.00  0.00    -0.008 C 
ATOM     23  C   UNL     1      -5.906  38.746  43.196  1.00  0.00    -0.027 C 
ATOM     24  C   UNL     1      -6.104  38.837  44.539  1.00  0.00    -0.065 C 
ATOM     25  C   UNL     1      -6.438  37.088  46.315  1.00  0.00     0.014 C 
ATOM     26  C   UNL     1      -4.634  38.862  46.583  1.00  0.00     0.016 C 
ATOM     27  C   UNL     1      -7.259  39.675  45.049  1.00  0.00     0.063 C 
ATOM     28  C   UNL     1      -7.633  37.914  46.838  1.00  0.00     0.033 C 
ATOM     29  C   UNL     1      -8.290  38.767  45.733  1.00  0.00     0.118 C 
BRANCH  29  30
ATOM     30  O   UNL     1      -8.896  37.940  44.773  1.00  0.00    -0.393 OA
ATOM     31  H   UNL     1      -8.171  37.402  44.358  1.00  0.00     0.210 HD
ENDBRANCH  29  30
ENDBRANCH   1  11
TORSDOF 6
ENDMDL
MODEL 5
REMARK VINA RESULT:    -5.569      5.561      9.691
REMARK INTER + INTRA:          -8.735
REMARK INTER:                  -7.544
REMARK INTRA:                  -1.191
REMARK UNBOUND:                -1.375
REMARK SMILES CC[C@H](C=C[C@H](C)[C@@H]1CC[C@@H]2[C@@H]3CC=C4C[C@@H](O)CC[C@@]4(C)[C@H]3CC[C@]21C)C(C)C
REMARK SMILES IDX 6 1 7 2 5 3 4 4 3 5 2 6 1 7 28 8 29 9 30 10 8 11 9 12 26 13
REMARK SMILES IDX 10 14 11 15 25 16 27 17 12 18 24 19 23 20 13 21 21 22 14 23
REMARK SMILES IDX 15 24 20 25 22 26 16 27 19 28 17 29 18 30
REMARK H PARENT 18 31
REMARK Flexibility Score: inf
ROOT
ATOM      1  C   UNL     1      -9.208  30.750  44.863  1.00  0.00     0.012 C 
ATOM      2  C   UNL     1     -10.490  30.720  45.712  1.00  0.00     0.012 C 
ENDROOT
BRANCH   1   3
ATOM      3  C   UNL     1      -9.221  29.572  43.908  1.00  0.00    -0.028 C 
ATOM      4  C   UNL     1     -10.377  29.014  43.513  1.00  0.00    -0.027 C 
BRANCH   4   5
ATOM      5  C   UNL     1     -10.412  27.843  42.549  1.00  0.00     0.014 C 
BRANCH   5   6
ATOM      6  C   UNL     1     -11.833  27.643  41.963  1.00  0.00     0.004 C 
ATOM      7  C   UNL     1     -12.948  28.415  42.673  1.00  0.00     0.004 C 
ENDBRANCH   5   6
BRANCH   5   8
ATOM      8  C   UNL     1      -9.298  27.896  41.446  1.00  0.00    -0.011 C 
ATOM      9  C   UNL     1      -8.852  26.511  40.938  1.00  0.00     0.008 C 
ATOM     10  C   UNL     1      -9.720  28.768  40.252  1.00  0.00     0.008 C 
ENDBRANCH   5   8
ENDBRANCH   4   5
ENDBRANCH   1   3
BRANCH   1  11
ATOM     11  C   UNL     1      -9.037  32.154  44.195  1.00  0.00     0.002 C 
ATOM     12  C   UNL     1      -8.940  32.181  42.645  1.00  0.00     0.005 C 
ATOM     13  C   UNL     1      -7.879  33.071  44.697  1.00  0.00    -0.026 C 
ATOM     14  C   UNL     1      -8.079  33.407  42.283  1.00  0.00     0.005 C 
ATOM     15  C   UNL     1      -7.933  34.152  43.604  1.00  0.00    -0.001 C 
ATOM     16  C   UNL     1      -8.137  33.735  46.094  1.00  0.00     0.007 C 
ATOM     17  C   UNL     1      -6.529  32.290  44.704  1.00  0.00     0.012 C 
ATOM     18  C   UNL     1      -6.931  35.330  43.748  1.00  0.00     0.000 C 
ATOM     19  C   UNL     1      -7.766  35.249  46.162  1.00  0.00     0.005 C 
ATOM     20  C   UNL     1      -6.571  35.598  45.235  1.00  0.00     0.003 C 
ATOM     21  C   UNL     1      -5.629  35.247  42.952  1.00  0.00     0.031 C 
ATOM     22  C   UNL     1      -5.933  37.026  45.404  1.00  0.00    -0.008 C 
ATOM     23  C   UNL     1      -4.858  36.534  43.134  1.00  0.00    -0.027 C 
ATOM     24  C   UNL     1      -4.998  37.348  44.215  1.00  0.00    -0.065 C 
ATOM     25  C   UNL     1      -7.025  38.136  45.478  1.00  0.00     0.014 C 
ATOM     26  C   UNL     1      -5.092  37.032  46.711  1.00  0.00     0.016 C 
ATOM     27  C   UNL     1      -4.405  38.740  44.159  1.00  0.00     0.063 C 
ATOM     28  C   UNL     1      -6.451  39.568  45.413  1.00  0.00     0.033 C 
ATOM     29  C   UNL     1      -5.533  39.781  44.191  1.00  0.00     0.118 C 
BRANCH  29  30
ATOM     30  O   UNL     1      -6.276  39.703  43.002  1.00  0.00    -0.393 OA
ATOM     31  H   UNL     1      -5.936  40.420  42.404  1.00  0.00     0.210 HD
ENDBRANCH  29  30
ENDBRANCH   1  11
TORSDOF 6
ENDMDL
MODEL 6
REMARK VINA RESULT:    -5.543      6.533     10.754
REMARK INTER + INTRA:          -8.700
REMARK INTER:                  -7.767
REMARK INTRA:                  -0.933
REMARK UNBOUND:                -1.375
REMARK SMILES CC[C@H](C=C[C@H](C)[C@@H]1CC[C@@H]2[C@@H]3CC=C4C[C@@H](O)CC[C@@]4(C)[C@H]3CC[C@]21C)C(C)C
REMARK SMILES IDX 6 1 7 2 5 3 4 4 3 5 2 6 1 7 28 8 29 9 30 10 8 11 9 12 26 13
REMARK SMILES IDX 10 14 11 15 25 16 27 17 12 18 24 19 23 20 13 21 21 22 14 23
REMARK SMILES IDX 15 24 20 25 22 26 16 27 19 28 17 29 18 30
REMARK H PARENT 18 31
REMARK Flexibility Score: inf
ROOT
ATOM      1  C   UNL     1      -3.165  29.233  44.357  1.00  0.00     0.012 C 
ATOM      2  C   UNL     1      -3.465  30.566  43.651  1.00  0.00     0.012 C 
ENDROOT
BRANCH   1   3
ATOM      3  C   UNL     1      -1.807  28.730  43.907  1.00  0.00    -0.028 C 
ATOM      4  C   UNL     1      -1.240  29.184  42.778  1.00  0.00    -0.027 C 
BRANCH   4   5
ATOM      5  C   UNL     1       0.122  28.702  42.315  1.00  0.00     0.014 C 
BRANCH   5   6
ATOM      6  C   UNL     1       0.030  28.000  40.937  1.00  0.00     0.004 C 
ATOM      7  C   UNL     1       0.173  26.476  40.969  1.00  0.00     0.004 C 
ENDBRANCH   5   6
BRANCH   5   8
ATOM      8  C   UNL     1       1.235  29.807  42.364  1.00  0.00    -0.011 C 
ATOM      9  C   UNL     1       1.837  30.029  43.766  1.00  0.00     0.008 C 
ATOM     10  C   UNL     1       2.364  29.523  41.361  1.00  0.00     0.008 C 
ENDBRANCH   5   8
ENDBRANCH   4   5
ENDBRANCH   1   3
BRANCH   1  11
ATOM     11  C   UNL     1      -3.343  29.392  45.903  1.00  0.00     0.002 C 
ATOM     12  C   UNL     1      -2.049  29.624  46.733  1.00  0.00     0.005 C 
ATOM     13  C   UNL     1      -4.131  28.286  46.670  1.00  0.00    -0.026 C 
ATOM     14  C   UNL     1      -2.314  29.027  48.129  1.00  0.00     0.005 C 
ATOM     15  C   UNL     1      -3.804  28.709  48.113  1.00  0.00    -0.001 C 
ATOM     16  C   UNL     1      -5.685  28.333  46.458  1.00  0.00     0.007 C 
ATOM     17  C   UNL     1      -3.574  26.873  46.316  1.00  0.00     0.012 C 
ATOM     18  C   UNL     1      -4.451  27.863  49.244  1.00  0.00     0.000 C 
ATOM     19  C   UNL     1      -6.516  28.159  47.767  1.00  0.00     0.005 C 
ATOM     20  C   UNL     1      -5.800  27.240  48.794  1.00  0.00     0.003 C 
ATOM     21  C   UNL     1      -3.602  26.756  49.867  1.00  0.00     0.031 C 
ATOM     22  C   UNL     1      -6.641  26.775  50.039  1.00  0.00    -0.008 C 
ATOM     23  C   UNL     1      -4.363  26.141  51.018  1.00  0.00    -0.027 C 
ATOM     24  C   UNL     1      -5.720  26.159  51.117  1.00  0.00    -0.065 C 
ATOM     25  C   UNL     1      -7.416  27.965  50.683  1.00  0.00     0.014 C 
ATOM     26  C   UNL     1      -7.649  25.689  49.569  1.00  0.00     0.016 C 
ATOM     27  C   UNL     1      -6.358  25.779  52.437  1.00  0.00     0.063 C 
ATOM     28  C   UNL     1      -8.070  27.611  52.036  1.00  0.00     0.033 C 
ATOM     29  C   UNL     1      -7.064  27.003  53.037  1.00  0.00     0.118 C 
BRANCH  29  30
ATOM     30  O   UNL     1      -6.107  27.960  53.410  1.00  0.00    -0.393 OA
ATOM     31  H   UNL     1      -5.678  27.629  54.242  1.00  0.00     0.210 HD
ENDBRANCH  29  30
ENDBRANCH   1  11
TORSDOF 6
ENDMDL
MODEL 7
REMARK VINA RESULT:    -5.483      6.821     10.897
REMARK INTER + INTRA:          -8.621
REMARK INTER:                  -7.750
REMARK INTRA:                  -0.871
REMARK UNBOUND:                -1.375
REMARK SMILES CC[C@H](C=C[C@H](C)[C@@H]1CC[C@@H]2[C@@H]3CC=C4C[C@@H](O)CC[C@@]4(C)[C@H]3CC[C@]21C)C(C)C
REMARK SMILES IDX 6 1 7 2 5 3 4 4 3 5 2 6 1 7 28 8 29 9 30 10 8 11 9 12 26 13
REMARK SMILES IDX 10 14 11 15 25 16 27 17 12 18 24 19 23 20 13 21 21 22 14 23
REMARK SMILES IDX 15 24 20 25 22 26 16 27 19 28 17 29 18 30
REMARK H PARENT 18 31
REMARK Flexibility Score: inf
ROOT
ATOM      1  C   UNL     1      -2.762  29.220  45.093  1.00  0.00     0.012 C 
ATOM      2  C   UNL     1      -2.152  30.446  45.792  1.00  0.00     0.012 C 
ENDROOT
BRANCH   1   3
ATOM      3  C   UNL     1      -1.899  28.850  43.902  1.00  0.00    -0.028 C 
ATOM      4  C   UNL     1      -0.613  29.231  43.834  1.00  0.00    -0.027 C 
BRANCH   4   5
ATOM      5  C   UNL     1       0.270  28.863  42.657  1.00  0.00     0.014 C 
BRANCH   5   6
ATOM      6  C   UNL     1      -0.536  28.118  41.563  1.00  0.00     0.004 C 
ATOM      7  C   UNL     1       0.098  26.821  41.051  1.00  0.00     0.004 C 
ENDBRANCH   5   6
BRANCH   5   8
ATOM      8  C   UNL     1       1.103  30.065  42.089  1.00  0.00    -0.011 C 
ATOM      9  C   UNL     1       1.478  31.123  43.146  1.00  0.00     0.008 C 
ATOM     10  C   UNL     1       2.374  29.587  41.369  1.00  0.00     0.008 C 
ENDBRANCH   5   8
ENDBRANCH   4   5
ENDBRANCH   1   3
BRANCH   1  11
ATOM     11  C   UNL     1      -3.001  28.073  46.130  1.00  0.00     0.002 C 
ATOM     12  C   UNL     1      -2.945  26.619  45.586  1.00  0.00     0.005 C 
ATOM     13  C   UNL     1      -4.286  28.134  47.011  1.00  0.00    -0.026 C 
ATOM     14  C   UNL     1      -3.880  25.782  46.481  1.00  0.00     0.005 C 
ATOM     15  C   UNL     1      -4.228  26.725  47.626  1.00  0.00    -0.001 C 
ATOM     16  C   UNL     1      -4.234  29.202  48.160  1.00  0.00     0.007 C 
ATOM     17  C   UNL     1      -5.548  28.351  46.121  1.00  0.00     0.012 C 
ATOM     18  C   UNL     1      -5.349  26.368  48.640  1.00  0.00     0.000 C 
ATOM     19  C   UNL     1      -4.755  28.686  49.537  1.00  0.00     0.005 C 
ATOM     20  C   UNL     1      -5.880  27.628  49.376  1.00  0.00     0.003 C 
ATOM     21  C   UNL     1      -6.551  25.585  48.113  1.00  0.00     0.031 C 
ATOM     22  C   UNL     1      -6.667  27.223  50.676  1.00  0.00    -0.008 C 
ATOM     23  C   UNL     1      -7.457  25.236  49.270  1.00  0.00    -0.027 C 
ATOM     24  C   UNL     1      -7.505  25.948  50.429  1.00  0.00    -0.065 C 
ATOM     25  C   UNL     1      -5.700  26.946  51.868  1.00  0.00     0.014 C 
ATOM     26  C   UNL     1      -7.630  28.386  51.045  1.00  0.00     0.016 C 
ATOM     27  C   UNL     1      -8.222  25.349  51.621  1.00  0.00     0.063 C 
ATOM     28  C   UNL     1      -6.401  26.325  53.095  1.00  0.00     0.033 C 
ATOM     29  C   UNL     1      -7.209  25.061  52.737  1.00  0.00     0.118 C 
BRANCH  29  30
ATOM     30  O   UNL     1      -6.347  24.028  52.333  1.00  0.00    -0.393 OA
ATOM     31  H   UNL     1      -6.055  24.243  51.408  1.00  0.00     0.210 HD
ENDBRANCH  29  30
ENDBRANCH   1  11
TORSDOF 6
ENDMDL
MODEL 8
REMARK VINA RESULT:    -5.381      3.054      4.963
REMARK INTER + INTRA:          -8.487
REMARK INTER:                  -7.085
REMARK INTRA:                  -1.402
REMARK UNBOUND:                -1.375
REMARK SMILES CC[C@H](C=C[C@H](C)[C@@H]1CC[C@@H]2[C@@H]3CC=C4C[C@@H](O)CC[C@@]4(C)[C@H]3CC[C@]21C)C(C)C
REMARK SMILES IDX 6 1 7 2 5 3 4 4 3 5 2 6 1 7 28 8 29 9 30 10 8 11 9 12 26 13
REMARK SMILES IDX 10 14 11 15 25 16 27 17 12 18 24 19 23 20 13 21 21 22 14 23
REMARK SMILES IDX 15 24 20 25 22 26 16 27 19 28 17 29 18 30
REMARK H PARENT 18 31
REMARK Flexibility Score: inf
ROOT
ATOM      1  C   UNL     1      -1.621  33.619  41.964  1.00  0.00     0.012 C 
ATOM      2  C   UNL     1      -1.064  33.991  40.580  1.00  0.00     0.012 C 
ENDROOT
BRANCH   1   3
ATOM      3  C   UNL     1      -3.135  33.691  41.922  1.00  0.00    -0.028 C 
ATOM      4  C   UNL     1      -3.836  34.149  42.972  1.00  0.00    -0.027 C 
BRANCH   4   5
ATOM      5  C   UNL     1      -5.350  34.239  42.946  1.00  0.00     0.014 C 
BRANCH   5   6
ATOM      6  C   UNL     1      -5.997  32.991  43.599  1.00  0.00     0.004 C 
ATOM      7  C   UNL     1      -5.066  32.161  44.487  1.00  0.00     0.004 C 
ENDBRANCH   5   6
BRANCH   5   8
ATOM      8  C   UNL     1      -5.914  35.588  43.516  1.00  0.00    -0.011 C 
ATOM      9  C   UNL     1      -7.199  35.426  44.353  1.00  0.00     0.008 C 
ATOM     10  C   UNL     1      -4.859  36.344  44.338  1.00  0.00     0.008 C 
ENDBRANCH   5   8
ENDBRANCH   4   5
ENDBRANCH   1   3
BRANCH   1  11
ATOM     11  C   UNL     1      -1.027  32.250  42.433  1.00  0.00     0.002 C 
ATOM     12  C   UNL     1      -2.020  31.059  42.538  1.00  0.00     0.005 C 
ATOM     13  C   UNL     1      -0.205  32.219  43.758  1.00  0.00    -0.026 C 
ATOM     14  C   UNL     1      -1.474  30.132  43.642  1.00  0.00     0.005 C 
ATOM     15  C   UNL     1      -0.090  30.696  43.939  1.00  0.00    -0.001 C 
ATOM     16  C   UNL     1       1.232  32.836  43.643  1.00  0.00     0.007 C 
ATOM     17  C   UNL     1      -1.003  32.904  44.910  1.00  0.00     0.012 C 
ATOM     18  C   UNL     1       0.722  30.207  45.169  1.00  0.00     0.000 C 
ATOM     19  C   UNL     1       2.349  31.990  44.329  1.00  0.00     0.005 C 
ATOM     20  C   UNL     1       1.822  31.227  45.574  1.00  0.00     0.003 C 
ATOM     21  C   UNL     1      -0.061  29.831  46.426  1.00  0.00     0.031 C 
ATOM     22  C   UNL     1       2.896  30.549  46.501  1.00  0.00    -0.008 C 
ATOM     23  C   UNL     1       0.894  29.270  47.453  1.00  0.00    -0.027 C 
ATOM     24  C   UNL     1       2.221  29.567  47.486  1.00  0.00    -0.065 C 
ATOM     25  C   UNL     1       3.951  29.756  45.670  1.00  0.00     0.014 C 
ATOM     26  C   UNL     1       3.606  31.663  47.319  1.00  0.00     0.016 C 
ATOM     27  C   UNL     1       3.132  28.733  48.363  1.00  0.00     0.063 C 
ATOM     28  C   UNL     1       4.888  28.888  46.537  1.00  0.00     0.033 C 
ATOM     29  C   UNL     1       4.113  27.947  47.483  1.00  0.00     0.118 C 
BRANCH  29  30
ATOM     30  O   UNL     1       3.410  26.981  46.744  1.00  0.00    -0.393 OA
ATOM     31  H   UNL     1       2.571  26.794  47.242  1.00  0.00     0.210 HD
ENDBRANCH  29  30
ENDBRANCH   1  11
TORSDOF 6
ENDMDL
MODEL 9
REMARK VINA RESULT:    -5.354     13.652     15.438
REMARK INTER + INTRA:          -8.450
REMARK INTER:                  -7.424
REMARK INTRA:                  -1.026
REMARK UNBOUND:                -1.375
REMARK SMILES CC[C@H](C=C[C@H](C)[C@@H]1CC[C@@H]2[C@@H]3CC=C4C[C@@H](O)CC[C@@]4(C)[C@H]3CC[C@]21C)C(C)C
REMARK SMILES IDX 6 1 7 2 5 3 4 4 3 5 2 6 1 7 28 8 29 9 30 10 8 11 9 12 26 13
REMARK SMILES IDX 10 14 11 15 25 16 27 17 12 18 24 19 23 20 13 21 21 22 14 23
REMARK SMILES IDX 15 24 20 25 22 26 16 27 19 28 17 29 18 30
REMARK H PARENT 18 31
REMARK Flexibility Score: inf
ROOT
ATOM      1  C   UNL     1      -7.773  31.198  58.192  1.00  0.00     0.012 C 
ATOM      2  C   UNL     1      -6.538  31.862  58.822  1.00  0.00     0.012 C 
ENDROOT
BRANCH   1   3
ATOM      3  C   UNL     1      -8.946  32.156  58.276  1.00  0.00    -0.028 C 
ATOM      4  C   UNL     1      -9.885  32.019  59.226  1.00  0.00    -0.027 C 
BRANCH   4   5
ATOM      5  C   UNL     1     -11.059  32.974  59.334  1.00  0.00     0.014 C 
BRANCH   5   6
ATOM      6  C   UNL     1     -11.055  34.001  58.173  1.00  0.00     0.004 C 
ATOM      7  C   UNL     1     -10.749  35.445  58.579  1.00  0.00     0.004 C 
ENDBRANCH   5   6
BRANCH   5   8
ATOM      8  C   UNL     1     -12.444  32.257  59.510  1.00  0.00    -0.011 C 
ATOM      9  C   UNL     1     -13.578  33.191  59.978  1.00  0.00     0.008 C 
ATOM     10  C   UNL     1     -12.876  31.530  58.226  1.00  0.00     0.008 C 
ENDBRANCH   5   8
ENDBRANCH   4   5
ENDBRANCH   1   3
BRANCH   1  11
ATOM     11  C   UNL     1      -7.432  30.680  56.756  1.00  0.00     0.002 C 
ATOM     12  C   UNL     1      -7.568  31.705  55.595  1.00  0.00     0.005 C 
ATOM     13  C   UNL     1      -8.145  29.389  56.251  1.00  0.00    -0.026 C 
ATOM     14  C   UNL     1      -7.921  30.891  54.335  1.00  0.00     0.005 C 
ATOM     15  C   UNL     1      -7.731  29.444  54.770  1.00  0.00    -0.001 C 
ATOM     16  C   UNL     1      -7.608  28.060  56.889  1.00  0.00     0.007 C 
ATOM     17  C   UNL     1      -9.688  29.505  56.449  1.00  0.00     0.012 C 
ATOM     18  C   UNL     1      -8.215  28.272  53.874  1.00  0.00     0.000 C 
ATOM     19  C   UNL     1      -7.385  26.903  55.866  1.00  0.00     0.005 C 
ATOM     20  C   UNL     1      -8.396  26.962  54.689  1.00  0.00     0.003 C 
ATOM     21  C   UNL     1      -9.482  28.494  53.048  1.00  0.00     0.031 C 
ATOM     22  C   UNL     1      -8.449  25.714  53.734  1.00  0.00    -0.008 C 
ATOM     23  C   UNL     1      -9.710  27.292  52.162  1.00  0.00    -0.027 C 
ATOM     24  C   UNL     1      -9.238  26.048  52.447  1.00  0.00    -0.065 C 
ATOM     25  C   UNL     1      -7.019  25.248  53.320  1.00  0.00     0.014 C 
ATOM     26  C   UNL     1      -9.179  24.561  54.477  1.00  0.00     0.016 C 
ATOM     27  C   UNL     1      -9.271  24.992  51.361  1.00  0.00     0.063 C 
ATOM     28  C   UNL     1      -7.020  24.178  52.207  1.00  0.00     0.033 C 
ATOM     29  C   UNL     1      -7.836  24.612  50.972  1.00  0.00     0.118 C 
BRANCH  29  30
ATOM     30  O   UNL     1      -7.219  25.702  50.337  1.00  0.00    -0.393 OA
ATOM     31  H   UNL     1      -6.291  25.752  50.688  1.00  0.00     0.210 HD
ENDBRANCH  29  30
ENDBRANCH   1  11
TORSDOF 6
ENDMDL
