MODEL 1
REMARK VINA RESULT:    -3.893      0.000      0.000
REMARK INTER + INTRA:          -4.550
REMARK INTER:                  -4.349
REMARK INTRA:                  -0.201
REMARK UNBOUND:                -0.201
REMARK SMILES O=C([O-])c1ccccc1C(=O)[O-]
REMARK SMILES IDX 4 1 9 2 5 3 8 4 6 5 7 6 2 7 1 8 3 9 10 10 11 11 12 12
REMARK H PARENT
REMARK Flexibility Score: inf
ROOT
ATOM      1  C   UNL     1      41.188 186.358  33.217  1.00  0.00     0.006 A 
ATOM      2  C   UNL     1      40.779 185.532  32.134  1.00  0.00     0.006 A 
ATOM      3  C   UNL     1      42.318 185.989  33.971  1.00  0.00     0.010 A 
ATOM      4  C   UNL     1      41.552 184.404  31.804  1.00  0.00     0.010 A 
ATOM      5  C   UNL     1      43.057 184.852  33.639  1.00  0.00     0.001 A 
ATOM      6  C   UNL     1      42.681 184.068  32.550  1.00  0.00     0.001 A 
ENDROOT
BRANCH   1   7
ATOM      7  C   UNL     1      40.517 187.637  33.547  1.00  0.00     0.072 C 
ATOM      8  O   UNL     1      40.712 188.657  32.834  1.00  0.00    -0.545 OA
ATOM      9  O   UNL     1      39.617 187.713  34.603  1.00  0.00    -0.545 OA
ENDBRANCH   1   7
BRANCH   2  10
ATOM     10  C   UNL     1      39.529 185.763  31.371  1.00  0.00     0.072 C 
ATOM     11  O   UNL     1      39.560 186.298  30.232  1.00  0.00    -0.545 OA
ATOM     12  O   UNL     1      38.299 185.449  31.938  1.00  0.00    -0.545 OA
ENDBRANCH   2  10
TORSDOF 2
ENDMDL
MODEL 2
REMARK VINA RESULT:    -3.885      0.091      3.002
REMARK INTER + INTRA:          -4.541
REMARK INTER:                  -4.337
REMARK INTRA:                  -0.203
REMARK UNBOUND:                -0.201
REMARK SMILES O=C([O-])c1ccccc1C(=O)[O-]
REMARK SMILES IDX 4 1 9 2 5 3 8 4 6 5 7 6 2 7 1 8 3 9 10 10 11 11 12 12
REMARK H PARENT
REMARK Flexibility Score: inf
ROOT
ATOM      1  C   UNL     1      40.752 185.537  32.155  1.00  0.00     0.006 A 
ATOM      2  C   UNL     1      41.124 186.318  33.285  1.00  0.00     0.006 A 
ATOM      3  C   UNL     1      41.546 184.431  31.798  1.00  0.00     0.010 A 
ATOM      4  C   UNL     1      42.234 185.925  34.053  1.00  0.00     0.010 A 
ATOM      5  C   UNL     1      42.658 184.073  32.562  1.00  0.00     0.001 A 
ATOM      6  C   UNL     1      42.994 184.812  33.694  1.00  0.00     0.001 A 
ENDROOT
BRANCH   1   7
ATOM      7  C   UNL     1      39.521 185.794  31.373  1.00  0.00     0.072 C 
ATOM      8  O   UNL     1      39.597 186.277  30.213  1.00  0.00    -0.545 OA
ATOM      9  O   UNL     1      38.275 185.447  31.880  1.00  0.00    -0.545 OA
ENDBRANCH   1   7
BRANCH   2  10
ATOM     10  C   UNL     1      40.433 187.575  33.658  1.00  0.00     0.072 C 
ATOM     11  O   UNL     1      39.628 187.605  34.625  1.00  0.00    -0.545 OA
ATOM     12  O   UNL     1      40.618 188.724  32.897  1.00  0.00    -0.545 OA
ENDBRANCH   2  10
TORSDOF 2
ENDMDL
MODEL 3
REMARK VINA RESULT:    -3.794      1.889      2.478
REMARK INTER + INTRA:          -4.438
REMARK INTER:                  -4.355
REMARK INTRA:                  -0.083
REMARK UNBOUND:                -0.201
REMARK SMILES O=C([O-])c1ccccc1C(=O)[O-]
REMARK SMILES IDX 4 1 9 2 5 3 8 4 6 5 7 6 2 7 1 8 3 9 10 10 11 11 12 12
REMARK H PARENT
REMARK Flexibility Score: inf
ROOT
ATOM      1  C   UNL     1      39.390 187.516  32.228  1.00  0.00     0.006 A 
ATOM      2  C   UNL     1      39.358 186.501  31.231  1.00  0.00     0.006 A 
ATOM      3  C   UNL     1      40.595 187.765  32.912  1.00  0.00     0.010 A 
ATOM      4  C   UNL     1      40.545 185.819  30.910  1.00  0.00     0.010 A 
ATOM      5  C   UNL     1      41.756 187.059  32.593  1.00  0.00     0.001 A 
ATOM      6  C   UNL     1      41.734 186.097  31.585  1.00  0.00     0.001 A 
ENDROOT
BRANCH   1   7
ATOM      7  C   UNL     1      38.225 188.379  32.531  1.00  0.00     0.072 C 
ATOM      8  O   UNL     1      37.811 188.490  33.715  1.00  0.00    -0.545 OA
ATOM      9  O   UNL     1      37.615 189.125  31.529  1.00  0.00    -0.545 OA
ENDBRANCH   1   7
BRANCH   2  10
ATOM     10  C   UNL     1      38.109 186.075  30.556  1.00  0.00     0.072 C 
ATOM     11  O   UNL     1      37.873 186.412  29.367  1.00  0.00    -0.545 OA
ATOM     12  O   UNL     1      37.151 185.349  31.255  1.00  0.00    -0.545 OA
ENDBRANCH   2  10
TORSDOF 2
ENDMDL
MODEL 4
REMARK VINA RESULT:    -3.714      2.293      3.824
REMARK INTER + INTRA:          -4.350
REMARK INTER:                  -4.167
REMARK INTRA:                  -0.183
REMARK UNBOUND:                -0.201
REMARK SMILES O=C([O-])c1ccccc1C(=O)[O-]
REMARK SMILES IDX 4 1 9 2 5 3 8 4 6 5 7 6 2 7 1 8 3 9 10 10 11 11 12 12
REMARK H PARENT
REMARK Flexibility Score: inf
ROOT
ATOM      1  C   UNL     1      39.477 185.381  32.761  1.00  0.00     0.006 A 
ATOM      2  C   UNL     1      40.661 185.522  31.985  1.00  0.00     0.006 A 
ATOM      3  C   UNL     1      38.239 185.733  32.191  1.00  0.00     0.010 A 
ATOM      4  C   UNL     1      40.557 185.946  30.648  1.00  0.00     0.010 A 
ATOM      5  C   UNL     1      38.162 186.175  30.869  1.00  0.00     0.001 A 
ATOM      6  C   UNL     1      39.317 186.269  30.096  1.00  0.00     0.001 A 
ENDROOT
BRANCH   1   7
ATOM      7  C   UNL     1      39.478 184.809  34.128  1.00  0.00     0.072 C 
ATOM      8  O   UNL     1      39.260 185.548  35.124  1.00  0.00    -0.545 OA
ATOM      9  O   UNL     1      39.653 183.444  34.325  1.00  0.00    -0.545 OA
ENDBRANCH   1   7
BRANCH   2  10
ATOM     10  C   UNL     1      42.018 185.307  32.540  1.00  0.00     0.072 C 
ATOM     11  O   UNL     1      42.691 184.293  32.221  1.00  0.00    -0.545 OA
ATOM     12  O   UNL     1      42.537 186.195  33.475  1.00  0.00    -0.545 OA
ENDBRANCH   2  10
TORSDOF 2
ENDMDL
MODEL 5
REMARK VINA RESULT:    -3.677      2.263      3.820
REMARK INTER + INTRA:          -4.308
REMARK INTER:                  -4.120
REMARK INTRA:                  -0.188
REMARK UNBOUND:                -0.201
REMARK SMILES O=C([O-])c1ccccc1C(=O)[O-]
REMARK SMILES IDX 4 1 9 2 5 3 8 4 6 5 7 6 2 7 1 8 3 9 10 10 11 11 12 12
REMARK H PARENT
REMARK Flexibility Score: inf
ROOT
ATOM      1  C   UNL     1      40.602 185.631  32.007  1.00  0.00     0.006 A 
ATOM      2  C   UNL     1      39.415 185.391  32.754  1.00  0.00     0.006 A 
ATOM      3  C   UNL     1      40.494 186.048  30.667  1.00  0.00     0.010 A 
ATOM      4  C   UNL     1      38.168 185.641  32.155  1.00  0.00     0.010 A 
ATOM      5  C   UNL     1      39.244 186.266  30.086  1.00  0.00     0.001 A 
ATOM      6  C   UNL     1      38.084 186.075  30.832  1.00  0.00     0.001 A 
ENDROOT
BRANCH   1   7
ATOM      7  C   UNL     1      41.956 185.530  32.599  1.00  0.00     0.072 C 
ATOM      8  O   UNL     1      42.373 186.424  33.382  1.00  0.00    -0.545 OA
ATOM      9  O   UNL     1      42.756 184.421  32.353  1.00  0.00    -0.545 OA
ENDBRANCH   1   7
BRANCH   2  10
ATOM     10  C   UNL     1      39.426 184.822  34.122  1.00  0.00     0.072 C 
ATOM     11  O   UNL     1      39.210 185.551  35.125  1.00  0.00    -0.545 OA
ATOM     12  O   UNL     1      39.743 183.482  34.317  1.00  0.00    -0.545 OA
ENDBRANCH   2  10
TORSDOF 2
ENDMDL
MODEL 6
REMARK VINA RESULT:    -3.513     22.406     23.656
REMARK INTER + INTRA:          -4.125
REMARK INTER:                  -3.915
REMARK INTRA:                  -0.210
REMARK UNBOUND:                -0.201
REMARK SMILES O=C([O-])c1ccccc1C(=O)[O-]
REMARK SMILES IDX 4 1 9 2 5 3 8 4 6 5 7 6 2 7 1 8 3 9 10 10 11 11 12 12
REMARK H PARENT
REMARK Flexibility Score: inf
ROOT
ATOM      1  C   UNL     1      32.967 170.690  17.265  1.00  0.00     0.006 A 
ATOM      2  C   UNL     1      32.217 170.977  16.091  1.00  0.00     0.006 A 
ATOM      3  C   UNL     1      34.373 170.706  17.198  1.00  0.00     0.010 A 
ATOM      4  C   UNL     1      32.898 171.333  14.913  1.00  0.00     0.010 A 
ATOM      5  C   UNL     1      35.029 171.039  16.012  1.00  0.00     0.001 A 
ATOM      6  C   UNL     1      34.292 171.364  14.875  1.00  0.00     0.001 A 
ENDROOT
BRANCH   1   7
ATOM      7  C   UNL     1      32.334 170.444  18.581  1.00  0.00     0.072 C 
ATOM      8  O   UNL     1      32.256 169.272  19.037  1.00  0.00    -0.545 OA
ATOM      9  O   UNL     1      31.877 171.502  19.356  1.00  0.00    -0.545 OA
ENDBRANCH   1   7
BRANCH   2  10
ATOM     10  C   UNL     1      30.741 170.853  16.027  1.00  0.00     0.072 C 
ATOM     11  O   UNL     1      30.007 171.875  16.051  1.00  0.00    -0.545 OA
ATOM     12  O   UNL     1      30.148 169.595  16.007  1.00  0.00    -0.545 OA
ENDBRANCH   2  10
TORSDOF 2
ENDMDL
MODEL 7
REMARK VINA RESULT:    -3.505      2.432      3.247
REMARK INTER + INTRA:          -4.115
REMARK INTER:                  -3.898
REMARK INTRA:                  -0.217
REMARK UNBOUND:                -0.201
REMARK SMILES O=C([O-])c1ccccc1C(=O)[O-]
REMARK SMILES IDX 4 1 9 2 5 3 8 4 6 5 7 6 2 7 1 8 3 9 10 10 11 11 12 12
REMARK H PARENT
REMARK Flexibility Score: inf
ROOT
ATOM      1  C   UNL     1      38.424 185.761  32.026  1.00  0.00     0.006 A 
ATOM      2  C   UNL     1      39.004 186.175  30.794  1.00  0.00     0.006 A 
ATOM      3  C   UNL     1      39.202 185.017  32.932  1.00  0.00     0.010 A 
ATOM      4  C   UNL     1      40.358 185.887  30.545  1.00  0.00     0.010 A 
ATOM      5  C   UNL     1      40.538 184.723  32.653  1.00  0.00     0.001 A 
ATOM      6  C   UNL     1      41.118 185.168  31.467  1.00  0.00     0.001 A 
ENDROOT
BRANCH   1   7
ATOM      7  C   UNL     1      37.051 186.140  32.432  1.00  0.00     0.072 C 
ATOM      8  O   UNL     1      36.087 185.360  32.212  1.00  0.00    -0.545 OA
ATOM      9  O   UNL     1      36.817 187.326  33.117  1.00  0.00    -0.545 OA
ENDBRANCH   1   7
BRANCH   2  10
ATOM     10  C   UNL     1      38.228 186.840  29.721  1.00  0.00     0.072 C 
ATOM     11  O   UNL     1      37.623 186.164  28.850  1.00  0.00    -0.545 OA
ATOM     12  O   UNL     1      38.215 188.228  29.629  1.00  0.00    -0.545 OA
ENDBRANCH   2  10
TORSDOF 2
ENDMDL
MODEL 8
REMARK VINA RESULT:    -3.504      2.140      3.542
REMARK INTER + INTRA:          -4.115
REMARK INTER:                  -3.886
REMARK INTRA:                  -0.229
REMARK UNBOUND:                -0.201
REMARK SMILES O=C([O-])c1ccccc1C(=O)[O-]
REMARK SMILES IDX 4 1 9 2 5 3 8 4 6 5 7 6 2 7 1 8 3 9 10 10 11 11 12 12
REMARK H PARENT
REMARK Flexibility Score: inf
ROOT
ATOM      1  C   UNL     1      40.555 186.113  32.636  1.00  0.00     0.006 A 
ATOM      2  C   UNL     1      39.529 187.089  32.771  1.00  0.00     0.006 A 
ATOM      3  C   UNL     1      40.742 185.485  31.390  1.00  0.00     0.010 A 
ATOM      4  C   UNL     1      38.774 187.448  31.640  1.00  0.00     0.010 A 
ATOM      5  C   UNL     1      39.964 185.841  30.287  1.00  0.00     0.001 A 
ATOM      6  C   UNL     1      38.990 186.829  30.409  1.00  0.00     0.001 A 
ENDROOT
BRANCH   1   7
ATOM      7  C   UNL     1      41.489 185.775  33.734  1.00  0.00     0.072 C 
ATOM      8  O   UNL     1      42.586 186.384  33.843  1.00  0.00    -0.545 OA
ATOM      9  O   UNL     1      41.143 184.832  34.695  1.00  0.00    -0.545 OA
ENDBRANCH   1   7
BRANCH   2  10
ATOM     10  C   UNL     1      39.168 187.703  34.070  1.00  0.00     0.072 C 
ATOM     11  O   UNL     1      39.670 188.801  34.425  1.00  0.00    -0.545 OA
ATOM     12  O   UNL     1      38.316 187.036  34.943  1.00  0.00    -0.545 OA
ENDBRANCH   2  10
TORSDOF 2
ENDMDL
MODEL 9
REMARK VINA RESULT:    -3.486      2.095      3.323
REMARK INTER + INTRA:          -4.094
REMARK INTER:                  -3.871
REMARK INTRA:                  -0.224
REMARK UNBOUND:                -0.201
REMARK SMILES O=C([O-])c1ccccc1C(=O)[O-]
REMARK SMILES IDX 4 1 9 2 5 3 8 4 6 5 7 6 2 7 1 8 3 9 10 10 11 11 12 12
REMARK H PARENT
REMARK Flexibility Score: inf
ROOT
ATOM      1  C   UNL     1      39.637 186.843  32.841  1.00  0.00     0.006 A 
ATOM      2  C   UNL     1      40.672 185.879  32.682  1.00  0.00     0.006 A 
ATOM      3  C   UNL     1      38.911 187.259  31.710  1.00  0.00     0.010 A 
ATOM      4  C   UNL     1      40.897 185.320  31.412  1.00  0.00     0.010 A 
ATOM      5  C   UNL     1      39.167 186.707  30.453  1.00  0.00     0.001 A 
ATOM      6  C   UNL     1      40.150 185.730  30.308  1.00  0.00     0.001 A 
ENDROOT
BRANCH   1   7
ATOM      7  C   UNL     1      39.238 187.380  34.163  1.00  0.00     0.072 C 
ATOM      8  O   UNL     1      38.437 186.737  34.892  1.00  0.00    -0.545 OA
ATOM      9  O   UNL     1      39.790 188.561  34.643  1.00  0.00    -0.545 OA
ENDBRANCH   1   7
BRANCH   2  10
ATOM     10  C   UNL     1      41.579 185.482  33.785  1.00  0.00     0.072 C 
ATOM     11  O   UNL     1      42.670 186.081  33.969  1.00  0.00    -0.545 OA
ATOM     12  O   UNL     1      41.261 184.395  34.591  1.00  0.00    -0.545 OA
ENDBRANCH   2  10
TORSDOF 2
ENDMDL
