MODEL 1
REMARK VINA RESULT:    -5.905      0.000      0.000
REMARK INTER + INTRA:          -7.076
REMARK INTER:                  -6.769
REMARK INTRA:                  -0.307
REMARK UNBOUND:                -0.307
REMARK SMILES O=C1C[C@@H](c2ccc(O)cc2)Oc2cc(O)cc(O)c21
REMARK SMILES IDX 3 1 4 2 12 3 13 4 14 5 15 6 17 7 18 8 20 9 2 10 1 11 5 12
REMARK SMILES IDX 6 13 11 14 7 15 10 16 8 17 9 18 19 20 16 22
REMARK H PARENT 9 19 19 21 16 23
REMARK Flexibility Score: inf
ROOT
ATOM      1  C   UNL     1       3.334   0.491  -3.144  1.00  0.00     0.131 C 
ATOM      2  C   UNL     1       4.538   0.550  -4.094  1.00  0.00     0.211 C 
ATOM      3  O   UNL     1       5.613  -0.253  -3.597  1.00  0.00    -0.484 OA
ATOM      4  C   UNL     1       5.405  -1.495  -2.981  1.00  0.00     0.138 A 
ATOM      5  C   UNL     1       6.499  -2.339  -2.776  1.00  0.00     0.093 A 
ATOM      6  C   UNL     1       6.322  -3.590  -2.178  1.00  0.00     0.123 A 
ATOM      7  C   UNL     1       5.051  -3.984  -1.758  1.00  0.00     0.093 A 
ATOM      8  C   UNL     1       3.946  -3.139  -1.918  1.00  0.00     0.133 A 
ATOM      9  C   UNL     1       4.114  -1.887  -2.569  1.00  0.00     0.102 A 
ATOM     10  C   UNL     1       3.005  -0.943  -2.855  1.00  0.00     0.174 C 
ATOM     11  O   UNL     1       1.806  -1.326  -2.915  1.00  0.00    -0.294 OA
ENDROOT
BRANCH   2  12
ATOM     12  C   UNL     1       5.001   1.973  -4.284  1.00  0.00    -0.007 A 
ATOM     13  C   UNL     1       6.245   2.247  -4.880  1.00  0.00     0.011 A 
ATOM     14  C   UNL     1       4.217   3.041  -3.815  1.00  0.00     0.011 A 
ATOM     15  C   UNL     1       6.683   3.567  -5.025  1.00  0.00     0.046 A 
ATOM     16  C   UNL     1       4.657   4.359  -3.962  1.00  0.00     0.046 A 
ATOM     17  C   UNL     1       5.889   4.627  -4.568  1.00  0.00     0.115 A 
BRANCH  17  18
ATOM     18  O   UNL     1       6.314   5.945  -4.709  1.00  0.00    -0.508 OA
ATOM     19  H   UNL     1       7.285   6.206  -4.576  1.00  0.00     0.293 HD
ENDBRANCH  17  18
ENDBRANCH   2  12
BRANCH   8  20
ATOM     20  O   UNL     1       2.726  -3.567  -1.389  1.00  0.00    -0.507 OA
ATOM     21  H   UNL     1       1.838  -3.138  -1.602  1.00  0.00     0.293 HD
ENDBRANCH   8  20
BRANCH   6  22
ATOM     22  O   UNL     1       7.405  -4.446  -1.988  1.00  0.00    -0.508 OA
ATOM     23  H   UNL     1       7.614  -4.843  -1.080  1.00  0.00     0.293 HD
ENDBRANCH   6  22
TORSDOF 4
ENDMDL
MODEL 2
REMARK VINA RESULT:    -5.342      2.235      6.636
REMARK INTER + INTRA:          -6.430
REMARK INTER:                  -6.143
REMARK INTRA:                  -0.287
REMARK UNBOUND:                -0.307
REMARK SMILES O=C1C[C@@H](c2ccc(O)cc2)Oc2cc(O)cc(O)c21
REMARK SMILES IDX 3 1 4 2 12 3 13 4 14 5 15 6 17 7 18 8 20 9 2 10 1 11 5 12
REMARK SMILES IDX 6 13 11 14 7 15 10 16 8 17 9 18 19 20 16 22
REMARK H PARENT 9 19 19 21 16 23
REMARK Flexibility Score: inf
ROOT
ATOM      1  C   UNL     1       3.428   0.960  -3.379  1.00  0.00     0.131 C 
ATOM      2  C   UNL     1       4.553  -0.080  -3.285  1.00  0.00     0.211 C 
ATOM      3  O   UNL     1       5.089  -0.362  -4.581  1.00  0.00    -0.484 OA
ATOM      4  C   UNL     1       5.282   0.632  -5.551  1.00  0.00     0.138 A 
ATOM      5  C   UNL     1       6.058   0.338  -6.675  1.00  0.00     0.093 A 
ATOM      6  C   UNL     1       6.280   1.312  -7.652  1.00  0.00     0.123 A 
ATOM      7  C   UNL     1       5.700   2.574  -7.518  1.00  0.00     0.093 A 
ATOM      8  C   UNL     1       4.887   2.879  -6.419  1.00  0.00     0.133 A 
ATOM      9  C   UNL     1       4.698   1.907  -5.401  1.00  0.00     0.102 A 
ATOM     10  C   UNL     1       3.915   2.143  -4.161  1.00  0.00     0.174 C 
ATOM     11  O   UNL     1       3.700   3.304  -3.722  1.00  0.00    -0.294 OA
ENDROOT
BRANCH   2  12
ATOM     12  C   UNL     1       4.053  -1.351  -2.644  1.00  0.00    -0.007 A 
ATOM     13  C   UNL     1       4.920  -2.156  -1.882  1.00  0.00     0.011 A 
ATOM     14  C   UNL     1       2.729  -1.774  -2.848  1.00  0.00     0.011 A 
ATOM     15  C   UNL     1       4.460  -3.349  -1.316  1.00  0.00     0.046 A 
ATOM     16  C   UNL     1       2.273  -2.967  -2.280  1.00  0.00     0.046 A 
ATOM     17  C   UNL     1       3.135  -3.757  -1.512  1.00  0.00     0.115 A 
BRANCH  17  18
ATOM     18  O   UNL     1       2.666  -4.942  -0.952  1.00  0.00    -0.508 OA
ATOM     19  H   UNL     1       1.676  -5.104  -0.807  1.00  0.00     0.293 HD
ENDBRANCH  17  18
ENDBRANCH   2  12
BRANCH   8  20
ATOM     20  O   UNL     1       4.269   4.131  -6.404  1.00  0.00    -0.507 OA
ATOM     21  H   UNL     1       3.380   4.316  -5.964  1.00  0.00     0.293 HD
ENDBRANCH   8  20
BRANCH   6  22
ATOM     22  O   UNL     1       7.070   1.033  -8.766  1.00  0.00    -0.508 OA
ATOM     23  H   UNL     1       7.792   1.671  -9.077  1.00  0.00     0.293 HD
ENDBRANCH   6  22
TORSDOF 4
ENDMDL
MODEL 3
REMARK VINA RESULT:    -5.244      1.861      6.590
REMARK INTER + INTRA:          -6.318
REMARK INTER:                  -6.028
REMARK INTRA:                  -0.290
REMARK UNBOUND:                -0.307
REMARK SMILES O=C1C[C@@H](c2ccc(O)cc2)Oc2cc(O)cc(O)c21
REMARK SMILES IDX 3 1 4 2 12 3 13 4 14 5 15 6 17 7 18 8 20 9 2 10 1 11 5 12
REMARK SMILES IDX 6 13 11 14 7 15 10 16 8 17 9 18 19 20 16 22
REMARK H PARENT 9 19 19 21 16 23
REMARK Flexibility Score: inf
ROOT
ATOM      1  C   UNL     1       3.583   1.170  -3.511  1.00  0.00     0.131 C 
ATOM      2  C   UNL     1       4.658   0.242  -2.930  1.00  0.00     0.211 C 
ATOM      3  O   UNL     1       5.738   0.079  -3.855  1.00  0.00    -0.484 OA
ATOM      4  C   UNL     1       6.227   1.134  -4.637  1.00  0.00     0.138 A 
ATOM      5  C   UNL     1       7.446   0.974  -5.301  1.00  0.00     0.093 A 
ATOM      6  C   UNL     1       7.967   2.014  -6.077  1.00  0.00     0.123 A 
ATOM      7  C   UNL     1       7.252   3.205  -6.211  1.00  0.00     0.093 A 
ATOM      8  C   UNL     1       6.010   3.372  -5.587  1.00  0.00     0.133 A 
ATOM      9  C   UNL     1       5.500   2.337  -4.759  1.00  0.00     0.102 A 
ATOM     10  C   UNL     1       4.231   2.433  -3.994  1.00  0.00     0.174 C 
ATOM     11  O   UNL     1       3.719   3.543  -3.694  1.00  0.00    -0.294 OA
ENDROOT
BRANCH   2  12
ATOM     12  C   UNL     1       4.071  -1.103  -2.579  1.00  0.00    -0.007 A 
ATOM     13  C   UNL     1       2.730  -1.399  -2.884  1.00  0.00     0.011 A 
ATOM     14  C   UNL     1       4.842  -2.055  -1.892  1.00  0.00     0.011 A 
ATOM     15  C   UNL     1       2.181  -2.635  -2.528  1.00  0.00     0.046 A 
ATOM     16  C   UNL     1       4.291  -3.290  -1.538  1.00  0.00     0.046 A 
ATOM     17  C   UNL     1       2.961  -3.585  -1.856  1.00  0.00     0.115 A 
BRANCH  17  18
ATOM     18  O   UNL     1       2.426  -4.820  -1.499  1.00  0.00    -0.508 OA
ATOM     19  H   UNL     1       2.027  -4.978  -0.581  1.00  0.00     0.293 HD
ENDBRANCH  17  18
ENDBRANCH   2  12
BRANCH   8  20
ATOM     20  O   UNL     1       5.315   4.556  -5.845  1.00  0.00    -0.507 OA
ATOM     21  H   UNL     1       4.312   4.645  -5.788  1.00  0.00     0.293 HD
ENDBRANCH   8  20
BRANCH   6  22
ATOM     22  O   UNL     1       9.192   1.870  -6.725  1.00  0.00    -0.508 OA
ATOM     23  H   UNL     1       9.285   1.309  -7.564  1.00  0.00     0.293 HD
ENDBRANCH   6  22
TORSDOF 4
ENDMDL
MODEL 4
REMARK VINA RESULT:    -5.191      1.736      1.956
REMARK INTER + INTRA:          -6.257
REMARK INTER:                  -5.966
REMARK INTRA:                  -0.292
REMARK UNBOUND:                -0.307
REMARK SMILES O=C1C[C@@H](c2ccc(O)cc2)Oc2cc(O)cc(O)c21
REMARK SMILES IDX 3 1 4 2 12 3 13 4 14 5 15 6 17 7 18 8 20 9 2 10 1 11 5 12
REMARK SMILES IDX 6 13 11 14 7 15 10 16 8 17 9 18 19 20 16 22
REMARK H PARENT 9 19 19 21 16 23
REMARK Flexibility Score: inf
ROOT
ATOM      1  C   UNL     1       4.003   0.800  -3.970  1.00  0.00     0.131 C 
ATOM      2  C   UNL     1       5.004   0.762  -5.133  1.00  0.00     0.211 C 
ATOM      3  O   UNL     1       6.279   0.291  -4.685  1.00  0.00    -0.484 OA
ATOM      4  C   UNL     1       6.416  -0.747  -3.753  1.00  0.00     0.138 A 
ATOM      5  C   UNL     1       7.670  -1.335  -3.576  1.00  0.00     0.093 A 
ATOM      6  C   UNL     1       7.835  -2.382  -2.664  1.00  0.00     0.123 A 
ATOM      7  C   UNL     1       6.747  -2.820  -1.907  1.00  0.00     0.093 A 
ATOM      8  C   UNL     1       5.490  -2.219  -2.040  1.00  0.00     0.133 A 
ATOM      9  C   UNL     1       5.307  -1.188  -2.999  1.00  0.00     0.102 A 
ATOM     10  C   UNL     1       4.006  -0.528  -3.275  1.00  0.00     0.174 C 
ATOM     11  O   UNL     1       2.910  -1.079  -2.990  1.00  0.00    -0.294 OA
ENDROOT
BRANCH   2  12
ATOM     12  C   UNL     1       5.148   2.127  -5.759  1.00  0.00    -0.007 A 
ATOM     13  C   UNL     1       4.772   2.343  -7.098  1.00  0.00     0.011 A 
ATOM     14  C   UNL     1       5.712   3.186  -5.028  1.00  0.00     0.011 A 
ATOM     15  C   UNL     1       4.936   3.602  -7.683  1.00  0.00     0.046 A 
ATOM     16  C   UNL     1       5.874   4.444  -5.616  1.00  0.00     0.046 A 
ATOM     17  C   UNL     1       5.486   4.656  -6.943  1.00  0.00     0.115 A 
BRANCH  17  18
ATOM     18  O   UNL     1       5.653   5.915  -7.515  1.00  0.00    -0.508 OA
ATOM     19  H   UNL     1       5.973   6.707  -6.969  1.00  0.00     0.293 HD
ENDBRANCH  17  18
ENDBRANCH   2  12
BRANCH   8  20
ATOM     20  O   UNL     1       4.476  -2.652  -1.182  1.00  0.00    -0.507 OA
ATOM     21  H   UNL     1       4.426  -2.412  -0.203  1.00  0.00     0.293 HD
ENDBRANCH   8  20
BRANCH   6  22
ATOM     22  O   UNL     1       9.078  -2.988  -2.496  1.00  0.00    -0.508 OA
ATOM     23  H   UNL     1       9.807  -2.557  -1.940  1.00  0.00     0.293 HD
ENDBRANCH   6  22
TORSDOF 4
ENDMDL
MODEL 5
REMARK VINA RESULT:    -4.980      1.875      7.070
REMARK INTER + INTRA:          -6.014
REMARK INTER:                  -5.705
REMARK INTRA:                  -0.309
REMARK UNBOUND:                -0.307
REMARK SMILES O=C1C[C@@H](c2ccc(O)cc2)Oc2cc(O)cc(O)c21
REMARK SMILES IDX 3 1 4 2 12 3 13 4 14 5 15 6 17 7 18 8 20 9 2 10 1 11 5 12
REMARK SMILES IDX 6 13 11 14 7 15 10 16 8 17 9 18 19 20 16 22
REMARK H PARENT 9 19 19 21 16 23
REMARK Flexibility Score: inf
ROOT
ATOM      1  C   UNL     1       7.582   0.094  -4.421  1.00  0.00     0.131 C 
ATOM      2  C   UNL     1       6.319  -0.779  -4.439  1.00  0.00     0.211 C 
ATOM      3  O   UNL     1       5.200  -0.058  -3.914  1.00  0.00    -0.484 OA
ATOM      4  C   UNL     1       4.983   1.300  -4.183  1.00  0.00     0.138 A 
ATOM      5  C   UNL     1       3.742   1.861  -3.874  1.00  0.00     0.093 A 
ATOM      6  C   UNL     1       3.490   3.209  -4.144  1.00  0.00     0.123 A 
ATOM      7  C   UNL     1       4.495   4.005  -4.698  1.00  0.00     0.093 A 
ATOM      8  C   UNL     1       5.759   3.474  -4.979  1.00  0.00     0.133 A 
ATOM      9  C   UNL     1       6.003   2.093  -4.751  1.00  0.00     0.102 A 
ATOM     10  C   UNL     1       7.280   1.409  -5.077  1.00  0.00     0.174 C 
ATOM     11  O   UNL     1       8.084   1.874  -5.926  1.00  0.00    -0.294 OA
ENDROOT
BRANCH   2  12
ATOM     12  C   UNL     1       6.535  -2.046  -3.649  1.00  0.00    -0.007 A 
ATOM     13  C   UNL     1       7.356  -3.071  -4.152  1.00  0.00     0.011 A 
ATOM     14  C   UNL     1       5.872  -2.239  -2.425  1.00  0.00     0.011 A 
ATOM     15  C   UNL     1       7.528  -4.257  -3.431  1.00  0.00     0.046 A 
ATOM     16  C   UNL     1       6.046  -3.425  -1.706  1.00  0.00     0.046 A 
ATOM     17  C   UNL     1       6.875  -4.436  -2.205  1.00  0.00     0.115 A 
BRANCH  17  18
ATOM     18  O   UNL     1       7.040  -5.611  -1.477  1.00  0.00    -0.508 OA
ATOM     19  H   UNL     1       6.303  -5.975  -0.883  1.00  0.00     0.293 HD
ENDBRANCH  17  18
ENDBRANCH   2  12
BRANCH   8  20
ATOM     20  O   UNL     1       6.737   4.355  -5.445  1.00  0.00    -0.507 OA
ATOM     21  H   UNL     1       6.595   5.348  -5.554  1.00  0.00     0.293 HD
ENDBRANCH   8  20
BRANCH   6  22
ATOM     22  O   UNL     1       2.248   3.771  -3.858  1.00  0.00    -0.508 OA
ATOM     23  H   UNL     1       2.067   4.237  -2.977  1.00  0.00     0.293 HD
ENDBRANCH   6  22
TORSDOF 4
ENDMDL
MODEL 6
REMARK VINA RESULT:    -4.928      2.439      3.921
REMARK INTER + INTRA:          -5.955
REMARK INTER:                  -5.640
REMARK INTRA:                  -0.315
REMARK UNBOUND:                -0.307
REMARK SMILES O=C1C[C@@H](c2ccc(O)cc2)Oc2cc(O)cc(O)c21
REMARK SMILES IDX 3 1 4 2 12 3 13 4 14 5 15 6 17 7 18 8 20 9 2 10 1 11 5 12
REMARK SMILES IDX 6 13 11 14 7 15 10 16 8 17 9 18 19 20 16 22
REMARK H PARENT 9 19 19 21 16 23
REMARK Flexibility Score: inf
ROOT
ATOM      1  C   UNL     1       6.578  -0.800  -5.745  1.00  0.00     0.131 C 
ATOM      2  C   UNL     1       6.464  -0.304  -4.297  1.00  0.00     0.211 C 
ATOM      3  O   UNL     1       6.186  -1.392  -3.411  1.00  0.00    -0.484 OA
ATOM      4  C   UNL     1       6.774  -2.656  -3.559  1.00  0.00     0.138 A 
ATOM      5  C   UNL     1       6.675  -3.575  -2.511  1.00  0.00     0.093 A 
ATOM      6  C   UNL     1       7.265  -4.837  -2.623  1.00  0.00     0.123 A 
ATOM      7  C   UNL     1       7.929  -5.191  -3.799  1.00  0.00     0.093 A 
ATOM      8  C   UNL     1       8.007  -4.300  -4.876  1.00  0.00     0.133 A 
ATOM      9  C   UNL     1       7.452  -2.999  -4.748  1.00  0.00     0.102 A 
ATOM     10  C   UNL     1       7.536  -1.952  -5.797  1.00  0.00     0.174 C 
ATOM     11  O   UNL     1       8.423  -1.977  -6.690  1.00  0.00    -0.294 OA
ENDROOT
BRANCH   2  12
ATOM     12  C   UNL     1       5.391   0.750  -4.175  1.00  0.00    -0.007 A 
ATOM     13  C   UNL     1       4.245   0.516  -3.393  1.00  0.00     0.011 A 
ATOM     14  C   UNL     1       5.498   1.956  -4.888  1.00  0.00     0.011 A 
ATOM     15  C   UNL     1       3.239   1.483  -3.308  1.00  0.00     0.046 A 
ATOM     16  C   UNL     1       4.490   2.920  -4.801  1.00  0.00     0.046 A 
ATOM     17  C   UNL     1       3.360   2.689  -4.011  1.00  0.00     0.115 A 
BRANCH  17  18
ATOM     18  O   UNL     1       2.364   3.659  -3.933  1.00  0.00    -0.508 OA
ATOM     19  H   UNL     1       1.399   3.448  -4.159  1.00  0.00     0.293 HD
ENDBRANCH  17  18
ENDBRANCH   2  12
BRANCH   8  20
ATOM     20  O   UNL     1       8.609  -4.762  -6.050  1.00  0.00    -0.507 OA
ATOM     21  H   UNL     1       8.951  -5.703  -6.175  1.00  0.00     0.293 HD
ENDBRANCH   8  20
BRANCH   6  22
ATOM     22  O   UNL     1       7.188  -5.752  -1.575  1.00  0.00    -0.508 OA
ATOM     23  H   UNL     1       6.699  -6.633  -1.675  1.00  0.00     0.293 HD
ENDBRANCH   6  22
TORSDOF 4
ENDMDL
MODEL 7
REMARK VINA RESULT:    -4.876      1.669      3.006
REMARK INTER + INTRA:          -5.895
REMARK INTER:                  -5.612
REMARK INTRA:                  -0.283
REMARK UNBOUND:                -0.307
REMARK SMILES O=C1C[C@@H](c2ccc(O)cc2)Oc2cc(O)cc(O)c21
REMARK SMILES IDX 3 1 4 2 12 3 13 4 14 5 15 6 17 7 18 8 20 9 2 10 1 11 5 12
REMARK SMILES IDX 6 13 11 14 7 15 10 16 8 17 9 18 19 20 16 22
REMARK H PARENT 9 19 19 21 16 23
REMARK Flexibility Score: inf
ROOT
ATOM      1  C   UNL     1       6.627  -0.530  -4.085  1.00  0.00     0.131 C 
ATOM      2  C   UNL     1       5.465   0.280  -3.494  1.00  0.00     0.211 C 
ATOM      3  O   UNL     1       4.374  -0.580  -3.152  1.00  0.00    -0.484 OA
ATOM      4  C   UNL     1       4.561  -1.848  -2.583  1.00  0.00     0.138 A 
ATOM      5  C   UNL     1       3.463  -2.507  -2.024  1.00  0.00     0.093 A 
ATOM      6  C   UNL     1       3.620  -3.765  -1.436  1.00  0.00     0.123 A 
ATOM      7  C   UNL     1       4.874  -4.377  -1.434  1.00  0.00     0.093 A 
ATOM      8  C   UNL     1       5.981  -3.753  -2.023  1.00  0.00     0.133 A 
ATOM      9  C   UNL     1       5.835  -2.454  -2.578  1.00  0.00     0.102 A 
ATOM     10  C   UNL     1       6.951  -1.669  -3.164  1.00  0.00     0.174 C 
ATOM     11  O   UNL     1       8.153  -1.900  -2.866  1.00  0.00    -0.294 OA
ENDROOT
BRANCH   2  12
ATOM     12  C   UNL     1       5.004   1.339  -4.465  1.00  0.00    -0.007 A 
ATOM     13  C   UNL     1       5.410   1.300  -5.811  1.00  0.00     0.011 A 
ATOM     14  C   UNL     1       4.209   2.409  -4.020  1.00  0.00     0.011 A 
ATOM     15  C   UNL     1       5.005   2.301  -6.700  1.00  0.00     0.046 A 
ATOM     16  C   UNL     1       3.807   3.408  -4.911  1.00  0.00     0.046 A 
ATOM     17  C   UNL     1       4.201   3.357  -6.252  1.00  0.00     0.115 A 
BRANCH  17  18
ATOM     18  O   UNL     1       3.791   4.358  -7.128  1.00  0.00    -0.508 OA
ATOM     19  H   UNL     1       3.580   5.294  -6.802  1.00  0.00     0.293 HD
ENDBRANCH  17  18
ENDBRANCH   2  12
BRANCH   8  20
ATOM     20  O   UNL     1       7.179  -4.470  -2.061  1.00  0.00    -0.507 OA
ATOM     21  H   UNL     1       7.960  -4.296  -1.446  1.00  0.00     0.293 HD
ENDBRANCH   8  20
BRANCH   6  22
ATOM     22  O   UNL     1       2.534  -4.419  -0.859  1.00  0.00    -0.508 OA
ATOM     23  H   UNL     1       2.608  -5.371  -0.520  1.00  0.00     0.293 HD
ENDBRANCH   6  22
TORSDOF 4
ENDMDL
MODEL 8
REMARK VINA RESULT:    -4.855      2.053      7.003
REMARK INTER + INTRA:          -5.872
REMARK INTER:                  -5.587
REMARK INTRA:                  -0.285
REMARK UNBOUND:                -0.307
REMARK SMILES O=C1C[C@@H](c2ccc(O)cc2)Oc2cc(O)cc(O)c21
REMARK SMILES IDX 3 1 4 2 12 3 13 4 14 5 15 6 17 7 18 8 20 9 2 10 1 11 5 12
REMARK SMILES IDX 6 13 11 14 7 15 10 16 8 17 9 18 19 20 16 22
REMARK H PARENT 9 19 19 21 16 23
REMARK Flexibility Score: inf
ROOT
ATOM      1  C   UNL     1       5.431  -0.384  -5.814  1.00  0.00     0.131 C 
ATOM      2  C   UNL     1       5.037   0.045  -4.394  1.00  0.00     0.211 C 
ATOM      3  O   UNL     1       5.614   1.315  -4.073  1.00  0.00    -0.484 OA
ATOM      4  C   UNL     1       5.704   2.359  -5.003  1.00  0.00     0.138 A 
ATOM      5  C   UNL     1       6.016   3.643  -4.549  1.00  0.00     0.093 A 
ATOM      6  C   UNL     1       6.099   4.709  -5.450  1.00  0.00     0.123 A 
ATOM      7  C   UNL     1       5.898   4.482  -6.813  1.00  0.00     0.093 A 
ATOM      8  C   UNL     1       5.622   3.196  -7.294  1.00  0.00     0.133 A 
ATOM      9  C   UNL     1       5.489   2.121  -6.377  1.00  0.00     0.102 A 
ATOM     10  C   UNL     1       5.131   0.734  -6.767  1.00  0.00     0.174 C 
ATOM     11  O   UNL     1       4.535   0.481  -7.847  1.00  0.00    -0.294 OA
ENDROOT
BRANCH   2  12
ATOM     12  C   UNL     1       5.470  -0.990  -3.383  1.00  0.00    -0.007 A 
ATOM     13  C   UNL     1       4.608  -1.375  -2.341  1.00  0.00     0.011 A 
ATOM     14  C   UNL     1       6.762  -1.539  -3.441  1.00  0.00     0.011 A 
ATOM     15  C   UNL     1       5.024  -2.310  -1.389  1.00  0.00     0.046 A 
ATOM     16  C   UNL     1       7.175  -2.474  -2.488  1.00  0.00     0.046 A 
ATOM     17  C   UNL     1       6.309  -2.864  -1.462  1.00  0.00     0.115 A 
BRANCH  17  18
ATOM     18  O   UNL     1       6.734  -3.798  -0.521  1.00  0.00    -0.508 OA
ATOM     19  H   UNL     1       6.199  -3.985   0.319  1.00  0.00     0.293 HD
ENDBRANCH  17  18
ENDBRANCH   2  12
BRANCH   8  20
ATOM     20  O   UNL     1       5.525   3.036  -8.679  1.00  0.00    -0.507 OA
ATOM     21  H   UNL     1       5.171   2.204  -9.126  1.00  0.00     0.293 HD
ENDBRANCH   8  20
BRANCH   6  22
ATOM     22  O   UNL     1       6.390   5.995  -5.003  1.00  0.00    -0.508 OA
ATOM     23  H   UNL     1       7.328   6.374  -5.052  1.00  0.00     0.293 HD
ENDBRANCH   6  22
TORSDOF 4
ENDMDL
MODEL 9
REMARK VINA RESULT:    -4.819      3.920      8.873
REMARK INTER + INTRA:          -5.830
REMARK INTER:                  -5.539
REMARK INTRA:                  -0.291
REMARK UNBOUND:                -0.307
REMARK SMILES O=C1C[C@@H](c2ccc(O)cc2)Oc2cc(O)cc(O)c21
REMARK SMILES IDX 3 1 4 2 12 3 13 4 14 5 15 6 17 7 18 8 20 9 2 10 1 11 5 12
REMARK SMILES IDX 6 13 11 14 7 15 10 16 8 17 9 18 19 20 16 22
REMARK H PARENT 9 19 19 21 16 23
REMARK Flexibility Score: inf
ROOT
ATOM      1  C   UNL     1       5.982   4.230  -6.500  1.00  0.00     0.131 C 
ATOM      2  C   UNL     1       4.980   3.149  -6.929  1.00  0.00     0.211 C 
ATOM      3  O   UNL     1       3.751   3.742  -7.358  1.00  0.00    -0.484 OA
ATOM      4  C   UNL     1       3.705   4.924  -8.111  1.00  0.00     0.138 A 
ATOM      5  C   UNL     1       2.504   5.289  -8.724  1.00  0.00     0.093 A 
ATOM      6  C   UNL     1       2.430   6.453  -9.493  1.00  0.00     0.123 A 
ATOM      7  C   UNL     1       3.555   7.270  -9.624  1.00  0.00     0.093 A 
ATOM      8  C   UNL     1       4.758   6.945  -8.986  1.00  0.00     0.133 A 
ATOM      9  C   UNL     1       4.850   5.738  -8.244  1.00  0.00     0.102 A 
ATOM     10  C   UNL     1       6.092   5.258  -7.586  1.00  0.00     0.174 C 
ATOM     11  O   UNL     1       7.231   5.650  -7.952  1.00  0.00    -0.294 OA
ENDROOT
BRANCH   2  12
ATOM     12  C   UNL     1       4.722   2.181  -5.801  1.00  0.00    -0.007 A 
ATOM     13  C   UNL     1       5.038   0.818  -5.941  1.00  0.00     0.011 A 
ATOM     14  C   UNL     1       4.109   2.623  -4.616  1.00  0.00     0.011 A 
ATOM     15  C   UNL     1       4.768  -0.080  -4.904  1.00  0.00     0.046 A 
ATOM     16  C   UNL     1       3.840   1.722  -3.581  1.00  0.00     0.046 A 
ATOM     17  C   UNL     1       4.170   0.370  -3.721  1.00  0.00     0.115 A 
BRANCH  17  18
ATOM     18  O   UNL     1       3.898  -0.515  -2.681  1.00  0.00    -0.508 OA
ATOM     19  H   UNL     1       4.601  -1.155  -2.332  1.00  0.00     0.293 HD
ENDBRANCH  17  18
ENDBRANCH   2  12
BRANCH   8  20
ATOM     20  O   UNL     1       5.809   7.859  -9.091  1.00  0.00    -0.507 OA
ATOM     21  H   UNL     1       6.528   7.973  -8.393  1.00  0.00     0.293 HD
ENDBRANCH   8  20
BRANCH   6  22
ATOM     22  O   UNL     1       1.242   6.813 -10.125  1.00  0.00    -0.508 OA
ATOM     23  H   UNL     1       1.228   7.474 -10.892  1.00  0.00     0.293 HD
ENDBRANCH   6  22
TORSDOF 4
ENDMDL
