MODEL 1
REMARK VINA RESULT:    -3.084      0.000      0.000
REMARK INTER + INTRA:          -3.782
REMARK INTER:                  -3.715
REMARK INTRA:                  -0.067
REMARK UNBOUND:                -0.067
REMARK SMILES CC[C@H](C)[C@@H]([NH3+])C(=O)[O-]
REMARK SMILES IDX 3 1 4 2 5 3 6 4 7 8 8 9 9 10 2 11 1 12
REMARK H PARENT 6 5 6 6 6 7
REMARK Flexibility Score: inf
ROOT
ATOM      1  C   UNL     1     144.097 140.622 149.005  1.00  0.00     0.050 C 
ATOM      2  C   UNL     1     145.406 140.392 149.785  1.00  0.00     0.014 C 
ENDROOT
BRANCH   1   3
ATOM      3  C   UNL     1     144.183 139.963 147.592  1.00  0.00     0.230 C 
BRANCH   3   4
ATOM      4  N   UNL     1     145.575 139.772 147.156  1.00  0.00    -0.350 N 
ATOM      5  H   UNL     1     146.162 140.564 147.512  1.00  0.00     0.345 HD
ATOM      6  H   UNL     1     145.657 139.747 146.116  1.00  0.00     0.345 HD
ATOM      7  H   UNL     1     145.958 138.884 147.554  1.00  0.00     0.345 HD
ENDBRANCH   3   4
BRANCH   3   8
ATOM      8  C   UNL     1     143.409 138.670 147.505  1.00  0.00     0.099 C 
ATOM      9  O   UNL     1     142.949 138.122 148.543  1.00  0.00    -0.544 OA
ATOM     10  O   UNL     1     143.168 138.091 146.266  1.00  0.00    -0.544 OA
ENDBRANCH   3   8
ENDBRANCH   1   3
BRANCH   1  11
ATOM     11  C   UNL     1     143.735 142.130 148.954  1.00  0.00     0.006 C 
ATOM     12  C   UNL     1     143.757 142.794 150.331  1.00  0.00     0.004 C 
ENDBRANCH   1  11
TORSDOF 4
ENDMDL
MODEL 2
REMARK VINA RESULT:    -2.996     16.303     16.943
REMARK INTER + INTRA:          -3.676
REMARK INTER:                  -3.558
REMARK INTRA:                  -0.118
REMARK UNBOUND:                -0.067
REMARK SMILES CC[C@H](C)[C@@H]([NH3+])C(=O)[O-]
REMARK SMILES IDX 3 1 4 2 5 3 6 4 7 8 8 9 9 10 2 11 1 12
REMARK H PARENT 6 5 6 6 6 7
REMARK Flexibility Score: inf
ROOT
ATOM      1  C   UNL     1     157.534 148.843 147.715  1.00  0.00     0.050 C 
ATOM      2  C   UNL     1     156.347 148.567 148.658  1.00  0.00     0.014 C 
ENDROOT
BRANCH   1   3
ATOM      3  C   UNL     1     157.411 150.269 147.091  1.00  0.00     0.230 C 
BRANCH   3   4
ATOM      4  N   UNL     1     156.365 150.331 146.058  1.00  0.00    -0.350 N 
ATOM      5  H   UNL     1     156.578 149.634 145.306  1.00  0.00     0.345 HD
ATOM      6  H   UNL     1     156.307 151.277 145.621  1.00  0.00     0.345 HD
ATOM      7  H   UNL     1     155.437 150.085 146.472  1.00  0.00     0.345 HD
ENDBRANCH   3   4
BRANCH   3   8
ATOM      8  C   UNL     1     157.206 151.343 148.132  1.00  0.00     0.099 C 
ATOM      9  O   UNL     1     158.120 151.633 148.949  1.00  0.00    -0.544 OA
ATOM     10  O   UNL     1     156.008 152.046 148.171  1.00  0.00    -0.544 OA
ENDBRANCH   3   8
ENDBRANCH   1   3
BRANCH   1  11
ATOM     11  C   UNL     1     157.675 147.722 146.652  1.00  0.00     0.006 C 
ATOM     12  C   UNL     1     159.011 147.771 145.909  1.00  0.00     0.004 C 
ENDBRANCH   1  11
TORSDOF 4
ENDMDL
MODEL 3
REMARK VINA RESULT:    -2.995     15.655     16.290
REMARK INTER + INTRA:          -3.674
REMARK INTER:                  -3.541
REMARK INTRA:                  -0.133
REMARK UNBOUND:                -0.067
REMARK SMILES CC[C@H](C)[C@@H]([NH3+])C(=O)[O-]
REMARK SMILES IDX 3 1 4 2 5 3 6 4 7 8 8 9 9 10 2 11 1 12
REMARK H PARENT 6 5 6 6 6 7
REMARK Flexibility Score: inf
ROOT
ATOM      1  C   UNL     1     157.043 148.344 147.179  1.00  0.00     0.050 C 
ATOM      2  C   UNL     1     158.316 147.733 146.563  1.00  0.00     0.014 C 
ENDROOT
BRANCH   1   3
ATOM      3  C   UNL     1     157.393 149.134 148.480  1.00  0.00     0.230 C 
BRANCH   3   4
ATOM      4  N   UNL     1     158.785 148.913 148.901  1.00  0.00    -0.350 N 
ATOM      5  H   UNL     1     159.370 148.686 148.063  1.00  0.00     0.345 HD
ATOM      6  H   UNL     1     158.864 148.123 149.580  1.00  0.00     0.345 HD
ATOM      7  H   UNL     1     159.171 149.781 149.337  1.00  0.00     0.345 HD
ENDBRANCH   3   4
BRANCH   3   8
ATOM      8  C   UNL     1     157.094 150.610 148.361  1.00  0.00     0.099 C 
ATOM      9  O   UNL     1     157.542 151.283 147.395  1.00  0.00    -0.544 OA
ATOM     10  O   UNL     1     156.287 151.229 149.308  1.00  0.00    -0.544 OA
ENDBRANCH   3   8
ENDBRANCH   1   3
BRANCH   1  11
ATOM     11  C   UNL     1     155.953 147.262 147.399  1.00  0.00     0.006 C 
ATOM     12  C   UNL     1     155.287 147.359 148.772  1.00  0.00     0.004 C 
ENDBRANCH   1  11
TORSDOF 4
ENDMDL
MODEL 4
REMARK VINA RESULT:    -2.972      2.560      3.763
REMARK INTER + INTRA:          -3.647
REMARK INTER:                  -3.562
REMARK INTRA:                  -0.085
REMARK UNBOUND:                -0.067
REMARK SMILES CC[C@H](C)[C@@H]([NH3+])C(=O)[O-]
REMARK SMILES IDX 3 1 4 2 5 3 6 4 7 8 8 9 9 10 2 11 1 12
REMARK H PARENT 6 5 6 6 6 7
REMARK Flexibility Score: inf
ROOT
ATOM      1  C   UNL     1     144.279 139.255 148.601  1.00  0.00     0.050 C 
ATOM      2  C   UNL     1     144.001 140.747 148.866  1.00  0.00     0.014 C 
ENDROOT
BRANCH   1   3
ATOM      3  C   UNL     1     145.816 138.998 148.497  1.00  0.00     0.230 C 
BRANCH   3   4
ATOM      4  N   UNL     1     146.456 139.876 147.505  1.00  0.00    -0.350 N 
ATOM      5  H   UNL     1     147.496 139.822 147.614  1.00  0.00     0.345 HD
ATOM      6  H   UNL     1     146.165 140.872 147.623  1.00  0.00     0.345 HD
ATOM      7  H   UNL     1     146.217 139.559 146.538  1.00  0.00     0.345 HD
ENDBRANCH   3   4
BRANCH   3   8
ATOM      8  C   UNL     1     146.513 139.097 149.834  1.00  0.00     0.099 C 
ATOM      9  O   UNL     1     147.500 139.863 149.991  1.00  0.00    -0.544 OA
ATOM     10  O   UNL     1     146.041 138.362 150.914  1.00  0.00    -0.544 OA
ENDBRANCH   3   8
ENDBRANCH   1   3
BRANCH   1  11
ATOM     11  C   UNL     1     143.492 138.751 147.363  1.00  0.00     0.006 C 
ATOM     12  C   UNL     1     142.212 138.001 147.736  1.00  0.00     0.004 C 
ENDBRANCH   1  11
TORSDOF 4
ENDMDL
MODEL 5
REMARK VINA RESULT:    -2.956      2.749      3.536
REMARK INTER + INTRA:          -3.628
REMARK INTER:                  -3.509
REMARK INTRA:                  -0.119
REMARK UNBOUND:                -0.067
REMARK SMILES CC[C@H](C)[C@@H]([NH3+])C(=O)[O-]
REMARK SMILES IDX 3 1 4 2 5 3 6 4 7 8 8 9 9 10 2 11 1 12
REMARK H PARENT 6 5 6 6 6 7
REMARK Flexibility Score: inf
ROOT
ATOM      1  C   UNL     1     144.455 139.100 148.135  1.00  0.00     0.050 C 
ATOM      2  C   UNL     1     143.036 138.499 148.126  1.00  0.00     0.014 C 
ENDROOT
BRANCH   1   3
ATOM      3  C   UNL     1     145.223 138.662 149.423  1.00  0.00     0.230 C 
BRANCH   3   4
ATOM      4  N   UNL     1     145.019 137.237 149.728  1.00  0.00    -0.350 N 
ATOM      5  H   UNL     1     143.994 137.043 149.813  1.00  0.00     0.345 HD
ATOM      6  H   UNL     1     145.480 136.963 150.624  1.00  0.00     0.345 HD
ATOM      7  H   UNL     1     145.396 136.646 148.952  1.00  0.00     0.345 HD
ENDBRANCH   3   4
BRANCH   3   8
ATOM      8  C   UNL     1     146.694 138.996 149.363  1.00  0.00     0.099 C 
ATOM      9  O   UNL     1     147.406 138.607 148.399  1.00  0.00    -0.544 OA
ATOM     10  O   UNL     1     147.267 139.771 150.364  1.00  0.00    -0.544 OA
ENDBRANCH   3   8
ENDBRANCH   1   3
BRANCH   1  11
ATOM     11  C   UNL     1     144.412 140.639 147.946  1.00  0.00     0.006 C 
ATOM     12  C   UNL     1     143.969 141.381 149.208  1.00  0.00     0.004 C 
ENDBRANCH   1  11
TORSDOF 4
ENDMDL
MODEL 6
REMARK VINA RESULT:    -2.952     21.111     22.362
REMARK INTER + INTRA:          -3.623
REMARK INTER:                  -3.518
REMARK INTRA:                  -0.105
REMARK UNBOUND:                -0.067
REMARK SMILES CC[C@H](C)[C@@H]([NH3+])C(=O)[O-]
REMARK SMILES IDX 3 1 4 2 5 3 6 4 7 8 8 9 9 10 2 11 1 12
REMARK H PARENT 6 5 6 6 6 7
REMARK Flexibility Score: inf
ROOT
ATOM      1  C   UNL     1     146.342 156.395 164.578  1.00  0.00     0.050 C 
ATOM      2  C   UNL     1     145.798 156.710 165.984  1.00  0.00     0.014 C 
ENDROOT
BRANCH   1   3
ATOM      3  C   UNL     1     145.303 155.556 163.768  1.00  0.00     0.230 C 
BRANCH   3   4
ATOM      4  N   UNL     1     143.957 155.630 164.356  1.00  0.00    -0.350 N 
ATOM      5  H   UNL     1     143.388 154.816 164.022  1.00  0.00     0.345 HD
ATOM      6  H   UNL     1     143.462 156.508 164.084  1.00  0.00     0.345 HD
ATOM      7  H   UNL     1     144.016 155.575 165.398  1.00  0.00     0.345 HD
ENDBRANCH   3   4
BRANCH   3   8
ATOM      8  C   UNL     1     145.274 155.926 162.304  1.00  0.00     0.099 C 
ATOM      9  O   UNL     1     145.131 157.125 161.944  1.00  0.00    -0.544 OA
ATOM     10  O   UNL     1     145.440 154.940 161.339  1.00  0.00    -0.544 OA
ENDBRANCH   3   8
ENDBRANCH   1   3
BRANCH   1  11
ATOM     11  C   UNL     1     147.739 155.723 164.657  1.00  0.00     0.006 C 
ATOM     12  C   UNL     1     148.772 156.391 163.748  1.00  0.00     0.004 C 
ENDBRANCH   1  11
TORSDOF 4
ENDMDL
MODEL 7
REMARK VINA RESULT:    -2.922     22.567     23.783
REMARK INTER + INTRA:          -3.587
REMARK INTER:                  -3.471
REMARK INTRA:                  -0.116
REMARK UNBOUND:                -0.067
REMARK SMILES CC[C@H](C)[C@@H]([NH3+])C(=O)[O-]
REMARK SMILES IDX 3 1 4 2 5 3 6 4 7 8 8 9 9 10 2 11 1 12
REMARK H PARENT 6 5 6 6 6 7
REMARK Flexibility Score: inf
ROOT
ATOM      1  C   UNL     1     158.030 151.171 164.757  1.00  0.00     0.050 C 
ATOM      2  C   UNL     1     158.238 152.638 165.180  1.00  0.00     0.014 C 
ENDROOT
BRANCH   1   3
ATOM      3  C   UNL     1     158.482 150.963 163.277  1.00  0.00     0.230 C 
BRANCH   3   4
ATOM      4  N   UNL     1     158.954 152.214 162.663  1.00  0.00    -0.350 N 
ATOM      5  H   UNL     1     159.969 152.122 162.425  1.00  0.00     0.345 HD
ATOM      6  H   UNL     1     158.841 153.029 163.306  1.00  0.00     0.345 HD
ATOM      7  H   UNL     1     158.430 152.399 161.777  1.00  0.00     0.345 HD
ENDBRANCH   3   4
BRANCH   3   8
ATOM      8  C   UNL     1     159.514 149.869 163.134  1.00  0.00     0.099 C 
ATOM      9  O   UNL     1     160.125 149.698 162.045  1.00  0.00    -0.544 OA
ATOM     10  O   UNL     1     159.821 149.062 164.222  1.00  0.00    -0.544 OA
ENDBRANCH   3   8
ENDBRANCH   1   3
BRANCH   1  11
ATOM     11  C   UNL     1     156.570 150.716 165.018  1.00  0.00     0.006 C 
ATOM     12  C   UNL     1     155.960 149.966 163.833  1.00  0.00     0.004 C 
ENDBRANCH   1  11
TORSDOF 4
ENDMDL
MODEL 8
REMARK VINA RESULT:    -2.889     15.938     16.582
REMARK INTER + INTRA:          -3.547
REMARK INTER:                  -3.486
REMARK INTRA:                  -0.061
REMARK UNBOUND:                -0.067
REMARK SMILES CC[C@H](C)[C@@H]([NH3+])C(=O)[O-]
REMARK SMILES IDX 3 1 4 2 5 3 6 4 7 8 8 9 9 10 2 11 1 12
REMARK H PARENT 6 5 6 6 6 7
REMARK Flexibility Score: inf
ROOT
ATOM      1  C   UNL     1     157.183 148.098 147.678  1.00  0.00     0.050 C 
ATOM      2  C   UNL     1     155.749 147.547 147.555  1.00  0.00     0.014 C 
ENDROOT
BRANCH   1   3
ATOM      3  C   UNL     1     157.246 149.208 148.774  1.00  0.00     0.230 C 
BRANCH   3   4
ATOM      4  N   UNL     1     158.575 149.291 149.400  1.00  0.00    -0.350 N 
ATOM      5  H   UNL     1     158.518 148.936 150.383  1.00  0.00     0.345 HD
ATOM      6  H   UNL     1     158.931 150.272 149.425  1.00  0.00     0.345 HD
ATOM      7  H   UNL     1     159.255 148.691 148.880  1.00  0.00     0.345 HD
ENDBRANCH   3   4
BRANCH   3   8
ATOM      8  C   UNL     1     156.806 150.558 148.259  1.00  0.00     0.099 C 
ATOM      9  O   UNL     1     155.585 150.821 148.100  1.00  0.00    -0.544 OA
ATOM     10  O   UNL     1     157.756 151.536 147.989  1.00  0.00    -0.544 OA
ENDBRANCH   3   8
ENDBRANCH   1   3
BRANCH   1  11
ATOM     11  C   UNL     1     157.721 148.569 146.302  1.00  0.00     0.006 C 
ATOM     12  C   UNL     1     158.991 147.831 145.875  1.00  0.00     0.004 C 
ENDBRANCH   1  11
TORSDOF 4
ENDMDL
