MODEL 1
REMARK VINA RESULT:    -4.163      0.000      0.000
REMARK INTER + INTRA:          -5.387
REMARK INTER:                  -5.137
REMARK INTRA:                  -0.250
REMARK UNBOUND:                -0.250
REMARK SMILES C=CC[C@H](C)C(=O)CC
REMARK SMILES IDX 4 1 5 2 6 3 7 4 8 5 9 6 3 7 2 8 1 9
REMARK H PARENT
REMARK Flexibility Score: inf
ROOT
ATOM      1  C   UNL     1     -25.825  20.044 -33.209  1.00  0.00     0.057 C 
ATOM      2  C   UNL     1     -25.302  19.864 -34.640  1.00  0.00     0.016 C 
ENDROOT
BRANCH   1   3
ATOM      3  C   UNL     1     -24.854  19.429 -32.223  1.00  0.00     0.135 C 
ATOM      4  O   UNL     1     -25.142  18.381 -31.662  1.00  0.00    -0.299 OA
BRANCH   3   5
ATOM      5  C   UNL     1     -23.531  20.082 -31.921  1.00  0.00     0.072 C 
ATOM      6  C   UNL     1     -23.681  21.598 -31.842  1.00  0.00     0.012 C 
ENDBRANCH   3   5
ENDBRANCH   1   3
BRANCH   1   7
ATOM      7  C   UNL     1     -27.223  19.415 -33.028  1.00  0.00     0.038 C 
BRANCH   7   8
ATOM      8  C   UNL     1     -28.328  20.340 -33.468  1.00  0.00    -0.034 C 
ATOM      9  C   UNL     1     -28.355  21.626 -33.108  1.00  0.00     0.004 C 
ENDBRANCH   7   8
ENDBRANCH   1   7
TORSDOF 4
ENDMDL
MODEL 2
REMARK VINA RESULT:    -4.162      1.839      2.385
REMARK INTER + INTRA:          -5.385
REMARK INTER:                  -5.181
REMARK INTRA:                  -0.204
REMARK UNBOUND:                -0.250
REMARK SMILES C=CC[C@H](C)C(=O)CC
REMARK SMILES IDX 4 1 5 2 6 3 7 4 8 5 9 6 3 7 2 8 1 9
REMARK H PARENT
REMARK Flexibility Score: inf
ROOT
ATOM      1  C   UNL     1     -26.925  20.165 -33.255  1.00  0.00     0.057 C 
ATOM      2  C   UNL     1     -27.846  20.711 -34.354  1.00  0.00     0.016 C 
ENDROOT
BRANCH   1   3
ATOM      3  C   UNL     1     -25.531  19.956 -33.808  1.00  0.00     0.135 C 
ATOM      4  O   UNL     1     -25.354  19.951 -35.019  1.00  0.00    -0.299 OA
BRANCH   3   5
ATOM      5  C   UNL     1     -24.351  19.757 -32.895  1.00  0.00     0.072 C 
ATOM      6  C   UNL     1     -23.810  21.097 -32.409  1.00  0.00     0.012 C 
ENDBRANCH   3   5
ENDBRANCH   1   3
BRANCH   1   7
ATOM      7  C   UNL     1     -27.459  18.843 -32.665  1.00  0.00     0.038 C 
BRANCH   7   8
ATOM      8  C   UNL     1     -28.902  18.598 -33.021  1.00  0.00    -0.034 C 
ATOM      9  C   UNL     1     -29.396  17.363 -33.149  1.00  0.00     0.004 C 
ENDBRANCH   7   8
ENDBRANCH   1   7
TORSDOF 4
ENDMDL
MODEL 3
REMARK VINA RESULT:    -3.995      1.527      2.481
REMARK INTER + INTRA:          -5.179
REMARK INTER:                  -4.917
REMARK INTRA:                  -0.262
REMARK UNBOUND:                -0.250
REMARK SMILES C=CC[C@H](C)C(=O)CC
REMARK SMILES IDX 4 1 5 2 6 3 7 4 8 5 9 6 3 7 2 8 1 9
REMARK H PARENT
REMARK Flexibility Score: inf
ROOT
ATOM      1  C   UNL     1     -23.849  19.761 -32.483  1.00  0.00     0.057 C 
ATOM      2  C   UNL     1     -24.390  18.580 -31.667  1.00  0.00     0.016 C 
ENDROOT
BRANCH   1   3
ATOM      3  C   UNL     1     -23.577  20.938 -31.570  1.00  0.00     0.135 C 
ATOM      4  O   UNL     1     -23.112  20.744 -30.455  1.00  0.00    -0.299 OA
BRANCH   3   5
ATOM      5  C   UNL     1     -23.864  22.349 -32.009  1.00  0.00     0.072 C 
ATOM      6  C   UNL     1     -23.463  23.344 -30.926  1.00  0.00     0.012 C 
ENDBRANCH   3   5
ENDBRANCH   1   3
BRANCH   1   7
ATOM      7  C   UNL     1     -24.828  20.179 -33.600  1.00  0.00     0.038 C 
BRANCH   7   8
ATOM      8  C   UNL     1     -26.241  19.742 -33.317  1.00  0.00    -0.034 C 
ATOM      9  C   UNL     1     -27.290  20.318 -33.912  1.00  0.00     0.004 C 
ENDBRANCH   7   8
ENDBRANCH   1   7
TORSDOF 4
ENDMDL
MODEL 4
REMARK VINA RESULT:    -3.985      2.344      4.559
REMARK INTER + INTRA:          -5.167
REMARK INTER:                  -4.963
REMARK INTRA:                  -0.204
REMARK UNBOUND:                -0.250
REMARK SMILES C=CC[C@H](C)C(=O)CC
REMARK SMILES IDX 4 1 5 2 6 3 7 4 8 5 9 6 3 7 2 8 1 9
REMARK H PARENT
REMARK Flexibility Score: inf
ROOT
ATOM      1  C   UNL     1     -27.911  20.461 -33.717  1.00  0.00     0.057 C 
ATOM      2  C   UNL     1     -28.388  21.787 -33.111  1.00  0.00     0.016 C 
ENDROOT
BRANCH   1   3
ATOM      3  C   UNL     1     -28.938  19.378 -33.459  1.00  0.00     0.135 C 
ATOM      4  O   UNL     1     -30.098  19.547 -33.812  1.00  0.00    -0.299 OA
BRANCH   3   5
ATOM      5  C   UNL     1     -28.559  18.089 -32.779  1.00  0.00     0.072 C 
ATOM      6  C   UNL     1     -29.504  16.964 -33.187  1.00  0.00     0.012 C 
ENDBRANCH   3   5
ENDBRANCH   1   3
BRANCH   1   7
ATOM      7  C   UNL     1     -26.543  20.031 -33.148  1.00  0.00     0.038 C 
BRANCH   7   8
ATOM      8  C   UNL     1     -25.492  19.900 -34.220  1.00  0.00    -0.034 C 
ATOM      9  C   UNL     1     -24.189  19.868 -33.929  1.00  0.00     0.004 C 
ENDBRANCH   7   8
ENDBRANCH   1   7
TORSDOF 4
ENDMDL
MODEL 5
REMARK VINA RESULT:    -3.945      6.909      8.062
REMARK INTER + INTRA:          -5.118
REMARK INTER:                  -4.745
REMARK INTRA:                  -0.373
REMARK UNBOUND:                -0.250
REMARK SMILES C=CC[C@H](C)C(=O)CC
REMARK SMILES IDX 4 1 5 2 6 3 7 4 8 5 9 6 3 7 2 8 1 9
REMARK H PARENT
REMARK Flexibility Score: inf
ROOT
ATOM      1  C   UNL     1     -29.937  14.030 -30.363  1.00  0.00     0.057 C 
ATOM      2  C   UNL     1     -31.125  14.484 -31.223  1.00  0.00     0.016 C 
ENDROOT
BRANCH   1   3
ATOM      3  C   UNL     1     -28.640  14.500 -30.987  1.00  0.00     0.135 C 
ATOM      4  O   UNL     1     -28.631  15.512 -31.676  1.00  0.00    -0.299 OA
BRANCH   3   5
ATOM      5  C   UNL     1     -27.354  13.748 -30.774  1.00  0.00     0.072 C 
ATOM      6  C   UNL     1     -26.475  14.457 -29.749  1.00  0.00     0.012 C 
ENDBRANCH   3   5
ENDBRANCH   1   3
BRANCH   1   7
ATOM      7  C   UNL     1     -29.911  12.497 -30.189  1.00  0.00     0.038 C 
BRANCH   7   8
ATOM      8  C   UNL     1     -29.979  12.084 -28.742  1.00  0.00    -0.034 C 
ATOM      9  C   UNL     1     -29.008  12.388 -27.876  1.00  0.00     0.004 C 
ENDBRANCH   7   8
ENDBRANCH   1   7
TORSDOF 4
ENDMDL
MODEL 6
REMARK VINA RESULT:    -3.904      1.975      4.212
REMARK INTER + INTRA:          -5.067
REMARK INTER:                  -4.904
REMARK INTRA:                  -0.163
REMARK UNBOUND:                -0.250
REMARK SMILES C=CC[C@H](C)C(=O)CC
REMARK SMILES IDX 4 1 5 2 6 3 7 4 8 5 9 6 3 7 2 8 1 9
REMARK H PARENT
REMARK Flexibility Score: inf
ROOT
ATOM      1  C   UNL     1     -24.212  19.663 -32.797  1.00  0.00     0.057 C 
ATOM      2  C   UNL     1     -23.800  21.016 -32.201  1.00  0.00     0.016 C 
ENDROOT
BRANCH   1   3
ATOM      3  C   UNL     1     -25.375  19.852 -33.748  1.00  0.00     0.135 C 
ATOM      4  O   UNL     1     -25.172  19.887 -34.954  1.00  0.00    -0.299 OA
BRANCH   3   5
ATOM      5  C   UNL     1     -26.785  19.992 -33.238  1.00  0.00     0.072 C 
ATOM      6  C   UNL     1     -27.704  20.531 -34.329  1.00  0.00     0.012 C 
ENDBRANCH   3   5
ENDBRANCH   1   3
BRANCH   1   7
ATOM      7  C   UNL     1     -24.591  18.647 -31.700  1.00  0.00     0.038 C 
BRANCH   7   8
ATOM      8  C   UNL     1     -23.588  17.528 -31.584  1.00  0.00    -0.034 C 
ATOM      9  C   UNL     1     -23.854  16.413 -30.899  1.00  0.00     0.004 C 
ENDBRANCH   7   8
ENDBRANCH   1   7
TORSDOF 4
ENDMDL
MODEL 7
REMARK VINA RESULT:    -3.903      8.103      8.993
REMARK INTER + INTRA:          -5.066
REMARK INTER:                  -4.722
REMARK INTRA:                  -0.344
REMARK UNBOUND:                -0.250
REMARK SMILES C=CC[C@H](C)C(=O)CC
REMARK SMILES IDX 4 1 5 2 6 3 7 4 8 5 9 6 3 7 2 8 1 9
REMARK H PARENT
REMARK Flexibility Score: inf
ROOT
ATOM      1  C   UNL     1     -27.509  11.498 -28.644  1.00  0.00     0.057 C 
ATOM      2  C   UNL     1     -26.667  10.925 -27.496  1.00  0.00     0.016 C 
ENDROOT
BRANCH   1   3
ATOM      3  C   UNL     1     -26.603  12.095 -29.700  1.00  0.00     0.135 C 
ATOM      4  O   UNL     1     -25.636  11.459 -30.097  1.00  0.00    -0.299 OA
BRANCH   3   5
ATOM      5  C   UNL     1     -26.870  13.459 -30.278  1.00  0.00     0.072 C 
ATOM      6  C   UNL     1     -25.727  14.416 -29.957  1.00  0.00     0.012 C 
ENDBRANCH   3   5
ENDBRANCH   1   3
BRANCH   1   7
ATOM      7  C   UNL     1     -28.505  12.565 -28.144  1.00  0.00     0.038 C 
BRANCH   7   8
ATOM      8  C   UNL     1     -29.930  12.231 -28.502  1.00  0.00    -0.034 C 
ATOM      9  C   UNL     1     -30.379  12.314 -29.758  1.00  0.00     0.004 C 
ENDBRANCH   7   8
ENDBRANCH   1   7
TORSDOF 4
ENDMDL
MODEL 8
REMARK VINA RESULT:    -3.800     11.676     13.370
REMARK INTER + INTRA:          -4.939
REMARK INTER:                  -4.704
REMARK INTRA:                  -0.235
REMARK UNBOUND:                -0.250
REMARK SMILES C=CC[C@H](C)C(=O)CC
REMARK SMILES IDX 4 1 5 2 6 3 7 4 8 5 9 6 3 7 2 8 1 9
REMARK H PARENT
REMARK Flexibility Score: inf
ROOT
ATOM      1  C   UNL     1     -14.435  15.278 -31.363  1.00  0.00     0.057 C 
ATOM      2  C   UNL     1     -14.678  16.069 -30.071  1.00  0.00     0.016 C 
ENDROOT
BRANCH   1   3
ATOM      3  C   UNL     1     -15.646  14.428 -31.682  1.00  0.00     0.135 C 
ATOM      4  O   UNL     1     -16.590  14.920 -32.288  1.00  0.00    -0.299 OA
BRANCH   3   5
ATOM      5  C   UNL     1     -15.714  12.981 -31.272  1.00  0.00     0.072 C 
ATOM      6  C   UNL     1     -17.142  12.587 -30.911  1.00  0.00     0.012 C 
ENDBRANCH   3   5
ENDBRANCH   1   3
BRANCH   1   7
ATOM      7  C   UNL     1     -13.180  14.387 -31.261  1.00  0.00     0.038 C 
BRANCH   7   8
ATOM      8  C   UNL     1     -12.120  14.989 -30.376  1.00  0.00    -0.034 C 
ATOM      9  C   UNL     1     -10.960  15.433 -30.869  1.00  0.00     0.004 C 
ENDBRANCH   7   8
ENDBRANCH   1   7
TORSDOF 4
ENDMDL
MODEL 9
REMARK VINA RESULT:    -3.794      7.580      9.069
REMARK INTER + INTRA:          -4.932
REMARK INTER:                  -4.500
REMARK INTRA:                  -0.432
REMARK UNBOUND:                -0.250
REMARK SMILES C=CC[C@H](C)C(=O)CC
REMARK SMILES IDX 4 1 5 2 6 3 7 4 8 5 9 6 3 7 2 8 1 9
REMARK H PARENT
REMARK Flexibility Score: inf
ROOT
ATOM      1  C   UNL     1     -29.035  12.837 -29.317  1.00  0.00     0.057 C 
ATOM      2  C   UNL     1     -29.266  12.368 -27.874  1.00  0.00     0.016 C 
ENDROOT
BRANCH   1   3
ATOM      3  C   UNL     1     -30.154  12.338 -30.206  1.00  0.00     0.135 C 
ATOM      4  O   UNL     1     -30.279  11.137 -30.407  1.00  0.00    -0.299 OA
BRANCH   3   5
ATOM      5  C   UNL     1     -31.125  13.293 -30.849  1.00  0.00     0.072 C 
ATOM      6  C   UNL     1     -30.472  14.650 -31.085  1.00  0.00     0.012 C 
ENDBRANCH   3   5
ENDBRANCH   1   3
BRANCH   1   7
ATOM      7  C   UNL     1     -27.676  12.353 -29.864  1.00  0.00     0.038 C 
BRANCH   7   8
ATOM      8  C   UNL     1     -26.856  13.480 -30.437  1.00  0.00    -0.034 C 
ATOM      9  C   UNL     1     -26.601  14.591 -29.741  1.00  0.00     0.004 C 
ENDBRANCH   7   8
ENDBRANCH   1   7
TORSDOF 4
ENDMDL
