MODEL 1
REMARK VINA RESULT:    -4.049      0.000      0.000
REMARK INTER + INTRA:          -8.601
REMARK INTER:                  -7.836
REMARK INTRA:                  -0.765
REMARK UNBOUND:                -0.765
REMARK SMILES CCCCCCCCCCCCCCCCCC(=O)[O-]
REMARK SMILES IDX 10 1 11 2 12 3 13 4 14 5 15 6 16 7 17 8 18 9 19 10 20 11
REMARK SMILES IDX 9 12 8 13 7 14 6 15 5 16 4 17 3 18 2 19 1 20
REMARK H PARENT
REMARK Flexibility Score: inf
ROOT
ATOM      1  C   UNL     1       8.637   7.746   8.012  1.00  0.00     0.000 C 
ENDROOT
BRANCH   1   2
ATOM      2  C   UNL     1       9.492   6.960   9.024  1.00  0.00     0.000 C 
BRANCH   2   3
ATOM      3  C   UNL     1       8.667   6.102  10.011  1.00  0.00     0.000 C 
BRANCH   3   4
ATOM      4  C   UNL     1       8.420   4.655   9.538  1.00  0.00     0.000 C 
BRANCH   4   5
ATOM      5  C   UNL     1       7.045   4.071   9.918  1.00  0.00     0.000 C 
BRANCH   5   6
ATOM      6  C   UNL     1       6.442   3.182   8.821  1.00  0.00     0.000 C 
BRANCH   6   7
ATOM      7  C   UNL     1       6.072   1.798   9.378  1.00  0.00     0.006 C 
BRANCH   7   8
ATOM      8  C   UNL     1       4.697   1.322   8.889  1.00  0.00     0.053 C 
BRANCH   8   9
ATOM      9  C   UNL     1       4.541   1.495   7.410  1.00  0.00     0.041 C 
ATOM     10  O   UNL     1       3.658   2.270   6.953  1.00  0.00    -0.550 OA
ATOM     11  O   UNL     1       5.350   0.781   6.535  1.00  0.00    -0.550 OA
ENDBRANCH   8   9
ENDBRANCH   7   8
ENDBRANCH   6   7
ENDBRANCH   5   6
ENDBRANCH   4   5
ENDBRANCH   3   4
ENDBRANCH   2   3
ENDBRANCH   1   2
BRANCH   1  12
ATOM     12  C   UNL     1       8.405   9.231   8.359  1.00  0.00     0.000 C 
BRANCH  12  13
ATOM     13  C   UNL     1       7.498   9.475   9.582  1.00  0.00    -0.000 C 
BRANCH  13  14
ATOM     14  C   UNL     1       6.620  10.743   9.470  1.00  0.00    -0.000 C 
BRANCH  14  15
ATOM     15  C   UNL     1       6.583  11.346   8.054  1.00  0.00    -0.000 C 
BRANCH  15  16
ATOM     16  C   UNL     1       5.510  12.428   7.843  1.00  0.00    -0.000 C 
BRANCH  16  17
ATOM     17  C   UNL     1       4.093  11.892   7.562  1.00  0.00    -0.000 C 
BRANCH  17  18
ATOM     18  C   UNL     1       2.964  12.829   8.044  1.00  0.00    -0.000 C 
BRANCH  18  19
ATOM     19  C   UNL     1       2.128  12.208   9.172  1.00  0.00    -0.003 C 
ATOM     20  C   UNL     1       1.839  10.735   8.896  1.00  0.00     0.004 C 
ENDBRANCH  18  19
ENDBRANCH  17  18
ENDBRANCH  16  17
ENDBRANCH  15  16
ENDBRANCH  14  15
ENDBRANCH  13  14
ENDBRANCH  12  13
ENDBRANCH   1  12
TORSDOF 16
ENDMDL
MODEL 2
REMARK VINA RESULT:    -3.842      3.142      8.163
REMARK INTER + INTRA:          -8.201
REMARK INTER:                  -7.381
REMARK INTRA:                  -0.819
REMARK UNBOUND:                -0.765
REMARK SMILES CCCCCCCCCCCCCCCCCC(=O)[O-]
REMARK SMILES IDX 10 1 11 2 12 3 13 4 14 5 15 6 16 7 17 8 18 9 19 10 20 11
REMARK SMILES IDX 9 12 8 13 7 14 6 15 5 16 4 17 3 18 2 19 1 20
REMARK H PARENT
REMARK Flexibility Score: inf
ROOT
ATOM      1  C   UNL     1       9.021   7.466   7.957  1.00  0.00     0.000 C 
ENDROOT
BRANCH   1   2
ATOM      2  C   UNL     1       8.729   8.960   8.195  1.00  0.00     0.000 C 
BRANCH   2   3
ATOM      3  C   UNL     1       7.665   9.227   9.284  1.00  0.00     0.000 C 
BRANCH   3   4
ATOM      4  C   UNL     1       7.112  10.667   9.290  1.00  0.00     0.000 C 
BRANCH   4   5
ATOM      5  C   UNL     1       6.500  11.135   7.955  1.00  0.00     0.000 C 
BRANCH   5   6
ATOM      6  C   UNL     1       5.527  12.312   8.117  1.00  0.00     0.000 C 
BRANCH   6   7
ATOM      7  C   UNL     1       4.078  11.865   7.862  1.00  0.00     0.006 C 
BRANCH   7   8
ATOM      8  C   UNL     1       3.271  11.735   9.161  1.00  0.00     0.053 C 
BRANCH   8   9
ATOM      9  C   UNL     1       1.837  11.394   8.894  1.00  0.00     0.041 C 
ATOM     10  O   UNL     1       0.941  12.269   9.032  1.00  0.00    -0.550 OA
ATOM     11  O   UNL     1       1.486  10.103   8.520  1.00  0.00    -0.550 OA
ENDBRANCH   8   9
ENDBRANCH   7   8
ENDBRANCH   6   7
ENDBRANCH   5   6
ENDBRANCH   4   5
ENDBRANCH   3   4
ENDBRANCH   2   3
ENDBRANCH   1   2
BRANCH   1  12
ATOM     12  C   UNL     1      10.500   7.053   8.095  1.00  0.00     0.000 C 
BRANCH  12  13
ATOM     13  C   UNL     1      10.773   5.969   9.157  1.00  0.00    -0.000 C 
BRANCH  13  14
ATOM     14  C   UNL     1       9.546   5.625  10.033  1.00  0.00    -0.000 C 
BRANCH  14  15
ATOM     15  C   UNL     1       9.082   4.163   9.898  1.00  0.00    -0.000 C 
BRANCH  15  16
ATOM     16  C   UNL     1       7.572   3.988   9.663  1.00  0.00    -0.000 C 
BRANCH  16  17
ATOM     17  C   UNL     1       7.074   2.530   9.693  1.00  0.00    -0.000 C 
BRANCH  17  18
ATOM     18  C   UNL     1       6.079   2.186   8.564  1.00  0.00    -0.000 C 
BRANCH  18  19
ATOM     19  C   UNL     1       4.861   3.121   8.550  1.00  0.00    -0.003 C 
ATOM     20  C   UNL     1       3.560   2.328   8.453  1.00  0.00     0.004 C 
ENDBRANCH  18  19
ENDBRANCH  17  18
ENDBRANCH  16  17
ENDBRANCH  15  16
ENDBRANCH  14  15
ENDBRANCH  13  14
ENDBRANCH  12  13
ENDBRANCH   1  12
TORSDOF 16
ENDMDL
MODEL 3
REMARK VINA RESULT:    -3.588      3.944      8.486
REMARK INTER + INTRA:          -7.709
REMARK INTER:                  -6.686
REMARK INTRA:                  -1.022
REMARK UNBOUND:                -0.765
REMARK SMILES CCCCCCCCCCCCCCCCCC(=O)[O-]
REMARK SMILES IDX 10 1 11 2 12 3 13 4 14 5 15 6 16 7 17 8 18 9 19 10 20 11
REMARK SMILES IDX 9 12 8 13 7 14 6 15 5 16 4 17 3 18 2 19 1 20
REMARK H PARENT
REMARK Flexibility Score: inf
ROOT
ATOM      1  C   UNL     1       5.322  12.421   8.282  1.00  0.00     0.000 C 
ENDROOT
BRANCH   1   2
ATOM      2  C   UNL     1       4.353  12.119   7.123  1.00  0.00     0.000 C 
BRANCH   2   3
ATOM      3  C   UNL     1       3.488  13.326   6.695  1.00  0.00     0.000 C 
BRANCH   3   4
ATOM      4  C   UNL     1       2.281  13.598   7.616  1.00  0.00     0.000 C 
BRANCH   4   5
ATOM      5  C   UNL     1       2.639  14.120   9.021  1.00  0.00     0.000 C 
BRANCH   5   6
ATOM      6  C   UNL     1       2.432  13.072  10.125  1.00  0.00     0.000 C 
BRANCH   6   7
ATOM      7  C   UNL     1       1.420  12.003   9.684  1.00  0.00     0.006 C 
BRANCH   7   8
ATOM      8  C   UNL     1       1.970  10.579   9.844  1.00  0.00     0.053 C 
BRANCH   8   9
ATOM      9  C   UNL     1       1.294   9.614   8.920  1.00  0.00     0.041 C 
ATOM     10  O   UNL     1       1.552   9.631   7.686  1.00  0.00    -0.550 OA
ATOM     11  O   UNL     1       0.358   8.714   9.414  1.00  0.00    -0.550 OA
ENDBRANCH   8   9
ENDBRANCH   7   8
ENDBRANCH   6   7
ENDBRANCH   5   6
ENDBRANCH   4   5
ENDBRANCH   3   4
ENDBRANCH   2   3
ENDBRANCH   1   2
BRANCH   1  12
ATOM     12  C   UNL     1       6.465  11.403   8.468  1.00  0.00     0.000 C 
BRANCH  12  13
ATOM     13  C   UNL     1       6.377  10.558   9.755  1.00  0.00    -0.000 C 
BRANCH  13  14
ATOM     14  C   UNL     1       7.326   9.338   9.772  1.00  0.00    -0.000 C 
BRANCH  14  15
ATOM     15  C   UNL     1       8.258   9.263   8.548  1.00  0.00    -0.000 C 
BRANCH  15  16
ATOM     16  C   UNL     1       9.495   8.369   8.737  1.00  0.00    -0.000 C 
BRANCH  16  17
ATOM     17  C   UNL     1       9.327   6.916   8.251  1.00  0.00    -0.000 C 
BRANCH  17  18
ATOM     18  C   UNL     1       9.572   5.858   9.349  1.00  0.00    -0.000 C 
BRANCH  18  19
ATOM     19  C   UNL     1      11.037   5.820   9.810  1.00  0.00    -0.003 C 
ATOM     20  C   UNL     1      11.989   5.824   8.617  1.00  0.00     0.004 C 
ENDBRANCH  18  19
ENDBRANCH  17  18
ENDBRANCH  16  17
ENDBRANCH  15  16
ENDBRANCH  14  15
ENDBRANCH  13  14
ENDBRANCH  12  13
ENDBRANCH   1  12
TORSDOF 16
ENDMDL
MODEL 4
REMARK VINA RESULT:    -3.423      3.220      5.903
REMARK INTER + INTRA:          -7.390
REMARK INTER:                  -6.496
REMARK INTRA:                  -0.894
REMARK UNBOUND:                -0.765
REMARK SMILES CCCCCCCCCCCCCCCCCC(=O)[O-]
REMARK SMILES IDX 10 1 11 2 12 3 13 4 14 5 15 6 16 7 17 8 18 9 19 10 20 11
REMARK SMILES IDX 9 12 8 13 7 14 6 15 5 16 4 17 3 18 2 19 1 20
REMARK H PARENT
REMARK Flexibility Score: inf
ROOT
ATOM      1  C   UNL     1       6.920   2.866  10.015  1.00  0.00     0.000 C 
ENDROOT
BRANCH   1   2
ATOM      2  C   UNL     1       5.965   3.580   9.039  1.00  0.00     0.000 C 
BRANCH   2   3
ATOM      3  C   UNL     1       4.828   2.681   8.502  1.00  0.00     0.000 C 
BRANCH   3   4
ATOM      4  C   UNL     1       4.303   1.647   9.519  1.00  0.00     0.000 C 
BRANCH   4   5
ATOM      5  C   UNL     1       2.887   1.926  10.059  1.00  0.00     0.000 C 
BRANCH   5   6
ATOM      6  C   UNL     1       2.153   3.031   9.284  1.00  0.00     0.000 C 
BRANCH   6   7
ATOM      7  C   UNL     1       0.788   3.334   9.923  1.00  0.00     0.006 C 
BRANCH   7   8
ATOM      8  C   UNL     1      -0.154   4.072   8.962  1.00  0.00     0.053 C 
BRANCH   8   9
ATOM      9  C   UNL     1      -1.515   3.448   8.929  1.00  0.00     0.041 C 
ATOM     10  O   UNL     1      -2.540   4.171   8.796  1.00  0.00    -0.550 OA
ATOM     11  O   UNL     1      -1.656   2.074   9.072  1.00  0.00    -0.550 OA
ENDBRANCH   8   9
ENDBRANCH   7   8
ENDBRANCH   6   7
ENDBRANCH   5   6
ENDBRANCH   4   5
ENDBRANCH   3   4
ENDBRANCH   2   3
ENDBRANCH   1   2
BRANCH   1  12
ATOM     12  C   UNL     1       8.389   3.331   9.957  1.00  0.00     0.000 C 
BRANCH  12  13
ATOM     13  C   UNL     1       8.584   4.860   9.970  1.00  0.00    -0.000 C 
BRANCH  13  14
ATOM     14  C   UNL     1       9.985   5.319   9.503  1.00  0.00    -0.000 C 
BRANCH  14  15
ATOM     15  C   UNL     1       9.959   6.581   8.620  1.00  0.00    -0.000 C 
BRANCH  15  16
ATOM     16  C   UNL     1      10.598   7.825   9.260  1.00  0.00    -0.000 C 
BRANCH  16  17
ATOM     17  C   UNL     1       9.602   8.815   9.894  1.00  0.00    -0.000 C 
BRANCH  17  18
ATOM     18  C   UNL     1       8.149   8.641   9.401  1.00  0.00    -0.000 C 
BRANCH  18  19
ATOM     19  C   UNL     1       7.636   9.872   8.640  1.00  0.00    -0.003 C 
ATOM     20  C   UNL     1       7.085  10.922   9.601  1.00  0.00     0.004 C 
ENDBRANCH  18  19
ENDBRANCH  17  18
ENDBRANCH  16  17
ENDBRANCH  15  16
ENDBRANCH  14  15
ENDBRANCH  13  14
ENDBRANCH  12  13
ENDBRANCH   1  12
TORSDOF 16
ENDMDL
MODEL 5
REMARK VINA RESULT:    -3.421      3.721      7.070
REMARK INTER + INTRA:          -7.386
REMARK INTER:                  -6.554
REMARK INTRA:                  -0.832
REMARK UNBOUND:                -0.765
REMARK SMILES CCCCCCCCCCCCCCCCCC(=O)[O-]
REMARK SMILES IDX 10 1 11 2 12 3 13 4 14 5 15 6 16 7 17 8 18 9 19 10 20 11
REMARK SMILES IDX 9 12 8 13 7 14 6 15 5 16 4 17 3 18 2 19 1 20
REMARK H PARENT
REMARK Flexibility Score: inf
ROOT
ATOM      1  C   UNL     1       5.731   2.308   8.065  1.00  0.00     0.000 C 
ENDROOT
BRANCH   1   2
ATOM      2  C   UNL     1       4.574   1.370   8.462  1.00  0.00     0.000 C 
BRANCH   2   3
ATOM      3  C   UNL     1       3.535   2.019   9.405  1.00  0.00     0.000 C 
BRANCH   3   4
ATOM      4  C   UNL     1       2.616   1.011  10.125  1.00  0.00     0.000 C 
BRANCH   4   5
ATOM      5  C   UNL     1       1.118   1.374  10.116  1.00  0.00     0.000 C 
BRANCH   5   6
ATOM      6  C   UNL     1       0.835   2.751   9.497  1.00  0.00     0.000 C 
BRANCH   6   7
ATOM      7  C   UNL     1      -0.657   3.103   9.603  1.00  0.00     0.006 C 
BRANCH   7   8
ATOM      8  C   UNL     1      -0.883   4.565  10.014  1.00  0.00     0.053 C 
BRANCH   8   9
ATOM      9  C   UNL     1      -1.974   5.206   9.213  1.00  0.00     0.041 C 
ATOM     10  O   UNL     1      -1.871   5.297   7.960  1.00  0.00    -0.550 OA
ATOM     11  O   UNL     1      -3.092   5.730   9.851  1.00  0.00    -0.550 OA
ENDBRANCH   8   9
ENDBRANCH   7   8
ENDBRANCH   6   7
ENDBRANCH   5   6
ENDBRANCH   4   5
ENDBRANCH   3   4
ENDBRANCH   2   3
ENDBRANCH   1   2
BRANCH   1  12
ATOM     12  C   UNL     1       6.969   2.250   8.982  1.00  0.00     0.000 C 
BRANCH  12  13
ATOM     13  C   UNL     1       6.978   3.286  10.124  1.00  0.00    -0.000 C 
BRANCH  13  14
ATOM     14  C   UNL     1       7.679   4.615   9.762  1.00  0.00    -0.000 C 
BRANCH  14  15
ATOM     15  C   UNL     1       9.217   4.529   9.790  1.00  0.00    -0.000 C 
BRANCH  15  16
ATOM     16  C   UNL     1       9.939   5.741   9.177  1.00  0.00    -0.000 C 
BRANCH  16  17
ATOM     17  C   UNL     1       9.055   6.651   8.302  1.00  0.00    -0.000 C 
BRANCH  17  18
ATOM     18  C   UNL     1       9.125   8.145   8.684  1.00  0.00    -0.000 C 
BRANCH  18  19
ATOM     19  C   UNL     1       7.842   8.635   9.371  1.00  0.00    -0.003 C 
ATOM     20  C   UNL     1       7.640  10.133   9.156  1.00  0.00     0.004 C 
ENDBRANCH  18  19
ENDBRANCH  17  18
ENDBRANCH  16  17
ENDBRANCH  15  16
ENDBRANCH  14  15
ENDBRANCH  13  14
ENDBRANCH  12  13
ENDBRANCH   1  12
TORSDOF 16
ENDMDL
MODEL 6
REMARK VINA RESULT:    -3.394      3.412      8.105
REMARK INTER + INTRA:          -7.333
REMARK INTER:                  -6.483
REMARK INTRA:                  -0.850
REMARK UNBOUND:                -0.765
REMARK SMILES CCCCCCCCCCCCCCCCCC(=O)[O-]
REMARK SMILES IDX 10 1 11 2 12 3 13 4 14 5 15 6 16 7 17 8 18 9 19 10 20 11
REMARK SMILES IDX 9 12 8 13 7 14 6 15 5 16 4 17 3 18 2 19 1 20
REMARK H PARENT
REMARK Flexibility Score: inf
ROOT
ATOM      1  C   UNL     1       8.678   6.669   8.842  1.00  0.00     0.000 C 
ENDROOT
BRANCH   1   2
ATOM      2  C   UNL     1       9.167   7.786   7.901  1.00  0.00     0.000 C 
BRANCH   2   3
ATOM      3  C   UNL     1       8.892   9.214   8.424  1.00  0.00     0.000 C 
BRANCH   3   4
ATOM      4  C   UNL     1       8.117   9.262   9.757  1.00  0.00     0.000 C 
BRANCH   4   5
ATOM      5  C   UNL     1       6.735   9.939   9.682  1.00  0.00     0.000 C 
BRANCH   5   6
ATOM      6  C   UNL     1       6.817  11.455   9.448  1.00  0.00     0.000 C 
BRANCH   6   7
ATOM      7  C   UNL     1       6.202  11.836   8.093  1.00  0.00     0.006 C 
BRANCH   7   8
ATOM      8  C   UNL     1       4.671  11.722   8.095  1.00  0.00     0.053 C 
BRANCH   8   9
ATOM      9  C   UNL     1       4.089  12.009   6.745  1.00  0.00     0.041 C 
ATOM     10  O   UNL     1       4.044  11.103   5.870  1.00  0.00    -0.550 OA
ATOM     11  O   UNL     1       3.623  13.282   6.443  1.00  0.00    -0.550 OA
ENDBRANCH   8   9
ENDBRANCH   7   8
ENDBRANCH   6   7
ENDBRANCH   5   6
ENDBRANCH   4   5
ENDBRANCH   3   4
ENDBRANCH   2   3
ENDBRANCH   1   2
BRANCH   1  12
ATOM     12  C   UNL     1       9.770   5.699   9.337  1.00  0.00     0.000 C 
BRANCH  12  13
ATOM     13  C   UNL     1       9.241   4.429  10.031  1.00  0.00    -0.000 C 
BRANCH  13  14
ATOM     14  C   UNL     1       7.699   4.339  10.087  1.00  0.00    -0.000 C 
BRANCH  14  15
ATOM     15  C   UNL     1       7.126   3.104   9.366  1.00  0.00    -0.000 C 
BRANCH  15  16
ATOM     16  C   UNL     1       5.631   3.200   9.018  1.00  0.00    -0.000 C 
BRANCH  16  17
ATOM     17  C   UNL     1       4.949   1.853   8.706  1.00  0.00    -0.000 C 
BRANCH  17  18
ATOM     18  C   UNL     1       3.439   1.973   8.406  1.00  0.00    -0.000 C 
BRANCH  18  19
ATOM     19  C   UNL     1       2.626   2.380   9.644  1.00  0.00    -0.003 C 
ATOM     20  C   UNL     1       1.820   3.649   9.380  1.00  0.00     0.004 C 
ENDBRANCH  18  19
ENDBRANCH  17  18
ENDBRANCH  16  17
ENDBRANCH  15  16
ENDBRANCH  14  15
ENDBRANCH  13  14
ENDBRANCH  12  13
ENDBRANCH   1  12
TORSDOF 16
ENDMDL
MODEL 7
REMARK VINA RESULT:    -3.258      1.575      2.143
REMARK INTER + INTRA:          -7.071
REMARK INTER:                  -6.261
REMARK INTRA:                  -0.809
REMARK UNBOUND:                -0.765
REMARK SMILES CCCCCCCCCCCCCCCCCC(=O)[O-]
REMARK SMILES IDX 10 1 11 2 12 3 13 4 14 5 15 6 16 7 17 8 18 9 19 10 20 11
REMARK SMILES IDX 9 12 8 13 7 14 6 15 5 16 4 17 3 18 2 19 1 20
REMARK H PARENT
REMARK Flexibility Score: inf
ROOT
ATOM      1  C   UNL     1       8.718   6.352   8.300  1.00  0.00     0.000 C 
ENDROOT
BRANCH   1   2
ATOM      2  C   UNL     1       9.100   5.451   9.489  1.00  0.00     0.000 C 
BRANCH   2   3
ATOM      3  C   UNL     1       7.929   4.601  10.035  1.00  0.00     0.000 C 
BRANCH   3   4
ATOM      4  C   UNL     1       8.220   3.088  10.097  1.00  0.00     0.000 C 
BRANCH   4   5
ATOM      5  C   UNL     1       7.075   2.184   9.599  1.00  0.00     0.000 C 
BRANCH   5   6
ATOM      6  C   UNL     1       6.138   2.889   8.606  1.00  0.00     0.000 C 
BRANCH   6   7
ATOM      7  C   UNL     1       4.769   2.194   8.556  1.00  0.00     0.006 C 
BRANCH   7   8
ATOM      8  C   UNL     1       3.609   3.197   8.478  1.00  0.00     0.053 C 
BRANCH   8   9
ATOM      9  C   UNL     1       2.384   2.686   9.174  1.00  0.00     0.041 C 
ATOM     10  O   UNL     1       1.308   3.339   9.121  1.00  0.00    -0.550 OA
ATOM     11  O   UNL     1       2.438   1.505   9.904  1.00  0.00    -0.550 OA
ENDBRANCH   8   9
ENDBRANCH   7   8
ENDBRANCH   6   7
ENDBRANCH   5   6
ENDBRANCH   4   5
ENDBRANCH   3   4
ENDBRANCH   2   3
ENDBRANCH   1   2
BRANCH   1  12
ATOM     12  C   UNL     1       8.982   7.858   8.504  1.00  0.00     0.000 C 
BRANCH  12  13
ATOM     13  C   UNL     1       8.565   8.407   9.883  1.00  0.00    -0.000 C 
BRANCH  13  14
ATOM     14  C   UNL     1       8.246   9.919   9.887  1.00  0.00    -0.000 C 
BRANCH  14  15
ATOM     15  C   UNL     1       6.738  10.232   9.842  1.00  0.00    -0.000 C 
BRANCH  15  16
ATOM     16  C   UNL     1       6.385  11.608   9.251  1.00  0.00    -0.000 C 
BRANCH  16  17
ATOM     17  C   UNL     1       5.975  11.592   7.766  1.00  0.00    -0.000 C 
BRANCH  17  18
ATOM     18  C   UNL     1       4.503  11.990   7.520  1.00  0.00    -0.000 C 
BRANCH  18  19
ATOM     19  C   UNL     1       3.705  12.120   8.826  1.00  0.00    -0.003 C 
ATOM     20  C   UNL     1       2.277  12.583   8.554  1.00  0.00     0.004 C 
ENDBRANCH  18  19
ENDBRANCH  17  18
ENDBRANCH  16  17
ENDBRANCH  15  16
ENDBRANCH  14  15
ENDBRANCH  13  14
ENDBRANCH  12  13
ENDBRANCH   1  12
TORSDOF 16
ENDMDL
MODEL 8
REMARK VINA RESULT:    -3.137      3.867      5.822
REMARK INTER + INTRA:          -6.836
REMARK INTER:                  -5.165
REMARK INTRA:                  -1.671
REMARK UNBOUND:                -0.765
REMARK SMILES CCCCCCCCCCCCCCCCCC(=O)[O-]
REMARK SMILES IDX 10 1 11 2 12 3 13 4 14 5 15 6 16 7 17 8 18 9 19 10 20 11
REMARK SMILES IDX 9 12 8 13 7 14 6 15 5 16 4 17 3 18 2 19 1 20
REMARK H PARENT
REMARK Flexibility Score: inf
ROOT
ATOM      1  C   UNL     1       5.704  11.519   7.271  1.00  0.00     0.000 C 
ENDROOT
BRANCH   1   2
ATOM      2  C   UNL     1       6.310  12.407   8.375  1.00  0.00     0.000 C 
BRANCH   2   3
ATOM      3  C   UNL     1       5.968  11.948   9.810  1.00  0.00     0.000 C 
BRANCH   3   4
ATOM      4  C   UNL     1       6.233  10.452  10.077  1.00  0.00     0.000 C 
BRANCH   4   5
ATOM      5  C   UNL     1       7.711  10.026   9.984  1.00  0.00     0.000 C 
BRANCH   5   6
ATOM      6  C   UNL     1       7.893   8.515   9.776  1.00  0.00     0.000 C 
BRANCH   6   7
ATOM      7  C   UNL     1       8.728   8.230   8.519  1.00  0.00     0.006 C 
BRANCH   7   8
ATOM      8  C   UNL     1       9.001   6.732   8.327  1.00  0.00     0.053 C 
BRANCH   8   9
ATOM      9  C   UNL     1      10.402   6.367   8.713  1.00  0.00     0.041 C 
ATOM     10  O   UNL     1      10.649   5.231   9.199  1.00  0.00    -0.550 OA
ATOM     11  O   UNL     1      11.429   7.290   8.562  1.00  0.00    -0.550 OA
ENDBRANCH   8   9
ENDBRANCH   7   8
ENDBRANCH   6   7
ENDBRANCH   5   6
ENDBRANCH   4   5
ENDBRANCH   3   4
ENDBRANCH   2   3
ENDBRANCH   1   2
BRANCH   1  12
ATOM     12  C   UNL     1       4.188  11.692   7.045  1.00  0.00     0.000 C 
BRANCH  12  13
ATOM     13  C   UNL     1       3.780  13.023   6.384  1.00  0.00    -0.000 C 
BRANCH  13  14
ATOM     14  C   UNL     1       2.623  13.754   7.104  1.00  0.00    -0.000 C 
BRANCH  14  15
ATOM     15  C   UNL     1       2.872  13.971   8.608  1.00  0.00    -0.000 C 
BRANCH  15  16
ATOM     16  C   UNL     1       1.775  13.408   9.528  1.00  0.00    -0.000 C 
BRANCH  16  17
ATOM     17  C   UNL     1       2.076  12.019  10.124  1.00  0.00    -0.000 C 
BRANCH  17  18
ATOM     18  C   UNL     1       1.717  10.846   9.187  1.00  0.00    -0.000 C 
BRANCH  18  19
ATOM     19  C   UNL     1       1.926   9.478   9.853  1.00  0.00    -0.003 C 
ATOM     20  C   UNL     1       0.644   8.651   9.825  1.00  0.00     0.004 C 
ENDBRANCH  18  19
ENDBRANCH  17  18
ENDBRANCH  16  17
ENDBRANCH  15  16
ENDBRANCH  14  15
ENDBRANCH  13  14
ENDBRANCH  12  13
ENDBRANCH   1  12
TORSDOF 16
ENDMDL
MODEL 9
REMARK VINA RESULT:    -2.818      4.815      8.063
REMARK INTER + INTRA:          -6.219
REMARK INTER:                  -5.437
REMARK INTRA:                  -0.782
REMARK UNBOUND:                -0.765
REMARK SMILES CCCCCCCCCCCCCCCCCC(=O)[O-]
REMARK SMILES IDX 10 1 11 2 12 3 13 4 14 5 15 6 16 7 17 8 18 9 19 10 20 11
REMARK SMILES IDX 9 12 8 13 7 14 6 15 5 16 4 17 3 18 2 19 1 20
REMARK H PARENT
REMARK Flexibility Score: inf
ROOT
ATOM      1  C   UNL     1       5.141   2.056   9.491  1.00  0.00     0.000 C 
ENDROOT
BRANCH   1   2
ATOM      2  C   UNL     1       3.854   2.424   8.729  1.00  0.00     0.000 C 
BRANCH   2   3
ATOM      3  C   UNL     1       2.635   1.545   9.091  1.00  0.00     0.000 C 
BRANCH   3   4
ATOM      4  C   UNL     1       1.679   2.181  10.120  1.00  0.00     0.000 C 
BRANCH   4   5
ATOM      5  C   UNL     1       0.179   1.980   9.826  1.00  0.00     0.000 C 
BRANCH   5   6
ATOM      6  C   UNL     1      -0.665   3.231  10.114  1.00  0.00     0.000 C 
BRANCH   6   7
ATOM      7  C   UNL     1       0.153   4.510   9.878  1.00  0.00     0.006 C 
BRANCH   7   8
ATOM      8  C   UNL     1      -0.707   5.778   9.976  1.00  0.00     0.053 C 
BRANCH   8   9
ATOM      9  C   UNL     1      -1.996   5.636   9.226  1.00  0.00     0.041 C 
ATOM     10  O   UNL     1      -3.095   5.700   9.839  1.00  0.00    -0.550 OA
ATOM     11  O   UNL     1      -1.983   5.405   7.856  1.00  0.00    -0.550 OA
ENDBRANCH   8   9
ENDBRANCH   7   8
ENDBRANCH   6   7
ENDBRANCH   5   6
ENDBRANCH   4   5
ENDBRANCH   3   4
ENDBRANCH   2   3
ENDBRANCH   1   2
BRANCH   1  12
ATOM     12  C   UNL     1       6.455   2.299   8.721  1.00  0.00     0.000 C 
BRANCH  12  13
ATOM     13  C   UNL     1       7.730   2.255   9.587  1.00  0.00    -0.000 C 
BRANCH  13  14
ATOM     14  C   UNL     1       8.172   3.636  10.125  1.00  0.00    -0.000 C 
BRANCH  14  15
ATOM     15  C   UNL     1       7.710   4.816   9.251  1.00  0.00    -0.000 C 
BRANCH  15  16
ATOM     16  C   UNL     1       8.449   6.139   9.515  1.00  0.00    -0.000 C 
BRANCH  16  17
ATOM     17  C   UNL     1       9.502   6.518   8.456  1.00  0.00    -0.000 C 
BRANCH  17  18
ATOM     18  C   UNL     1      10.807   7.090   9.049  1.00  0.00    -0.000 C 
BRANCH  18  19
ATOM     19  C   UNL     1      11.800   5.990   9.452  1.00  0.00    -0.003 C 
ATOM     20  C   UNL     1      13.079   6.072   8.622  1.00  0.00     0.004 C 
ENDBRANCH  18  19
ENDBRANCH  17  18
ENDBRANCH  16  17
ENDBRANCH  15  16
ENDBRANCH  14  15
ENDBRANCH  13  14
ENDBRANCH  12  13
ENDBRANCH   1  12
TORSDOF 16
ENDMDL
