MODEL 1
REMARK VINA RESULT:    -4.285      0.000      0.000
REMARK INTER + INTRA:          -5.295
REMARK INTER:                  -5.037
REMARK INTRA:                  -0.259
REMARK UNBOUND:                -0.259
REMARK SMILES COc1cc2ccc(=O)oc2c(OC)c1OC
REMARK SMILES IDX 3 1 15 2 12 3 11 4 5 5 4 6 6 7 7 8 8 9 9 10 10 11 2 12 1 13
REMARK SMILES IDX 16 14 17 15 13 16 14 17
REMARK H PARENT
REMARK Flexibility Score: inf
ROOT
ATOM      1  C   UNL     1      14.938 -16.941  19.786  1.00  0.00     0.165 A 
ATOM      2  C   UNL     1      14.704 -17.115  21.160  1.00  0.00     0.207 A 
ATOM      3  C   UNL     1      13.447 -17.601  21.615  1.00  0.00     0.208 A 
ATOM      4  C   UNL     1      12.440 -17.904  20.662  1.00  0.00     0.184 A 
ATOM      5  C   UNL     1      12.695 -17.722  19.285  1.00  0.00     0.025 A 
ATOM      6  C   UNL     1      13.934 -17.244  18.856  1.00  0.00     0.062 A 
ATOM      7  C   UNL     1      11.688 -18.028  18.365  1.00  0.00     0.020 A 
ATOM      8  C   UNL     1      10.461 -18.502  18.821  1.00  0.00     0.094 A 
ATOM      9  C   UNL     1      10.273 -18.661  20.194  1.00  0.00     0.336 A 
ATOM     10  O   UNL     1       9.173 -19.089  20.633  1.00  0.00    -0.246 OA
ATOM     11  O   UNL     1      11.248 -18.362  21.046  1.00  0.00    -0.419 OA
ENDROOT
BRANCH   1  12
ATOM     12  O   UNL     1      16.195 -16.458  19.386  1.00  0.00    -0.493 OA
ATOM     13  C   UNL     1      16.455 -15.121  18.970  1.00  0.00     0.278 C 
ENDBRANCH   1  12
BRANCH   2  14
ATOM     14  O   UNL     1      15.772 -16.783  22.019  1.00  0.00    -0.490 OA
ATOM     15  C   UNL     1      16.724 -17.676  22.589  1.00  0.00     0.278 C 
ENDBRANCH   2  14
BRANCH   3  16
ATOM     16  O   UNL     1      13.248 -17.764  23.000  1.00  0.00    -0.490 OA
ATOM     17  C   UNL     1      12.639 -16.839  23.895  1.00  0.00     0.278 C 
ENDBRANCH   3  16
TORSDOF 3
ENDMDL
MODEL 2
REMARK VINA RESULT:    -4.133      1.641      4.731
REMARK INTER + INTRA:          -5.117
REMARK INTER:                  -4.817
REMARK INTRA:                  -0.300
REMARK UNBOUND:                -0.259
REMARK SMILES COc1cc2ccc(=O)oc2c(OC)c1OC
REMARK SMILES IDX 3 1 15 2 12 3 11 4 5 5 4 6 6 7 7 8 8 9 9 10 10 11 2 12 1 13
REMARK SMILES IDX 16 14 17 15 13 16 14 17
REMARK H PARENT
REMARK Flexibility Score: inf
ROOT
ATOM      1  C   UNL     1      11.793 -17.719  18.788  1.00  0.00     0.165 A 
ATOM      2  C   UNL     1      11.360 -17.683  20.124  1.00  0.00     0.207 A 
ATOM      3  C   UNL     1      12.303 -17.781  21.185  1.00  0.00     0.208 A 
ATOM      4  C   UNL     1      13.681 -17.914  20.871  1.00  0.00     0.184 A 
ATOM      5  C   UNL     1      14.096 -17.948  19.520  1.00  0.00     0.025 A 
ATOM      6  C   UNL     1      13.157 -17.851  18.493  1.00  0.00     0.062 A 
ATOM      7  C   UNL     1      15.459 -18.079  19.236  1.00  0.00     0.020 A 
ATOM      8  C   UNL     1      16.373 -18.174  20.282  1.00  0.00     0.094 A 
ATOM      9  C   UNL     1      15.899 -18.134  21.593  1.00  0.00     0.336 A 
ATOM     10  O   UNL     1      16.705 -18.218  22.556  1.00  0.00    -0.246 OA
ATOM     11  O   UNL     1      14.598 -18.009  21.833  1.00  0.00    -0.419 OA
ENDROOT
BRANCH   1  12
ATOM     12  O   UNL     1      10.824 -17.619  17.777  1.00  0.00    -0.493 OA
ATOM     13  C   UNL     1      10.382 -18.705  16.967  1.00  0.00     0.278 C 
ENDBRANCH   1  12
BRANCH   2  14
ATOM     14  O   UNL     1       9.970 -17.549  20.322  1.00  0.00    -0.490 OA
ATOM     15  C   UNL     1       9.040 -18.589  20.602  1.00  0.00     0.278 C 
ENDBRANCH   2  14
BRANCH   3  16
ATOM     16  O   UNL     1      11.833 -17.741  22.511  1.00  0.00    -0.490 OA
ATOM     17  C   UNL     1      11.687 -16.591  23.337  1.00  0.00     0.278 C 
ENDBRANCH   3  16
TORSDOF 3
ENDMDL
MODEL 3
REMARK VINA RESULT:    -3.921      1.320      4.832
REMARK INTER + INTRA:          -4.867
REMARK INTER:                  -4.561
REMARK INTRA:                  -0.307
REMARK UNBOUND:                -0.259
REMARK SMILES COc1cc2ccc(=O)oc2c(OC)c1OC
REMARK SMILES IDX 3 1 15 2 12 3 11 4 5 5 4 6 6 7 7 8 8 9 9 10 10 11 2 12 1 13
REMARK SMILES IDX 16 14 17 15 13 16 14 17
REMARK H PARENT
REMARK Flexibility Score: inf
ROOT
ATOM      1  C   UNL     1      12.264 -17.657  18.867  1.00  0.00     0.165 A 
ATOM      2  C   UNL     1      12.283 -17.848  20.258  1.00  0.00     0.207 A 
ATOM      3  C   UNL     1      13.411 -17.436  21.021  1.00  0.00     0.208 A 
ATOM      4  C   UNL     1      14.509 -16.833  20.355  1.00  0.00     0.184 A 
ATOM      5  C   UNL     1      14.470 -16.649  18.955  1.00  0.00     0.025 A 
ATOM      6  C   UNL     1      13.356 -17.060  18.222  1.00  0.00     0.062 A 
ATOM      7  C   UNL     1      15.564 -16.052  18.321  1.00  0.00     0.020 A 
ATOM      8  C   UNL     1      16.663 -15.653  19.077  1.00  0.00     0.094 A 
ATOM      9  C   UNL     1      16.639 -15.861  20.456  1.00  0.00     0.336 A 
ATOM     10  O   UNL     1      17.620 -15.509  21.163  1.00  0.00    -0.246 OA
ATOM     11  O   UNL     1      15.586 -16.432  21.031  1.00  0.00    -0.419 OA
ENDROOT
BRANCH   1  12
ATOM     12  O   UNL     1      11.128 -18.081  18.157  1.00  0.00    -0.493 OA
ATOM     13  C   UNL     1      10.142 -17.211  17.612  1.00  0.00     0.278 C 
ENDBRANCH   1  12
BRANCH   2  14
ATOM     14  O   UNL     1      11.141 -18.458  20.817  1.00  0.00    -0.490 OA
ATOM     15  C   UNL     1       9.994 -17.804  21.349  1.00  0.00     0.278 C 
ENDBRANCH   2  14
BRANCH   3  16
ATOM     16  O   UNL     1      13.395 -17.643  22.414  1.00  0.00    -0.490 OA
ATOM     17  C   UNL     1      12.947 -16.733  23.412  1.00  0.00     0.278 C 
ENDBRANCH   3  16
TORSDOF 3
ENDMDL
MODEL 4
REMARK VINA RESULT:    -3.920     11.555     14.208
REMARK INTER + INTRA:          -4.866
REMARK INTER:                  -4.567
REMARK INTRA:                  -0.299
REMARK UNBOUND:                -0.259
REMARK SMILES COc1cc2ccc(=O)oc2c(OC)c1OC
REMARK SMILES IDX 3 1 15 2 12 3 11 4 5 5 4 6 6 7 7 8 8 9 9 10 10 11 2 12 1 13
REMARK SMILES IDX 16 14 17 15 13 16 14 17
REMARK H PARENT
REMARK Flexibility Score: inf
ROOT
ATOM      1  C   UNL     1      15.528  -6.714  13.129  1.00  0.00     0.165 A 
ATOM      2  C   UNL     1      14.505  -6.973  14.057  1.00  0.00     0.207 A 
ATOM      3  C   UNL     1      14.193  -6.015  15.062  1.00  0.00     0.208 A 
ATOM      4  C   UNL     1      14.929  -4.803  15.110  1.00  0.00     0.184 A 
ATOM      5  C   UNL     1      15.953  -4.562  14.167  1.00  0.00     0.025 A 
ATOM      6  C   UNL     1      16.246  -5.512  13.188  1.00  0.00     0.062 A 
ATOM      7  C   UNL     1      16.664  -3.359  14.234  1.00  0.00     0.020 A 
ATOM      8  C   UNL     1      16.350  -2.430  15.222  1.00  0.00     0.094 A 
ATOM      9  C   UNL     1      15.327  -2.728  16.122  1.00  0.00     0.336 A 
ATOM     10  O   UNL     1      15.024  -1.904  17.025  1.00  0.00    -0.246 OA
ATOM     11  O   UNL     1      14.669  -3.879  16.035  1.00  0.00    -0.419 OA
ENDROOT
BRANCH   1  12
ATOM     12  O   UNL     1      15.799  -7.690  12.156  1.00  0.00    -0.493 OA
ATOM     13  C   UNL     1      15.526  -7.546  10.765  1.00  0.00     0.278 C 
ENDBRANCH   1  12
BRANCH   2  14
ATOM     14  O   UNL     1      13.839  -8.208  13.919  1.00  0.00    -0.490 OA
ATOM     15  C   UNL     1      12.595  -8.443  13.268  1.00  0.00     0.278 C 
ENDBRANCH   2  14
BRANCH   3  16
ATOM     16  O   UNL     1      13.162  -6.308  15.975  1.00  0.00    -0.490 OA
ATOM     17  C   UNL     1      13.281  -7.004  17.211  1.00  0.00     0.278 C 
ENDBRANCH   3  16
TORSDOF 3
ENDMDL
MODEL 5
REMARK VINA RESULT:    -3.876      2.095      3.269
REMARK INTER + INTRA:          -4.814
REMARK INTER:                  -4.509
REMARK INTRA:                  -0.305
REMARK UNBOUND:                -0.259
REMARK SMILES COc1cc2ccc(=O)oc2c(OC)c1OC
REMARK SMILES IDX 3 1 15 2 12 3 11 4 5 5 4 6 6 7 7 8 8 9 9 10 10 11 2 12 1 13
REMARK SMILES IDX 16 14 17 15 13 16 14 17
REMARK H PARENT
REMARK Flexibility Score: inf
ROOT
ATOM      1  C   UNL     1      17.494 -15.003  19.755  1.00  0.00     0.165 A 
ATOM      2  C   UNL     1      17.486 -15.476  21.077  1.00  0.00     0.207 A 
ATOM      3  C   UNL     1      16.402 -16.270  21.546  1.00  0.00     0.208 A 
ATOM      4  C   UNL     1      15.336 -16.572  20.659  1.00  0.00     0.184 A 
ATOM      5  C   UNL     1      15.364 -16.087  19.333  1.00  0.00     0.025 A 
ATOM      6  C   UNL     1      16.435 -15.310  18.889  1.00  0.00     0.062 A 
ATOM      7  C   UNL     1      14.302 -16.399  18.477  1.00  0.00     0.020 A 
ATOM      8  C   UNL     1      13.247 -17.176  18.947  1.00  0.00     0.094 A 
ATOM      9  C   UNL     1      13.280 -17.625  20.267  1.00  0.00     0.336 A 
ATOM     10  O   UNL     1      12.338 -18.329  20.716  1.00  0.00    -0.246 OA
ATOM     11  O   UNL     1      14.302 -17.312  21.058  1.00  0.00    -0.419 OA
ENDROOT
BRANCH   1  12
ATOM     12  O   UNL     1      18.586 -14.223  19.339  1.00  0.00    -0.493 OA
ATOM     13  C   UNL     1      18.571 -12.804  19.223  1.00  0.00     0.278 C 
ENDBRANCH   1  12
BRANCH   2  14
ATOM     14  O   UNL     1      18.593 -15.116  21.872  1.00  0.00    -0.490 OA
ATOM     15  C   UNL     1      18.673 -14.031  22.791  1.00  0.00     0.278 C 
ENDBRANCH   2  14
BRANCH   3  16
ATOM     16  O   UNL     1      16.428 -16.727  22.878  1.00  0.00    -0.490 OA
ATOM     17  C   UNL     1      15.815 -16.115  24.008  1.00  0.00     0.278 C 
ENDBRANCH   3  16
TORSDOF 3
ENDMDL
MODEL 6
REMARK VINA RESULT:    -3.812     11.139     14.205
REMARK INTER + INTRA:          -4.739
REMARK INTER:                  -4.468
REMARK INTRA:                  -0.271
REMARK UNBOUND:                -0.259
REMARK SMILES COc1cc2ccc(=O)oc2c(OC)c1OC
REMARK SMILES IDX 3 1 15 2 12 3 11 4 5 5 4 6 6 7 7 8 8 9 9 10 10 11 2 12 1 13
REMARK SMILES IDX 16 14 17 15 13 16 14 17
REMARK H PARENT
REMARK Flexibility Score: inf
ROOT
ATOM      1  C   UNL     1      14.617  -9.883  11.431  1.00  0.00     0.165 A 
ATOM      2  C   UNL     1      14.885  -9.022  10.353  1.00  0.00     0.207 A 
ATOM      3  C   UNL     1      15.220  -7.660  10.592  1.00  0.00     0.208 A 
ATOM      4  C   UNL     1      15.278  -7.190  11.930  1.00  0.00     0.184 A 
ATOM      5  C   UNL     1      15.006  -8.072  13.000  1.00  0.00     0.025 A 
ATOM      6  C   UNL     1      14.679  -9.405  12.747  1.00  0.00     0.062 A 
ATOM      7  C   UNL     1      15.071  -7.586  14.310  1.00  0.00     0.020 A 
ATOM      8  C   UNL     1      15.400  -6.251  14.532  1.00  0.00     0.094 A 
ATOM      9  C   UNL     1      15.658  -5.433  13.433  1.00  0.00     0.336 A 
ATOM     10  O   UNL     1      15.957  -4.222  13.607  1.00  0.00    -0.246 OA
ATOM     11  O   UNL     1      15.589  -5.922  12.199  1.00  0.00    -0.419 OA
ENDROOT
BRANCH   1  12
ATOM     12  O   UNL     1      14.291 -11.218  11.144  1.00  0.00    -0.493 OA
ATOM     13  C   UNL     1      14.906 -12.351  11.748  1.00  0.00     0.278 C 
ENDBRANCH   1  12
BRANCH   2  14
ATOM     14  O   UNL     1      14.798  -9.592   9.067  1.00  0.00    -0.490 OA
ATOM     15  C   UNL     1      13.680  -9.555   8.186  1.00  0.00     0.278 C 
ENDBRANCH   2  14
BRANCH   3  16
ATOM     16  O   UNL     1      15.482  -6.826   9.489  1.00  0.00    -0.490 OA
ATOM     17  C   UNL     1      14.548  -6.017   8.782  1.00  0.00     0.278 C 
ENDBRANCH   3  16
TORSDOF 3
ENDMDL
MODEL 7
REMARK VINA RESULT:    -3.789      3.267      5.089
REMARK INTER + INTRA:          -4.713
REMARK INTER:                  -4.416
REMARK INTRA:                  -0.297
REMARK UNBOUND:                -0.259
REMARK SMILES COc1cc2ccc(=O)oc2c(OC)c1OC
REMARK SMILES IDX 3 1 15 2 12 3 11 4 5 5 4 6 6 7 7 8 8 9 9 10 10 11 2 12 1 13
REMARK SMILES IDX 16 14 17 15 13 16 14 17
REMARK H PARENT
REMARK Flexibility Score: inf
ROOT
ATOM      1  C   UNL     1      17.737 -17.291  22.747  1.00  0.00     0.165 A 
ATOM      2  C   UNL     1      18.068 -16.038  22.204  1.00  0.00     0.207 A 
ATOM      3  C   UNL     1      17.390 -15.559  21.048  1.00  0.00     0.208 A 
ATOM      4  C   UNL     1      16.382 -16.364  20.457  1.00  0.00     0.184 A 
ATOM      5  C   UNL     1      16.065 -17.621  21.019  1.00  0.00     0.025 A 
ATOM      6  C   UNL     1      16.739 -18.075  22.153  1.00  0.00     0.062 A 
ATOM      7  C   UNL     1      15.067 -18.396  20.420  1.00  0.00     0.020 A 
ATOM      8  C   UNL     1      14.411 -17.917  19.289  1.00  0.00     0.094 A 
ATOM      9  C   UNL     1      14.771 -16.668  18.784  1.00  0.00     0.336 A 
ATOM     10  O   UNL     1      14.193 -16.212  17.763  1.00  0.00    -0.246 OA
ATOM     11  O   UNL     1      15.723 -15.953  19.374  1.00  0.00    -0.419 OA
ENDROOT
BRANCH   1  12
ATOM     12  O   UNL     1      18.434 -17.720  23.888  1.00  0.00    -0.493 OA
ATOM     13  C   UNL     1      19.162 -18.941  23.982  1.00  0.00     0.278 C 
ENDBRANCH   1  12
BRANCH   2  14
ATOM     14  O   UNL     1      19.084 -15.321  22.869  1.00  0.00    -0.490 OA
ATOM     15  C   UNL     1      20.472 -15.312  22.555  1.00  0.00     0.278 C 
ENDBRANCH   2  14
BRANCH   3  16
ATOM     16  O   UNL     1      17.747 -14.298  20.532  1.00  0.00    -0.490 OA
ATOM     17  C   UNL     1      18.718 -14.025  19.526  1.00  0.00     0.278 C 
ENDBRANCH   3  16
TORSDOF 3
ENDMDL
MODEL 8
REMARK VINA RESULT:    -3.779     11.001     13.452
REMARK INTER + INTRA:          -4.701
REMARK INTER:                  -4.428
REMARK INTRA:                  -0.272
REMARK UNBOUND:                -0.259
REMARK SMILES COc1cc2ccc(=O)oc2c(OC)c1OC
REMARK SMILES IDX 3 1 15 2 12 3 11 4 5 5 4 6 6 7 7 8 8 9 9 10 10 11 2 12 1 13
REMARK SMILES IDX 16 14 17 15 13 16 14 17
REMARK H PARENT
REMARK Flexibility Score: inf
ROOT
ATOM      1  C   UNL     1      15.139  -4.059  14.753  1.00  0.00     0.165 A 
ATOM      2  C   UNL     1      14.852  -4.937  15.812  1.00  0.00     0.207 A 
ATOM      3  C   UNL     1      14.817  -6.341  15.588  1.00  0.00     0.208 A 
ATOM      4  C   UNL     1      15.075  -6.836  14.283  1.00  0.00     0.184 A 
ATOM      5  C   UNL     1      15.362  -5.937  13.232  1.00  0.00     0.025 A 
ATOM      6  C   UNL     1      15.392  -4.563  13.470  1.00  0.00     0.062 A 
ATOM      7  C   UNL     1      15.614  -6.449  11.955  1.00  0.00     0.020 A 
ATOM      8  C   UNL     1      15.577  -7.825  11.746  1.00  0.00     0.094 A 
ATOM      9  C   UNL     1      15.289  -8.659  12.827  1.00  0.00     0.336 A 
ATOM     10  O   UNL     1      15.250  -9.907  12.665  1.00  0.00    -0.246 OA
ATOM     11  O   UNL     1      15.053  -8.145  14.029  1.00  0.00    -0.419 OA
ENDROOT
BRANCH   1  12
ATOM     12  O   UNL     1      15.161  -2.681  15.024  1.00  0.00    -0.493 OA
ATOM     13  C   UNL     1      16.338  -1.880  15.054  1.00  0.00     0.278 C 
ENDBRANCH   1  12
BRANCH   2  14
ATOM     14  O   UNL     1      14.610  -4.338  17.066  1.00  0.00    -0.490 OA
ATOM     15  C   UNL     1      13.344  -4.083  17.664  1.00  0.00     0.278 C 
ENDBRANCH   2  14
BRANCH   3  16
ATOM     16  O   UNL     1      14.526  -7.190  16.672  1.00  0.00    -0.490 OA
ATOM     17  C   UNL     1      15.457  -7.792  17.566  1.00  0.00     0.278 C 
ENDBRANCH   3  16
TORSDOF 3
ENDMDL
MODEL 9
REMARK VINA RESULT:    -3.739     11.244     13.998
REMARK INTER + INTRA:          -4.654
REMARK INTER:                  -4.397
REMARK INTRA:                  -0.258
REMARK UNBOUND:                -0.259
REMARK SMILES COc1cc2ccc(=O)oc2c(OC)c1OC
REMARK SMILES IDX 3 1 15 2 12 3 11 4 5 5 4 6 6 7 7 8 8 9 9 10 10 11 2 12 1 13
REMARK SMILES IDX 16 14 17 15 13 16 14 17
REMARK H PARENT
REMARK Flexibility Score: inf
ROOT
ATOM      1  C   UNL     1      15.122  -7.411   9.572  1.00  0.00     0.165 A 
ATOM      2  C   UNL     1      14.870  -8.731   9.982  1.00  0.00     0.207 A 
ATOM      3  C   UNL     1      14.823  -9.053  11.367  1.00  0.00     0.208 A 
ATOM      4  C   UNL     1      15.034  -8.023  12.321  1.00  0.00     0.184 A 
ATOM      5  C   UNL     1      15.284  -6.702  11.887  1.00  0.00     0.025 A 
ATOM      6  C   UNL     1      15.327  -6.404  10.525  1.00  0.00     0.062 A 
ATOM      7  C   UNL     1      15.488  -5.704  12.846  1.00  0.00     0.020 A 
ATOM      8  C   UNL     1      15.440  -6.030  14.199  1.00  0.00     0.094 A 
ATOM      9  C   UNL     1      15.187  -7.353  14.560  1.00  0.00     0.336 A 
ATOM     10  O   UNL     1      15.138  -7.674  15.777  1.00  0.00    -0.246 OA
ATOM     11  O   UNL     1      14.998  -8.281  13.628  1.00  0.00    -0.419 OA
ENDROOT
BRANCH   1  12
ATOM     12  O   UNL     1      15.159  -7.144   8.194  1.00  0.00    -0.493 OA
ATOM     13  C   UNL     1      16.187  -6.409   7.538  1.00  0.00     0.278 C 
ENDBRANCH   1  12
BRANCH   2  14
ATOM     14  O   UNL     1      14.676  -9.675   8.952  1.00  0.00    -0.490 OA
ATOM     15  C   UNL     1      13.435 -10.090   8.392  1.00  0.00     0.278 C 
ENDBRANCH   2  14
BRANCH   3  16
ATOM     16  O   UNL     1      14.568 -10.386  11.741  1.00  0.00    -0.490 OA
ATOM     17  C   UNL     1      13.297 -10.994  11.944  1.00  0.00     0.278 C 
ENDBRANCH   3  16
TORSDOF 3
ENDMDL
