MODEL 1
REMARK VINA RESULT:    -3.285      0.000      0.000
REMARK INTER + INTRA:          -4.276
REMARK INTER:                  -4.053
REMARK INTRA:                  -0.224
REMARK UNBOUND:                -0.224
REMARK SMILES CCCCCC(=O)[O-]
REMARK SMILES IDX 4 1 5 2 6 3 7 4 8 5 3 6 2 7 1 8
REMARK H PARENT
REMARK Flexibility Score: inf
ROOT
ATOM      1  C   UNL     1      15.690  12.277 -13.687  1.00  0.00     0.006 C 
ENDROOT
BRANCH   1   2
ATOM      2  C   UNL     1      14.430  11.402 -13.793  1.00  0.00     0.053 C 
BRANCH   2   3
ATOM      3  C   UNL     1      14.692  10.128 -14.533  1.00  0.00     0.041 C 
ATOM      4  O   UNL     1      15.459   9.257 -14.045  1.00  0.00    -0.550 OA
ATOM      5  O   UNL     1      14.114   9.915 -15.779  1.00  0.00    -0.550 OA
ENDBRANCH   2   3
ENDBRANCH   1   2
BRANCH   1   6
ATOM      6  C   UNL     1      16.466  12.431 -15.008  1.00  0.00     0.000 C 
BRANCH   6   7
ATOM      7  C   UNL     1      17.989  12.426 -14.808  1.00  0.00    -0.003 C 
ATOM      8  C   UNL     1      18.378  11.616 -13.574  1.00  0.00     0.004 C 
ENDBRANCH   6   7
ENDBRANCH   1   6
TORSDOF 4
ENDMDL
MODEL 2
REMARK VINA RESULT:    -3.264      1.693      2.362
REMARK INTER + INTRA:          -4.251
REMARK INTER:                  -4.190
REMARK INTRA:                  -0.061
REMARK UNBOUND:                -0.224
REMARK SMILES CCCCCC(=O)[O-]
REMARK SMILES IDX 4 1 5 2 6 3 7 4 8 5 3 6 2 7 1 8
REMARK H PARENT
REMARK Flexibility Score: inf
ROOT
ATOM      1  C   UNL     1      17.728  11.128 -14.273  1.00  0.00     0.006 C 
ENDROOT
BRANCH   1   2
ATOM      2  C   UNL     1      16.431  11.945 -14.151  1.00  0.00     0.053 C 
BRANCH   2   3
ATOM      3  C   UNL     1      15.227  11.069 -13.998  1.00  0.00     0.041 C 
ATOM      4  O   UNL     1      14.113  11.569 -13.693  1.00  0.00    -0.550 OA
ATOM      5  O   UNL     1      15.343   9.693 -14.158  1.00  0.00    -0.550 OA
ENDBRANCH   2   3
ENDBRANCH   1   2
BRANCH   1   6
ATOM      6  C   UNL     1      18.903  11.678 -13.444  1.00  0.00     0.000 C 
BRANCH   6   7
ATOM      7  C   UNL     1      19.716  12.741 -14.198  1.00  0.00    -0.003 C 
ATOM      8  C   UNL     1      21.016  13.060 -13.464  1.00  0.00     0.004 C 
ENDBRANCH   6   7
ENDBRANCH   1   6
TORSDOF 4
ENDMDL
MODEL 3
REMARK VINA RESULT:    -3.221      1.661      2.052
REMARK INTER + INTRA:          -4.197
REMARK INTER:                  -4.150
REMARK INTRA:                  -0.047
REMARK UNBOUND:                -0.224
REMARK SMILES CCCCCC(=O)[O-]
REMARK SMILES IDX 4 1 5 2 6 3 7 4 8 5 3 6 2 7 1 8
REMARK H PARENT
REMARK Flexibility Score: inf
ROOT
ATOM      1  C   UNL     1      17.185  11.936 -13.888  1.00  0.00     0.006 C 
ENDROOT
BRANCH   1   2
ATOM      2  C   UNL     1      16.586  10.796 -14.728  1.00  0.00     0.053 C 
BRANCH   2   3
ATOM      3  C   UNL     1      15.232  10.388 -14.236  1.00  0.00     0.041 C 
ATOM      4  O   UNL     1      14.893   9.175 -14.246  1.00  0.00    -0.550 OA
ATOM      5  O   UNL     1      14.331  11.351 -13.798  1.00  0.00    -0.550 OA
ENDBRANCH   2   3
ENDBRANCH   1   2
BRANCH   1   6
ATOM      6  C   UNL     1      18.671  11.747 -13.534  1.00  0.00     0.000 C 
BRANCH   6   7
ATOM      7  C   UNL     1      19.589  12.734 -14.272  1.00  0.00    -0.003 C 
ATOM      8  C   UNL     1      20.884  12.963 -13.499  1.00  0.00     0.004 C 
ENDBRANCH   6   7
ENDBRANCH   1   6
TORSDOF 4
ENDMDL
MODEL 4
REMARK VINA RESULT:    -3.181      2.188      3.627
REMARK INTER + INTRA:          -4.148
REMARK INTER:                  -3.928
REMARK INTRA:                  -0.221
REMARK UNBOUND:                -0.224
REMARK SMILES CCCCCC(=O)[O-]
REMARK SMILES IDX 4 1 5 2 6 3 7 4 8 5 3 6 2 7 1 8
REMARK H PARENT
REMARK Flexibility Score: inf
ROOT
ATOM      1  C   UNL     1      15.518  12.369 -13.707  1.00  0.00     0.006 C 
ENDROOT
BRANCH   1   2
ATOM      2  C   UNL     1      16.516  12.297 -14.876  1.00  0.00     0.053 C 
BRANCH   2   3
ATOM      3  C   UNL     1      17.909  12.010 -14.407  1.00  0.00     0.041 C 
ATOM      4  O   UNL     1      18.158  10.954 -13.769  1.00  0.00    -0.550 OA
ATOM      5  O   UNL     1      18.926  12.926 -14.648  1.00  0.00    -0.550 OA
ENDBRANCH   2   3
ENDBRANCH   1   2
BRANCH   1   6
ATOM      6  C   UNL     1      14.412  11.299 -13.753  1.00  0.00     0.000 C 
BRANCH   6   7
ATOM      7  C   UNL     1      14.624  10.272 -14.876  1.00  0.00    -0.003 C 
ATOM      8  C   UNL     1      15.133   8.946 -14.319  1.00  0.00     0.004 C 
ENDBRANCH   6   7
ENDBRANCH   1   6
TORSDOF 4
ENDMDL
MODEL 5
REMARK VINA RESULT:    -3.152      2.430      3.390
REMARK INTER + INTRA:          -4.112
REMARK INTER:                  -4.027
REMARK INTRA:                  -0.085
REMARK UNBOUND:                -0.224
REMARK SMILES CCCCCC(=O)[O-]
REMARK SMILES IDX 4 1 5 2 6 3 7 4 8 5 3 6 2 7 1 8
REMARK H PARENT
REMARK Flexibility Score: inf
ROOT
ATOM      1  C   UNL     1      18.739  12.846 -14.986  1.00  0.00     0.006 C 
ENDROOT
BRANCH   1   2
ATOM      2  C   UNL     1      18.140  11.937 -13.900  1.00  0.00     0.053 C 
BRANCH   2   3
ATOM      3  C   UNL     1      16.683  11.676 -14.127  1.00  0.00     0.041 C 
ATOM      4  O   UNL     1      16.318  10.802 -14.956  1.00  0.00    -0.550 OA
ATOM      5  O   UNL     1      15.729  12.421 -13.445  1.00  0.00    -0.550 OA
ENDBRANCH   2   3
ENDBRANCH   1   2
BRANCH   1   6
ATOM      6  C   UNL     1      20.061  13.524 -14.585  1.00  0.00     0.000 C 
BRANCH   6   7
ATOM      7  C   UNL     1      20.837  12.732 -13.522  1.00  0.00    -0.003 C 
ATOM      8  C   UNL     1      22.107  13.469 -13.106  1.00  0.00     0.004 C 
ENDBRANCH   6   7
ENDBRANCH   1   6
TORSDOF 4
ENDMDL
MODEL 6
REMARK VINA RESULT:    -3.129      9.892     10.707
REMARK INTER + INTRA:          -4.084
REMARK INTER:                  -3.924
REMARK INTRA:                  -0.160
REMARK UNBOUND:                -0.224
REMARK SMILES CCCCCC(=O)[O-]
REMARK SMILES IDX 4 1 5 2 6 3 7 4 8 5 3 6 2 7 1 8
REMARK H PARENT
REMARK Flexibility Score: inf
ROOT
ATOM      1  C   UNL     1       7.269   8.822 -12.354  1.00  0.00     0.006 C 
ENDROOT
BRANCH   1   2
ATOM      2  C   UNL     1       6.032   7.966 -12.035  1.00  0.00     0.053 C 
BRANCH   2   3
ATOM      3  C   UNL     1       5.295   8.470 -10.833  1.00  0.00     0.041 C 
ATOM      4  O   UNL     1       5.831   8.424  -9.695  1.00  0.00    -0.550 OA
ATOM      5  O   UNL     1       4.002   8.962 -10.965  1.00  0.00    -0.550 OA
ENDBRANCH   2   3
ENDBRANCH   1   2
BRANCH   1   6
ATOM      6  C   UNL     1       6.957  10.130 -13.102  1.00  0.00     0.000 C 
BRANCH   6   7
ATOM      7  C   UNL     1       5.928   9.941 -14.228  1.00  0.00    -0.003 C 
ATOM      8  C   UNL     1       6.188  10.910 -15.378  1.00  0.00     0.004 C 
ENDBRANCH   6   7
ENDBRANCH   1   6
TORSDOF 4
ENDMDL
MODEL 7
REMARK VINA RESULT:    -2.950      3.233      4.528
REMARK INTER + INTRA:          -3.864
REMARK INTER:                  -3.760
REMARK INTRA:                  -0.104
REMARK UNBOUND:                -0.224
REMARK SMILES CCCCCC(=O)[O-]
REMARK SMILES IDX 4 1 5 2 6 3 7 4 8 5 3 6 2 7 1 8
REMARK H PARENT
REMARK Flexibility Score: inf
ROOT
ATOM      1  C   UNL     1      17.293  12.078 -14.646  1.00  0.00     0.006 C 
ENDROOT
BRANCH   1   2
ATOM      2  C   UNL     1      18.541  11.785 -13.796  1.00  0.00     0.053 C 
BRANCH   2   3
ATOM      3  C   UNL     1      19.653  12.746 -14.082  1.00  0.00     0.041 C 
ATOM      4  O   UNL     1      20.687  12.751 -13.364  1.00  0.00    -0.550 OA
ATOM      5  O   UNL     1      19.533  13.660 -15.122  1.00  0.00    -0.550 OA
ENDBRANCH   2   3
ENDBRANCH   1   2
BRANCH   1   6
ATOM      6  C   UNL     1      15.986  12.166 -13.839  1.00  0.00     0.000 C 
BRANCH   6   7
ATOM      7  C   UNL     1      14.828  11.399 -14.496  1.00  0.00    -0.003 C 
ATOM      8  C   UNL     1      14.950   9.899 -14.244  1.00  0.00     0.004 C 
ENDBRANCH   6   7
ENDBRANCH   1   6
TORSDOF 4
ENDMDL
MODEL 8
REMARK VINA RESULT:    -2.918      1.967      2.652
REMARK INTER + INTRA:          -3.824
REMARK INTER:                  -3.580
REMARK INTRA:                  -0.244
REMARK UNBOUND:                -0.224
REMARK SMILES CCCCCC(=O)[O-]
REMARK SMILES IDX 4 1 5 2 6 3 7 4 8 5 3 6 2 7 1 8
REMARK H PARENT
REMARK Flexibility Score: inf
ROOT
ATOM      1  C   UNL     1      16.373   9.666 -14.330  1.00  0.00     0.006 C 
ENDROOT
BRANCH   1   2
ATOM      2  C   UNL     1      15.183  10.472 -14.878  1.00  0.00     0.053 C 
BRANCH   2   3
ATOM      3  C   UNL     1      15.354  11.943 -14.662  1.00  0.00     0.041 C 
ATOM      4  O   UNL     1      15.351  12.733 -15.642  1.00  0.00    -0.550 OA
ATOM      5  O   UNL     1      15.550  12.440 -13.379  1.00  0.00    -0.550 OA
ENDBRANCH   2   3
ENDBRANCH   1   2
BRANCH   1   6
ATOM      6  C   UNL     1      17.748  10.171 -14.800  1.00  0.00     0.000 C 
BRANCH   6   7
ATOM      7  C   UNL     1      18.724  10.410 -13.637  1.00  0.00    -0.003 C 
ATOM      8  C   UNL     1      19.093  11.887 -13.525  1.00  0.00     0.004 C 
ENDBRANCH   6   7
ENDBRANCH   1   6
TORSDOF 4
ENDMDL
MODEL 9
REMARK VINA RESULT:    -2.840      2.140      3.451
REMARK INTER + INTRA:          -3.728
REMARK INTER:                  -3.498
REMARK INTRA:                  -0.230
REMARK UNBOUND:                -0.224
REMARK SMILES CCCCCC(=O)[O-]
REMARK SMILES IDX 4 1 5 2 6 3 7 4 8 5 3 6 2 7 1 8
REMARK H PARENT
REMARK Flexibility Score: inf
ROOT
ATOM      1  C   UNL     1      17.567  10.734 -14.936  1.00  0.00     0.006 C 
ENDROOT
BRANCH   1   2
ATOM      2  C   UNL     1      17.013  11.919 -14.127  1.00  0.00     0.053 C 
BRANCH   2   3
ATOM      3  C   UNL     1      15.560  12.155 -14.400  1.00  0.00     0.041 C 
ATOM      4  O   UNL     1      15.203  12.817 -15.409  1.00  0.00    -0.550 OA
ATOM      5  O   UNL     1      14.599  11.671 -13.519  1.00  0.00    -0.550 OA
ENDBRANCH   2   3
ENDBRANCH   1   2
BRANCH   1   6
ATOM      6  C   UNL     1      17.145   9.353 -14.404  1.00  0.00     0.000 C 
BRANCH   6   7
ATOM      7  C   UNL     1      16.152   8.636 -15.331  1.00  0.00    -0.003 C 
ATOM      8  C   UNL     1      14.873   8.267 -14.585  1.00  0.00     0.004 C 
ENDBRANCH   6   7
ENDBRANCH   1   6
TORSDOF 4
ENDMDL
