MODEL 1
REMARK VINA RESULT:    -3.291      0.000      0.000
REMARK INTER + INTRA:          -4.976
REMARK INTER:                  -4.446
REMARK INTRA:                  -0.530
REMARK UNBOUND:                -0.530
REMARK SMILES [NH3+]CCCC[C@@H]([NH3+])C(=O)[O-]
REMARK SMILES IDX 4 1 3 2 2 3 1 4 5 8 6 9 7 10 8 14 9 15 10 16
REMARK H PARENT 1 5 1 6 1 7 7 11 7 12 7 13
REMARK Flexibility Score: inf
ROOT
ATOM      1  C   UNL     1     164.412 179.155 167.501  1.00  0.00     0.012 C 
ENDROOT
BRANCH   1   2
ATOM      2  C   UNL     1     164.850 177.753 167.958  1.00  0.00     0.061 C 
BRANCH   2   3
ATOM      3  C   UNL     1     165.152 176.768 166.812  1.00  0.00     0.258 C 
BRANCH   3   4
ATOM      4  N   UNL     1     163.939 176.333 166.118  1.00  0.00    -0.358 N 
ATOM      5  H   UNL     1     163.970 175.304 165.937  1.00  0.00     0.344 HD
ATOM      6  H   UNL     1     163.093 176.573 166.683  1.00  0.00     0.344 HD
ATOM      7  H   UNL     1     163.874 176.833 165.202  1.00  0.00     0.344 HD
ENDBRANCH   3   4
ENDBRANCH   2   3
ENDBRANCH   1   2
BRANCH   1   8
ATOM      8  C   UNL     1     163.025 179.553 168.037  1.00  0.00     0.072 C 
BRANCH   8   9
ATOM      9  C   UNL     1     162.245 178.342 168.591  1.00  0.00     0.227 C 
BRANCH   9  10
ATOM     10  N   UNL     1     161.819 178.594 169.974  1.00  0.00    -0.350 N 
ATOM     11  H   UNL     1     162.240 179.489 170.318  1.00  0.00     0.345 HD
ATOM     12  H   UNL     1     160.778 178.687 170.011  1.00  0.00     0.345 HD
ATOM     13  H   UNL     1     162.115 177.811 170.601  1.00  0.00     0.345 HD
ENDBRANCH   9  10
BRANCH   9  14
ATOM     14  C   UNL     1     161.050 178.023 167.730  1.00  0.00     0.099 C 
ATOM     15  O   UNL     1     161.193 177.416 166.636  1.00  0.00    -0.544 OA
ATOM     16  O   UNL     1     159.776 178.391 168.148  1.00  0.00    -0.544 OA
ENDBRANCH   9  14
ENDBRANCH   8   9
ENDBRANCH   1   8
TORSDOF 7
ENDMDL
MODEL 2
REMARK VINA RESULT:    -3.291      2.345      3.972
REMARK INTER + INTRA:          -4.975
REMARK INTER:                  -4.784
REMARK INTRA:                  -0.192
REMARK UNBOUND:                -0.530
REMARK SMILES [NH3+]CCCC[C@@H]([NH3+])C(=O)[O-]
REMARK SMILES IDX 4 1 3 2 2 3 1 4 5 8 6 9 7 10 8 14 9 15 10 16
REMARK H PARENT 1 5 1 6 1 7 7 11 7 12 7 13
REMARK Flexibility Score: inf
ROOT
ATOM      1  C   UNL     1     163.596 179.103 168.156  1.00  0.00     0.012 C 
ENDROOT
BRANCH   1   2
ATOM      2  C   UNL     1     162.061 179.053 168.075  1.00  0.00     0.061 C 
BRANCH   2   3
ATOM      3  C   UNL     1     161.386 178.192 169.160  1.00  0.00     0.258 C 
BRANCH   3   4
ATOM      4  N   UNL     1     162.346 177.355 169.883  1.00  0.00    -0.358 N 
ATOM      5  H   UNL     1     162.982 177.946 170.464  1.00  0.00     0.344 HD
ATOM      6  H   UNL     1     161.842 176.666 170.487  1.00  0.00     0.344 HD
ATOM      7  H   UNL     1     162.921 176.823 169.190  1.00  0.00     0.344 HD
ENDBRANCH   3   4
ENDBRANCH   2   3
ENDBRANCH   1   2
BRANCH   1   8
ATOM      8  C   UNL     1     164.257 179.429 166.804  1.00  0.00     0.072 C 
BRANCH   8   9
ATOM      9  C   UNL     1     165.366 178.420 166.440  1.00  0.00     0.227 C 
BRANCH   9  10
ATOM     10  N   UNL     1     166.504 178.554 167.357  1.00  0.00    -0.350 N 
ATOM     11  H   UNL     1     166.599 177.686 167.936  1.00  0.00     0.345 HD
ATOM     12  H   UNL     1     167.387 178.679 166.810  1.00  0.00     0.345 HD
ATOM     13  H   UNL     1     166.375 179.377 167.990  1.00  0.00     0.345 HD
ENDBRANCH   9  10
BRANCH   9  14
ATOM     14  C   UNL     1     164.844 177.006 166.464  1.00  0.00     0.099 C 
ATOM     15  O   UNL     1     165.385 176.136 167.198  1.00  0.00    -0.544 OA
ATOM     16  O   UNL     1     163.752 176.656 165.679  1.00  0.00    -0.544 OA
ENDBRANCH   9  14
ENDBRANCH   8   9
ENDBRANCH   1   8
TORSDOF 7
ENDMDL
MODEL 3
REMARK VINA RESULT:    -3.221      2.385      4.415
REMARK INTER + INTRA:          -4.881
REMARK INTER:                  -4.728
REMARK INTRA:                  -0.153
REMARK UNBOUND:                -0.530
REMARK SMILES [NH3+]CCCC[C@@H]([NH3+])C(=O)[O-]
REMARK SMILES IDX 4 1 3 2 2 3 1 4 5 8 6 9 7 10 8 14 9 15 10 16
REMARK H PARENT 1 5 1 6 1 7 7 11 7 12 7 13
REMARK Flexibility Score: inf
ROOT
ATOM      1  C   UNL     1     163.340 178.504 168.152  1.00  0.00     0.012 C 
ENDROOT
BRANCH   1   2
ATOM      2  C   UNL     1     162.637 178.092 169.457  1.00  0.00     0.061 C 
BRANCH   2   3
ATOM      3  C   UNL     1     161.099 178.063 169.378  1.00  0.00     0.258 C 
BRANCH   3   4
ATOM      4  N   UNL     1     160.470 178.344 170.670  1.00  0.00    -0.358 N 
ATOM      5  H   UNL     1     160.362 179.375 170.807  1.00  0.00     0.344 HD
ATOM      6  H   UNL     1     159.538 177.874 170.729  1.00  0.00     0.344 HD
ATOM      7  H   UNL     1     161.077 177.965 171.433  1.00  0.00     0.344 HD
ENDBRANCH   3   4
ENDBRANCH   2   3
ENDBRANCH   1   2
BRANCH   1   8
ATOM      8  C   UNL     1     164.832 178.129 168.131  1.00  0.00     0.072 C 
BRANCH   8   9
ATOM      9  C   UNL     1     165.257 177.503 166.786  1.00  0.00     0.227 C 
BRANCH   9  10
ATOM     10  N   UNL     1     164.438 176.322 166.487  1.00  0.00    -0.350 N 
ATOM     11  H   UNL     1     164.772 175.871 165.603  1.00  0.00     0.345 HD
ATOM     12  H   UNL     1     164.526 175.625 167.262  1.00  0.00     0.345 HD
ATOM     13  H   UNL     1     163.431 176.587 166.378  1.00  0.00     0.345 HD
ENDBRANCH   9  10
BRANCH   9  14
ATOM     14  C   UNL     1     165.153 178.503 165.663  1.00  0.00     0.099 C 
ATOM     15  O   UNL     1     164.335 178.326 164.722  1.00  0.00    -0.544 OA
ATOM     16  O   UNL     1     165.958 179.636 165.667  1.00  0.00    -0.544 OA
ENDBRANCH   9  14
ENDBRANCH   8   9
ENDBRANCH   1   8
TORSDOF 7
ENDMDL
MODEL 4
REMARK VINA RESULT:    -3.120      2.672      4.526
REMARK INTER + INTRA:          -4.744
REMARK INTER:                  -4.598
REMARK INTRA:                  -0.146
REMARK UNBOUND:                -0.530
REMARK SMILES [NH3+]CCCC[C@@H]([NH3+])C(=O)[O-]
REMARK SMILES IDX 4 1 3 2 2 3 1 4 5 8 6 9 7 10 8 14 9 15 10 16
REMARK H PARENT 1 5 1 6 1 7 7 11 7 12 7 13
REMARK Flexibility Score: inf
ROOT
ATOM      1  C   UNL     1     162.512 178.431 167.679  1.00  0.00     0.012 C 
ENDROOT
BRANCH   1   2
ATOM      2  C   UNL     1     161.295 178.854 168.518  1.00  0.00     0.061 C 
BRANCH   2   3
ATOM      3  C   UNL     1     160.812 177.797 169.530  1.00  0.00     0.258 C 
BRANCH   3   4
ATOM      4  N   UNL     1     160.383 178.394 170.796  1.00  0.00    -0.358 N 
ATOM      5  H   UNL     1     160.535 177.725 171.585  1.00  0.00     0.344 HD
ATOM      6  H   UNL     1     160.904 179.282 170.973  1.00  0.00     0.344 HD
ATOM      7  H   UNL     1     159.364 178.618 170.738  1.00  0.00     0.344 HD
ENDBRANCH   3   4
ENDBRANCH   2   3
ENDBRANCH   1   2
BRANCH   1   8
ATOM      8  C   UNL     1     163.729 178.046 168.540  1.00  0.00     0.072 C 
BRANCH   8   9
ATOM      9  C   UNL     1     164.889 177.484 167.690  1.00  0.00     0.227 C 
BRANCH   9  10
ATOM     10  N   UNL     1     164.393 176.473 166.748  1.00  0.00    -0.350 N 
ATOM     11  H   UNL     1     165.196 176.047 166.228  1.00  0.00     0.345 HD
ATOM     12  H   UNL     1     163.903 175.712 167.272  1.00  0.00     0.345 HD
ATOM     13  H   UNL     1     163.728 176.900 166.063  1.00  0.00     0.345 HD
ENDBRANCH   9  10
BRANCH   9  14
ATOM     14  C   UNL     1     165.600 178.584 166.944  1.00  0.00     0.099 C 
ATOM     15  O   UNL     1     165.533 178.651 165.688  1.00  0.00    -0.544 OA
ATOM     16  O   UNL     1     166.327 179.539 167.643  1.00  0.00    -0.544 OA
ENDBRANCH   9  14
ENDBRANCH   8   9
ENDBRANCH   1   8
TORSDOF 7
ENDMDL
MODEL 5
REMARK VINA RESULT:    -3.026     10.127     11.581
REMARK INTER + INTRA:          -4.618
REMARK INTER:                  -4.489
REMARK INTRA:                  -0.129
REMARK UNBOUND:                -0.530
REMARK SMILES [NH3+]CCCC[C@@H]([NH3+])C(=O)[O-]
REMARK SMILES IDX 4 1 3 2 2 3 1 4 5 8 6 9 7 10 8 14 9 15 10 16
REMARK H PARENT 1 5 1 6 1 7 7 11 7 12 7 13
REMARK Flexibility Score: inf
ROOT
ATOM      1  C   UNL     1     167.969 171.284 163.713  1.00  0.00     0.012 C 
ENDROOT
BRANCH   1   2
ATOM      2  C   UNL     1     166.559 170.672 163.751  1.00  0.00     0.061 C 
BRANCH   2   3
ATOM      3  C   UNL     1     165.632 171.118 162.605  1.00  0.00     0.258 C 
BRANCH   3   4
ATOM      4  N   UNL     1     165.424 172.567 162.588  1.00  0.00    -0.358 N 
ATOM      5  H   UNL     1     166.117 173.029 161.957  1.00  0.00     0.344 HD
ATOM      6  H   UNL     1     164.451 172.790 162.277  1.00  0.00     0.344 HD
ATOM      7  H   UNL     1     165.551 172.939 163.557  1.00  0.00     0.344 HD
ENDBRANCH   3   4
ENDBRANCH   2   3
ENDBRANCH   1   2
BRANCH   1   8
ATOM      8  C   UNL     1     168.999 170.467 164.515  1.00  0.00     0.072 C 
BRANCH   8   9
ATOM      9  C   UNL     1     170.141 169.935 163.624  1.00  0.00     0.227 C 
BRANCH   9  10
ATOM     10  N   UNL     1     171.445 170.212 164.240  1.00  0.00    -0.350 N 
ATOM     11  H   UNL     1     172.178 169.598 163.815  1.00  0.00     0.345 HD
ATOM     12  H   UNL     1     171.713 171.208 164.066  1.00  0.00     0.345 HD
ATOM     13  H   UNL     1     171.410 170.043 165.272  1.00  0.00     0.345 HD
ENDBRANCH   9  10
BRANCH   9  14
ATOM     14  C   UNL     1     169.991 168.457 163.372  1.00  0.00     0.099 C 
ATOM     15  O   UNL     1     169.274 167.748 164.127  1.00  0.00    -0.544 OA
ATOM     16  O   UNL     1     170.639 167.868 162.293  1.00  0.00    -0.544 OA
ENDBRANCH   9  14
ENDBRANCH   8   9
ENDBRANCH   1   8
TORSDOF 7
ENDMDL
MODEL 6
REMARK VINA RESULT:    -3.022      2.603      3.549
REMARK INTER + INTRA:          -4.612
REMARK INTER:                  -4.103
REMARK INTRA:                  -0.509
REMARK UNBOUND:                -0.530
REMARK SMILES [NH3+]CCCC[C@@H]([NH3+])C(=O)[O-]
REMARK SMILES IDX 4 1 3 2 2 3 1 4 5 8 6 9 7 10 8 14 9 15 10 16
REMARK H PARENT 1 5 1 6 1 7 7 11 7 12 7 13
REMARK Flexibility Score: inf
ROOT
ATOM      1  C   UNL     1     164.522 177.670 165.192  1.00  0.00     0.012 C 
ENDROOT
BRANCH   1   2
ATOM      2  C   UNL     1     163.072 177.510 164.706  1.00  0.00     0.061 C 
BRANCH   2   3
ATOM      3  C   UNL     1     162.306 176.334 165.341  1.00  0.00     0.258 C 
BRANCH   3   4
ATOM      4  N   UNL     1     161.293 176.781 166.300  1.00  0.00    -0.358 N 
ATOM      5  H   UNL     1     160.452 177.148 165.799  1.00  0.00     0.344 HD
ATOM      6  H   UNL     1     161.021 175.995 166.932  1.00  0.00     0.344 HD
ATOM      7  H   UNL     1     161.696 177.548 166.886  1.00  0.00     0.344 HD
ENDBRANCH   3   4
ENDBRANCH   2   3
ENDBRANCH   1   2
BRANCH   1   8
ATOM      8  C   UNL     1     164.820 176.860 166.467  1.00  0.00     0.072 C 
BRANCH   8   9
ATOM      9  C   UNL     1     165.187 177.767 167.661  1.00  0.00     0.227 C 
BRANCH   9  10
ATOM     10  N   UNL     1     166.419 178.515 167.377  1.00  0.00    -0.350 N 
ATOM     11  H   UNL     1     166.916 178.734 168.272  1.00  0.00     0.345 HD
ATOM     12  H   UNL     1     167.056 177.936 166.784  1.00  0.00     0.345 HD
ATOM     13  H   UNL     1     166.202 179.408 166.877  1.00  0.00     0.345 HD
ENDBRANCH   9  10
BRANCH   9  14
ATOM     14  C   UNL     1     164.066 178.719 167.986  1.00  0.00     0.099 C 
ATOM     15  O   UNL     1     164.211 179.960 167.821  1.00  0.00    -0.544 OA
ATOM     16  O   UNL     1     162.856 178.229 168.464  1.00  0.00    -0.544 OA
ENDBRANCH   9  14
ENDBRANCH   8   9
ENDBRANCH   1   8
TORSDOF 7
ENDMDL
MODEL 7
REMARK VINA RESULT:    -2.924      2.263      2.882
REMARK INTER + INTRA:          -4.480
REMARK INTER:                  -4.221
REMARK INTRA:                  -0.258
REMARK UNBOUND:                -0.530
REMARK SMILES [NH3+]CCCC[C@@H]([NH3+])C(=O)[O-]
REMARK SMILES IDX 4 1 3 2 2 3 1 4 5 8 6 9 7 10 8 14 9 15 10 16
REMARK H PARENT 1 5 1 6 1 7 7 11 7 12 7 13
REMARK Flexibility Score: inf
ROOT
ATOM      1  C   UNL     1     164.531 176.764 165.721  1.00  0.00     0.012 C 
ENDROOT
BRANCH   1   2
ATOM      2  C   UNL     1     165.170 176.794 167.119  1.00  0.00     0.061 C 
BRANCH   2   3
ATOM      3  C   UNL     1     165.290 178.198 167.743  1.00  0.00     0.258 C 
BRANCH   3   4
ATOM      4  N   UNL     1     166.592 178.814 167.479  1.00  0.00    -0.358 N 
ATOM      5  H   UNL     1     166.885 179.409 168.288  1.00  0.00     0.344 HD
ATOM      6  H   UNL     1     167.311 178.078 167.295  1.00  0.00     0.344 HD
ATOM      7  H   UNL     1     166.516 179.418 166.629  1.00  0.00     0.344 HD
ENDBRANCH   3   4
ENDBRANCH   2   3
ENDBRANCH   1   2
BRANCH   1   8
ATOM      8  C   UNL     1     163.430 177.825 165.542  1.00  0.00     0.072 C 
BRANCH   8   9
ATOM      9  C   UNL     1     162.016 177.208 165.571  1.00  0.00     0.227 C 
BRANCH   9  10
ATOM     10  N   UNL     1     162.094 175.742 165.546  1.00  0.00    -0.350 N 
ATOM     11  H   UNL     1     163.030 175.442 165.187  1.00  0.00     0.345 HD
ATOM     12  H   UNL     1     161.979 175.366 166.515  1.00  0.00     0.345 HD
ATOM     13  H   UNL     1     161.346 175.342 164.933  1.00  0.00     0.345 HD
ENDBRANCH   9  10
BRANCH   9  14
ATOM     14  C   UNL     1     161.247 177.666 166.783  1.00  0.00     0.099 C 
ATOM     15  O   UNL     1     160.117 177.175 167.048  1.00  0.00    -0.544 OA
ATOM     16  O   UNL     1     161.789 178.630 167.625  1.00  0.00    -0.544 OA
ENDBRANCH   9  14
ENDBRANCH   8   9
ENDBRANCH   1   8
TORSDOF 7
ENDMDL
MODEL 8
REMARK VINA RESULT:    -2.899      2.509      3.412
REMARK INTER + INTRA:          -4.447
REMARK INTER:                  -3.887
REMARK INTRA:                  -0.560
REMARK UNBOUND:                -0.530
REMARK SMILES [NH3+]CCCC[C@@H]([NH3+])C(=O)[O-]
REMARK SMILES IDX 4 1 3 2 2 3 1 4 5 8 6 9 7 10 8 14 9 15 10 16
REMARK H PARENT 1 5 1 6 1 7 7 11 7 12 7 13
REMARK Flexibility Score: inf
ROOT
ATOM      1  C   UNL     1     161.666 178.851 166.960  1.00  0.00     0.012 C 
ENDROOT
BRANCH   1   2
ATOM      2  C   UNL     1     161.764 178.226 165.558  1.00  0.00     0.061 C 
BRANCH   2   3
ATOM      3  C   UNL     1     161.585 176.696 165.521  1.00  0.00     0.258 C 
BRANCH   3   4
ATOM      4  N   UNL     1     162.856 175.984 165.673  1.00  0.00    -0.358 N 
ATOM      5  H   UNL     1     163.555 176.584 166.167  1.00  0.00     0.344 HD
ATOM      6  H   UNL     1     162.710 175.093 166.201  1.00  0.00     0.344 HD
ATOM      7  H   UNL     1     163.227 175.746 164.725  1.00  0.00     0.344 HD
ENDBRANCH   3   4
ENDBRANCH   2   3
ENDBRANCH   1   2
BRANCH   1   8
ATOM      8  C   UNL     1     162.976 179.525 167.407  1.00  0.00     0.072 C 
BRANCH   8   9
ATOM      9  C   UNL     1     163.740 178.679 168.447  1.00  0.00     0.227 C 
BRANCH   9  10
ATOM     10  N   UNL     1     162.869 177.635 169.002  1.00  0.00    -0.350 N 
ATOM     11  H   UNL     1     162.890 176.789 168.386  1.00  0.00     0.345 HD
ATOM     12  H   UNL     1     163.210 177.357 169.951  1.00  0.00     0.345 HD
ATOM     13  H   UNL     1     161.883 177.979 169.080  1.00  0.00     0.345 HD
ENDBRANCH   9  10
BRANCH   9  14
ATOM     14  C   UNL     1     164.973 178.057 167.843  1.00  0.00     0.099 C 
ATOM     15  O   UNL     1     164.964 176.856 167.463  1.00  0.00    -0.544 OA
ATOM     16  O   UNL     1     166.129 178.814 167.693  1.00  0.00    -0.544 OA
ENDBRANCH   9  14
ENDBRANCH   8   9
ENDBRANCH   1   8
TORSDOF 7
ENDMDL
MODEL 9
REMARK VINA RESULT:    -2.874     10.381     12.460
REMARK INTER + INTRA:          -4.413
REMARK INTER:                  -4.178
REMARK INTRA:                  -0.235
REMARK UNBOUND:                -0.530
REMARK SMILES [NH3+]CCCC[C@@H]([NH3+])C(=O)[O-]
REMARK SMILES IDX 4 1 3 2 2 3 1 4 5 8 6 9 7 10 8 14 9 15 10 16
REMARK H PARENT 1 5 1 6 1 7 7 11 7 12 7 13
REMARK Flexibility Score: inf
ROOT
ATOM      1  C   UNL     1     169.963 171.247 163.531  1.00  0.00     0.012 C 
ENDROOT
BRANCH   1   2
ATOM      2  C   UNL     1     168.594 171.248 164.233  1.00  0.00     0.061 C 
BRANCH   2   3
ATOM      3  C   UNL     1     167.420 170.772 163.356  1.00  0.00     0.258 C 
BRANCH   3   4
ATOM      4  N   UNL     1     166.195 171.533 163.605  1.00  0.00    -0.358 N 
ATOM      5  H   UNL     1     165.355 170.920 163.494  1.00  0.00     0.344 HD
ATOM      6  H   UNL     1     166.214 171.946 164.565  1.00  0.00     0.344 HD
ATOM      7  H   UNL     1     166.135 172.315 162.913  1.00  0.00     0.344 HD
ENDBRANCH   3   4
ENDBRANCH   2   3
ENDBRANCH   1   2
BRANCH   1   8
ATOM      8  C   UNL     1     170.851 170.062 163.951  1.00  0.00     0.072 C 
BRANCH   8   9
ATOM      9  C   UNL     1     170.986 169.010 162.829  1.00  0.00     0.227 C 
BRANCH   9  10
ATOM     10  N   UNL     1     172.393 168.631 162.647  1.00  0.00    -0.350 N 
ATOM     11  H   UNL     1     172.491 167.590 162.697  1.00  0.00     0.345 HD
ATOM     12  H   UNL     1     172.725 168.946 161.707  1.00  0.00     0.345 HD
ATOM     13  H   UNL     1     172.993 169.068 163.386  1.00  0.00     0.345 HD
ENDBRANCH   9  10
BRANCH   9  14
ATOM     14  C   UNL     1     170.155 167.788 163.126  1.00  0.00     0.099 C 
ATOM     15  O   UNL     1     169.369 167.772 164.111  1.00  0.00    -0.544 OA
ATOM     16  O   UNL     1     170.245 166.672 162.303  1.00  0.00    -0.544 OA
ENDBRANCH   9  14
ENDBRANCH   8   9
ENDBRANCH   1   8
TORSDOF 7
ENDMDL
