MODEL 1
REMARK VINA RESULT:    -2.673      0.000      0.000
REMARK INTER + INTRA:          -3.005
REMARK INTER:                  -2.986
REMARK INTRA:                  -0.019
REMARK UNBOUND:                -0.019
REMARK SMILES CCCC(=O)[O-]
REMARK SMILES IDX 3 1 4 2 5 3 6 4 2 5 1 6
REMARK H PARENT
REMARK Flexibility Score: inf
ROOT
ATOM      1  C   UNL     1    -114.485  11.397  25.181  1.00  0.00     0.052 C 
ENDROOT
BRANCH   1   2
ATOM      2  C   UNL     1    -112.991  11.455  25.133  1.00  0.00     0.041 C 
ATOM      3  O   UNL     1    -112.408  12.538  24.861  1.00  0.00    -0.550 OA
ATOM      4  O   UNL     1    -112.243  10.303  25.339  1.00  0.00    -0.550 OA
ENDBRANCH   1   2
BRANCH   1   5
ATOM      5  C   UNL     1    -115.092  12.590  24.440  1.00  0.00     0.003 C 
ATOM      6  C   UNL     1    -116.211  12.145  23.502  1.00  0.00     0.004 C 
ENDBRANCH   1   5
TORSDOF 2
ENDMDL
MODEL 2
REMARK VINA RESULT:    -2.655      2.215      3.036
REMARK INTER + INTRA:          -2.984
REMARK INTER:                  -2.946
REMARK INTRA:                  -0.038
REMARK UNBOUND:                -0.019
REMARK SMILES CCCC(=O)[O-]
REMARK SMILES IDX 3 1 4 2 5 3 6 4 2 5 1 6
REMARK H PARENT
REMARK Flexibility Score: inf
ROOT
ATOM      1  C   UNL     1    -113.788  11.407  25.640  1.00  0.00     0.052 C 
ENDROOT
BRANCH   1   2
ATOM      2  C   UNL     1    -115.087  11.639  24.935  1.00  0.00     0.041 C 
ATOM      3  O   UNL     1    -115.287  12.717  24.315  1.00  0.00    -0.550 OA
ATOM      4  O   UNL     1    -116.095  10.686  25.003  1.00  0.00    -0.550 OA
ENDBRANCH   1   2
BRANCH   1   5
ATOM      5  C   UNL     1    -112.625  11.972  24.821  1.00  0.00     0.003 C 
ATOM      6  C   UNL     1    -111.969  10.886  23.974  1.00  0.00     0.004 C 
ENDBRANCH   1   5
TORSDOF 2
ENDMDL
MODEL 3
REMARK VINA RESULT:    -2.641      2.157      3.261
REMARK INTER + INTRA:          -2.969
REMARK INTER:                  -2.917
REMARK INTRA:                  -0.052
REMARK UNBOUND:                -0.019
REMARK SMILES CCCC(=O)[O-]
REMARK SMILES IDX 3 1 4 2 5 3 6 4 2 5 1 6
REMARK H PARENT
REMARK Flexibility Score: inf
ROOT
ATOM      1  C   UNL     1    -113.729  11.534  25.657  1.00  0.00     0.052 C 
ENDROOT
BRANCH   1   2
ATOM      2  C   UNL     1    -115.022  11.600  24.907  1.00  0.00     0.041 C 
ATOM      3  O   UNL     1    -115.756  10.580  24.820  1.00  0.00    -0.550 OA
ATOM      4  O   UNL     1    -115.393  12.773  24.263  1.00  0.00    -0.550 OA
ENDBRANCH   1   2
BRANCH   1   5
ATOM      5  C   UNL     1    -112.570  11.992  24.769  1.00  0.00     0.003 C 
ATOM      6  C   UNL     1    -111.996  10.826  23.968  1.00  0.00     0.004 C 
ENDBRANCH   1   5
TORSDOF 2
ENDMDL
MODEL 4
REMARK VINA RESULT:    -2.592     10.292     11.209
REMARK INTER + INTRA:          -2.914
REMARK INTER:                  -2.907
REMARK INTRA:                  -0.007
REMARK UNBOUND:                -0.019
REMARK SMILES CCCC(=O)[O-]
REMARK SMILES IDX 3 1 4 2 5 3 6 4 2 5 1 6
REMARK H PARENT
REMARK Flexibility Score: inf
ROOT
ATOM      1  C   UNL     1    -102.959  12.136  24.733  1.00  0.00     0.052 C 
ENDROOT
BRANCH   1   2
ATOM      2  C   UNL     1    -103.511  11.317  25.857  1.00  0.00     0.041 C 
ATOM      3  O   UNL     1    -104.755  11.249  26.039  1.00  0.00    -0.550 OA
ATOM      4  O   UNL     1    -102.650  10.667  26.733  1.00  0.00    -0.550 OA
ENDBRANCH   1   2
BRANCH   1   5
ATOM      5  C   UNL     1    -102.649  11.248  23.525  1.00  0.00     0.003 C 
ATOM      6  C   UNL     1    -101.517  11.834  22.686  1.00  0.00     0.004 C 
ENDBRANCH   1   5
TORSDOF 2
ENDMDL
MODEL 5
REMARK VINA RESULT:    -2.579     11.046     11.705
REMARK INTER + INTRA:          -2.899
REMARK INTER:                  -2.837
REMARK INTRA:                  -0.062
REMARK UNBOUND:                -0.019
REMARK SMILES CCCC(=O)[O-]
REMARK SMILES IDX 3 1 4 2 5 3 6 4 2 5 1 6
REMARK H PARENT
REMARK Flexibility Score: inf
ROOT
ATOM      1  C   UNL     1    -102.895  12.327  24.737  1.00  0.00     0.052 C 
ENDROOT
BRANCH   1   2
ATOM      2  C   UNL     1    -102.499  11.621  23.479  1.00  0.00     0.041 C 
ATOM      3  O   UNL     1    -101.584  12.090  22.751  1.00  0.00    -0.550 OA
ATOM      4  O   UNL     1    -103.172  10.472  23.085  1.00  0.00    -0.550 OA
ENDBRANCH   1   2
BRANCH   1   5
ATOM      5  C   UNL     1    -103.123  11.320  25.868  1.00  0.00     0.003 C 
ATOM      6  C   UNL     1    -101.802  10.734  26.359  1.00  0.00     0.004 C 
ENDBRANCH   1   5
TORSDOF 2
ENDMDL
MODEL 6
REMARK VINA RESULT:    -2.573     17.882     18.154
REMARK INTER + INTRA:          -2.892
REMARK INTER:                  -2.854
REMARK INTRA:                  -0.038
REMARK UNBOUND:                -0.019
REMARK SMILES CCCC(=O)[O-]
REMARK SMILES IDX 3 1 4 2 5 3 6 4 2 5 1 6
REMARK H PARENT
REMARK Flexibility Score: inf
ROOT
ATOM      1  C   UNL     1    -100.242  20.650  32.080  1.00  0.00     0.052 C 
ENDROOT
BRANCH   1   2
ATOM      2  C   UNL     1    -100.589  20.171  33.454  1.00  0.00     0.041 C 
ATOM      3  O   UNL     1     -99.887  19.289  34.014  1.00  0.00    -0.550 OA
ATOM      4  O   UNL     1    -101.717  20.665  34.097  1.00  0.00    -0.550 OA
ENDBRANCH   1   2
BRANCH   1   5
ATOM      5  C   UNL     1    -100.228  22.180  32.032  1.00  0.00     0.003 C 
ATOM      6  C   UNL     1    -101.375  22.715  31.179  1.00  0.00     0.004 C 
ENDBRANCH   1   5
TORSDOF 2
ENDMDL
MODEL 7
REMARK VINA RESULT:    -2.510     17.842     18.325
REMARK INTER + INTRA:          -2.822
REMARK INTER:                  -2.797
REMARK INTRA:                  -0.026
REMARK UNBOUND:                -0.019
REMARK SMILES CCCC(=O)[O-]
REMARK SMILES IDX 3 1 4 2 5 3 6 4 2 5 1 6
REMARK H PARENT
REMARK Flexibility Score: inf
ROOT
ATOM      1  C   UNL     1    -101.267  22.718  31.190  1.00  0.00     0.052 C 
ENDROOT
BRANCH   1   2
ATOM      2  C   UNL     1    -102.267  23.464  32.016  1.00  0.00     0.041 C 
ATOM      3  O   UNL     1    -103.347  23.857  31.501  1.00  0.00    -0.550 OA
ATOM      4  O   UNL     1    -101.986  23.768  33.342  1.00  0.00    -0.550 OA
ENDBRANCH   1   2
BRANCH   1   5
ATOM      5  C   UNL     1    -100.228  22.041  32.088  1.00  0.00     0.003 C 
ATOM      6  C   UNL     1    -100.253  20.526  31.915  1.00  0.00     0.004 C 
ENDBRANCH   1   5
TORSDOF 2
ENDMDL
MODEL 8
REMARK VINA RESULT:    -2.477      2.499      3.511
REMARK INTER + INTRA:          -2.786
REMARK INTER:                  -2.747
REMARK INTRA:                  -0.039
REMARK UNBOUND:                -0.019
REMARK SMILES CCCC(=O)[O-]
REMARK SMILES IDX 3 1 4 2 5 3 6 4 2 5 1 6
REMARK H PARENT
REMARK Flexibility Score: inf
ROOT
ATOM      1  C   UNL     1    -115.132  12.345  24.489  1.00  0.00     0.052 C 
ENDROOT
BRANCH   1   2
ATOM      2  C   UNL     1    -115.584  11.511  23.332  1.00  0.00     0.041 C 
ATOM      3  O   UNL     1    -115.187  10.321  23.216  1.00  0.00    -0.550 OA
ATOM      4  O   UNL     1    -116.406  12.061  22.357  1.00  0.00    -0.550 OA
ENDBRANCH   1   2
BRANCH   1   5
ATOM      5  C   UNL     1    -114.044  11.617  25.282  1.00  0.00     0.003 C 
ATOM      6  C   UNL     1    -112.662  12.185  24.973  1.00  0.00     0.004 C 
ENDBRANCH   1   5
TORSDOF 2
ENDMDL
MODEL 9
REMARK VINA RESULT:    -2.465      2.002      2.458
REMARK INTER + INTRA:          -2.772
REMARK INTER:                  -2.750
REMARK INTRA:                  -0.022
REMARK UNBOUND:                -0.019
REMARK SMILES CCCC(=O)[O-]
REMARK SMILES IDX 3 1 4 2 5 3 6 4 2 5 1 6
REMARK H PARENT
REMARK Flexibility Score: inf
ROOT
ATOM      1  C   UNL     1    -115.229  12.646  24.271  1.00  0.00     0.052 C 
ENDROOT
BRANCH   1   2
ATOM      2  C   UNL     1    -115.068  11.358  25.014  1.00  0.00     0.041 C 
ATOM      3  O   UNL     1    -115.950  10.463  24.928  1.00  0.00    -0.550 OA
ATOM      4  O   UNL     1    -113.968  11.164  25.841  1.00  0.00    -0.550 OA
ENDBRANCH   1   2
BRANCH   1   5
ATOM      5  C   UNL     1    -116.632  12.746  23.668  1.00  0.00     0.003 C 
ATOM      6  C   UNL     1    -117.257  14.110  23.947  1.00  0.00     0.004 C 
ENDBRANCH   1   5
TORSDOF 2
ENDMDL
