MODEL 1
REMARK VINA RESULT:    -2.072      0.000      0.000
REMARK INTER + INTRA:          -7.679
REMARK INTER:                  -5.222
REMARK INTRA:                  -2.456
REMARK UNBOUND:                -2.456
REMARK SMILES CCCCCCCCCCCCCCCCCCCCCCCCCCCC(=O)[O-]
REMARK SMILES IDX 15 1 16 2 17 3 18 4 19 5 20 6 21 7 22 8 23 9 24 10 25 11
REMARK SMILES IDX 26 12 27 13 28 14 29 15 30 16 14 17 13 18 12 19 11 20 10 21
REMARK SMILES IDX 9 22 8 23 7 24 6 25 5 26 4 27 3 28 2 29 1 30
REMARK H PARENT
REMARK Flexibility Score: inf
ROOT
ATOM      1  C   UNL     1       5.278  -9.386   3.155  1.00  0.00     0.000 C 
ENDROOT
BRANCH   1   2
ATOM      2  C   UNL     1       4.727 -10.694   3.747  1.00  0.00     0.000 C 
BRANCH   2   3
ATOM      3  C   UNL     1       3.860 -10.460   4.996  1.00  0.00     0.000 C 
BRANCH   3   4
ATOM      4  C   UNL     1       4.477 -11.083   6.260  1.00  0.00     0.000 C 
BRANCH   4   5
ATOM      5  C   UNL     1       4.902 -10.020   7.289  1.00  0.00     0.000 C 
BRANCH   5   6
ATOM      6  C   UNL     1       5.262 -10.632   8.653  1.00  0.00     0.000 C 
BRANCH   6   7
ATOM      7  C   UNL     1       4.648  -9.855   9.828  1.00  0.00     0.000 C 
BRANCH   7   8
ATOM      8  C   UNL     1       3.109  -9.857   9.814  1.00  0.00     0.000 C 
BRANCH   8   9
ATOM      9  C   UNL     1       2.489  -8.608   9.153  1.00  0.00     0.000 C 
BRANCH   9  10
ATOM     10  C   UNL     1       1.073  -8.310   9.675  1.00  0.00     0.000 C 
BRANCH  10  11
ATOM     11  C   UNL     1       0.301  -9.589  10.042  1.00  0.00     0.000 C 
BRANCH  11  12
ATOM     12  C   UNL     1      -1.025  -9.714   9.270  1.00  0.00     0.006 C 
BRANCH  12  13
ATOM     13  C   UNL     1      -0.990 -10.846   8.234  1.00  0.00     0.053 C 
BRANCH  13  14
ATOM     14  C   UNL     1      -0.360 -10.410   6.946  1.00  0.00     0.041 C 
ATOM     15  O   UNL     1      -1.067  -9.903   6.034  1.00  0.00    -0.550 OA
ATOM     16  O   UNL     1       1.003 -10.579   6.747  1.00  0.00    -0.550 OA
ENDBRANCH  13  14
ENDBRANCH  12  13
ENDBRANCH  11  12
ENDBRANCH  10  11
ENDBRANCH   9  10
ENDBRANCH   8   9
ENDBRANCH   7   8
ENDBRANCH   6   7
ENDBRANCH   5   6
ENDBRANCH   4   5
ENDBRANCH   3   4
ENDBRANCH   2   3
ENDBRANCH   1   2
BRANCH   1  17
ATOM     17  C   UNL     1       5.282  -8.234   4.172  1.00  0.00     0.000 C 
BRANCH  17  18
ATOM     18  C   UNL     1       6.717  -7.812   4.520  1.00  0.00     0.000 C 
BRANCH  18  19
ATOM     19  C   UNL     1       7.486  -8.889   5.307  1.00  0.00     0.000 C 
BRANCH  19  20
ATOM     20  C   UNL     1       8.195  -8.382   6.578  1.00  0.00     0.000 C 
BRANCH  20  21
ATOM     21  C   UNL     1       8.487  -9.471   7.629  1.00  0.00     0.000 C 
BRANCH  21  22
ATOM     22  C   UNL     1       8.471  -8.942   9.082  1.00  0.00    -0.000 C 
BRANCH  22  23
ATOM     23  C   UNL     1       8.151  -7.440   9.184  1.00  0.00    -0.000 C 
BRANCH  23  24
ATOM     24  C   UNL     1       9.406  -6.567   9.010  1.00  0.00    -0.000 C 
BRANCH  24  25
ATOM     25  C   UNL     1       9.069  -5.081   8.806  1.00  0.00    -0.000 C 
BRANCH  25  26
ATOM     26  C   UNL     1       8.479  -4.431  10.066  1.00  0.00    -0.000 C 
BRANCH  26  27
ATOM     27  C   UNL     1       7.498  -3.311   9.699  1.00  0.00    -0.000 C 
BRANCH  27  28
ATOM     28  C   UNL     1       8.044  -1.938  10.123  1.00  0.00    -0.000 C 
BRANCH  28  29
ATOM     29  C   UNL     1       7.441  -0.783   9.308  1.00  0.00    -0.003 C 
ATOM     30  C   UNL     1       8.037   0.577   9.672  1.00  0.00     0.004 C 
ENDBRANCH  28  29
ENDBRANCH  27  28
ENDBRANCH  26  27
ENDBRANCH  25  26
ENDBRANCH  24  25
ENDBRANCH  23  24
ENDBRANCH  22  23
ENDBRANCH  21  22
ENDBRANCH  20  21
ENDBRANCH  19  20
ENDBRANCH  18  19
ENDBRANCH  17  18
ENDBRANCH   1  17
TORSDOF 26
ENDMDL
MODEL 2
REMARK VINA RESULT:    -1.904      2.804      8.405
REMARK INTER + INTRA:          -7.254
REMARK INTER:                  -4.993
REMARK INTRA:                  -2.261
REMARK UNBOUND:                -2.456
REMARK SMILES CCCCCCCCCCCCCCCCCCCCCCCCCCCC(=O)[O-]
REMARK SMILES IDX 15 1 16 2 17 3 18 4 19 5 20 6 21 7 22 8 23 9 24 10 25 11
REMARK SMILES IDX 26 12 27 13 28 14 29 15 30 16 14 17 13 18 12 19 11 20 10 21
REMARK SMILES IDX 9 22 8 23 7 24 6 25 5 26 4 27 3 28 2 29 1 30
REMARK H PARENT
REMARK Flexibility Score: inf
ROOT
ATOM      1  C   UNL     1       3.619 -10.052   4.509  1.00  0.00     0.000 C 
ENDROOT
BRANCH   1   2
ATOM      2  C   UNL     1       4.337 -10.431   3.203  1.00  0.00     0.000 C 
BRANCH   2   3
ATOM      3  C   UNL     1       5.393  -9.393   2.785  1.00  0.00     0.000 C 
BRANCH   3   4
ATOM      4  C   UNL     1       5.571  -8.285   3.836  1.00  0.00     0.000 C 
BRANCH   4   5
ATOM      5  C   UNL     1       6.879  -8.439   4.633  1.00  0.00     0.000 C 
BRANCH   5   6
ATOM      6  C   UNL     1       6.876  -7.619   5.934  1.00  0.00     0.000 C 
BRANCH   6   7
ATOM      7  C   UNL     1       8.167  -7.800   6.748  1.00  0.00     0.000 C 
BRANCH   7   8
ATOM      8  C   UNL     1       8.453  -9.269   7.107  1.00  0.00     0.000 C 
BRANCH   8   9
ATOM      9  C   UNL     1       8.972  -9.471   8.547  1.00  0.00     0.000 C 
BRANCH   9  10
ATOM     10  C   UNL     1      10.055  -8.447   8.928  1.00  0.00     0.000 C 
BRANCH  10  11
ATOM     11  C   UNL     1       9.642  -7.572  10.124  1.00  0.00     0.000 C 
BRANCH  11  12
ATOM     12  C   UNL     1       8.234  -6.972   9.953  1.00  0.00     0.006 C 
BRANCH  12  13
ATOM     13  C   UNL     1       8.210  -5.825   8.934  1.00  0.00     0.053 C 
BRANCH  13  14
ATOM     14  C   UNL     1       7.219  -4.763   9.306  1.00  0.00     0.041 C 
ATOM     15  O   UNL     1       6.118  -5.079   9.829  1.00  0.00    -0.550 OA
ATOM     16  O   UNL     1       7.507  -3.427   9.058  1.00  0.00    -0.550 OA
ENDBRANCH  13  14
ENDBRANCH  12  13
ENDBRANCH  11  12
ENDBRANCH  10  11
ENDBRANCH   9  10
ENDBRANCH   8   9
ENDBRANCH   7   8
ENDBRANCH   6   7
ENDBRANCH   5   6
ENDBRANCH   4   5
ENDBRANCH   3   4
ENDBRANCH   2   3
ENDBRANCH   1   2
BRANCH   1  17
ATOM     17  C   UNL     1       3.799 -11.110   5.609  1.00  0.00     0.000 C 
BRANCH  17  18
ATOM     18  C   UNL     1       5.240 -11.112   6.142  1.00  0.00     0.000 C 
BRANCH  18  19
ATOM     19  C   UNL     1       5.369 -10.454   7.528  1.00  0.00     0.000 C 
BRANCH  19  20
ATOM     20  C   UNL     1       4.412  -9.272   7.777  1.00  0.00     0.000 C 
BRANCH  20  21
ATOM     21  C   UNL     1       4.280  -8.852   9.254  1.00  0.00     0.000 C 
BRANCH  21  22
ATOM     22  C   UNL     1       2.877  -9.121   9.845  1.00  0.00    -0.000 C 
BRANCH  22  23
ATOM     23  C   UNL     1       2.389 -10.565   9.633  1.00  0.00    -0.000 C 
BRANCH  23  24
ATOM     24  C   UNL     1       0.854 -10.666   9.652  1.00  0.00    -0.000 C 
BRANCH  24  25
ATOM     25  C   UNL     1       0.275 -11.122   8.302  1.00  0.00    -0.000 C 
BRANCH  25  26
ATOM     26  C   UNL     1      -1.057 -10.435   7.969  1.00  0.00    -0.000 C 
BRANCH  26  27
ATOM     27  C   UNL     1      -1.633  -9.723   9.198  1.00  0.00    -0.000 C 
BRANCH  27  28
ATOM     28  C   UNL     1      -3.014 -10.287   9.567  1.00  0.00    -0.000 C 
BRANCH  28  29
ATOM     29  C   UNL     1      -3.963  -9.214  10.124  1.00  0.00    -0.003 C 
ATOM     30  C   UNL     1      -5.432  -9.638  10.082  1.00  0.00     0.004 C 
ENDBRANCH  28  29
ENDBRANCH  27  28
ENDBRANCH  26  27
ENDBRANCH  25  26
ENDBRANCH  24  25
ENDBRANCH  23  24
ENDBRANCH  22  23
ENDBRANCH  21  22
ENDBRANCH  20  21
ENDBRANCH  19  20
ENDBRANCH  18  19
ENDBRANCH  17  18
ENDBRANCH   1  17
TORSDOF 26
ENDMDL
MODEL 3
REMARK VINA RESULT:    -1.594      1.667      3.628
REMARK INTER + INTRA:          -6.474
REMARK INTER:                  -3.797
REMARK INTRA:                  -2.677
REMARK UNBOUND:                -2.456
REMARK SMILES CCCCCCCCCCCCCCCCCCCCCCCCCCCC(=O)[O-]
REMARK SMILES IDX 15 1 16 2 17 3 18 4 19 5 20 6 21 7 22 8 23 9 24 10 25 11
REMARK SMILES IDX 26 12 27 13 28 14 29 15 30 16 14 17 13 18 12 19 11 20 10 21
REMARK SMILES IDX 9 22 8 23 7 24 6 25 5 26 4 27 3 28 2 29 1 30
REMARK H PARENT
REMARK Flexibility Score: inf
ROOT
ATOM      1  C   UNL     1       4.164 -11.123   6.737  1.00  0.00     0.000 C 
ENDROOT
BRANCH   1   2
ATOM      2  C   UNL     1       3.448 -10.031   5.927  1.00  0.00     0.000 C 
BRANCH   2   3
ATOM      3  C   UNL     1       2.923 -10.545   4.575  1.00  0.00     0.000 C 
BRANCH   3   4
ATOM      4  C   UNL     1       3.636  -9.886   3.382  1.00  0.00     0.000 C 
BRANCH   4   5
ATOM      5  C   UNL     1       5.163  -9.827   3.572  1.00  0.00     0.000 C 
BRANCH   5   6
ATOM      6  C   UNL     1       5.642  -8.452   4.064  1.00  0.00     0.000 C 
BRANCH   6   7
ATOM      7  C   UNL     1       6.516  -8.548   5.325  1.00  0.00     0.000 C 
BRANCH   7   8
ATOM      8  C   UNL     1       6.582  -7.229   6.115  1.00  0.00     0.000 C 
BRANCH   8   9
ATOM      9  C   UNL     1       6.272  -7.385   7.619  1.00  0.00     0.000 C 
BRANCH   9  10
ATOM     10  C   UNL     1       4.761  -7.417   7.905  1.00  0.00     0.000 C 
BRANCH  10  11
ATOM     11  C   UNL     1       4.445  -7.327   9.408  1.00  0.00     0.000 C 
BRANCH  11  12
ATOM     12  C   UNL     1       2.934  -7.224   9.684  1.00  0.00     0.006 C 
BRANCH  12  13
ATOM     13  C   UNL     1       2.104  -8.056   8.697  1.00  0.00     0.053 C 
BRANCH  13  14
ATOM     14  C   UNL     1       1.245  -9.066   9.396  1.00  0.00     0.041 C 
ATOM     15  O   UNL     1       1.772 -10.035  10.005  1.00  0.00    -0.550 OA
ATOM     16  O   UNL     1      -0.138  -8.945   9.361  1.00  0.00    -0.550 OA
ENDBRANCH  13  14
ENDBRANCH  12  13
ENDBRANCH  11  12
ENDBRANCH  10  11
ENDBRANCH   9  10
ENDBRANCH   8   9
ENDBRANCH   7   8
ENDBRANCH   6   7
ENDBRANCH   5   6
ENDBRANCH   4   5
ENDBRANCH   3   4
ENDBRANCH   2   3
ENDBRANCH   1   2
BRANCH   1  17
ATOM     17  C   UNL     1       3.896 -11.009   8.247  1.00  0.00     0.000 C 
BRANCH  17  18
ATOM     18  C   UNL     1       5.201 -11.125   9.048  1.00  0.00     0.000 C 
BRANCH  18  19
ATOM     19  C   UNL     1       6.380 -10.385   8.387  1.00  0.00     0.000 C 
BRANCH  19  20
ATOM     20  C   UNL     1       7.728 -10.526   9.121  1.00  0.00     0.000 C 
BRANCH  20  21
ATOM     21  C   UNL     1       8.919  -9.852   8.413  1.00  0.00     0.000 C 
BRANCH  21  22
ATOM     22  C   UNL     1      10.116  -9.578   9.352  1.00  0.00    -0.000 C 
BRANCH  22  23
ATOM     23  C   UNL     1      10.024  -8.229  10.087  1.00  0.00    -0.000 C 
BRANCH  23  24
ATOM     24  C   UNL     1       8.983  -7.292   9.449  1.00  0.00    -0.000 C 
BRANCH  24  25
ATOM     25  C   UNL     1       9.621  -6.246   8.520  1.00  0.00    -0.000 C 
BRANCH  25  26
ATOM     26  C   UNL     1      10.125  -5.010   9.280  1.00  0.00    -0.000 C 
BRANCH  26  27
ATOM     27  C   UNL     1       9.006  -4.389  10.125  1.00  0.00    -0.000 C 
BRANCH  27  28
ATOM     28  C   UNL     1       7.745  -4.149   9.280  1.00  0.00    -0.000 C 
BRANCH  28  29
ATOM     29  C   UNL     1       7.733  -2.762   8.616  1.00  0.00    -0.003 C 
ATOM     30  C   UNL     1       7.561  -1.623   9.621  1.00  0.00     0.004 C 
ENDBRANCH  28  29
ENDBRANCH  27  28
ENDBRANCH  26  27
ENDBRANCH  25  26
ENDBRANCH  24  25
ENDBRANCH  23  24
ENDBRANCH  22  23
ENDBRANCH  21  22
ENDBRANCH  20  21
ENDBRANCH  19  20
ENDBRANCH  18  19
ENDBRANCH  17  18
ENDBRANCH   1  17
TORSDOF 26
ENDMDL
MODEL 4
REMARK VINA RESULT:    -1.533      3.192      6.839
REMARK INTER + INTRA:          -6.321
REMARK INTER:                  -4.014
REMARK INTRA:                  -2.307
REMARK UNBOUND:                -2.456
REMARK SMILES CCCCCCCCCCCCCCCCCCCCCCCCCCCC(=O)[O-]
REMARK SMILES IDX 15 1 16 2 17 3 18 4 19 5 20 6 21 7 22 8 23 9 24 10 25 11
REMARK SMILES IDX 26 12 27 13 28 14 29 15 30 16 14 17 13 18 12 19 11 20 10 21
REMARK SMILES IDX 9 22 8 23 7 24 6 25 5 26 4 27 3 28 2 29 1 30
REMARK H PARENT
REMARK Flexibility Score: inf
ROOT
ATOM      1  C   UNL     1       3.499 -10.766   5.242  1.00  0.00     0.000 C 
ENDROOT
BRANCH   1   2
ATOM      2  C   UNL     1       2.624 -10.743   3.978  1.00  0.00     0.000 C 
BRANCH   2   3
ATOM      3  C   UNL     1       3.367 -10.181   2.753  1.00  0.00     0.000 C 
BRANCH   3   4
ATOM      4  C   UNL     1       4.009  -8.812   3.036  1.00  0.00     0.000 C 
BRANCH   4   5
ATOM      5  C   UNL     1       5.516  -8.923   3.333  1.00  0.00     0.000 C 
BRANCH   5   6
ATOM      6  C   UNL     1       5.814  -9.018   4.838  1.00  0.00     0.000 C 
BRANCH   6   7
ATOM      7  C   UNL     1       6.753  -7.902   5.324  1.00  0.00     0.000 C 
BRANCH   7   8
ATOM      8  C   UNL     1       6.591  -7.588   6.822  1.00  0.00     0.000 C 
BRANCH   8   9
ATOM      9  C   UNL     1       5.304  -8.168   7.447  1.00  0.00     0.000 C 
BRANCH   9  10
ATOM     10  C   UNL     1       4.475  -7.099   8.179  1.00  0.00     0.000 C 
BRANCH  10  11
ATOM     11  C   UNL     1       4.670  -7.146   9.704  1.00  0.00     0.000 C 
BRANCH  11  12
ATOM     12  C   UNL     1       6.096  -6.747  10.125  1.00  0.00     0.006 C 
BRANCH  12  13
ATOM     13  C   UNL     1       6.380  -5.259   9.879  1.00  0.00     0.053 C 
BRANCH  13  14
ATOM     14  C   UNL     1       7.644  -5.048   9.101  1.00  0.00     0.041 C 
ATOM     15  O   UNL     1       7.645  -4.310   8.080  1.00  0.00    -0.550 OA
ATOM     16  O   UNL     1       8.816  -5.679   9.496  1.00  0.00    -0.550 OA
ENDBRANCH  13  14
ENDBRANCH  12  13
ENDBRANCH  11  12
ENDBRANCH  10  11
ENDBRANCH   9  10
ENDBRANCH   8   9
ENDBRANCH   7   8
ENDBRANCH   6   7
ENDBRANCH   5   6
ENDBRANCH   4   5
ENDBRANCH   3   4
ENDBRANCH   2   3
ENDBRANCH   1   2
BRANCH   1  17
ATOM     17  C   UNL     1       2.668 -10.854   6.532  1.00  0.00     0.000 C 
BRANCH  17  18
ATOM     18  C   UNL     1       1.300 -10.181   6.354  1.00  0.00     0.000 C 
BRANCH  18  19
ATOM     19  C   UNL     1       0.184 -10.861   7.169  1.00  0.00     0.000 C 
BRANCH  19  20
ATOM     20  C   UNL     1       0.156 -10.491   8.665  1.00  0.00     0.000 C 
BRANCH  20  21
ATOM     21  C   UNL     1       0.909  -9.195   9.021  1.00  0.00     0.000 C 
BRANCH  21  22
ATOM     22  C   UNL     1       2.218  -9.440   9.805  1.00  0.00    -0.000 C 
BRANCH  22  23
ATOM     23  C   UNL     1       2.698 -10.902   9.756  1.00  0.00    -0.000 C 
BRANCH  23  24
ATOM     24  C   UNL     1       4.187 -11.035  10.119  1.00  0.00    -0.000 C 
BRANCH  24  25
ATOM     25  C   UNL     1       5.104 -10.968   8.887  1.00  0.00    -0.000 C 
BRANCH  25  26
ATOM     26  C   UNL     1       6.590 -11.111   9.248  1.00  0.00    -0.000 C 
BRANCH  26  27
ATOM     27  C   UNL     1       7.423  -9.997   8.603  1.00  0.00    -0.000 C 
BRANCH  27  28
ATOM     28  C   UNL     1       8.655  -9.663   9.459  1.00  0.00    -0.000 C 
BRANCH  28  29
ATOM     29  C   UNL     1       9.909  -9.392   8.612  1.00  0.00    -0.003 C 
ATOM     30  C   UNL     1       9.634  -9.444   7.108  1.00  0.00     0.004 C 
ENDBRANCH  28  29
ENDBRANCH  27  28
ENDBRANCH  26  27
ENDBRANCH  25  26
ENDBRANCH  24  25
ENDBRANCH  23  24
ENDBRANCH  22  23
ENDBRANCH  21  22
ENDBRANCH  20  21
ENDBRANCH  19  20
ENDBRANCH  18  19
ENDBRANCH  17  18
ENDBRANCH   1  17
TORSDOF 26
ENDMDL
MODEL 5
REMARK VINA RESULT:    -1.521      2.986      7.867
REMARK INTER + INTRA:          -6.289
REMARK INTER:                  -3.637
REMARK INTRA:                  -2.652
REMARK UNBOUND:                -2.456
REMARK SMILES CCCCCCCCCCCCCCCCCCCCCCCCCCCC(=O)[O-]
REMARK SMILES IDX 15 1 16 2 17 3 18 4 19 5 20 6 21 7 22 8 23 9 24 10 25 11
REMARK SMILES IDX 26 12 27 13 28 14 29 15 30 16 14 17 13 18 12 19 11 20 10 21
REMARK SMILES IDX 9 22 8 23 7 24 6 25 5 26 4 27 3 28 2 29 1 30
REMARK H PARENT
REMARK Flexibility Score: inf
ROOT
ATOM      1  C   UNL     1       3.774 -10.981   3.210  1.00  0.00     0.000 C 
ENDROOT
BRANCH   1   2
ATOM      2  C   UNL     1       4.946 -10.407   4.024  1.00  0.00     0.000 C 
BRANCH   2   3
ATOM      3  C   UNL     1       4.806  -8.895   4.277  1.00  0.00     0.000 C 
BRANCH   3   4
ATOM      4  C   UNL     1       5.860  -8.369   5.265  1.00  0.00     0.000 C 
BRANCH   4   5
ATOM      5  C   UNL     1       7.161  -7.943   4.562  1.00  0.00     0.000 C 
BRANCH   5   6
ATOM      6  C   UNL     1       8.415  -8.491   5.261  1.00  0.00     0.000 C 
BRANCH   6   7
ATOM      7  C   UNL     1       8.137  -8.941   6.705  1.00  0.00     0.000 C 
BRANCH   7   8
ATOM      8  C   UNL     1       9.418  -9.125   7.537  1.00  0.00     0.000 C 
BRANCH   8   9
ATOM      9  C   UNL     1       9.319 -10.242   8.598  1.00  0.00     0.000 C 
BRANCH   9  10
ATOM     10  C   UNL     1       9.251  -9.684  10.030  1.00  0.00     0.000 C 
BRANCH  10  11
ATOM     11  C   UNL     1       9.770  -8.239  10.124  1.00  0.00     0.000 C 
BRANCH  11  12
ATOM     12  C   UNL     1       8.629  -7.205  10.106  1.00  0.00     0.006 C 
BRANCH  12  13
ATOM     13  C   UNL     1       9.150  -5.767   9.981  1.00  0.00     0.053 C 
BRANCH  13  14
ATOM     14  C   UNL     1       8.211  -4.894   9.204  1.00  0.00     0.041 C 
ATOM     15  O   UNL     1       7.664  -5.327   8.155  1.00  0.00    -0.550 OA
ATOM     16  O   UNL     1       7.954  -3.598   9.630  1.00  0.00    -0.550 OA
ENDBRANCH  13  14
ENDBRANCH  12  13
ENDBRANCH  11  12
ENDBRANCH  10  11
ENDBRANCH   9  10
ENDBRANCH   8   9
ENDBRANCH   7   8
ENDBRANCH   6   7
ENDBRANCH   5   6
ENDBRANCH   4   5
ENDBRANCH   3   4
ENDBRANCH   2   3
ENDBRANCH   1   2
BRANCH   1  17
ATOM     17  C   UNL     1       2.489 -11.116   4.041  1.00  0.00     0.000 C 
BRANCH  17  18
ATOM     18  C   UNL     1       2.714 -10.643   5.485  1.00  0.00     0.000 C 
BRANCH  18  19
ATOM     19  C   UNL     1       1.417 -10.605   6.315  1.00  0.00     0.000 C 
BRANCH  19  20
ATOM     20  C   UNL     1       0.164 -11.122   5.583  1.00  0.00     0.000 C 
BRANCH  20  21
ATOM     21  C   UNL     1      -1.159 -10.909   6.344  1.00  0.00     0.000 C 
BRANCH  21  22
ATOM     22  C   UNL     1      -0.995 -10.089   7.644  1.00  0.00    -0.000 C 
BRANCH  22  23
ATOM     23  C   UNL     1      -1.095 -10.939   8.922  1.00  0.00    -0.000 C 
BRANCH  23  24
ATOM     24  C   UNL     1       0.109 -10.726   9.856  1.00  0.00    -0.000 C 
BRANCH  24  25
ATOM     25  C   UNL     1       0.589  -9.265   9.877  1.00  0.00    -0.000 C 
BRANCH  25  26
ATOM     26  C   UNL     1       2.101  -9.144  10.118  1.00  0.00    -0.000 C 
BRANCH  26  27
ATOM     27  C   UNL     1       2.812  -8.580   8.882  1.00  0.00    -0.000 C 
BRANCH  27  28
ATOM     28  C   UNL     1       3.981  -7.668   9.286  1.00  0.00    -0.000 C 
BRANCH  28  29
ATOM     29  C   UNL     1       5.328  -8.144   8.718  1.00  0.00    -0.003 C 
ATOM     30  C   UNL     1       5.691  -9.563   9.158  1.00  0.00     0.004 C 
ENDBRANCH  28  29
ENDBRANCH  27  28
ENDBRANCH  26  27
ENDBRANCH  25  26
ENDBRANCH  24  25
ENDBRANCH  23  24
ENDBRANCH  22  23
ENDBRANCH  21  22
ENDBRANCH  20  21
ENDBRANCH  19  20
ENDBRANCH  18  19
ENDBRANCH  17  18
ENDBRANCH   1  17
TORSDOF 26
ENDMDL
MODEL 6
REMARK VINA RESULT:    -1.447      2.457      6.922
REMARK INTER + INTRA:          -6.104
REMARK INTER:                  -4.503
REMARK INTRA:                  -1.600
REMARK UNBOUND:                -2.456
REMARK SMILES CCCCCCCCCCCCCCCCCCCCCCCCCCCC(=O)[O-]
REMARK SMILES IDX 15 1 16 2 17 3 18 4 19 5 20 6 21 7 22 8 23 9 24 10 25 11
REMARK SMILES IDX 26 12 27 13 28 14 29 15 30 16 14 17 13 18 12 19 11 20 10 21
REMARK SMILES IDX 9 22 8 23 7 24 6 25 5 26 4 27 3 28 2 29 1 30
REMARK H PARENT
REMARK Flexibility Score: inf
ROOT
ATOM      1  C   UNL     1       3.437 -10.666   5.218  1.00  0.00     0.000 C 
ENDROOT
BRANCH   1   2
ATOM      2  C   UNL     1       2.703 -10.825   3.876  1.00  0.00     0.000 C 
BRANCH   2   3
ATOM      3  C   UNL     1       3.553 -10.366   2.678  1.00  0.00     0.000 C 
BRANCH   3   4
ATOM      4  C   UNL     1       4.157  -8.968   2.893  1.00  0.00     0.000 C 
BRANCH   4   5
ATOM      5  C   UNL     1       5.575  -9.028   3.489  1.00  0.00     0.000 C 
BRANCH   5   6
ATOM      6  C   UNL     1       5.583  -8.822   5.012  1.00  0.00     0.000 C 
BRANCH   6   7
ATOM      7  C   UNL     1       6.683  -7.852   5.471  1.00  0.00     0.000 C 
BRANCH   7   8
ATOM      8  C   UNL     1       6.431  -7.275   6.875  1.00  0.00     0.000 C 
BRANCH   8   9
ATOM      9  C   UNL     1       7.511  -6.276   7.342  1.00  0.00     0.000 C 
BRANCH   9  10
ATOM     10  C   UNL     1       8.165  -6.698   8.669  1.00  0.00     0.000 C 
BRANCH  10  11
ATOM     11  C   UNL     1       7.827  -5.739   9.823  1.00  0.00     0.000 C 
BRANCH  11  12
ATOM     12  C   UNL     1       6.314  -5.485   9.950  1.00  0.00     0.006 C 
BRANCH  12  13
ATOM     13  C   UNL     1       5.518  -6.786  10.120  1.00  0.00     0.053 C 
BRANCH  13  14
ATOM     14  C   UNL     1       4.194  -6.732   9.418  1.00  0.00     0.041 C 
ATOM     15  O   UNL     1       3.307  -5.923   9.798  1.00  0.00    -0.550 OA
ATOM     16  O   UNL     1       3.936  -7.588   8.355  1.00  0.00    -0.550 OA
ENDBRANCH  13  14
ENDBRANCH  12  13
ENDBRANCH  11  12
ENDBRANCH  10  11
ENDBRANCH   9  10
ENDBRANCH   8   9
ENDBRANCH   7   8
ENDBRANCH   6   7
ENDBRANCH   5   6
ENDBRANCH   4   5
ENDBRANCH   3   4
ENDBRANCH   2   3
ENDBRANCH   1   2
BRANCH   1  17
ATOM     17  C   UNL     1       2.478 -10.677   6.419  1.00  0.00     0.000 C 
BRANCH  17  18
ATOM     18  C   UNL     1       1.082 -10.182   6.014  1.00  0.00     0.000 C 
BRANCH  18  19
ATOM     19  C   UNL     1      -0.048 -11.114   6.492  1.00  0.00     0.000 C 
BRANCH  19  20
ATOM     20  C   UNL     1      -0.529 -10.863   7.935  1.00  0.00     0.000 C 
BRANCH  20  21
ATOM     21  C   UNL     1      -0.380  -9.407   8.418  1.00  0.00     0.000 C 
BRANCH  21  22
ATOM     22  C   UNL     1       0.753  -9.217   9.453  1.00  0.00    -0.000 C 
BRANCH  22  23
ATOM     23  C   UNL     1       1.553 -10.503   9.730  1.00  0.00    -0.000 C 
BRANCH  23  24
ATOM     24  C   UNL     1       3.010 -10.204  10.124  1.00  0.00    -0.000 C 
BRANCH  24  25
ATOM     25  C   UNL     1       4.020 -11.062   9.345  1.00  0.00    -0.000 C 
BRANCH  25  26
ATOM     26  C   UNL     1       5.404 -11.096  10.011  1.00  0.00    -0.000 C 
BRANCH  26  27
ATOM     27  C   UNL     1       6.360 -10.100   9.344  1.00  0.00    -0.000 C 
BRANCH  27  28
ATOM     28  C   UNL     1       7.582 -10.820   8.752  1.00  0.00    -0.000 C 
BRANCH  28  29
ATOM     29  C   UNL     1       8.758  -9.867   8.483  1.00  0.00    -0.003 C 
ATOM     30  C   UNL     1      10.089 -10.600   8.306  1.00  0.00     0.004 C 
ENDBRANCH  28  29
ENDBRANCH  27  28
ENDBRANCH  26  27
ENDBRANCH  25  26
ENDBRANCH  24  25
ENDBRANCH  23  24
ENDBRANCH  22  23
ENDBRANCH  21  22
ENDBRANCH  20  21
ENDBRANCH  19  20
ENDBRANCH  18  19
ENDBRANCH  17  18
ENDBRANCH   1  17
TORSDOF 26
ENDMDL
MODEL 7
REMARK VINA RESULT:    -1.374      2.265      3.410
REMARK INTER + INTRA:          -5.920
REMARK INTER:                  -4.104
REMARK INTRA:                  -1.815
REMARK UNBOUND:                -2.456
REMARK SMILES CCCCCCCCCCCCCCCCCCCCCCCCCCCC(=O)[O-]
REMARK SMILES IDX 15 1 16 2 17 3 18 4 19 5 20 6 21 7 22 8 23 9 24 10 25 11
REMARK SMILES IDX 26 12 27 13 28 14 29 15 30 16 14 17 13 18 12 19 11 20 10 21
REMARK SMILES IDX 9 22 8 23 7 24 6 25 5 26 4 27 3 28 2 29 1 30
REMARK H PARENT
REMARK Flexibility Score: inf
ROOT
ATOM      1  C   UNL     1       4.791  -8.883   3.067  1.00  0.00     0.000 C 
ENDROOT
BRANCH   1   2
ATOM      2  C   UNL     1       4.326 -10.179   2.384  1.00  0.00     0.000 C 
BRANCH   2   3
ATOM      3  C   UNL     1       3.513 -11.086   3.324  1.00  0.00     0.000 C 
BRANCH   3   4
ATOM      4  C   UNL     1       4.002 -11.006   4.780  1.00  0.00     0.000 C 
BRANCH   4   5
ATOM      5  C   UNL     1       2.929 -10.440   5.727  1.00  0.00     0.000 C 
BRANCH   5   6
ATOM      6  C   UNL     1       1.526 -10.989   5.423  1.00  0.00     0.000 C 
BRANCH   6   7
ATOM      7  C   UNL     1       0.577 -10.884   6.627  1.00  0.00     0.000 C 
BRANCH   7   8
ATOM      8  C   UNL     1       0.755  -9.579   7.423  1.00  0.00     0.000 C 
BRANCH   8   9
ATOM      9  C   UNL     1       1.306  -9.788   8.850  1.00  0.00     0.000 C 
BRANCH   9  10
ATOM     10  C   UNL     1       1.637  -8.458   9.550  1.00  0.00     0.000 C 
BRANCH  10  11
ATOM     11  C   UNL     1       3.075  -8.423  10.095  1.00  0.00     0.000 C 
BRANCH  11  12
ATOM     12  C   UNL     1       3.728  -9.817  10.117  1.00  0.00     0.006 C 
BRANCH  12  13
ATOM     13  C   UNL     1       4.662 -10.042   8.921  1.00  0.00     0.053 C 
BRANCH  13  14
ATOM     14  C   UNL     1       6.101 -10.107   9.334  1.00  0.00     0.041 C 
ATOM     15  O   UNL     1       6.808 -11.100   9.016  1.00  0.00    -0.550 OA
ATOM     16  O   UNL     1       6.656  -9.078  10.084  1.00  0.00    -0.550 OA
ENDBRANCH  13  14
ENDBRANCH  12  13
ENDBRANCH  11  12
ENDBRANCH  10  11
ENDBRANCH   9  10
ENDBRANCH   8   9
ENDBRANCH   7   8
ENDBRANCH   6   7
ENDBRANCH   5   6
ENDBRANCH   4   5
ENDBRANCH   3   4
ENDBRANCH   2   3
ENDBRANCH   1   2
BRANCH   1  17
ATOM     17  C   UNL     1       6.150  -9.040   3.768  1.00  0.00     0.000 C 
BRANCH  17  18
ATOM     18  C   UNL     1       6.289  -8.045   4.930  1.00  0.00     0.000 C 
BRANCH  18  19
ATOM     19  C   UNL     1       7.059  -8.627   6.130  1.00  0.00     0.000 C 
BRANCH  19  20
ATOM     20  C   UNL     1       8.548  -8.239   6.195  1.00  0.00     0.000 C 
BRANCH  20  21
ATOM     21  C   UNL     1       9.068  -7.915   7.609  1.00  0.00     0.000 C 
BRANCH  21  22
ATOM     22  C   UNL     1       8.438  -6.641   8.217  1.00  0.00    -0.000 C 
BRANCH  22  23
ATOM     23  C   UNL     1       8.712  -6.480   9.723  1.00  0.00    -0.000 C 
BRANCH  23  24
ATOM     24  C   UNL     1       8.889  -5.005  10.125  1.00  0.00    -0.000 C 
BRANCH  24  25
ATOM     25  C   UNL     1       8.089  -4.047   9.226  1.00  0.00    -0.000 C 
BRANCH  25  26
ATOM     26  C   UNL     1       7.561  -2.824   9.990  1.00  0.00    -0.000 C 
BRANCH  26  27
ATOM     27  C   UNL     1       7.558  -1.577   9.098  1.00  0.00    -0.000 C 
BRANCH  27  28
ATOM     28  C   UNL     1       7.957  -0.326   9.896  1.00  0.00    -0.000 C 
BRANCH  28  29
ATOM     29  C   UNL     1       8.452   0.818   8.996  1.00  0.00    -0.003 C 
ATOM     30  C   UNL     1       7.311   1.574   8.313  1.00  0.00     0.004 C 
ENDBRANCH  28  29
ENDBRANCH  27  28
ENDBRANCH  26  27
ENDBRANCH  25  26
ENDBRANCH  24  25
ENDBRANCH  23  24
ENDBRANCH  22  23
ENDBRANCH  21  22
ENDBRANCH  20  21
ENDBRANCH  19  20
ENDBRANCH  18  19
ENDBRANCH  17  18
ENDBRANCH   1  17
TORSDOF 26
ENDMDL
MODEL 8
REMARK VINA RESULT:    -1.363      3.060      8.091
REMARK INTER + INTRA:          -5.892
REMARK INTER:                  -3.139
REMARK INTRA:                  -2.753
REMARK UNBOUND:                -2.456
REMARK SMILES CCCCCCCCCCCCCCCCCCCCCCCCCCCC(=O)[O-]
REMARK SMILES IDX 15 1 16 2 17 3 18 4 19 5 20 6 21 7 22 8 23 9 24 10 25 11
REMARK SMILES IDX 26 12 27 13 28 14 29 15 30 16 14 17 13 18 12 19 11 20 10 21
REMARK SMILES IDX 9 22 8 23 7 24 6 25 5 26 4 27 3 28 2 29 1 30
REMARK H PARENT
REMARK Flexibility Score: inf
ROOT
ATOM      1  C   UNL     1       3.226 -10.152   4.761  1.00  0.00     0.000 C 
ENDROOT
BRANCH   1   2
ATOM      2  C   UNL     1       3.996 -10.818   3.609  1.00  0.00     0.000 C 
BRANCH   2   3
ATOM      3  C   UNL     1       5.001  -9.865   2.939  1.00  0.00     0.000 C 
BRANCH   3   4
ATOM      4  C   UNL     1       5.298  -8.628   3.804  1.00  0.00     0.000 C 
BRANCH   4   5
ATOM      5  C   UNL     1       6.762  -8.583   4.278  1.00  0.00     0.000 C 
BRANCH   5   6
ATOM      6  C   UNL     1       6.934  -7.794   5.585  1.00  0.00     0.000 C 
BRANCH   6   7
ATOM      7  C   UNL     1       8.177  -8.228   6.378  1.00  0.00     0.000 C 
BRANCH   7   8
ATOM      8  C   UNL     1       8.086  -9.673   6.900  1.00  0.00     0.000 C 
BRANCH   8   9
ATOM      9  C   UNL     1       8.443  -9.822   8.394  1.00  0.00     0.000 C 
BRANCH   9  10
ATOM     10  C   UNL     1       9.559  -8.856   8.828  1.00  0.00     0.000 C 
BRANCH  10  11
ATOM     11  C   UNL     1       9.020  -7.649   9.614  1.00  0.00     0.000 C 
BRANCH  11  12
ATOM     12  C   UNL     1       7.585  -7.876  10.125  1.00  0.00     0.006 C 
BRANCH  12  13
ATOM     13  C   UNL     1       6.615  -6.794   9.633  1.00  0.00     0.053 C 
BRANCH  13  14
ATOM     14  C   UNL     1       7.328  -5.537   9.233  1.00  0.00     0.041 C 
ATOM     15  O   UNL     1       8.002  -4.894  10.081  1.00  0.00    -0.550 OA
ATOM     16  O   UNL     1       7.235  -5.069   7.930  1.00  0.00    -0.550 OA
ENDBRANCH  13  14
ENDBRANCH  12  13
ENDBRANCH  11  12
ENDBRANCH  10  11
ENDBRANCH   9  10
ENDBRANCH   8   9
ENDBRANCH   7   8
ENDBRANCH   6   7
ENDBRANCH   5   6
ENDBRANCH   4   5
ENDBRANCH   3   4
ENDBRANCH   2   3
ENDBRANCH   1   2
BRANCH   1  17
ATOM     17  C   UNL     1       3.209 -11.013   6.034  1.00  0.00     0.000 C 
BRANCH  17  18
ATOM     18  C   UNL     1       4.597 -11.053   6.690  1.00  0.00     0.000 C 
BRANCH  18  19
ATOM     19  C   UNL     1       4.914  -9.784   7.504  1.00  0.00     0.000 C 
BRANCH  19  20
ATOM     20  C   UNL     1       3.936  -8.613   7.287  1.00  0.00     0.000 C 
BRANCH  20  21
ATOM     21  C   UNL     1       3.649  -7.774   8.547  1.00  0.00     0.000 C 
BRANCH  21  22
ATOM     22  C   UNL     1       2.142  -7.547   8.803  1.00  0.00    -0.000 C 
BRANCH  22  23
ATOM     23  C   UNL     1       1.621  -8.254  10.067  1.00  0.00    -0.000 C 
BRANCH  23  24
ATOM     24  C   UNL     1       0.219  -8.853   9.861  1.00  0.00    -0.000 C 
BRANCH  24  25
ATOM     25  C   UNL     1       0.215 -10.389   9.933  1.00  0.00    -0.000 C 
BRANCH  25  26
ATOM     26  C   UNL     1      -0.395 -11.037   8.682  1.00  0.00    -0.000 C 
BRANCH  26  27
ATOM     27  C   UNL     1       0.305 -10.546   7.410  1.00  0.00    -0.000 C 
BRANCH  27  28
ATOM     28  C   UNL     1      -0.377 -11.107   6.152  1.00  0.00    -0.000 C 
BRANCH  28  29
ATOM     29  C   UNL     1      -1.473 -10.177   5.608  1.00  0.00    -0.003 C 
ATOM     30  C   UNL     1      -1.874 -10.509   4.170  1.00  0.00     0.004 C 
ENDBRANCH  28  29
ENDBRANCH  27  28
ENDBRANCH  26  27
ENDBRANCH  25  26
ENDBRANCH  24  25
ENDBRANCH  23  24
ENDBRANCH  22  23
ENDBRANCH  21  22
ENDBRANCH  20  21
ENDBRANCH  19  20
ENDBRANCH  18  19
ENDBRANCH  17  18
ENDBRANCH   1  17
TORSDOF 26
ENDMDL
