MODEL 1
REMARK VINA RESULT:    -6.241      0.000      0.000
REMARK INTER + INTRA:          -7.623
REMARK INTER:                  -7.336
REMARK INTRA:                  -0.287
REMARK UNBOUND:                -0.287
REMARK SMILES O=c1c(O)c(-c2ccc(O)cc2)oc2cc(O)cc(O)c12
REMARK SMILES IDX 5 1 3 2 2 3 1 4 21 5 19 6 18 7 16 8 15 9 14 10 13 11 6 12
REMARK SMILES IDX 7 13 8 14 9 15 12 16 11 17 10 18 4 20 20 22 17 24
REMARK H PARENT 10 19 4 21 20 23 17 25
REMARK Flexibility Score: inf
ROOT
ATOM      1  C   UNL     1      -6.174 -14.268  20.004  1.00  0.00     0.180 A 
ATOM      2  C   UNL     1      -6.365 -13.906  21.348  1.00  0.00     0.208 A 
ATOM      3  C   UNL     1      -7.593 -13.343  21.734  1.00  0.00     0.238 A 
ATOM      4  O   UNL     1      -7.777 -13.070  22.949  1.00  0.00    -0.285 OA
ATOM      5  C   UNL     1      -8.608 -13.138  20.768  1.00  0.00     0.111 A 
ATOM      6  C   UNL     1      -9.875 -12.538  21.040  1.00  0.00     0.134 A 
ATOM      7  C   UNL     1     -10.851 -12.505  20.036  1.00  0.00     0.093 A 
ATOM      8  C   UNL     1     -10.583 -12.987  18.753  1.00  0.00     0.123 A 
ATOM      9  C   UNL     1      -9.328 -13.519  18.462  1.00  0.00     0.094 A 
ATOM     10  C   UNL     1      -8.347 -13.600  19.453  1.00  0.00     0.146 A 
ATOM     11  O   UNL     1      -7.168 -14.124  19.136  1.00  0.00    -0.452 OA
ENDROOT
BRANCH   1  12
ATOM     12  C   UNL     1      -4.899 -14.842  19.516  1.00  0.00     0.021 A 
ATOM     13  C   UNL     1      -3.894 -13.986  19.036  1.00  0.00     0.016 A 
ATOM     14  C   UNL     1      -2.674 -14.505  18.592  1.00  0.00     0.047 A 
ATOM     15  C   UNL     1      -2.437 -15.882  18.635  1.00  0.00     0.115 A 
ATOM     16  C   UNL     1      -4.647 -16.226  19.575  1.00  0.00     0.016 A 
ATOM     17  C   UNL     1      -3.426 -16.742  19.131  1.00  0.00     0.047 A 
BRANCH  15  18
ATOM     18  O   UNL     1      -1.217 -16.385  18.188  1.00  0.00    -0.508 OA
ATOM     19  H   UNL     1      -1.149 -16.924  17.332  1.00  0.00     0.293 HD
ENDBRANCH  15  18
ENDBRANCH   1  12
BRANCH   2  20
ATOM     20  O   UNL     1      -5.358 -14.137  22.289  1.00  0.00    -0.502 OA
ATOM     21  H   UNL     1      -4.377 -13.992  22.082  1.00  0.00     0.293 HD
ENDBRANCH   2  20
BRANCH   6  22
ATOM     22  O   UNL     1     -10.212 -11.944  22.259  1.00  0.00    -0.507 OA
ATOM     23  H   UNL     1     -10.685 -11.058  22.355  1.00  0.00     0.293 HD
ENDBRANCH   6  22
BRANCH   8  24
ATOM     24  O   UNL     1     -11.554 -12.935  17.757  1.00  0.00    -0.508 OA
ATOM     25  H   UNL     1     -11.391 -12.448  16.882  1.00  0.00     0.293 HD
ENDBRANCH   8  24
TORSDOF 5
ENDMDL
MODEL 2
REMARK VINA RESULT:    -6.204      3.144      4.564
REMARK INTER + INTRA:          -7.579
REMARK INTER:                  -7.568
REMARK INTRA:                  -0.011
REMARK UNBOUND:                -0.287
REMARK SMILES O=c1c(O)c(-c2ccc(O)cc2)oc2cc(O)cc(O)c12
REMARK SMILES IDX 5 1 3 2 2 3 1 4 21 5 19 6 18 7 16 8 15 9 14 10 13 11 6 12
REMARK SMILES IDX 7 13 8 14 9 15 12 16 11 17 10 18 4 20 20 22 17 24
REMARK H PARENT 10 19 4 21 20 23 17 25
REMARK Flexibility Score: inf
ROOT
ATOM      1  C   UNL     1      -7.768 -14.668  18.453  1.00  0.00     0.180 A 
ATOM      2  C   UNL     1      -7.457 -15.973  18.874  1.00  0.00     0.208 A 
ATOM      3  C   UNL     1      -7.866 -16.391  20.152  1.00  0.00     0.238 A 
ATOM      4  O   UNL     1      -7.632 -17.578  20.502  1.00  0.00    -0.285 OA
ATOM      5  C   UNL     1      -8.567 -15.496  20.995  1.00  0.00     0.111 A 
ATOM      6  C   UNL     1      -8.993 -15.800  22.323  1.00  0.00     0.134 A 
ATOM      7  C   UNL     1      -9.792 -14.884  23.019  1.00  0.00     0.093 A 
ATOM      8  C   UNL     1     -10.124 -13.648  22.459  1.00  0.00     0.123 A 
ATOM      9  C   UNL     1      -9.662 -13.317  21.187  1.00  0.00     0.094 A 
ATOM     10  C   UNL     1      -8.894 -14.226  20.455  1.00  0.00     0.146 A 
ATOM     11  O   UNL     1      -8.483 -13.875  19.242  1.00  0.00    -0.452 OA
ENDROOT
BRANCH   1  12
ATOM     12  C   UNL     1      -7.349 -14.146  17.132  1.00  0.00     0.021 A 
ATOM     13  C   UNL     1      -7.743 -14.822  15.965  1.00  0.00     0.016 A 
ATOM     14  C   UNL     1      -7.378 -14.335  14.706  1.00  0.00     0.047 A 
ATOM     15  C   UNL     1      -6.628 -13.160  14.598  1.00  0.00     0.115 A 
ATOM     16  C   UNL     1      -6.611 -12.955  17.014  1.00  0.00     0.016 A 
ATOM     17  C   UNL     1      -6.247 -12.469  15.755  1.00  0.00     0.047 A 
BRANCH  15  18
ATOM     18  O   UNL     1      -6.270 -12.686  13.337  1.00  0.00    -0.508 OA
ATOM     19  H   UNL     1      -6.116 -13.317  12.559  1.00  0.00     0.293 HD
ENDBRANCH  15  18
ENDBRANCH   1  12
BRANCH   2  20
ATOM     20  O   UNL     1      -6.784 -16.847  18.017  1.00  0.00    -0.502 OA
ATOM     21  H   UNL     1      -6.904 -17.852  18.062  1.00  0.00     0.293 HD
ENDBRANCH   2  20
BRANCH   6  22
ATOM     22  O   UNL     1      -8.640 -16.966  23.009  1.00  0.00    -0.507 OA
ATOM     23  H   UNL     1      -8.545 -17.877  22.583  1.00  0.00     0.293 HD
ENDBRANCH   6  22
BRANCH   8  24
ATOM     24  O   UNL     1     -10.906 -12.736  23.164  1.00  0.00    -0.508 OA
ATOM     25  H   UNL     1     -10.500 -12.104  23.845  1.00  0.00     0.293 HD
ENDBRANCH   8  24
TORSDOF 5
ENDMDL
MODEL 3
REMARK VINA RESULT:    -6.077      5.051      7.332
REMARK INTER + INTRA:          -7.429
REMARK INTER:                  -7.129
REMARK INTRA:                  -0.300
REMARK UNBOUND:                -0.287
REMARK SMILES O=c1c(O)c(-c2ccc(O)cc2)oc2cc(O)cc(O)c12
REMARK SMILES IDX 5 1 3 2 2 3 1 4 21 5 19 6 18 7 16 8 15 9 14 10 13 11 6 12
REMARK SMILES IDX 7 13 8 14 9 15 12 16 11 17 10 18 4 20 20 22 17 24
REMARK H PARENT 10 19 4 21 20 23 17 25
REMARK Flexibility Score: inf
ROOT
ATOM      1  C   UNL     1     -11.584 -16.929  21.483  1.00  0.00     0.180 A 
ATOM      2  C   UNL     1     -10.492 -17.034  22.362  1.00  0.00     0.208 A 
ATOM      3  C   UNL     1      -9.660 -15.918  22.550  1.00  0.00     0.238 A 
ATOM      4  O   UNL     1      -8.716 -16.001  23.379  1.00  0.00    -0.285 OA
ATOM      5  C   UNL     1      -9.922 -14.717  21.847  1.00  0.00     0.111 A 
ATOM      6  C   UNL     1      -9.121 -13.539  21.930  1.00  0.00     0.134 A 
ATOM      7  C   UNL     1      -9.548 -12.368  21.291  1.00  0.00     0.093 A 
ATOM      8  C   UNL     1     -10.711 -12.352  20.518  1.00  0.00     0.123 A 
ATOM      9  C   UNL     1     -11.467 -13.514  20.381  1.00  0.00     0.094 A 
ATOM     10  C   UNL     1     -11.087 -14.687  21.037  1.00  0.00     0.146 A 
ATOM     11  O   UNL     1     -11.841 -15.770  20.889  1.00  0.00    -0.452 OA
ENDROOT
BRANCH   1  12
ATOM     12  C   UNL     1     -12.491 -18.068  21.213  1.00  0.00     0.021 A 
ATOM     13  C   UNL     1     -13.681 -18.195  21.949  1.00  0.00     0.016 A 
ATOM     14  C   UNL     1     -14.562 -19.250  21.696  1.00  0.00     0.047 A 
ATOM     15  C   UNL     1     -14.273 -20.183  20.696  1.00  0.00     0.115 A 
ATOM     16  C   UNL     1     -12.216 -19.000  20.195  1.00  0.00     0.016 A 
ATOM     17  C   UNL     1     -13.098 -20.054  19.943  1.00  0.00     0.047 A 
BRANCH  15  18
ATOM     18  O   UNL     1     -15.159 -21.230  20.454  1.00  0.00    -0.508 OA
ATOM     19  H   UNL     1     -15.215 -22.030  21.074  1.00  0.00     0.293 HD
ENDBRANCH  15  18
ENDBRANCH   1  12
BRANCH   2  20
ATOM     20  O   UNL     1     -10.265 -18.221  23.063  1.00  0.00    -0.502 OA
ATOM     21  H   UNL     1     -10.997 -18.698  23.576  1.00  0.00     0.293 HD
ENDBRANCH   2  20
BRANCH   6  22
ATOM     22  O   UNL     1      -7.896 -13.473  22.599  1.00  0.00    -0.507 OA
ATOM     23  H   UNL     1      -7.420 -12.617  22.845  1.00  0.00     0.293 HD
ENDBRANCH   6  22
BRANCH   8  24
ATOM     24  O   UNL     1     -11.120 -11.187  19.873  1.00  0.00    -0.508 OA
ATOM     25  H   UNL     1     -11.352 -10.347  20.392  1.00  0.00     0.293 HD
ENDBRANCH   8  24
TORSDOF 5
ENDMDL
MODEL 4
REMARK VINA RESULT:    -6.040      4.394      5.017
REMARK INTER + INTRA:          -7.386
REMARK INTER:                  -7.105
REMARK INTRA:                  -0.281
REMARK UNBOUND:                -0.287
REMARK SMILES O=c1c(O)c(-c2ccc(O)cc2)oc2cc(O)cc(O)c12
REMARK SMILES IDX 5 1 3 2 2 3 1 4 21 5 19 6 18 7 16 8 15 9 14 10 13 11 6 12
REMARK SMILES IDX 7 13 8 14 9 15 12 16 11 17 10 18 4 20 20 22 17 24
REMARK H PARENT 10 19 4 21 20 23 17 25
REMARK Flexibility Score: inf
ROOT
ATOM      1  C   UNL     1      -9.196 -17.696  21.257  1.00  0.00     0.180 A 
ATOM      2  C   UNL     1      -9.266 -17.307  22.606  1.00  0.00     0.208 A 
ATOM      3  C   UNL     1      -9.734 -16.020  22.919  1.00  0.00     0.238 A 
ATOM      4  O   UNL     1      -9.845 -15.697  24.131  1.00  0.00    -0.285 OA
ATOM      5  C   UNL     1     -10.111 -15.135  21.881  1.00  0.00     0.111 A 
ATOM      6  C   UNL     1     -10.560 -13.795  22.081  1.00  0.00     0.134 A 
ATOM      7  C   UNL     1     -11.031 -13.054  20.990  1.00  0.00     0.093 A 
ATOM      8  C   UNL     1     -11.006 -13.582  19.697  1.00  0.00     0.123 A 
ATOM      9  C   UNL     1     -10.513 -14.867  19.483  1.00  0.00     0.094 A 
ATOM     10  C   UNL     1     -10.071 -15.644  20.556  1.00  0.00     0.146 A 
ATOM     11  O   UNL     1      -9.619 -16.868  20.310  1.00  0.00    -0.452 OA
ENDROOT
BRANCH   1  12
ATOM     12  C   UNL     1      -8.690 -19.026  20.846  1.00  0.00     0.021 A 
ATOM     13  C   UNL     1      -9.602 -20.031  20.482  1.00  0.00     0.016 A 
ATOM     14  C   UNL     1      -9.145 -21.287  20.070  1.00  0.00     0.047 A 
ATOM     15  C   UNL     1      -7.774 -21.549  20.002  1.00  0.00     0.115 A 
ATOM     16  C   UNL     1      -7.311 -19.291  20.756  1.00  0.00     0.016 A 
ATOM     17  C   UNL     1      -6.857 -20.547  20.343  1.00  0.00     0.047 A 
BRANCH  15  18
ATOM     18  O   UNL     1      -7.333 -22.805  19.590  1.00  0.00    -0.508 OA
ATOM     19  H   UNL     1      -6.783 -23.399  20.200  1.00  0.00     0.293 HD
ENDBRANCH  15  18
ENDBRANCH   1  12
BRANCH   2  20
ATOM     20  O   UNL     1      -8.909 -18.204  23.616  1.00  0.00    -0.502 OA
ATOM     21  H   UNL     1      -9.597 -18.715  24.157  1.00  0.00     0.293 HD
ENDBRANCH   2  20
BRANCH   6  22
ATOM     22  O   UNL     1     -10.540 -13.142  23.316  1.00  0.00    -0.507 OA
ATOM     23  H   UNL     1     -11.288 -12.567  23.675  1.00  0.00     0.293 HD
ENDBRANCH   6  22
BRANCH   8  24
ATOM     24  O   UNL     1     -11.462 -12.832  18.615  1.00  0.00    -0.508 OA
ATOM     25  H   UNL     1     -12.389 -12.968  18.229  1.00  0.00     0.293 HD
ENDBRANCH   8  24
TORSDOF 5
ENDMDL
MODEL 5
REMARK VINA RESULT:    -5.954      3.975      5.617
REMARK INTER + INTRA:          -7.284
REMARK INTER:                  -7.202
REMARK INTRA:                  -0.082
REMARK UNBOUND:                -0.287
REMARK SMILES O=c1c(O)c(-c2ccc(O)cc2)oc2cc(O)cc(O)c12
REMARK SMILES IDX 5 1 3 2 2 3 1 4 21 5 19 6 18 7 16 8 15 9 14 10 13 11 6 12
REMARK SMILES IDX 7 13 8 14 9 15 12 16 11 17 10 18 4 20 20 22 17 24
REMARK H PARENT 10 19 4 21 20 23 17 25
REMARK Flexibility Score: inf
ROOT
ATOM      1  C   UNL     1      -9.885 -14.994  21.744  1.00  0.00     0.180 A 
ATOM      2  C   UNL     1      -9.808 -16.283  22.298  1.00  0.00     0.208 A 
ATOM      3  C   UNL     1     -10.803 -17.222  21.980  1.00  0.00     0.238 A 
ATOM      4  O   UNL     1     -10.700 -18.390  22.435  1.00  0.00    -0.285 OA
ATOM      5  C   UNL     1     -11.870 -16.854  21.124  1.00  0.00     0.111 A 
ATOM      6  C   UNL     1     -12.954 -17.711  20.767  1.00  0.00     0.134 A 
ATOM      7  C   UNL     1     -13.884 -17.285  19.810  1.00  0.00     0.093 A 
ATOM      8  C   UNL     1     -13.806 -16.009  19.248  1.00  0.00     0.123 A 
ATOM      9  C   UNL     1     -12.786 -15.143  19.636  1.00  0.00     0.094 A 
ATOM     10  C   UNL     1     -11.823 -15.553  20.560  1.00  0.00     0.146 A 
ATOM     11  O   UNL     1     -10.861 -14.700  20.894  1.00  0.00    -0.452 OA
ENDROOT
BRANCH   1  12
ATOM     12  C   UNL     1      -8.888 -13.943  22.053  1.00  0.00     0.021 A 
ATOM     13  C   UNL     1      -9.299 -12.773  22.714  1.00  0.00     0.016 A 
ATOM     14  C   UNL     1      -8.371 -11.777  23.035  1.00  0.00     0.047 A 
ATOM     15  C   UNL     1      -7.021 -11.945  22.715  1.00  0.00     0.115 A 
ATOM     16  C   UNL     1      -7.525 -14.113  21.751  1.00  0.00     0.016 A 
ATOM     17  C   UNL     1      -6.598 -13.117  22.074  1.00  0.00     0.047 A 
BRANCH  15  18
ATOM     18  O   UNL     1      -6.107 -10.945  23.040  1.00  0.00    -0.508 OA
ATOM     19  H   UNL     1      -5.472 -11.043  23.824  1.00  0.00     0.293 HD
ENDBRANCH  15  18
ENDBRANCH   1  12
BRANCH   2  20
ATOM     20  O   UNL     1      -8.734 -16.632  23.123  1.00  0.00    -0.502 OA
ATOM     21  H   UNL     1      -7.778 -16.651  22.790  1.00  0.00     0.293 HD
ENDBRANCH   2  20
BRANCH   6  22
ATOM     22  O   UNL     1     -13.176 -18.968  21.336  1.00  0.00    -0.507 OA
ATOM     23  H   UNL     1     -12.454 -19.560  21.720  1.00  0.00     0.293 HD
ENDBRANCH   6  22
BRANCH   8  24
ATOM     24  O   UNL     1     -14.744 -15.588  18.309  1.00  0.00    -0.508 OA
ATOM     25  H   UNL     1     -15.128 -16.225  17.620  1.00  0.00     0.293 HD
ENDBRANCH   8  24
TORSDOF 5
ENDMDL
MODEL 6
REMARK VINA RESULT:    -5.948      9.458     11.217
REMARK INTER + INTRA:          -7.278
REMARK INTER:                  -6.991
REMARK INTRA:                  -0.287
REMARK UNBOUND:                -0.287
REMARK SMILES O=c1c(O)c(-c2ccc(O)cc2)oc2cc(O)cc(O)c12
REMARK SMILES IDX 5 1 3 2 2 3 1 4 21 5 19 6 18 7 16 8 15 9 14 10 13 11 6 12
REMARK SMILES IDX 7 13 8 14 9 15 12 16 11 17 10 18 4 20 20 22 17 24
REMARK H PARENT 10 19 4 21 20 23 17 25
REMARK Flexibility Score: inf
ROOT
ATOM      1  C   UNL     1      -6.032 -10.639  30.804  1.00  0.00     0.180 A 
ATOM      2  C   UNL     1      -6.879 -10.086  31.780  1.00  0.00     0.208 A 
ATOM      3  C   UNL     1      -8.124  -9.568  31.387  1.00  0.00     0.238 A 
ATOM      4  O   UNL     1      -8.901  -9.124  32.272  1.00  0.00    -0.285 OA
ATOM      5  C   UNL     1      -8.500  -9.597  30.022  1.00  0.00     0.111 A 
ATOM      6  C   UNL     1      -9.719  -9.063  29.506  1.00  0.00     0.134 A 
ATOM      7  C   UNL     1     -10.044  -9.264  28.158  1.00  0.00     0.093 A 
ATOM      8  C   UNL     1      -9.163  -9.919  27.295  1.00  0.00     0.123 A 
ATOM      9  C   UNL     1      -7.943 -10.390  27.776  1.00  0.00     0.094 A 
ATOM     10  C   UNL     1      -7.608 -10.238  29.123  1.00  0.00     0.146 A 
ATOM     11  O   UNL     1      -6.440 -10.710  29.543  1.00  0.00    -0.452 OA
ENDROOT
BRANCH   1  12
ATOM     12  C   UNL     1      -4.695 -11.180  31.137  1.00  0.00     0.021 A 
ATOM     13  C   UNL     1      -3.590 -10.313  31.187  1.00  0.00     0.016 A 
ATOM     14  C   UNL     1      -2.322 -10.799  31.522  1.00  0.00     0.047 A 
ATOM     15  C   UNL     1      -2.145 -12.152  31.824  1.00  0.00     0.115 A 
ATOM     16  C   UNL     1      -4.512 -12.537  31.461  1.00  0.00     0.016 A 
ATOM     17  C   UNL     1      -3.244 -13.021  31.796  1.00  0.00     0.047 A 
BRANCH  15  18
ATOM     18  O   UNL     1      -0.876 -12.623  32.155  1.00  0.00    -0.508 OA
ATOM     19  H   UNL     1      -0.175 -12.797  31.444  1.00  0.00     0.293 HD
ENDBRANCH  15  18
ENDBRANCH   1  12
BRANCH   2  20
ATOM     20  O   UNL     1      -6.498 -10.088  33.125  1.00  0.00    -0.502 OA
ATOM     21  H   UNL     1      -6.270 -10.940  33.624  1.00  0.00     0.293 HD
ENDBRANCH   2  20
BRANCH   6  22
ATOM     22  O   UNL     1     -10.625  -8.314  30.261  1.00  0.00    -0.507 OA
ATOM     23  H   UNL     1     -10.632  -7.306  30.317  1.00  0.00     0.293 HD
ENDBRANCH   6  22
BRANCH   8  24
ATOM     24  O   UNL     1      -9.488 -10.100  25.952  1.00  0.00    -0.508 OA
ATOM     25  H   UNL     1      -8.851  -9.827  25.212  1.00  0.00     0.293 HD
ENDBRANCH   8  24
TORSDOF 5
ENDMDL
MODEL 7
REMARK VINA RESULT:    -5.935      5.109      7.937
REMARK INTER + INTRA:          -7.262
REMARK INTER:                  -6.973
REMARK INTRA:                  -0.289
REMARK UNBOUND:                -0.287
REMARK SMILES O=c1c(O)c(-c2ccc(O)cc2)oc2cc(O)cc(O)c12
REMARK SMILES IDX 5 1 3 2 2 3 1 4 21 5 19 6 18 7 16 8 15 9 14 10 13 11 6 12
REMARK SMILES IDX 7 13 8 14 9 15 12 16 11 17 10 18 4 20 20 22 17 24
REMARK H PARENT 10 19 4 21 20 23 17 25
REMARK Flexibility Score: inf
ROOT
ATOM      1  C   UNL     1     -12.167 -16.791  20.867  1.00  0.00     0.180 A 
ATOM      2  C   UNL     1     -12.755 -15.684  20.232  1.00  0.00     0.208 A 
ATOM      3  C   UNL     1     -12.045 -14.473  20.180  1.00  0.00     0.238 A 
ATOM      4  O   UNL     1     -12.553 -13.500  19.564  1.00  0.00    -0.285 OA
ATOM      5  C   UNL     1     -10.764 -14.382  20.777  1.00  0.00     0.111 A 
ATOM      6  C   UNL     1      -9.973 -13.194  20.820  1.00  0.00     0.134 A 
ATOM      7  C   UNL     1      -8.666 -13.253  21.320  1.00  0.00     0.093 A 
ATOM      8  C   UNL     1      -8.147 -14.440  21.840  1.00  0.00     0.123 A 
ATOM      9  C   UNL     1      -8.933 -15.590  21.858  1.00  0.00     0.094 A 
ATOM     10  C   UNL     1     -10.227 -15.572  21.332  1.00  0.00     0.146 A 
ATOM     11  O   UNL     1     -10.938 -16.693  21.359  1.00  0.00    -0.452 OA
ENDROOT
BRANCH   1  12
ATOM     12  C   UNL     1     -12.864 -18.093  20.985  1.00  0.00     0.021 A 
ATOM     13  C   UNL     1     -13.703 -18.332  22.086  1.00  0.00     0.016 A 
ATOM     14  C   UNL     1     -14.388 -19.545  22.206  1.00  0.00     0.047 A 
ATOM     15  C   UNL     1     -14.255 -20.528  21.221  1.00  0.00     0.115 A 
ATOM     16  C   UNL     1     -12.750 -19.079  19.987  1.00  0.00     0.016 A 
ATOM     17  C   UNL     1     -13.436 -20.291  20.109  1.00  0.00     0.047 A 
BRANCH  15  18
ATOM     18  O   UNL     1     -14.942 -21.732  21.353  1.00  0.00    -0.508 OA
ATOM     19  H   UNL     1     -14.502 -22.619  21.135  1.00  0.00     0.293 HD
ENDBRANCH  15  18
ENDBRANCH   1  12
BRANCH   2  20
ATOM     20  O   UNL     1     -14.011 -15.802  19.631  1.00  0.00    -0.502 OA
ATOM     21  H   UNL     1     -14.480 -15.018  19.194  1.00  0.00     0.293 HD
ENDBRANCH   2  20
BRANCH   6  22
ATOM     22  O   UNL     1     -10.429 -11.938  20.411  1.00  0.00    -0.507 OA
ATOM     23  H   UNL     1     -11.263 -11.488  20.758  1.00  0.00     0.293 HD
ENDBRANCH   6  22
BRANCH   8  24
ATOM     24  O   UNL     1      -6.852 -14.486  22.351  1.00  0.00    -0.508 OA
ATOM     25  H   UNL     1      -6.531 -13.819  23.044  1.00  0.00     0.293 HD
ENDBRANCH   8  24
TORSDOF 5
ENDMDL
MODEL 8
REMARK VINA RESULT:    -5.909      5.029      8.680
REMARK INTER + INTRA:          -7.232
REMARK INTER:                  -6.964
REMARK INTRA:                  -0.267
REMARK UNBOUND:                -0.287
REMARK SMILES O=c1c(O)c(-c2ccc(O)cc2)oc2cc(O)cc(O)c12
REMARK SMILES IDX 5 1 3 2 2 3 1 4 21 5 19 6 18 7 16 8 15 9 14 10 13 11 6 12
REMARK SMILES IDX 7 13 8 14 9 15 12 16 11 17 10 18 4 20 20 22 17 24
REMARK H PARENT 10 19 4 21 20 23 17 25
REMARK Flexibility Score: inf
ROOT
ATOM      1  C   UNL     1     -13.016 -16.346  20.001  1.00  0.00     0.180 A 
ATOM      2  C   UNL     1     -12.719 -14.973  19.957  1.00  0.00     0.208 A 
ATOM      3  C   UNL     1     -11.671 -14.477  20.750  1.00  0.00     0.238 A 
ATOM      4  O   UNL     1     -11.374 -13.257  20.666  1.00  0.00    -0.285 OA
ATOM      5  C   UNL     1     -10.944 -15.358  21.587  1.00  0.00     0.111 A 
ATOM      6  C   UNL     1      -9.890 -14.959  22.463  1.00  0.00     0.134 A 
ATOM      7  C   UNL     1      -9.154 -15.934  23.147  1.00  0.00     0.093 A 
ATOM      8  C   UNL     1      -9.477 -17.288  23.039  1.00  0.00     0.123 A 
ATOM      9  C   UNL     1     -10.544 -17.683  22.233  1.00  0.00     0.094 A 
ATOM     10  C   UNL     1     -11.272 -16.737  21.510  1.00  0.00     0.146 A 
ATOM     11  O   UNL     1     -12.274 -17.156  20.746  1.00  0.00    -0.452 OA
ENDROOT
BRANCH   1  12
ATOM     12  C   UNL     1     -14.122 -16.938  19.214  1.00  0.00     0.021 A 
ATOM     13  C   UNL     1     -15.377 -17.125  19.817  1.00  0.00     0.016 A 
ATOM     14  C   UNL     1     -16.442 -17.662  19.086  1.00  0.00     0.047 A 
ATOM     15  C   UNL     1     -16.270 -18.004  17.742  1.00  0.00     0.115 A 
ATOM     16  C   UNL     1     -13.962 -17.267  17.855  1.00  0.00     0.016 A 
ATOM     17  C   UNL     1     -15.028 -17.803  17.126  1.00  0.00     0.047 A 
BRANCH  15  18
ATOM     18  O   UNL     1     -17.339 -18.539  17.026  1.00  0.00    -0.508 OA
ATOM     19  H   UNL     1     -18.212 -18.033  16.922  1.00  0.00     0.293 HD
ENDBRANCH  15  18
ENDBRANCH   1  12
BRANCH   2  20
ATOM     20  O   UNL     1     -13.435 -14.125  19.107  1.00  0.00    -0.502 OA
ATOM     21  H   UNL     1     -13.724 -14.405  18.177  1.00  0.00     0.293 HD
ENDBRANCH   2  20
BRANCH   6  22
ATOM     22  O   UNL     1      -9.546 -13.627  22.713  1.00  0.00    -0.507 OA
ATOM     23  H   UNL     1      -9.939 -13.061  23.450  1.00  0.00     0.293 HD
ENDBRANCH   6  22
BRANCH   8  24
ATOM     24  O   UNL     1      -8.750 -18.250  23.735  1.00  0.00    -0.508 OA
ATOM     25  H   UNL     1      -9.001 -19.232  23.701  1.00  0.00     0.293 HD
ENDBRANCH   8  24
TORSDOF 5
ENDMDL
MODEL 9
REMARK VINA RESULT:    -5.880      2.604      6.107
REMARK INTER + INTRA:          -7.198
REMARK INTER:                  -6.958
REMARK INTRA:                  -0.240
REMARK UNBOUND:                -0.287
REMARK SMILES O=c1c(O)c(-c2ccc(O)cc2)oc2cc(O)cc(O)c12
REMARK SMILES IDX 5 1 3 2 2 3 1 4 21 5 19 6 18 7 16 8 15 9 14 10 13 11 6 12
REMARK SMILES IDX 7 13 8 14 9 15 12 16 11 17 10 18 4 20 20 22 17 24
REMARK H PARENT 10 19 4 21 20 23 17 25
REMARK Flexibility Score: inf
ROOT
ATOM      1  C   UNL     1     -10.174 -14.499  19.159  1.00  0.00     0.180 A 
ATOM      2  C   UNL     1     -10.924 -13.666  20.007  1.00  0.00     0.208 A 
ATOM      3  C   UNL     1     -10.278 -13.029  21.080  1.00  0.00     0.238 A 
ATOM      4  O   UNL     1     -10.942 -12.242  21.803  1.00  0.00    -0.285 OA
ATOM      5  C   UNL     1      -8.896 -13.244  21.298  1.00  0.00     0.111 A 
ATOM      6  C   UNL     1      -8.148 -12.682  22.376  1.00  0.00     0.134 A 
ATOM      7  C   UNL     1      -6.760 -12.857  22.419  1.00  0.00     0.093 A 
ATOM      8  C   UNL     1      -6.101 -13.630  21.460  1.00  0.00     0.123 A 
ATOM      9  C   UNL     1      -6.831 -14.233  20.437  1.00  0.00     0.094 A 
ATOM     10  C   UNL     1      -8.212 -14.045  20.347  1.00  0.00     0.146 A 
ATOM     11  O   UNL     1      -8.867 -14.629  19.350  1.00  0.00    -0.452 OA
ENDROOT
BRANCH   1  12
ATOM     12  C   UNL     1     -10.789 -15.226  18.024  1.00  0.00     0.021 A 
ATOM     13  C   UNL     1     -10.510 -14.817  16.709  1.00  0.00     0.016 A 
ATOM     14  C   UNL     1     -11.062 -15.502  15.622  1.00  0.00     0.047 A 
ATOM     15  C   UNL     1     -11.886 -16.611  15.834  1.00  0.00     0.115 A 
ATOM     16  C   UNL     1     -11.604 -16.354  18.230  1.00  0.00     0.016 A 
ATOM     17  C   UNL     1     -12.154 -17.038  17.142  1.00  0.00     0.047 A 
BRANCH  15  18
ATOM     18  O   UNL     1     -12.430 -17.284  14.742  1.00  0.00    -0.508 OA
ATOM     19  H   UNL     1     -12.078 -17.138  13.803  1.00  0.00     0.293 HD
ENDBRANCH  15  18
ENDBRANCH   1  12
BRANCH   2  20
ATOM     20  O   UNL     1     -12.282 -13.451  19.761  1.00  0.00    -0.502 OA
ATOM     21  H   UNL     1     -12.628 -12.603  19.326  1.00  0.00     0.293 HD
ENDBRANCH   2  20
BRANCH   6  22
ATOM     22  O   UNL     1      -8.720 -11.971  23.435  1.00  0.00    -0.507 OA
ATOM     23  H   UNL     1      -9.380 -12.356  24.096  1.00  0.00     0.293 HD
ENDBRANCH   6  22
BRANCH   8  24
ATOM     24  O   UNL     1      -4.722 -13.812  21.519  1.00  0.00    -0.508 OA
ATOM     25  H   UNL     1      -4.170 -13.442  22.285  1.00  0.00     0.293 HD
ENDBRANCH   8  24
TORSDOF 5
ENDMDL
