MODEL 1
REMARK VINA RESULT:    -3.511      0.000      0.000
REMARK INTER + INTRA:          -6.382
REMARK INTER:                  -5.359
REMARK INTRA:                  -1.023
REMARK UNBOUND:                -1.023
REMARK SMILES OC[C@@H]1O[C@@](CO)(O[C@H]2O[C@H](CO)[C@@H](O)[C@H](O)[C@@H]2O)[C@@H](O)[C@@H]1O
REMARK SMILES IDX 8 1 9 2 11 3 14 4 10 5 16 6 18 7 12 8 13 9 15 11 17 13 19 15
REMARK SMILES IDX 5 17 20 18 4 19 22 20 3 21 6 22 7 23 21 25 23 27 2 29 1 30
REMARK H PARENT 13 10 15 12 17 14 19 16 7 24 21 26 23 28 1 31
REMARK Flexibility Score: inf
ROOT
ATOM      1  O   UNL     1      -8.287  -6.748   6.799  1.00  0.00    -0.313 OA
ENDROOT
BRANCH   1   2
ATOM      2  C   UNL     1      -8.444  -8.126   6.480  1.00  0.00     0.285 C 
ATOM      3  C   UNL     1      -6.414  -8.689   7.533  1.00  0.00     0.178 C 
ATOM      4  C   UNL     1      -7.108  -9.454   8.683  1.00  0.00     0.177 C 
ATOM      5  O   UNL     1      -7.181  -8.762   6.339  1.00  0.00    -0.341 OA
ATOM      6  C   UNL     1      -8.526  -8.899   8.900  1.00  0.00     0.179 C 
ATOM      7  C   UNL     1      -9.296  -8.815   7.566  1.00  0.00     0.202 C 
BRANCH   3   8
ATOM      8  C   UNL     1      -5.027  -9.287   7.252  1.00  0.00     0.191 C 
BRANCH   8   9
ATOM      9  O   UNL     1      -4.115  -8.900   8.244  1.00  0.00    -0.394 OA
ATOM     10  H   UNL     1      -3.773  -8.006   7.981  1.00  0.00     0.210 HD
ENDBRANCH   8   9
ENDBRANCH   3   8
BRANCH   4  11
ATOM     11  O   UNL     1      -6.361  -9.302   9.864  1.00  0.00    -0.387 OA
ATOM     12  H   UNL     1      -5.680 -10.024   9.870  1.00  0.00     0.211 HD
ENDBRANCH   4  11
BRANCH   6  13
ATOM     13  O   UNL     1      -9.216  -9.714   9.811  1.00  0.00    -0.387 OA
ATOM     14  H   UNL     1      -8.778  -9.591  10.694  1.00  0.00     0.211 HD
ENDBRANCH   6  13
BRANCH   7  15
ATOM     15  O   UNL     1      -9.732 -10.085   7.145  1.00  0.00    -0.385 OA
ATOM     16  H   UNL     1     -10.572  -9.969   6.627  1.00  0.00     0.211 HD
ENDBRANCH   7  15
ENDBRANCH   1   2
BRANCH   1  17
ATOM     17  C   UNL     1      -9.107  -5.877   6.023  1.00  0.00     0.224 C 
ATOM     18  C   UNL     1      -9.841  -4.913   6.971  1.00  0.00     0.208 C 
ATOM     19  O   UNL     1      -8.328  -5.085   5.135  1.00  0.00    -0.337 OA
ATOM     20  C   UNL     1      -8.903  -3.737   7.032  1.00  0.00     0.180 C 
ATOM     21  C   UNL     1      -8.274  -3.761   5.633  1.00  0.00     0.179 C 
BRANCH  17  22
ATOM     22  C   UNL     1     -10.125  -6.715   5.221  1.00  0.00     0.225 C 
BRANCH  22  23
ATOM     23  O   UNL     1     -10.000  -6.460   3.848  1.00  0.00    -0.391 OA
ATOM     24  H   UNL     1     -10.780  -6.893   3.415  1.00  0.00     0.210 HD
ENDBRANCH  22  23
ENDBRANCH  17  22
BRANCH  18  25
ATOM     25  O   UNL     1     -10.121  -5.469   8.236  1.00  0.00    -0.385 OA
ATOM     26  H   UNL     1      -9.387  -6.089   8.485  1.00  0.00     0.211 HD
ENDBRANCH  18  25
BRANCH  20  27
ATOM     27  O   UNL     1      -9.600  -2.549   7.312  1.00  0.00    -0.387 OA
ATOM     28  H   UNL     1     -10.450  -2.599   6.803  1.00  0.00     0.211 HD
ENDBRANCH  20  27
BRANCH  21  29
ATOM     29  C   UNL     1      -8.967  -2.825   4.630  1.00  0.00     0.191 C 
BRANCH  29  30
ATOM     30  O   UNL     1      -9.202  -3.510   3.431  1.00  0.00    -0.394 OA
ATOM     31  H   UNL     1     -10.099  -3.219   3.119  1.00  0.00     0.210 HD
ENDBRANCH  29  30
ENDBRANCH  21  29
ENDBRANCH   1  17
TORSDOF 13
ENDMDL
MODEL 2
REMARK VINA RESULT:    -3.450      1.651      2.126
REMARK INTER + INTRA:          -6.288
REMARK INTER:                  -5.061
REMARK INTRA:                  -1.227
REMARK UNBOUND:                -1.023
REMARK SMILES OC[C@@H]1O[C@@](CO)(O[C@H]2O[C@H](CO)[C@@H](O)[C@H](O)[C@@H]2O)[C@@H](O)[C@@H]1O
REMARK SMILES IDX 8 1 9 2 11 3 14 4 10 5 16 6 18 7 12 8 13 9 15 11 17 13 19 15
REMARK SMILES IDX 5 17 20 18 4 19 22 20 3 21 6 22 7 23 21 25 23 27 2 29 1 30
REMARK H PARENT 13 10 15 12 17 14 19 16 7 24 21 26 23 28 1 31
REMARK Flexibility Score: inf
ROOT
ATOM      1  O   UNL     1      -8.399  -6.126   8.278  1.00  0.00    -0.313 OA
ENDROOT
BRANCH   1   2
ATOM      2  C   UNL     1      -8.618  -7.217   7.390  1.00  0.00     0.285 C 
ATOM      3  C   UNL     1      -6.779  -8.404   8.258  1.00  0.00     0.178 C 
ATOM      4  C   UNL     1      -7.662  -9.490   8.913  1.00  0.00     0.177 C 
ATOM      5  O   UNL     1      -7.399  -7.881   7.091  1.00  0.00    -0.341 OA
ATOM      6  C   UNL     1      -9.051  -8.912   9.234  1.00  0.00     0.179 C 
ATOM      7  C   UNL     1      -9.645  -8.189   8.008  1.00  0.00     0.202 C 
BRANCH   3   8
ATOM      8  C   UNL     1      -5.417  -8.991   7.858  1.00  0.00     0.191 C 
BRANCH   8   9
ATOM      9  O   UNL     1      -4.446  -8.680   8.820  1.00  0.00    -0.394 OA
ATOM     10  H   UNL     1      -3.565  -8.886   8.411  1.00  0.00     0.210 HD
ENDBRANCH   8   9
ENDBRANCH   3   8
BRANCH   4  11
ATOM     11  O   UNL     1      -7.055  -9.934  10.100  1.00  0.00    -0.387 OA
ATOM     12  H   UNL     1      -7.768  -9.984  10.789  1.00  0.00     0.211 HD
ENDBRANCH   4  11
BRANCH   6  13
ATOM     13  O   UNL     1      -9.906  -9.944   9.653  1.00  0.00    -0.387 OA
ATOM     14  H   UNL     1     -10.567 -10.081   8.924  1.00  0.00     0.211 HD
ENDBRANCH   6  13
BRANCH   7  15
ATOM     15  O   UNL     1     -10.120  -9.106   7.051  1.00  0.00    -0.385 OA
ATOM     16  H   UNL     1     -10.221  -9.990   7.493  1.00  0.00     0.211 HD
ENDBRANCH   7  15
ENDBRANCH   1   2
BRANCH   1  17
ATOM     17  C   UNL     1      -8.514  -4.846   7.661  1.00  0.00     0.224 C 
ATOM     18  C   UNL     1      -7.626  -3.848   8.425  1.00  0.00     0.208 C 
ATOM     19  O   UNL     1      -8.056  -4.875   6.315  1.00  0.00    -0.337 OA
ATOM     20  C   UNL     1      -6.323  -3.930   7.675  1.00  0.00     0.180 C 
ATOM     21  C   UNL     1      -6.797  -4.231   6.248  1.00  0.00     0.179 C 
BRANCH  17  22
ATOM     22  C   UNL     1      -9.988  -4.390   7.704  1.00  0.00     0.225 C 
BRANCH  22  23
ATOM     23  O   UNL     1     -10.125  -3.116   7.134  1.00  0.00    -0.391 OA
ATOM     24  H   UNL     1     -10.075  -2.470   7.885  1.00  0.00     0.210 HD
ENDBRANCH  22  23
ENDBRANCH  17  22
BRANCH  18  25
ATOM     25  O   UNL     1      -7.499  -4.141   9.798  1.00  0.00    -0.385 OA
ATOM     26  H   UNL     1      -6.638  -3.775  10.127  1.00  0.00     0.211 HD
ENDBRANCH  18  25
BRANCH  20  27
ATOM     27  O   UNL     1      -5.602  -2.729   7.784  1.00  0.00    -0.387 OA
ATOM     28  H   UNL     1      -4.945  -2.730   7.041  1.00  0.00     0.211 HD
ENDBRANCH  20  27
BRANCH  21  29
ATOM     29  C   UNL     1      -6.927  -2.979   5.366  1.00  0.00     0.191 C 
BRANCH  29  30
ATOM     30  O   UNL     1      -8.197  -2.950   4.774  1.00  0.00    -0.394 OA
ATOM     31  H   UNL     1      -8.746  -2.337   5.330  1.00  0.00     0.210 HD
ENDBRANCH  29  30
ENDBRANCH  21  29
ENDBRANCH   1  17
TORSDOF 13
ENDMDL
MODEL 3
REMARK VINA RESULT:    -3.358      2.196      4.422
REMARK INTER + INTRA:          -6.148
REMARK INTER:                  -5.009
REMARK INTRA:                  -1.139
REMARK UNBOUND:                -1.023
REMARK SMILES OC[C@@H]1O[C@@](CO)(O[C@H]2O[C@H](CO)[C@@H](O)[C@H](O)[C@@H]2O)[C@@H](O)[C@@H]1O
REMARK SMILES IDX 8 1 9 2 11 3 14 4 10 5 16 6 18 7 12 8 13 9 15 11 17 13 19 15
REMARK SMILES IDX 5 17 20 18 4 19 22 20 3 21 6 22 7 23 21 25 23 27 2 29 1 30
REMARK H PARENT 13 10 15 12 17 14 19 16 7 24 21 26 23 28 1 31
REMARK Flexibility Score: inf
ROOT
ATOM      1  O   UNL     1      -6.365  -8.733   7.693  1.00  0.00    -0.313 OA
ENDROOT
BRANCH   1   2
ATOM      2  C   UNL     1      -5.484  -7.772   7.121  1.00  0.00     0.285 C 
ATOM      3  C   UNL     1      -4.030  -7.876   8.970  1.00  0.00     0.178 C 
ATOM      4  C   UNL     1      -2.900  -8.560   8.169  1.00  0.00     0.177 C 
ATOM      5  O   UNL     1      -4.810  -7.035   8.131  1.00  0.00    -0.341 OA
ATOM      6  C   UNL     1      -3.497  -9.351   6.992  1.00  0.00     0.179 C 
ATOM      7  C   UNL     1      -4.482  -8.481   6.185  1.00  0.00     0.202 C 
BRANCH   3   8
ATOM      8  C   UNL     1      -3.441  -7.017  10.100  1.00  0.00     0.191 C 
BRANCH   8   9
ATOM      9  O   UNL     1      -2.150  -6.586   9.767  1.00  0.00    -0.394 OA
ATOM     10  H   UNL     1      -1.542  -6.947  10.463  1.00  0.00     0.210 HD
ENDBRANCH   8   9
ENDBRANCH   3   8
BRANCH   4  11
ATOM     11  O   UNL     1      -2.194  -9.437   9.011  1.00  0.00    -0.387 OA
ATOM     12  H   UNL     1      -1.552  -8.886   9.531  1.00  0.00     0.211 HD
ENDBRANCH   4  11
BRANCH   6  13
ATOM     13  O   UNL     1      -2.463  -9.813   6.163  1.00  0.00    -0.387 OA
ATOM     14  H   UNL     1      -2.614  -9.412   5.267  1.00  0.00     0.211 HD
ENDBRANCH   6  13
BRANCH   7  15
ATOM     15  O   UNL     1      -3.801  -7.556   5.371  1.00  0.00    -0.385 OA
ATOM     16  H   UNL     1      -4.376  -7.353   4.587  1.00  0.00     0.211 HD
ENDBRANCH   7  15
ENDBRANCH   1   2
BRANCH   1  17
ATOM     17  C   UNL     1      -7.743  -8.488   7.421  1.00  0.00     0.224 C 
ATOM     18  C   UNL     1      -8.547  -8.700   8.716  1.00  0.00     0.208 C 
ATOM     19  O   UNL     1      -7.960  -7.146   7.004  1.00  0.00    -0.337 OA
ATOM     20  C   UNL     1      -8.571  -7.319   9.316  1.00  0.00     0.180 C 
ATOM     21  C   UNL     1      -8.566  -6.431   8.065  1.00  0.00     0.179 C 
BRANCH  17  22
ATOM     22  C   UNL     1      -8.228  -9.462   6.327  1.00  0.00     0.225 C 
BRANCH  22  23
ATOM     23  O   UNL     1      -9.415 -10.095   6.723  1.00  0.00    -0.391 OA
ATOM     24  H   UNL     1      -9.985 -10.143   5.912  1.00  0.00     0.210 HD
ENDBRANCH  22  23
ENDBRANCH  17  22
BRANCH  18  25
ATOM     25  O   UNL     1      -7.990  -9.671   9.574  1.00  0.00    -0.385 OA
ATOM     26  H   UNL     1      -7.775 -10.482   9.045  1.00  0.00     0.211 HD
ENDBRANCH  18  25
BRANCH  20  27
ATOM     27  O   UNL     1      -9.705  -7.140  10.125  1.00  0.00    -0.387 OA
ATOM     28  H   UNL     1     -10.151  -6.315   9.801  1.00  0.00     0.211 HD
ENDBRANCH  20  27
BRANCH  21  29
ATOM     29  C   UNL     1      -9.968  -5.982   7.624  1.00  0.00     0.191 C 
BRANCH  29  30
ATOM     30  O   UNL     1      -9.980  -5.769   6.239  1.00  0.00    -0.394 OA
ATOM     31  H   UNL     1     -10.703  -5.110   6.068  1.00  0.00     0.210 HD
ENDBRANCH  29  30
ENDBRANCH  21  29
ENDBRANCH   1  17
TORSDOF 13
ENDMDL
MODEL 4
REMARK VINA RESULT:    -3.315      2.099      3.226
REMARK INTER + INTRA:          -6.082
REMARK INTER:                  -4.751
REMARK INTRA:                  -1.331
REMARK UNBOUND:                -1.023
REMARK SMILES OC[C@@H]1O[C@@](CO)(O[C@H]2O[C@H](CO)[C@@H](O)[C@H](O)[C@@H]2O)[C@@H](O)[C@@H]1O
REMARK SMILES IDX 8 1 9 2 11 3 14 4 10 5 16 6 18 7 12 8 13 9 15 11 17 13 19 15
REMARK SMILES IDX 5 17 20 18 4 19 22 20 3 21 6 22 7 23 21 25 23 27 2 29 1 30
REMARK H PARENT 13 10 15 12 17 14 19 16 7 24 21 26 23 28 1 31
REMARK Flexibility Score: inf
ROOT
ATOM      1  O   UNL     1      -7.101  -7.269   7.594  1.00  0.00    -0.313 OA
ENDROOT
BRANCH   1   2
ATOM      2  C   UNL     1      -5.918  -6.976   6.857  1.00  0.00     0.285 C 
ATOM      3  C   UNL     1      -4.657  -6.699   8.826  1.00  0.00     0.178 C 
ATOM      4  C   UNL     1      -3.817  -7.973   8.585  1.00  0.00     0.177 C 
ATOM      5  O   UNL     1      -5.060  -6.117   7.594  1.00  0.00    -0.341 OA
ATOM      6  C   UNL     1      -4.617  -8.975   7.734  1.00  0.00     0.179 C 
ATOM      7  C   UNL     1      -5.203  -8.290   6.482  1.00  0.00     0.202 C 
BRANCH   3   8
ATOM      8  C   UNL     1      -3.839  -5.658   9.605  1.00  0.00     0.191 C 
BRANCH   8   9
ATOM      9  O   UNL     1      -2.466  -5.869   9.415  1.00  0.00    -0.394 OA
ATOM     10  H   UNL     1      -2.350  -6.142   8.468  1.00  0.00     0.210 HD
ENDBRANCH   8   9
ENDBRANCH   3   8
BRANCH   4  11
ATOM     11  O   UNL     1      -3.495  -8.563   9.820  1.00  0.00    -0.387 OA
ATOM     12  H   UNL     1      -4.201  -8.292  10.463  1.00  0.00     0.211 HD
ENDBRANCH   4  11
BRANCH   6  13
ATOM     13  O   UNL     1      -3.787 -10.044   7.361  1.00  0.00    -0.387 OA
ATOM     14  H   UNL     1      -3.277 -10.307   8.172  1.00  0.00     0.211 HD
ENDBRANCH   6  13
BRANCH   7  15
ATOM     15  O   UNL     1      -4.213  -8.073   5.505  1.00  0.00    -0.385 OA
ATOM     16  H   UNL     1      -3.747  -7.223   5.720  1.00  0.00     0.211 HD
ENDBRANCH   7  15
ENDBRANCH   1   2
BRANCH   1  17
ATOM     17  C   UNL     1      -8.306  -6.934   6.911  1.00  0.00     0.224 C 
ATOM     18  C   UNL     1      -9.292  -6.322   7.922  1.00  0.00     0.208 C 
ATOM     19  O   UNL     1      -8.078  -5.959   5.901  1.00  0.00    -0.337 OA
ATOM     20  C   UNL     1      -8.996  -4.849   7.817  1.00  0.00     0.180 C 
ATOM     21  C   UNL     1      -8.581  -4.713   6.347  1.00  0.00     0.179 C 
BRANCH  17  22
ATOM     22  C   UNL     1      -8.908  -8.208   6.283  1.00  0.00     0.225 C 
BRANCH  22  23
ATOM     23  O   UNL     1     -10.121  -8.537   6.904  1.00  0.00    -0.391 OA
ATOM     24  H   UNL     1     -10.016  -8.296   7.861  1.00  0.00     0.210 HD
ENDBRANCH  22  23
ENDBRANCH  17  22
BRANCH  18  25
ATOM     25  O   UNL     1      -9.148  -6.829   9.229  1.00  0.00    -0.385 OA
ATOM     26  H   UNL     1      -9.448  -6.139   9.876  1.00  0.00     0.211 HD
ENDBRANCH  18  25
BRANCH  20  27
ATOM     27  O   UNL     1     -10.124  -4.082   8.154  1.00  0.00    -0.387 OA
ATOM     28  H   UNL     1     -10.755  -4.699   8.607  1.00  0.00     0.211 HD
ENDBRANCH  20  27
BRANCH  21  29
ATOM     29  C   UNL     1      -9.730  -4.283   5.421  1.00  0.00     0.191 C 
BRANCH  29  30
ATOM     30  O   UNL     1      -9.888  -2.892   5.481  1.00  0.00    -0.394 OA
ATOM     31  H   UNL     1      -9.111  -2.549   5.997  1.00  0.00     0.210 HD
ENDBRANCH  29  30
ENDBRANCH  21  29
ENDBRANCH   1  17
TORSDOF 13
ENDMDL
MODEL 5
REMARK VINA RESULT:    -3.310      2.895      5.350
REMARK INTER + INTRA:          -6.075
REMARK INTER:                  -4.977
REMARK INTRA:                  -1.097
REMARK UNBOUND:                -1.023
REMARK SMILES OC[C@@H]1O[C@@](CO)(O[C@H]2O[C@H](CO)[C@@H](O)[C@H](O)[C@@H]2O)[C@@H](O)[C@@H]1O
REMARK SMILES IDX 8 1 9 2 11 3 14 4 10 5 16 6 18 7 12 8 13 9 15 11 17 13 19 15
REMARK SMILES IDX 5 17 20 18 4 19 22 20 3 21 6 22 7 23 21 25 23 27 2 29 1 30
REMARK H PARENT 13 10 15 12 17 14 19 16 7 24 21 26 23 28 1 31
REMARK Flexibility Score: inf
ROOT
ATOM      1  O   UNL     1      -6.562  -7.139   8.156  1.00  0.00    -0.313 OA
ENDROOT
BRANCH   1   2
ATOM      2  C   UNL     1      -7.744  -7.281   8.936  1.00  0.00     0.285 C 
ATOM      3  C   UNL     1      -9.062  -6.245   7.283  1.00  0.00     0.178 C 
ATOM      4  C   UNL     1      -9.814  -7.547   6.926  1.00  0.00     0.177 C 
ATOM      5  O   UNL     1      -8.671  -6.244   8.649  1.00  0.00    -0.341 OA
ATOM      6  C   UNL     1      -8.935  -8.766   7.252  1.00  0.00     0.179 C 
ATOM      7  C   UNL     1      -8.367  -8.670   8.683  1.00  0.00     0.202 C 
BRANCH   3   8
ATOM      8  C   UNL     1      -9.961  -5.023   7.038  1.00  0.00     0.191 C 
BRANCH   8   9
ATOM      9  O   UNL     1      -9.965  -4.183   8.160  1.00  0.00    -0.394 OA
ATOM     10  H   UNL     1      -9.174  -3.589   8.072  1.00  0.00     0.210 HD
ENDBRANCH   8   9
ENDBRANCH   3   8
BRANCH   4  11
ATOM     11  O   UNL     1     -10.124  -7.548   5.555  1.00  0.00    -0.387 OA
ATOM     12  H   UNL     1      -9.619  -8.297   5.144  1.00  0.00     0.211 HD
ENDBRANCH   4  11
BRANCH   6  13
ATOM     13  O   UNL     1      -9.686  -9.943   7.104  1.00  0.00    -0.387 OA
ATOM     14  H   UNL     1      -9.352 -10.583   7.786  1.00  0.00     0.211 HD
ENDBRANCH   6  13
BRANCH   7  15
ATOM     15  O   UNL     1      -9.347  -8.974   9.646  1.00  0.00    -0.385 OA
ATOM     16  H   UNL     1      -8.916  -8.969  10.540  1.00  0.00     0.211 HD
ENDBRANCH   7  15
ENDBRANCH   1   2
BRANCH   1  17
ATOM     17  C   UNL     1      -5.448  -6.625   8.883  1.00  0.00     0.224 C 
ATOM     18  C   UNL     1      -4.235  -6.548   7.938  1.00  0.00     0.208 C 
ATOM     19  O   UNL     1      -5.699  -5.307   9.356  1.00  0.00    -0.337 OA
ATOM     20  C   UNL     1      -4.336  -5.149   7.390  1.00  0.00     0.180 C 
ATOM     21  C   UNL     1      -4.961  -4.391   8.569  1.00  0.00     0.179 C 
BRANCH  17  22
ATOM     22  C   UNL     1      -5.139  -7.559  10.072  1.00  0.00     0.225 C 
BRANCH  22  23
ATOM     23  O   UNL     1      -3.922  -8.225   9.871  1.00  0.00    -0.391 OA
ATOM     24  H   UNL     1      -3.551  -7.872   9.021  1.00  0.00     0.210 HD
ENDBRANCH  22  23
ENDBRANCH  17  22
BRANCH  18  25
ATOM     25  O   UNL     1      -4.235  -7.540   6.938  1.00  0.00    -0.385 OA
ATOM     26  H   UNL     1      -3.424  -8.102   7.042  1.00  0.00     0.211 HD
ENDBRANCH  18  25
BRANCH  20  27
ATOM     27  O   UNL     1      -3.073  -4.660   7.017  1.00  0.00    -0.387 OA
ATOM     28  H   UNL     1      -3.044  -4.692   6.026  1.00  0.00     0.211 HD
ENDBRANCH  20  27
BRANCH  21  29
ATOM     29  C   UNL     1      -3.929  -3.687   9.464  1.00  0.00     0.191 C 
BRANCH  29  30
ATOM     30  O   UNL     1      -3.722  -2.379   9.005  1.00  0.00    -0.394 OA
ATOM     31  H   UNL     1      -2.833  -2.103   9.352  1.00  0.00     0.210 HD
ENDBRANCH  29  30
ENDBRANCH  21  29
ENDBRANCH   1  17
TORSDOF 13
ENDMDL
MODEL 6
REMARK VINA RESULT:    -3.309      2.322      5.957
REMARK INTER + INTRA:          -6.073
REMARK INTER:                  -5.013
REMARK INTRA:                  -1.060
REMARK UNBOUND:                -1.023
REMARK SMILES OC[C@@H]1O[C@@](CO)(O[C@H]2O[C@H](CO)[C@@H](O)[C@H](O)[C@@H]2O)[C@@H](O)[C@@H]1O
REMARK SMILES IDX 8 1 9 2 11 3 14 4 10 5 16 6 18 7 12 8 13 9 15 11 17 13 19 15
REMARK SMILES IDX 5 17 20 18 4 19 22 20 3 21 6 22 7 23 21 25 23 27 2 29 1 30
REMARK H PARENT 13 10 15 12 17 14 19 16 7 24 21 26 23 28 1 31
REMARK Flexibility Score: inf
ROOT
ATOM      1  O   UNL     1      -7.336  -6.265   8.902  1.00  0.00    -0.313 OA
ENDROOT
BRANCH   1   2
ATOM      2  C   UNL     1      -6.797  -5.336   7.968  1.00  0.00     0.285 C 
ATOM      3  C   UNL     1      -8.638  -3.889   8.213  1.00  0.00     0.178 C 
ATOM      4  C   UNL     1      -7.809  -2.795   8.925  1.00  0.00     0.177 C 
ATOM      5  O   UNL     1      -7.831  -4.624   7.304  1.00  0.00    -0.341 OA
ATOM      6  C   UNL     1      -6.606  -3.433   9.641  1.00  0.00     0.179 C 
ATOM      7  C   UNL     1      -5.834  -4.373   8.692  1.00  0.00     0.202 C 
BRANCH   3   8
ATOM      8  C   UNL     1      -9.796  -3.256   7.427  1.00  0.00     0.191 C 
BRANCH   8   9
ATOM      9  O   UNL     1      -9.320  -2.641   6.260  1.00  0.00    -0.394 OA
ATOM     10  H   UNL     1      -9.431  -3.302   5.527  1.00  0.00     0.210 HD
ENDBRANCH   8   9
ENDBRANCH   3   8
BRANCH   4  11
ATOM     11  O   UNL     1      -8.616  -2.134   9.867  1.00  0.00    -0.387 OA
ATOM     12  H   UNL     1      -8.784  -1.221   9.515  1.00  0.00     0.211 HD
ENDBRANCH   4  11
BRANCH   6  13
ATOM     13  O   UNL     1      -5.757  -2.425  10.125  1.00  0.00    -0.387 OA
ATOM     14  H   UNL     1      -5.056  -2.876  10.665  1.00  0.00     0.211 HD
ENDBRANCH   6  13
BRANCH   7  15
ATOM     15  O   UNL     1      -5.051  -3.646   7.775  1.00  0.00    -0.385 OA
ATOM     16  H   UNL     1      -4.159  -3.492   8.182  1.00  0.00     0.211 HD
ENDBRANCH   7  15
ENDBRANCH   1   2
BRANCH   1  17
ATOM     17  C   UNL     1      -7.163  -7.629   8.528  1.00  0.00     0.224 C 
ATOM     18  C   UNL     1      -8.499  -8.368   8.724  1.00  0.00     0.208 C 
ATOM     19  O   UNL     1      -6.811  -7.751   7.155  1.00  0.00    -0.337 OA
ATOM     20  C   UNL     1      -9.149  -8.233   7.373  1.00  0.00     0.180 C 
ATOM     21  C   UNL     1      -7.935  -8.224   6.436  1.00  0.00     0.179 C 
BRANCH  17  22
ATOM     22  C   UNL     1      -6.067  -8.265   9.408  1.00  0.00     0.225 C 
BRANCH  22  23
ATOM     23  O   UNL     1      -6.485  -9.515   9.888  1.00  0.00    -0.391 OA
ATOM     24  H   UNL     1      -6.494  -9.443  10.877  1.00  0.00     0.210 HD
ENDBRANCH  22  23
ENDBRANCH  17  22
BRANCH  18  25
ATOM     25  O   UNL     1      -9.282  -7.850   9.775  1.00  0.00    -0.385 OA
ATOM     26  H   UNL     1     -10.241  -7.982   9.558  1.00  0.00     0.211 HD
ENDBRANCH  18  25
BRANCH  20  27
ATOM     27  O   UNL     1     -10.036  -9.295   7.130  1.00  0.00    -0.387 OA
ATOM     28  H   UNL     1      -9.478 -10.065   6.850  1.00  0.00     0.211 HD
ENDBRANCH  20  27
BRANCH  21  29
ATOM     29  C   UNL     1      -7.602  -9.605   5.848  1.00  0.00     0.191 C 
BRANCH  29  30
ATOM     30  O   UNL     1      -8.251  -9.760   4.616  1.00  0.00    -0.394 OA
ATOM     31  H   UNL     1      -8.022  -8.955   4.081  1.00  0.00     0.210 HD
ENDBRANCH  29  30
ENDBRANCH  21  29
ENDBRANCH   1  17
TORSDOF 13
ENDMDL
MODEL 7
REMARK VINA RESULT:    -3.292      2.746      5.258
REMARK INTER + INTRA:          -6.047
REMARK INTER:                  -4.886
REMARK INTRA:                  -1.161
REMARK UNBOUND:                -1.023
REMARK SMILES OC[C@@H]1O[C@@](CO)(O[C@H]2O[C@H](CO)[C@@H](O)[C@H](O)[C@@H]2O)[C@@H](O)[C@@H]1O
REMARK SMILES IDX 8 1 9 2 11 3 14 4 10 5 16 6 18 7 12 8 13 9 15 11 17 13 19 15
REMARK SMILES IDX 5 17 20 18 4 19 22 20 3 21 6 22 7 23 21 25 23 27 2 29 1 30
REMARK H PARENT 13 10 15 12 17 14 19 16 7 24 21 26 23 28 1 31
REMARK Flexibility Score: inf
ROOT
ATOM      1  O   UNL     1      -5.890  -7.206   8.651  1.00  0.00    -0.313 OA
ENDROOT
BRANCH   1   2
ATOM      2  C   UNL     1      -4.878  -8.134   8.275  1.00  0.00     0.285 C 
ATOM      3  C   UNL     1      -4.076  -6.707   6.583  1.00  0.00     0.178 C 
ATOM      4  C   UNL     1      -2.749  -6.415   7.319  1.00  0.00     0.177 C 
ATOM      5  O   UNL     1      -4.556  -8.006   6.897  1.00  0.00    -0.341 OA
ATOM      6  C   UNL     1      -2.944  -6.582   8.836  1.00  0.00     0.179 C 
ATOM      7  C   UNL     1      -3.630  -7.925   9.160  1.00  0.00     0.202 C 
BRANCH   3   8
ATOM      8  C   UNL     1      -3.874  -6.623   5.062  1.00  0.00     0.191 C 
BRANCH   8   9
ATOM      9  O   UNL     1      -2.547  -6.926   4.725  1.00  0.00    -0.394 OA
ATOM     10  H   UNL     1      -2.235  -7.600   5.384  1.00  0.00     0.210 HD
ENDBRANCH   8   9
ENDBRANCH   3   8
BRANCH   4  11
ATOM     11  O   UNL     1      -2.339  -5.100   7.043  1.00  0.00    -0.387 OA
ATOM     12  H   UNL     1      -2.118  -4.677   7.913  1.00  0.00     0.211 HD
ENDBRANCH   4  11
BRANCH   6  13
ATOM     13  O   UNL     1      -1.701  -6.502   9.483  1.00  0.00    -0.387 OA
ATOM     14  H   UNL     1      -1.824  -5.905  10.267  1.00  0.00     0.211 HD
ENDBRANCH   6  13
BRANCH   7  15
ATOM     15  O   UNL     1      -2.732  -9.003   9.039  1.00  0.00    -0.385 OA
ATOM     16  H   UNL     1      -2.802  -9.362   8.116  1.00  0.00     0.211 HD
ENDBRANCH   7  15
ENDBRANCH   1   2
BRANCH   1  17
ATOM     17  C   UNL     1      -7.132  -7.814   8.999  1.00  0.00     0.224 C 
ATOM     18  C   UNL     1      -8.102  -6.717   9.473  1.00  0.00     0.208 C 
ATOM     19  O   UNL     1      -7.730  -8.451   7.877  1.00  0.00    -0.337 OA
ATOM     20  C   UNL     1      -8.812  -6.337   8.201  1.00  0.00     0.180 C 
ATOM     21  C   UNL     1      -8.820  -7.665   7.433  1.00  0.00     0.179 C 
BRANCH  17  22
ATOM     22  C   UNL     1      -6.898  -8.843  10.125  1.00  0.00     0.225 C 
BRANCH  22  23
ATOM     23  O   UNL     1      -7.295 -10.123   9.711  1.00  0.00    -0.391 OA
ATOM     24  H   UNL     1      -6.530 -10.497   9.201  1.00  0.00     0.210 HD
ENDBRANCH  22  23
ENDBRANCH  17  22
BRANCH  18  25
ATOM     25  O   UNL     1      -7.462  -5.630  10.101  1.00  0.00    -0.385 OA
ATOM     26  H   UNL     1      -7.257  -5.876  11.040  1.00  0.00     0.211 HD
ENDBRANCH  18  25
BRANCH  20  27
ATOM     27  O   UNL     1     -10.098  -5.838   8.470  1.00  0.00    -0.387 OA
ATOM     28  H   UNL     1      -9.971  -4.922   8.829  1.00  0.00     0.211 HD
ENDBRANCH  20  27
BRANCH  21  29
ATOM     29  C   UNL     1     -10.118  -8.470   7.610  1.00  0.00     0.191 C 
BRANCH  29  30
ATOM     30  O   UNL     1      -9.831  -9.693   8.231  1.00  0.00    -0.394 OA
ATOM     31  H   UNL     1      -9.972  -9.548   9.203  1.00  0.00     0.210 HD
ENDBRANCH  29  30
ENDBRANCH  21  29
ENDBRANCH   1  17
TORSDOF 13
ENDMDL
MODEL 8
REMARK VINA RESULT:    -3.168      2.507      5.657
REMARK INTER + INTRA:          -5.858
REMARK INTER:                  -4.776
REMARK INTRA:                  -1.082
REMARK UNBOUND:                -1.023
REMARK SMILES OC[C@@H]1O[C@@](CO)(O[C@H]2O[C@H](CO)[C@@H](O)[C@H](O)[C@@H]2O)[C@@H](O)[C@@H]1O
REMARK SMILES IDX 8 1 9 2 11 3 14 4 10 5 16 6 18 7 12 8 13 9 15 11 17 13 19 15
REMARK SMILES IDX 5 17 20 18 4 19 22 20 3 21 6 22 7 23 21 25 23 27 2 29 1 30
REMARK H PARENT 13 10 15 12 17 14 19 16 7 24 21 26 23 28 1 31
REMARK Flexibility Score: inf
ROOT
ATOM      1  O   UNL     1      -7.202  -8.623   5.908  1.00  0.00    -0.313 OA
ENDROOT
BRANCH   1   2
ATOM      2  C   UNL     1      -8.227  -8.460   4.933  1.00  0.00     0.285 C 
ATOM      3  C   UNL     1      -7.242  -6.488   4.104  1.00  0.00     0.178 C 
ATOM      4  C   UNL     1      -6.843  -7.135   2.759  1.00  0.00     0.177 C 
ATOM      5  O   UNL     1      -8.421  -7.087   4.625  1.00  0.00    -0.341 OA
ATOM      6  C   UNL     1      -6.661  -8.652   2.941  1.00  0.00     0.179 C 
ATOM      7  C   UNL     1      -7.872  -9.270   3.669  1.00  0.00     0.202 C 
BRANCH   3   8
ATOM      8  C   UNL     1      -7.506  -4.986   3.918  1.00  0.00     0.191 C 
BRANCH   8   9
ATOM      9  O   UNL     1      -8.806  -4.661   4.329  1.00  0.00    -0.394 OA
ATOM     10  H   UNL     1      -9.240  -5.512   4.597  1.00  0.00     0.210 HD
ENDBRANCH   8   9
ENDBRANCH   3   8
BRANCH   4  11
ATOM     11  O   UNL     1      -5.637  -6.571   2.307  1.00  0.00    -0.387 OA
ATOM     12  H   UNL     1      -4.936  -7.267   2.407  1.00  0.00     0.211 HD
ENDBRANCH   4  11
BRANCH   6  13
ATOM     13  O   UNL     1      -6.484  -9.259   1.687  1.00  0.00    -0.387 OA
ATOM     14  H   UNL     1      -6.003  -8.603   1.117  1.00  0.00     0.211 HD
ENDBRANCH   6  13
BRANCH   7  15
ATOM     15  O   UNL     1      -8.981  -9.389   2.810  1.00  0.00    -0.385 OA
ATOM     16  H   UNL     1      -8.875  -8.730   2.075  1.00  0.00     0.211 HD
ENDBRANCH   7  15
ENDBRANCH   1   2
BRANCH   1  17
ATOM     17  C   UNL     1      -7.690  -8.783   7.238  1.00  0.00     0.224 C 
ATOM     18  C   UNL     1      -6.546  -9.310   8.123  1.00  0.00     0.208 C 
ATOM     19  O   UNL     1      -8.112  -7.542   7.789  1.00  0.00    -0.337 OA
ATOM     20  C   UNL     1      -5.934  -8.041   8.656  1.00  0.00     0.180 C 
ATOM     21  C   UNL     1      -7.151  -7.111   8.735  1.00  0.00     0.179 C 
BRANCH  17  22
ATOM     22  C   UNL     1      -8.865  -9.782   7.235  1.00  0.00     0.225 C 
BRANCH  22  23
ATOM     23  O   UNL     1      -9.848  -9.390   8.155  1.00  0.00    -0.391 OA
ATOM     24  H   UNL     1      -9.371  -9.204   9.005  1.00  0.00     0.210 HD
ENDBRANCH  22  23
ENDBRANCH  17  22
BRANCH  18  25
ATOM     25  O   UNL     1      -5.627 -10.125   7.432  1.00  0.00    -0.385 OA
ATOM     26  H   UNL     1      -5.468 -10.950   7.960  1.00  0.00     0.211 HD
ENDBRANCH  18  25
BRANCH  20  27
ATOM     27  O   UNL     1      -5.316  -8.262   9.899  1.00  0.00    -0.387 OA
ATOM     28  H   UNL     1      -4.412  -8.618   9.700  1.00  0.00     0.211 HD
ENDBRANCH  20  27
BRANCH  21  29
ATOM     29  C   UNL     1      -7.806  -7.072  10.125  1.00  0.00     0.191 C 
BRANCH  29  30
ATOM     30  O   UNL     1      -9.199  -7.136   9.991  1.00  0.00    -0.394 OA
ATOM     31  H   UNL     1      -9.449  -6.408   9.363  1.00  0.00     0.210 HD
ENDBRANCH  29  30
ENDBRANCH  21  29
ENDBRANCH   1  17
TORSDOF 13
ENDMDL
MODEL 9
REMARK VINA RESULT:    -1.405      2.717      5.824
REMARK INTER + INTRA:          -3.167
REMARK INTER:                  -1.800
REMARK INTRA:                  -1.368
REMARK UNBOUND:                -1.023
REMARK SMILES OC[C@@H]1O[C@@](CO)(O[C@H]2O[C@H](CO)[C@@H](O)[C@H](O)[C@@H]2O)[C@@H](O)[C@@H]1O
REMARK SMILES IDX 8 1 9 2 11 3 14 4 10 5 16 6 18 7 12 8 13 9 15 11 17 13 19 15
REMARK SMILES IDX 5 17 20 18 4 19 22 20 3 21 6 22 7 23 21 25 23 27 2 29 1 30
REMARK H PARENT 13 10 15 12 17 14 19 16 7 24 21 26 23 28 1 31
REMARK Flexibility Score: inf
ROOT
ATOM      1  O   UNL     1      -5.770  -7.827   8.316  1.00  0.00    -0.313 OA
ENDROOT
BRANCH   1   2
ATOM      2  C   UNL     1      -6.969  -7.066   8.418  1.00  0.00     0.285 C 
ATOM      3  C   UNL     1      -7.903  -8.126   6.535  1.00  0.00     0.178 C 
ATOM      4  C   UNL     1      -8.972  -8.875   7.363  1.00  0.00     0.177 C 
ATOM      5  O   UNL     1      -7.567  -6.887   7.142  1.00  0.00    -0.341 OA
ATOM      6  C   UNL     1      -8.470  -9.080   8.802  1.00  0.00     0.179 C 
ATOM      7  C   UNL     1      -7.940  -7.759   9.396  1.00  0.00     0.202 C 
BRANCH   3   8
ATOM      8  C   UNL     1      -8.426  -7.843   5.118  1.00  0.00     0.191 C 
BRANCH   8   9
ATOM      9  O   UNL     1      -9.824  -7.741   5.121  1.00  0.00    -0.394 OA
ATOM     10  H   UNL     1     -10.150  -8.337   5.845  1.00  0.00     0.210 HD
ENDBRANCH   8   9
ENDBRANCH   3   8
BRANCH   4  11
ATOM     11  O   UNL     1      -9.230 -10.125   6.775  1.00  0.00    -0.387 OA
ATOM     12  H   UNL     1      -8.368 -10.616   6.749  1.00  0.00     0.211 HD
ENDBRANCH   4  11
BRANCH   6  13
ATOM     13  O   UNL     1      -9.511  -9.589   9.596  1.00  0.00    -0.387 OA
ATOM     14  H   UNL     1      -9.475 -10.578   9.516  1.00  0.00     0.211 HD
ENDBRANCH   6  13
BRANCH   7  15
ATOM     15  O   UNL     1      -8.995  -6.902   9.763  1.00  0.00    -0.385 OA
ATOM     16  H   UNL     1      -9.000  -6.822  10.753  1.00  0.00     0.211 HD
ENDBRANCH   7  15
ENDBRANCH   1   2
BRANCH   1  17
ATOM     17  C   UNL     1      -4.587  -7.035   8.241  1.00  0.00     0.224 C 
ATOM     18  C   UNL     1      -3.470  -7.740   9.031  1.00  0.00     0.208 C 
ATOM     19  O   UNL     1      -4.135  -6.902   6.899  1.00  0.00    -0.337 OA
ATOM     20  C   UNL     1      -2.801  -8.578   7.974  1.00  0.00     0.180 C 
ATOM     21  C   UNL     1      -2.992  -7.717   6.719  1.00  0.00     0.179 C 
BRANCH  17  22
ATOM     22  C   UNL     1      -4.866  -5.642   8.841  1.00  0.00     0.225 C 
BRANCH  22  23
ATOM     23  O   UNL     1      -4.284  -5.527  10.112  1.00  0.00    -0.391 OA
ATOM     24  H   UNL     1      -3.861  -4.630  10.142  1.00  0.00     0.210 HD
ENDBRANCH  22  23
ENDBRANCH  17  22
BRANCH  18  25
ATOM     25  O   UNL     1      -3.941  -8.494  10.125  1.00  0.00    -0.385 OA
ATOM     26  H   UNL     1      -4.200  -9.398   9.806  1.00  0.00     0.211 HD
ENDBRANCH  18  25
BRANCH  20  27
ATOM     27  O   UNL     1      -1.452  -8.811   8.293  1.00  0.00    -0.387 OA
ATOM     28  H   UNL     1      -1.045  -7.920   8.449  1.00  0.00     0.211 HD
ENDBRANCH  20  27
BRANCH  21  29
ATOM     29  C   UNL     1      -1.787  -6.818   6.400  1.00  0.00     0.191 C 
BRANCH  29  30
ATOM     30  O   UNL     1      -0.780  -7.579   5.792  1.00  0.00    -0.394 OA
ATOM     31  H   UNL     1      -0.062  -6.939   5.546  1.00  0.00     0.210 HD
ENDBRANCH  29  30
ENDBRANCH  21  29
ENDBRANCH   1  17
TORSDOF 13
ENDMDL
