MODEL 1
REMARK VINA RESULT:    -6.776      0.000      0.000
REMARK INTER + INTRA:         -10.713
REMARK INTER:                  -9.153
REMARK INTRA:                  -1.560
REMARK UNBOUND:                -1.560
REMARK SMILES CC[C@H](CC[C@H](C)[C@H]1CC[C@@H]2[C@@H]3CC(=O)C4=CC(=O)CC[C@]4(C)[C@H]3CC[C@]21C)C(C)C
REMARK SMILES IDX 4 1 3 2 2 3 1 4 29 5 30 6 31 7 5 8 6 9 7 10 8 11 9 12 27 13
REMARK SMILES IDX 10 14 11 15 26 16 28 17 12 18 25 19 24 20 13 21 22 22 14 23
REMARK SMILES IDX 16 24 21 25 23 26 15 27 17 28 20 29 18 30 19 31
REMARK H PARENT
REMARK Flexibility Score: inf
ROOT
ATOM      1  C   UNL     1      30.302  30.807  31.111  1.00  0.00     0.004 C 
ENDROOT
BRANCH   1   2
ATOM      2  C   UNL     1      30.532  31.519  29.744  1.00  0.00    -0.009 C 
BRANCH   2   3
ATOM      3  C   UNL     1      31.952  32.153  29.639  1.00  0.00     0.000 C 
ATOM      4  C   UNL     1      32.004  33.642  29.995  1.00  0.00     0.004 C 
ENDBRANCH   2   3
BRANCH   2   5
ATOM      5  C   UNL     1      30.193  30.566  28.544  1.00  0.00    -0.014 C 
ATOM      6  C   UNL     1      31.149  30.757  27.350  1.00  0.00     0.007 C 
ATOM      7  C   UNL     1      28.746  30.762  28.045  1.00  0.00     0.007 C 
ENDBRANCH   2   5
ENDBRANCH   1   2
BRANCH   1   8
ATOM      8  C   UNL     1      29.773  31.735  32.225  1.00  0.00     0.004 C 
BRANCH   8   9
ATOM      9  C   UNL     1      28.327  32.243  31.946  1.00  0.00    -0.011 C 
ATOM     10  C   UNL     1      27.837  33.115  33.125  1.00  0.00     0.008 C 
BRANCH   9  11
ATOM     11  C   UNL     1      27.377  31.042  31.586  1.00  0.00    -0.002 C 
ATOM     12  C   UNL     1      27.116  30.086  32.788  1.00  0.00     0.005 C 
ATOM     13  C   UNL     1      25.947  31.338  30.999  1.00  0.00    -0.026 C 
ATOM     14  C   UNL     1      25.607  30.094  33.076  1.00  0.00     0.005 C 
ATOM     15  C   UNL     1      25.075  31.264  32.262  1.00  0.00    -0.001 C 
ATOM     16  C   UNL     1      25.707  32.708  30.265  1.00  0.00     0.007 C 
ATOM     17  C   UNL     1      25.634  30.171  30.003  1.00  0.00     0.012 C 
ATOM     18  C   UNL     1      23.540  31.437  32.054  1.00  0.00     0.004 C 
ATOM     19  C   UNL     1      24.342  33.381  30.602  1.00  0.00     0.005 C 
ATOM     20  C   UNL     1      23.216  32.335  30.817  1.00  0.00     0.003 C 
ATOM     21  C   UNL     1      22.711  30.151  31.991  1.00  0.00     0.085 C 
ATOM     22  C   UNL     1      21.743  32.881  30.866  1.00  0.00    -0.000 C 
ATOM     23  C   UNL     1      21.249  30.480  31.844  1.00  0.00     0.159 C 
ATOM     24  C   UNL     1      20.789  31.693  31.097  1.00  0.00     0.005 C 
ATOM     25  C   UNL     1      21.394  33.558  29.501  1.00  0.00     0.020 C 
ATOM     26  C   UNL     1      21.549  33.914  32.007  1.00  0.00     0.017 C 
ATOM     27  O   UNL     1      20.407  29.664  32.309  1.00  0.00    -0.295 OA
ATOM     28  C   UNL     1      19.517  31.739  30.658  1.00  0.00     0.055 C 
ATOM     29  C   UNL     1      19.914  33.946  29.372  1.00  0.00     0.081 C 
ATOM     30  C   UNL     1      19.012  32.840  29.824  1.00  0.00     0.156 C 
ATOM     31  O   UNL     1      17.794  32.862  29.503  1.00  0.00    -0.295 OA
ENDBRANCH   9  11
ENDBRANCH   8   9
ENDBRANCH   1   8
TORSDOF 6
ENDMDL
MODEL 2
REMARK VINA RESULT:    -6.700      4.012      6.679
REMARK INTER + INTRA:         -10.610
REMARK INTER:                  -9.019
REMARK INTRA:                  -1.591
REMARK UNBOUND:                -1.560
REMARK SMILES CC[C@H](CC[C@H](C)[C@H]1CC[C@@H]2[C@@H]3CC(=O)C4=CC(=O)CC[C@]4(C)[C@H]3CC[C@]21C)C(C)C
REMARK SMILES IDX 4 1 3 2 2 3 1 4 29 5 30 6 31 7 5 8 6 9 7 10 8 11 9 12 27 13
REMARK SMILES IDX 10 14 11 15 26 16 28 17 12 18 25 19 24 20 13 21 22 22 14 23
REMARK SMILES IDX 16 24 21 25 23 26 15 27 17 28 20 29 18 30 19 31
REMARK H PARENT
REMARK Flexibility Score: inf
ROOT
ATOM      1  C   UNL     1      24.449  30.037  31.645  1.00  0.00     0.004 C 
ENDROOT
BRANCH   1   2
ATOM      2  C   UNL     1      25.604  29.745  30.640  1.00  0.00    -0.009 C 
BRANCH   2   3
ATOM      3  C   UNL     1      25.084  29.528  29.188  1.00  0.00     0.000 C 
ATOM      4  C   UNL     1      24.770  28.070  28.842  1.00  0.00     0.004 C 
ENDBRANCH   2   3
BRANCH   2   5
ATOM      5  C   UNL     1      26.729  30.836  30.736  1.00  0.00    -0.014 C 
ATOM      6  C   UNL     1      27.646  30.847  29.496  1.00  0.00     0.007 C 
ATOM      7  C   UNL     1      27.607  30.648  31.990  1.00  0.00     0.007 C 
ENDBRANCH   2   5
ENDBRANCH   1   2
BRANCH   1   8
ATOM      8  C   UNL     1      23.950  31.497  31.626  1.00  0.00     0.004 C 
BRANCH   8   9
ATOM      9  C   UNL     1      22.707  31.694  30.707  1.00  0.00    -0.011 C 
ATOM     10  C   UNL     1      22.694  33.130  30.136  1.00  0.00     0.008 C 
BRANCH   9  11
ATOM     11  C   UNL     1      21.389  31.280  31.460  1.00  0.00    -0.002 C 
ATOM     12  C   UNL     1      20.306  32.400  31.457  1.00  0.00     0.005 C 
ATOM     13  C   UNL     1      20.617  29.984  31.011  1.00  0.00    -0.026 C 
ATOM     14  C   UNL     1      19.064  31.852  30.738  1.00  0.00     0.005 C 
ATOM     15  C   UNL     1      19.548  30.571  30.075  1.00  0.00    -0.001 C 
ATOM     16  C   UNL     1      21.418  28.856  30.262  1.00  0.00     0.007 C 
ATOM     17  C   UNL     1      19.988  29.378  32.310  1.00  0.00     0.012 C 
ATOM     18  C   UNL     1      18.520  29.562  29.481  1.00  0.00     0.004 C 
ATOM     19  C   UNL     1      20.654  28.220  29.063  1.00  0.00     0.005 C 
ATOM     20  C   UNL     1      19.127  28.131  29.328  1.00  0.00     0.003 C 
ATOM     21  C   UNL     1      17.163  29.476  30.187  1.00  0.00     0.085 C 
ATOM     22  C   UNL     1      18.287  27.247  28.336  1.00  0.00    -0.000 C 
ATOM     23  C   UNL     1      16.262  28.506  29.469  1.00  0.00     0.159 C 
ATOM     24  C   UNL     1      16.808  27.302  28.766  1.00  0.00     0.005 C 
ATOM     25  C   UNL     1      18.785  25.767  28.410  1.00  0.00     0.020 C 
ATOM     26  C   UNL     1      18.407  27.749  26.873  1.00  0.00     0.017 C 
ATOM     27  O   UNL     1      15.017  28.694  29.533  1.00  0.00    -0.295 OA
ATOM     28  C   UNL     1      15.974  26.282  28.488  1.00  0.00     0.055 C 
ATOM     29  C   UNL     1      17.899  24.785  27.630  1.00  0.00     0.081 C 
ATOM     30  C   UNL     1      16.446  25.019  27.899  1.00  0.00     0.156 C 
ATOM     31  O   UNL     1      15.607  24.129  27.598  1.00  0.00    -0.295 OA
ENDBRANCH   9  11
ENDBRANCH   8   9
ENDBRANCH   1   8
TORSDOF 6
ENDMDL
MODEL 3
REMARK VINA RESULT:    -6.646      2.131      4.540
REMARK INTER + INTRA:         -10.537
REMARK INTER:                  -9.160
REMARK INTRA:                  -1.377
REMARK UNBOUND:                -1.560
REMARK SMILES CC[C@H](CC[C@H](C)[C@H]1CC[C@@H]2[C@@H]3CC(=O)C4=CC(=O)CC[C@]4(C)[C@H]3CC[C@]21C)C(C)C
REMARK SMILES IDX 4 1 3 2 2 3 1 4 29 5 30 6 31 7 5 8 6 9 7 10 8 11 9 12 27 13
REMARK SMILES IDX 10 14 11 15 26 16 28 17 12 18 25 19 24 20 13 21 22 22 14 23
REMARK SMILES IDX 16 24 21 25 23 26 15 27 17 28 20 29 18 30 19 31
REMARK H PARENT
REMARK Flexibility Score: inf
ROOT
ATOM      1  C   UNL     1      27.517  30.758  30.838  1.00  0.00     0.004 C 
ENDROOT
BRANCH   1   2
ATOM      2  C   UNL     1      28.353  32.009  31.244  1.00  0.00    -0.009 C 
BRANCH   2   3
ATOM      3  C   UNL     1      27.802  32.698  32.528  1.00  0.00     0.000 C 
ATOM      4  C   UNL     1      27.292  34.125  32.307  1.00  0.00     0.004 C 
ENDBRANCH   2   3
BRANCH   2   5
ATOM      5  C   UNL     1      29.882  31.663  31.338  1.00  0.00    -0.014 C 
ATOM      6  C   UNL     1      30.306  30.583  30.323  1.00  0.00     0.007 C 
ATOM      7  C   UNL     1      30.278  31.187  32.751  1.00  0.00     0.007 C 
ENDBRANCH   2   5
ENDBRANCH   1   2
BRANCH   1   8
ATOM      8  C   UNL     1      26.482  30.320  31.896  1.00  0.00     0.004 C 
BRANCH   8   9
ATOM      9  C   UNL     1      25.088  30.005  31.277  1.00  0.00    -0.011 C 
ATOM     10  C   UNL     1      25.210  29.869  29.742  1.00  0.00     0.008 C 
BRANCH   9  11
ATOM     11  C   UNL     1      24.019  31.057  31.754  1.00  0.00    -0.002 C 
ATOM     12  C   UNL     1      24.154  32.434  31.038  1.00  0.00     0.005 C 
ATOM     13  C   UNL     1      22.488  30.705  31.648  1.00  0.00    -0.026 C 
ATOM     14  C   UNL     1      22.843  32.701  30.283  1.00  0.00     0.005 C 
ATOM     15  C   UNL     1      22.112  31.367  30.313  1.00  0.00    -0.001 C 
ATOM     16  C   UNL     1      22.068  29.189  31.627  1.00  0.00     0.007 C 
ATOM     17  C   UNL     1      21.794  31.404  32.864  1.00  0.00     0.012 C 
ATOM     18  C   UNL     1      20.611  31.289  29.901  1.00  0.00     0.004 C 
ATOM     19  C   UNL     1      20.939  28.855  30.605  1.00  0.00     0.005 C 
ATOM     20  C   UNL     1      19.915  30.013  30.471  1.00  0.00     0.003 C 
ATOM     21  C   UNL     1      19.757  32.524  30.201  1.00  0.00     0.085 C 
ATOM     22  C   UNL     1      18.578  29.691  29.709  1.00  0.00    -0.000 C 
ATOM     23  C   UNL     1      18.352  32.321  29.698  1.00  0.00     0.159 C 
ATOM     24  C   UNL     1      17.714  30.967  29.678  1.00  0.00     0.005 C 
ATOM     25  C   UNL     1      17.803  28.567  30.471  1.00  0.00     0.020 C 
ATOM     26  C   UNL     1      18.843  29.225  28.253  1.00  0.00     0.017 C 
ATOM     27  O   UNL     1      17.692  33.339  29.354  1.00  0.00    -0.295 OA
ATOM     28  C   UNL     1      16.372  30.885  29.602  1.00  0.00     0.055 C 
ATOM     29  C   UNL     1      16.391  28.319  29.921  1.00  0.00     0.081 C 
ATOM     30  C   UNL     1      15.657  29.602  29.687  1.00  0.00     0.156 C 
ATOM     31  O   UNL     1      14.406  29.583  29.539  1.00  0.00    -0.295 OA
ENDBRANCH   9  11
ENDBRANCH   8   9
ENDBRANCH   1   8
TORSDOF 6
ENDMDL
MODEL 4
REMARK VINA RESULT:    -6.589      4.647     10.186
REMARK INTER + INTRA:         -10.460
REMARK INTER:                  -8.949
REMARK INTRA:                  -1.512
REMARK UNBOUND:                -1.560
REMARK SMILES CC[C@H](CC[C@H](C)[C@H]1CC[C@@H]2[C@@H]3CC(=O)C4=CC(=O)CC[C@]4(C)[C@H]3CC[C@]21C)C(C)C
REMARK SMILES IDX 4 1 3 2 2 3 1 4 29 5 30 6 31 7 5 8 6 9 7 10 8 11 9 12 27 13
REMARK SMILES IDX 10 14 11 15 26 16 28 17 12 18 25 19 24 20 13 21 22 22 14 23
REMARK SMILES IDX 16 24 21 25 23 26 15 27 17 28 20 29 18 30 19 31
REMARK H PARENT
REMARK Flexibility Score: inf
ROOT
ATOM      1  C   UNL     1      15.447  26.167  30.096  1.00  0.00     0.004 C 
ENDROOT
BRANCH   1   2
ATOM      2  C   UNL     1      15.694  25.881  28.584  1.00  0.00    -0.009 C 
BRANCH   2   3
ATOM      3  C   UNL     1      17.205  25.691  28.257  1.00  0.00     0.000 C 
ATOM      4  C   UNL     1      17.816  26.822  27.425  1.00  0.00     0.004 C 
ENDBRANCH   2   3
BRANCH   2   5
ATOM      5  C   UNL     1      14.800  24.693  28.078  1.00  0.00    -0.014 C 
ATOM      6  C   UNL     1      14.596  23.608  29.154  1.00  0.00     0.007 C 
ATOM      7  C   UNL     1      15.389  24.027  26.818  1.00  0.00     0.007 C 
ENDBRANCH   2   5
ENDBRANCH   1   2
BRANCH   1   8
ATOM      8  C   UNL     1      15.365  27.667  30.449  1.00  0.00     0.004 C 
BRANCH   8   9
ATOM      9  C   UNL     1      16.704  28.224  31.017  1.00  0.00    -0.011 C 
ATOM     10  C   UNL     1      16.560  28.504  32.530  1.00  0.00     0.008 C 
BRANCH   9  11
ATOM     11  C   UNL     1      17.197  29.455  30.170  1.00  0.00    -0.002 C 
ATOM     12  C   UNL     1      16.744  30.824  30.762  1.00  0.00     0.005 C 
ATOM     13  C   UNL     1      18.735  29.635  29.891  1.00  0.00    -0.026 C 
ATOM     14  C   UNL     1      18.008  31.628  31.106  1.00  0.00     0.005 C 
ATOM     15  C   UNL     1      19.138  30.614  31.005  1.00  0.00    -0.001 C 
ATOM     16  C   UNL     1      19.659  28.363  29.942  1.00  0.00     0.007 C 
ATOM     17  C   UNL     1      18.849  30.285  28.472  1.00  0.00     0.012 C 
ATOM     18  C   UNL     1      20.620  31.095  31.001  1.00  0.00     0.004 C 
ATOM     19  C   UNL     1      21.029  28.598  30.646  1.00  0.00     0.005 C 
ATOM     20  C   UNL     1      21.579  30.026  30.387  1.00  0.00     0.003 C 
ATOM     21  C   UNL     1      20.892  32.461  30.364  1.00  0.00     0.085 C 
ATOM     22  C   UNL     1      23.076  30.291  30.786  1.00  0.00    -0.000 C 
ATOM     23  C   UNL     1      22.352  32.811  30.486  1.00  0.00     0.159 C 
ATOM     24  C   UNL     1      23.416  31.759  30.460  1.00  0.00     0.005 C 
ATOM     25  C   UNL     1      24.010  29.354  29.953  1.00  0.00     0.020 C 
ATOM     26  C   UNL     1      23.323  30.039  32.297  1.00  0.00     0.017 C 
ATOM     27  O   UNL     1      22.667  34.032  30.539  1.00  0.00    -0.295 OA
ATOM     28  C   UNL     1      24.681  32.123  30.177  1.00  0.00     0.055 C 
ATOM     29  C   UNL     1      25.502  29.673  30.120  1.00  0.00     0.081 C 
ATOM     30  C   UNL     1      25.766  31.143  30.024  1.00  0.00     0.156 C 
ATOM     31  O   UNL     1      26.942  31.551  29.829  1.00  0.00    -0.295 OA
ENDBRANCH   9  11
ENDBRANCH   8   9
ENDBRANCH   1   8
TORSDOF 6
ENDMDL
MODEL 5
REMARK VINA RESULT:    -6.348      6.095     11.122
REMARK INTER + INTRA:         -10.135
REMARK INTER:                  -9.073
REMARK INTRA:                  -1.062
REMARK UNBOUND:                -1.560
REMARK SMILES CC[C@H](CC[C@H](C)[C@H]1CC[C@@H]2[C@@H]3CC(=O)C4=CC(=O)CC[C@]4(C)[C@H]3CC[C@]21C)C(C)C
REMARK SMILES IDX 4 1 3 2 2 3 1 4 29 5 30 6 31 7 5 8 6 9 7 10 8 11 9 12 27 13
REMARK SMILES IDX 10 14 11 15 26 16 28 17 12 18 25 19 24 20 13 21 22 22 14 23
REMARK SMILES IDX 16 24 21 25 23 26 15 27 17 28 20 29 18 30 19 31
REMARK H PARENT
REMARK Flexibility Score: inf
ROOT
ATOM      1  C   UNL     1      15.469  24.716  27.570  1.00  0.00     0.004 C 
ENDROOT
BRANCH   1   2
ATOM      2  C   UNL     1      15.336  23.178  27.780  1.00  0.00    -0.009 C 
BRANCH   2   3
ATOM      3  C   UNL     1      14.153  22.810  28.725  1.00  0.00     0.000 C 
ATOM      4  C   UNL     1      14.583  22.272  30.093  1.00  0.00     0.004 C 
ENDBRANCH   2   3
BRANCH   2   5
ATOM      5  C   UNL     1      15.287  22.419  26.406  1.00  0.00    -0.014 C 
ATOM      6  C   UNL     1      14.697  21.001  26.537  1.00  0.00     0.007 C 
ATOM      7  C   UNL     1      16.683  22.309  25.760  1.00  0.00     0.007 C 
ENDBRANCH   2   5
ENDBRANCH   1   2
BRANCH   1   8
ATOM      8  C   UNL     1      16.850  25.289  27.955  1.00  0.00     0.004 C 
BRANCH   8   9
ATOM      9  C   UNL     1      16.772  26.294  29.142  1.00  0.00    -0.011 C 
ATOM     10  C   UNL     1      15.423  26.137  29.880  1.00  0.00     0.008 C 
BRANCH   9  11
ATOM     11  C   UNL     1      17.081  27.757  28.653  1.00  0.00    -0.002 C 
ATOM     12  C   UNL     1      16.220  28.837  29.374  1.00  0.00     0.005 C 
ATOM     13  C   UNL     1      18.554  28.305  28.737  1.00  0.00    -0.026 C 
ATOM     14  C   UNL     1      17.177  29.785  30.113  1.00  0.00     0.005 C 
ATOM     15  C   UNL     1      18.521  29.073  30.068  1.00  0.00    -0.001 C 
ATOM     16  C   UNL     1      19.738  27.271  28.749  1.00  0.00     0.007 C 
ATOM     17  C   UNL     1      18.733  29.264  27.513  1.00  0.00     0.012 C 
ATOM     18  C   UNL     1      19.822  29.835  30.460  1.00  0.00     0.004 C 
ATOM     19  C   UNL     1      20.878  27.618  29.753  1.00  0.00     0.005 C 
ATOM     20  C   UNL     1      21.098  29.149  29.876  1.00  0.00     0.003 C 
ATOM     21  C   UNL     1      19.853  31.335  30.150  1.00  0.00     0.085 C 
ATOM     22  C   UNL     1      22.402  29.619  30.619  1.00  0.00    -0.000 C 
ATOM     23  C   UNL     1      21.144  31.940  30.634  1.00  0.00     0.159 C 
ATOM     24  C   UNL     1      22.422  31.160  30.641  1.00  0.00     0.005 C 
ATOM     25  C   UNL     1      23.657  29.103  29.843  1.00  0.00     0.020 C 
ATOM     26  C   UNL     1      22.456  29.092  32.077  1.00  0.00     0.017 C 
ATOM     27  O   UNL     1      21.141  33.156  30.971  1.00  0.00    -0.295 OA
ATOM     28  C   UNL     1      23.589  31.830  30.698  1.00  0.00     0.055 C 
ATOM     29  C   UNL     1      24.980  29.675  30.372  1.00  0.00     0.081 C 
ATOM     30  C   UNL     1      24.891  31.152  30.600  1.00  0.00     0.156 C 
ATOM     31  O   UNL     1      25.947  31.825  30.730  1.00  0.00    -0.295 OA
ENDBRANCH   9  11
ENDBRANCH   8   9
ENDBRANCH   1   8
TORSDOF 6
ENDMDL
MODEL 6
REMARK VINA RESULT:    -6.338      1.840      3.964
REMARK INTER + INTRA:         -10.122
REMARK INTER:                  -9.185
REMARK INTRA:                  -0.936
REMARK UNBOUND:                -1.560
REMARK SMILES CC[C@H](CC[C@H](C)[C@H]1CC[C@@H]2[C@@H]3CC(=O)C4=CC(=O)CC[C@]4(C)[C@H]3CC[C@]21C)C(C)C
REMARK SMILES IDX 4 1 3 2 2 3 1 4 29 5 30 6 31 7 5 8 6 9 7 10 8 11 9 12 27 13
REMARK SMILES IDX 10 14 11 15 26 16 28 17 12 18 25 19 24 20 13 21 22 22 14 23
REMARK SMILES IDX 16 24 21 25 23 26 15 27 17 28 20 29 18 30 19 31
REMARK H PARENT
REMARK Flexibility Score: inf
ROOT
ATOM      1  C   UNL     1      28.048  30.848  30.533  1.00  0.00     0.004 C 
ENDROOT
BRANCH   1   2
ATOM      2  C   UNL     1      29.469  31.347  30.931  1.00  0.00    -0.009 C 
BRANCH   2   3
ATOM      3  C   UNL     1      29.918  30.806  32.322  1.00  0.00     0.000 C 
ATOM      4  C   UNL     1      30.786  31.779  33.125  1.00  0.00     0.004 C 
ENDBRANCH   2   3
BRANCH   2   5
ATOM      5  C   UNL     1      30.512  31.058  29.793  1.00  0.00    -0.014 C 
ATOM      6  C   UNL     1      31.474  32.240  29.561  1.00  0.00     0.007 C 
ATOM      7  C   UNL     1      29.823  30.720  28.454  1.00  0.00     0.007 C 
ENDBRANCH   2   5
ENDBRANCH   1   2
BRANCH   1   8
ATOM      8  C   UNL     1      27.035  30.830  31.697  1.00  0.00     0.004 C 
BRANCH   8   9
ATOM      9  C   UNL     1      25.604  30.421  31.241  1.00  0.00    -0.011 C 
ATOM     10  C   UNL     1      25.601  30.109  29.727  1.00  0.00     0.008 C 
BRANCH   9  11
ATOM     11  C   UNL     1      24.549  31.500  31.686  1.00  0.00    -0.002 C 
ATOM     12  C   UNL     1      24.658  32.830  30.880  1.00  0.00     0.005 C 
ATOM     13  C   UNL     1      23.016  31.143  31.651  1.00  0.00    -0.026 C 
ATOM     14  C   UNL     1      23.323  33.050  30.152  1.00  0.00     0.005 C 
ATOM     15  C   UNL     1      22.596  31.720  30.290  1.00  0.00    -0.001 C 
ATOM     16  C   UNL     1      22.598  29.630  31.739  1.00  0.00     0.007 C 
ATOM     17  C   UNL     1      22.361  31.918  32.843  1.00  0.00     0.012 C 
ATOM     18  C   UNL     1      21.083  31.617  29.933  1.00  0.00     0.004 C 
ATOM     19  C   UNL     1      21.437  29.232  30.778  1.00  0.00     0.005 C 
ATOM     20  C   UNL     1      20.407  30.380  30.605  1.00  0.00     0.003 C 
ATOM     21  C   UNL     1      20.236  32.869  30.182  1.00  0.00     0.085 C 
ATOM     22  C   UNL     1      19.047  30.011  29.908  1.00  0.00    -0.000 C 
ATOM     23  C   UNL     1      18.816  32.635  29.739  1.00  0.00     0.159 C 
ATOM     24  C   UNL     1      18.180  31.283  29.826  1.00  0.00     0.005 C 
ATOM     25  C   UNL     1      18.299  28.938  30.764  1.00  0.00     0.020 C 
ATOM     26  C   UNL     1      19.265  29.454  28.477  1.00  0.00     0.017 C 
ATOM     27  O   UNL     1      18.143  33.630  29.353  1.00  0.00    -0.295 OA
ATOM     28  C   UNL     1      16.837  31.196  29.799  1.00  0.00     0.055 C 
ATOM     29  C   UNL     1      16.870  28.656  30.278  1.00  0.00     0.081 C 
ATOM     30  C   UNL     1      16.126  29.922  29.987  1.00  0.00     0.156 C 
ATOM     31  O   UNL     1      14.872  29.895  29.881  1.00  0.00    -0.295 OA
ENDBRANCH   9  11
ENDBRANCH   8   9
ENDBRANCH   1   8
TORSDOF 6
ENDMDL
MODEL 7
REMARK VINA RESULT:    -6.233      3.440      5.951
REMARK INTER + INTRA:          -9.980
REMARK INTER:                  -8.992
REMARK INTRA:                  -0.988
REMARK UNBOUND:                -1.560
REMARK SMILES CC[C@H](CC[C@H](C)[C@H]1CC[C@@H]2[C@@H]3CC(=O)C4=CC(=O)CC[C@]4(C)[C@H]3CC[C@]21C)C(C)C
REMARK SMILES IDX 4 1 3 2 2 3 1 4 29 5 30 6 31 7 5 8 6 9 7 10 8 11 9 12 27 13
REMARK SMILES IDX 10 14 11 15 26 16 28 17 12 18 25 19 24 20 13 21 22 22 14 23
REMARK SMILES IDX 16 24 21 25 23 26 15 27 17 28 20 29 18 30 19 31
REMARK H PARENT
REMARK Flexibility Score: inf
ROOT
ATOM      1  C   UNL     1      25.170  29.687  30.020  1.00  0.00     0.004 C 
ENDROOT
BRANCH   1   2
ATOM      2  C   UNL     1      24.403  28.495  29.373  1.00  0.00    -0.009 C 
BRANCH   2   3
ATOM      3  C   UNL     1      22.930  28.862  29.019  1.00  0.00     0.000 C 
ATOM      4  C   UNL     1      21.959  27.679  29.064  1.00  0.00     0.004 C 
ENDBRANCH   2   3
BRANCH   2   5
ATOM      5  C   UNL     1      25.199  27.900  28.158  1.00  0.00    -0.014 C 
ATOM      6  C   UNL     1      26.427  28.753  27.782  1.00  0.00     0.007 C 
ATOM      7  C   UNL     1      24.310  27.748  26.907  1.00  0.00     0.007 C 
ENDBRANCH   2   5
ENDBRANCH   1   2
BRANCH   1   8
ATOM      8  C   UNL     1      24.377  31.010  30.044  1.00  0.00     0.004 C 
BRANCH   8   9
ATOM      9  C   UNL     1      24.237  31.600  31.479  1.00  0.00    -0.011 C 
ATOM     10  C   UNL     1      24.271  30.461  32.523  1.00  0.00     0.008 C 
BRANCH   9  11
ATOM     11  C   UNL     1      22.974  32.534  31.574  1.00  0.00    -0.002 C 
ATOM     12  C   UNL     1      22.899  33.580  30.422  1.00  0.00     0.005 C 
ATOM     13  C   UNL     1      21.538  31.890  31.618  1.00  0.00    -0.026 C 
ATOM     14  C   UNL     1      21.603  33.323  29.638  1.00  0.00     0.005 C 
ATOM     15  C   UNL     1      21.121  31.971  30.141  1.00  0.00    -0.001 C 
ATOM     16  C   UNL     1      21.396  30.411  32.132  1.00  0.00     0.007 C 
ATOM     17  C   UNL     1      20.668  32.825  32.523  1.00  0.00     0.012 C 
ATOM     18  C   UNL     1      19.681  31.479  29.802  1.00  0.00     0.004 C 
ATOM     19  C   UNL     1      20.400  29.542  31.306  1.00  0.00     0.005 C 
ATOM     20  C   UNL     1      19.194  30.372  30.791  1.00  0.00     0.003 C 
ATOM     21  C   UNL     1      18.606  32.561  29.665  1.00  0.00     0.085 C 
ATOM     22  C   UNL     1      17.978  29.566  30.206  1.00  0.00    -0.000 C 
ATOM     23  C   UNL     1      17.288  31.940  29.282  1.00  0.00     0.159 C 
ATOM     24  C   UNL     1      16.903  30.570  29.745  1.00  0.00     0.005 C 
ATOM     25  C   UNL     1      17.376  28.651  31.322  1.00  0.00     0.020 C 
ATOM     26  C   UNL     1      18.397  28.684  29.001  1.00  0.00     0.017 C 
ATOM     27  O   UNL     1      16.475  32.636  28.614  1.00  0.00    -0.295 OA
ATOM     28  C   UNL     1      15.603  30.219  29.720  1.00  0.00     0.055 C 
ATOM     29  C   UNL     1      16.062  27.972  30.913  1.00  0.00     0.081 C 
ATOM     30  C   UNL     1      15.124  28.936  30.256  1.00  0.00     0.156 C 
ATOM     31  O   UNL     1      13.906  28.636  30.141  1.00  0.00    -0.295 OA
ENDBRANCH   9  11
ENDBRANCH   8   9
ENDBRANCH   1   8
TORSDOF 6
ENDMDL
MODEL 8
REMARK VINA RESULT:    -6.228      3.545      5.416
REMARK INTER + INTRA:          -9.973
REMARK INTER:                  -8.898
REMARK INTRA:                  -1.075
REMARK UNBOUND:                -1.560
REMARK SMILES CC[C@H](CC[C@H](C)[C@H]1CC[C@@H]2[C@@H]3CC(=O)C4=CC(=O)CC[C@]4(C)[C@H]3CC[C@]21C)C(C)C
REMARK SMILES IDX 4 1 3 2 2 3 1 4 29 5 30 6 31 7 5 8 6 9 7 10 8 11 9 12 27 13
REMARK SMILES IDX 10 14 11 15 26 16 28 17 12 18 25 19 24 20 13 21 22 22 14 23
REMARK SMILES IDX 16 24 21 25 23 26 15 27 17 28 20 29 18 30 19 31
REMARK H PARENT
REMARK Flexibility Score: inf
ROOT
ATOM      1  C   UNL     1      26.892  31.619  30.295  1.00  0.00     0.004 C 
ENDROOT
BRANCH   1   2
ATOM      2  C   UNL     1      28.271  31.157  30.855  1.00  0.00    -0.009 C 
BRANCH   2   3
ATOM      3  C   UNL     1      29.271  30.775  29.724  1.00  0.00     0.000 C 
ATOM      4  C   UNL     1      28.647  30.709  28.327  1.00  0.00     0.004 C 
ENDBRANCH   2   3
BRANCH   2   5
ATOM      5  C   UNL     1      28.855  32.209  31.865  1.00  0.00    -0.014 C 
ATOM      6  C   UNL     1      27.947  33.446  32.019  1.00  0.00     0.007 C 
ATOM      7  C   UNL     1      30.262  32.685  31.449  1.00  0.00     0.007 C 
ENDBRANCH   2   5
ENDBRANCH   1   2
BRANCH   1   8
ATOM      8  C   UNL     1      25.720  30.678  30.645  1.00  0.00     0.004 C 
BRANCH   8   9
ATOM      9  C   UNL     1      24.333  31.287  30.284  1.00  0.00    -0.011 C 
ATOM     10  C   UNL     1      24.455  32.820  30.126  1.00  0.00     0.008 C 
BRANCH   9  11
ATOM     11  C   UNL     1      23.237  30.823  31.313  1.00  0.00    -0.002 C 
ATOM     12  C   UNL     1      22.336  31.991  31.814  1.00  0.00     0.005 C 
ATOM     13  C   UNL     1      22.225  29.689  30.904  1.00  0.00    -0.026 C 
ATOM     14  C   UNL     1      20.887  31.672  31.412  1.00  0.00     0.005 C 
ATOM     15  C   UNL     1      21.015  30.512  30.435  1.00  0.00    -0.001 C 
ATOM     16  C   UNL     1      22.649  28.677  29.778  1.00  0.00     0.007 C 
ATOM     17  C   UNL     1      21.915  28.888  32.213  1.00  0.00     0.012 C 
ATOM     18  C   UNL     1      19.750  29.704  30.013  1.00  0.00     0.004 C 
ATOM     19  C   UNL     1      21.512  28.332  28.770  1.00  0.00     0.005 C 
ATOM     20  C   UNL     1      20.120  28.293  29.454  1.00  0.00     0.003 C 
ATOM     21  C   UNL     1      18.644  29.572  31.063  1.00  0.00     0.085 C 
ATOM     22  C   UNL     1      18.939  27.671  28.623  1.00  0.00    -0.000 C 
ATOM     23  C   UNL     1      17.471  28.818  30.493  1.00  0.00     0.159 C 
ATOM     24  C   UNL     1      17.655  27.738  29.473  1.00  0.00     0.005 C 
ATOM     25  C   UNL     1      19.261  26.175  28.302  1.00  0.00     0.020 C 
ATOM     26  C   UNL     1      18.706  28.435  27.293  1.00  0.00     0.017 C 
ATOM     27  O   UNL     1      16.323  29.070  30.951  1.00  0.00    -0.295 OA
ATOM     28  C   UNL     1      16.664  26.846  29.289  1.00  0.00     0.055 C 
ATOM     29  C   UNL     1      18.085  25.420  27.667  1.00  0.00     0.081 C 
ATOM     30  C   UNL     1      16.801  25.692  28.388  1.00  0.00     0.156 C 
ATOM     31  O   UNL     1      15.814  24.931  28.205  1.00  0.00    -0.295 OA
ENDBRANCH   9  11
ENDBRANCH   8   9
ENDBRANCH   1   8
TORSDOF 6
ENDMDL
MODEL 9
REMARK VINA RESULT:    -6.151      4.366      9.885
REMARK INTER + INTRA:          -9.869
REMARK INTER:                  -8.645
REMARK INTRA:                  -1.224
REMARK UNBOUND:                -1.560
REMARK SMILES CC[C@H](CC[C@H](C)[C@H]1CC[C@@H]2[C@@H]3CC(=O)C4=CC(=O)CC[C@]4(C)[C@H]3CC[C@]21C)C(C)C
REMARK SMILES IDX 4 1 3 2 2 3 1 4 29 5 30 6 31 7 5 8 6 9 7 10 8 11 9 12 27 13
REMARK SMILES IDX 10 14 11 15 26 16 28 17 12 18 25 19 24 20 13 21 22 22 14 23
REMARK SMILES IDX 16 24 21 25 23 26 15 27 17 28 20 29 18 30 19 31
REMARK H PARENT
REMARK Flexibility Score: inf
ROOT
ATOM      1  C   UNL     1      15.422  30.471  31.559  1.00  0.00     0.004 C 
ENDROOT
BRANCH   1   2
ATOM      2  C   UNL     1      15.776  28.954  31.551  1.00  0.00    -0.009 C 
BRANCH   2   3
ATOM      3  C   UNL     1      15.216  28.209  32.800  1.00  0.00     0.000 C 
ATOM      4  C   UNL     1      15.116  26.690  32.635  1.00  0.00     0.004 C 
ENDBRANCH   2   3
BRANCH   2   5
ATOM      5  C   UNL     1      15.361  28.281  30.195  1.00  0.00    -0.014 C 
ATOM      6  C   UNL     1      16.568  28.025  29.270  1.00  0.00     0.007 C 
ATOM      7  C   UNL     1      14.328  29.128  29.425  1.00  0.00     0.007 C 
ENDBRANCH   2   5
ENDBRANCH   1   2
BRANCH   1   8
ATOM      8  C   UNL     1      16.612  31.396  31.892  1.00  0.00     0.004 C 
BRANCH   8   9
ATOM      9  C   UNL     1      16.560  32.743  31.112  1.00  0.00    -0.011 C 
ATOM     10  C   UNL     1      15.792  32.556  29.784  1.00  0.00     0.008 C 
BRANCH   9  11
ATOM     11  C   UNL     1      18.005  33.346  30.950  1.00  0.00    -0.002 C 
ATOM     12  C   UNL     1      18.621  33.827  32.297  1.00  0.00     0.005 C 
ATOM     13  C   UNL     1      19.135  32.474  30.286  1.00  0.00    -0.026 C 
ATOM     14  C   UNL     1      19.903  33.015  32.544  1.00  0.00     0.005 C 
ATOM     15  C   UNL     1      19.838  31.890  31.523  1.00  0.00    -0.001 C 
ATOM     16  C   UNL     1      18.712  31.312  29.315  1.00  0.00     0.007 C 
ATOM     17  C   UNL     1      20.056  33.472  29.508  1.00  0.00     0.012 C 
ATOM     18  C   UNL     1      21.093  31.007  31.251  1.00  0.00     0.004 C 
ATOM     19  C   UNL     1      19.534  30.000  29.495  1.00  0.00     0.005 C 
ATOM     20  C   UNL     1      21.013  30.287  29.868  1.00  0.00     0.003 C 
ATOM     21  C   UNL     1      22.454  31.694  31.400  1.00  0.00     0.085 C 
ATOM     22  C   UNL     1      22.012  29.076  29.785  1.00  0.00    -0.000 C 
ATOM     23  C   UNL     1      23.565  30.705  31.164  1.00  0.00     0.159 C 
ATOM     24  C   UNL     1      23.412  29.568  30.202  1.00  0.00     0.005 C 
ATOM     25  C   UNL     1      22.073  28.552  28.313  1.00  0.00     0.020 C 
ATOM     26  C   UNL     1      21.586  27.913  30.719  1.00  0.00     0.017 C 
ATOM     27  O   UNL     1      24.667  30.899  31.747  1.00  0.00    -0.295 OA
ATOM     28  C   UNL     1      24.519  28.964  29.732  1.00  0.00     0.055 C 
ATOM     29  C   UNL     1      23.169  27.502  28.083  1.00  0.00     0.081 C 
ATOM     30  C   UNL     1      24.467  27.913  28.704  1.00  0.00     0.156 C 
ATOM     31  O   UNL     1      25.531  27.336  28.357  1.00  0.00    -0.295 OA
ENDBRANCH   9  11
ENDBRANCH   8   9
ENDBRANCH   1   8
TORSDOF 6
ENDMDL
