MODEL 1
REMARK VINA RESULT:    -2.691      0.000      0.000
REMARK INTER + INTRA:          -3.181
REMARK INTER:                  -3.163
REMARK INTRA:                  -0.018
REMARK UNBOUND:                -0.018
REMARK SMILES CCCCC(=O)[O-]
REMARK SMILES IDX 4 1 5 2 6 3 7 4 3 5 2 6 1 7
REMARK H PARENT
REMARK Flexibility Score: inf
ROOT
ATOM      1  C   UNL     1      55.701  28.372  50.957  1.00  0.00     0.053 C 
ENDROOT
BRANCH   1   2
ATOM      2  C   UNL     1      54.739  27.452  50.269  1.00  0.00     0.041 C 
ATOM      3  O   UNL     1      53.572  27.841  49.999  1.00  0.00    -0.550 OA
ATOM      4  O   UNL     1      55.139  26.174  49.897  1.00  0.00    -0.550 OA
ENDBRANCH   1   2
BRANCH   1   5
ATOM      5  C   UNL     1      57.169  28.004  50.681  1.00  0.00     0.006 C 
BRANCH   5   6
ATOM      6  C   UNL     1      58.114  29.217  50.617  1.00  0.00    -0.003 C 
ATOM      7  C   UNL     1      59.222  29.063  49.575  1.00  0.00     0.004 C 
ENDBRANCH   5   6
ENDBRANCH   1   5
TORSDOF 3
ENDMDL
MODEL 2
REMARK VINA RESULT:    -2.690      2.846      4.030
REMARK INTER + INTRA:          -3.179
REMARK INTER:                  -3.150
REMARK INTRA:                  -0.029
REMARK UNBOUND:                -0.018
REMARK SMILES CCCCC(=O)[O-]
REMARK SMILES IDX 4 1 5 2 6 3 7 4 3 5 2 6 1 7
REMARK H PARENT
REMARK Flexibility Score: inf
ROOT
ATOM      1  C   UNL     1      57.154  27.964  50.712  1.00  0.00     0.053 C 
ENDROOT
BRANCH   1   2
ATOM      2  C   UNL     1      58.199  29.037  50.661  1.00  0.00     0.041 C 
ATOM      3  O   UNL     1      58.498  29.681  51.701  1.00  0.00    -0.550 OA
ATOM      4  O   UNL     1      58.867  29.306  49.472  1.00  0.00    -0.550 OA
ENDBRANCH   1   2
BRANCH   1   5
ATOM      5  C   UNL     1      55.727  28.532  50.770  1.00  0.00     0.006 C 
BRANCH   5   6
ATOM      6  C   UNL     1      54.637  27.521  50.370  1.00  0.00    -0.003 C 
ATOM      7  C   UNL     1      55.196  26.148  49.998  1.00  0.00     0.004 C 
ENDBRANCH   5   6
ENDBRANCH   1   5
TORSDOF 3
ENDMDL
MODEL 3
REMARK VINA RESULT:    -2.668     12.595     13.102
REMARK INTER + INTRA:          -3.154
REMARK INTER:                  -3.132
REMARK INTRA:                  -0.022
REMARK UNBOUND:                -0.018
REMARK SMILES CCCCC(=O)[O-]
REMARK SMILES IDX 4 1 5 2 6 3 7 4 3 5 2 6 1 7
REMARK H PARENT
REMARK Flexibility Score: inf
ROOT
ATOM      1  C   UNL     1      62.400  31.686  60.465  1.00  0.00     0.053 C 
ENDROOT
BRANCH   1   2
ATOM      2  C   UNL     1      61.706  30.695  61.350  1.00  0.00     0.041 C 
ATOM      3  O   UNL     1      62.289  29.631  61.689  1.00  0.00    -0.550 OA
ATOM      4  O   UNL     1      60.429  30.961  61.830  1.00  0.00    -0.550 OA
ENDBRANCH   1   2
BRANCH   1   5
ATOM      5  C   UNL     1      61.724  33.067  60.483  1.00  0.00     0.006 C 
BRANCH   5   6
ATOM      6  C   UNL     1      62.714  34.245  60.540  1.00  0.00    -0.003 C 
ATOM      7  C   UNL     1      62.040  35.585  60.828  1.00  0.00     0.004 C 
ENDBRANCH   5   6
ENDBRANCH   1   5
TORSDOF 3
ENDMDL
MODEL 4
REMARK VINA RESULT:    -2.661     12.567     12.972
REMARK INTER + INTRA:          -3.146
REMARK INTER:                  -3.092
REMARK INTRA:                  -0.054
REMARK UNBOUND:                -0.018
REMARK SMILES CCCCC(=O)[O-]
REMARK SMILES IDX 4 1 5 2 6 3 7 4 3 5 2 6 1 7
REMARK H PARENT
REMARK Flexibility Score: inf
ROOT
ATOM      1  C   UNL     1      62.267  31.756  60.470  1.00  0.00     0.053 C 
ENDROOT
BRANCH   1   2
ATOM      2  C   UNL     1      61.614  30.739  61.357  1.00  0.00     0.041 C 
ATOM      3  O   UNL     1      60.457  30.943  61.810  1.00  0.00    -0.550 OA
ATOM      4  O   UNL     1      62.269  29.551  61.657  1.00  0.00    -0.550 OA
ENDBRANCH   1   2
BRANCH   1   5
ATOM      5  C   UNL     1      61.481  33.076  60.409  1.00  0.00     0.006 C 
BRANCH   5   6
ATOM      6  C   UNL     1      62.363  34.333  60.520  1.00  0.00    -0.003 C 
ATOM      7  C   UNL     1      63.814  34.019  60.883  1.00  0.00     0.004 C 
ENDBRANCH   5   6
ENDBRANCH   1   5
TORSDOF 3
ENDMDL
MODEL 5
REMARK VINA RESULT:    -2.653     14.658     15.492
REMARK INTER + INTRA:          -3.137
REMARK INTER:                  -3.109
REMARK INTRA:                  -0.028
REMARK UNBOUND:                -0.018
REMARK SMILES CCCCC(=O)[O-]
REMARK SMILES IDX 4 1 5 2 6 3 7 4 3 5 2 6 1 7
REMARK H PARENT
REMARK Flexibility Score: inf
ROOT
ATOM      1  C   UNL     1      63.827  34.874  61.211  1.00  0.00     0.053 C 
ENDROOT
BRANCH   1   2
ATOM      2  C   UNL     1      64.818  35.925  61.608  1.00  0.00     0.041 C 
ATOM      3  O   UNL     1      65.990  35.897  61.149  1.00  0.00    -0.550 OA
ATOM      4  O   UNL     1      64.440  36.956  62.460  1.00  0.00    -0.550 OA
ENDBRANCH   1   2
BRANCH   1   5
ATOM      5  C   UNL     1      62.453  35.464  60.851  1.00  0.00     0.006 C 
BRANCH   5   6
ATOM      6  C   UNL     1      61.413  34.410  60.430  1.00  0.00    -0.003 C 
ATOM      7  C   UNL     1      61.982  32.994  60.368  1.00  0.00     0.004 C 
ENDBRANCH   5   6
ENDBRANCH   1   5
TORSDOF 3
ENDMDL
MODEL 6
REMARK VINA RESULT:    -2.635      1.736      2.634
REMARK INTER + INTRA:          -3.115
REMARK INTER:                  -3.090
REMARK INTRA:                  -0.025
REMARK UNBOUND:                -0.018
REMARK SMILES CCCCC(=O)[O-]
REMARK SMILES IDX 4 1 5 2 6 3 7 4 3 5 2 6 1 7
REMARK H PARENT
REMARK Flexibility Score: inf
ROOT
ATOM      1  C   UNL     1      54.995  26.314  50.008  1.00  0.00     0.053 C 
ENDROOT
BRANCH   1   2
ATOM      2  C   UNL     1      53.794  25.464  49.724  1.00  0.00     0.041 C 
ATOM      3  O   UNL     1      53.594  24.408  50.381  1.00  0.00    -0.550 OA
ATOM      4  O   UNL     1      52.876  25.852  48.756  1.00  0.00    -0.550 OA
ENDBRANCH   1   2
BRANCH   1   5
ATOM      5  C   UNL     1      54.620  27.756  50.388  1.00  0.00     0.006 C 
BRANCH   5   6
ATOM      6  C   UNL     1      55.788  28.568  50.978  1.00  0.00    -0.003 C 
ATOM      7  C   UNL     1      57.157  27.958  50.679  1.00  0.00     0.004 C 
ENDBRANCH   5   6
ENDBRANCH   1   5
TORSDOF 3
ENDMDL
MODEL 7
REMARK VINA RESULT:    -2.626      2.975      4.045
REMARK INTER + INTRA:          -3.105
REMARK INTER:                  -3.053
REMARK INTRA:                  -0.052
REMARK UNBOUND:                -0.018
REMARK SMILES CCCCC(=O)[O-]
REMARK SMILES IDX 4 1 5 2 6 3 7 4 3 5 2 6 1 7
REMARK H PARENT
REMARK Flexibility Score: inf
ROOT
ATOM      1  C   UNL     1      57.934  27.727  50.755  1.00  0.00     0.053 C 
ENDROOT
BRANCH   1   2
ATOM      2  C   UNL     1      59.009  28.332  49.904  1.00  0.00     0.041 C 
ATOM      3  O   UNL     1      58.919  29.530  49.526  1.00  0.00    -0.550 OA
ATOM      4  O   UNL     1      60.128  27.585  49.555  1.00  0.00    -0.550 OA
ENDBRANCH   1   2
BRANCH   1   5
ATOM      5  C   UNL     1      56.666  28.596  50.809  1.00  0.00     0.006 C 
BRANCH   5   6
ATOM      6  C   UNL     1      55.357  27.794  50.695  1.00  0.00    -0.003 C 
ATOM      7  C   UNL     1      55.567  26.364  50.198  1.00  0.00     0.004 C 
ENDBRANCH   5   6
ENDBRANCH   1   5
TORSDOF 3
ENDMDL
MODEL 8
REMARK VINA RESULT:    -2.598     13.130     13.852
REMARK INTER + INTRA:          -3.071
REMARK INTER:                  -3.055
REMARK INTRA:                  -0.016
REMARK UNBOUND:                -0.018
REMARK SMILES CCCCC(=O)[O-]
REMARK SMILES IDX 4 1 5 2 6 3 7 4 3 5 2 6 1 7
REMARK H PARENT
REMARK Flexibility Score: inf
ROOT
ATOM      1  C   UNL     1      61.868  34.094  60.105  1.00  0.00     0.053 C 
ENDROOT
BRANCH   1   2
ATOM      2  C   UNL     1      62.606  35.107  60.928  1.00  0.00     0.041 C 
ATOM      3  O   UNL     1      62.057  36.198  61.232  1.00  0.00    -0.550 OA
ATOM      4  O   UNL     1      63.889  34.833  61.387  1.00  0.00    -0.550 OA
ENDBRANCH   1   2
BRANCH   1   5
ATOM      5  C   UNL     1      62.162  32.650  60.544  1.00  0.00     0.006 C 
BRANCH   5   6
ATOM      6  C   UNL     1      60.969  31.693  60.374  1.00  0.00    -0.003 C 
ATOM      7  C   UNL     1      60.730  30.806  61.596  1.00  0.00     0.004 C 
ENDBRANCH   5   6
ENDBRANCH   1   5
TORSDOF 3
ENDMDL
MODEL 9
REMARK VINA RESULT:    -2.540      3.782      4.853
REMARK INTER + INTRA:          -3.003
REMARK INTER:                  -2.963
REMARK INTRA:                  -0.040
REMARK UNBOUND:                -0.018
REMARK SMILES CCCCC(=O)[O-]
REMARK SMILES IDX 4 1 5 2 6 3 7 4 3 5 2 6 1 7
REMARK H PARENT
REMARK Flexibility Score: inf
ROOT
ATOM      1  C   UNL     1      59.373  26.657  49.997  1.00  0.00     0.053 C 
ENDROOT
BRANCH   1   2
ATOM      2  C   UNL     1      60.414  25.668  50.428  1.00  0.00     0.041 C 
ATOM      3  O   UNL     1      60.082  24.493  50.737  1.00  0.00    -0.550 OA
ATOM      4  O   UNL     1      61.755  26.032  50.456  1.00  0.00    -0.550 OA
ENDBRANCH   1   2
BRANCH   1   5
ATOM      5  C   UNL     1      59.982  27.996  49.549  1.00  0.00     0.006 C 
BRANCH   5   6
ATOM      6  C   UNL     1      59.046  29.203  49.747  1.00  0.00    -0.003 C 
ATOM      7  C   UNL     1      57.821  28.881  50.601  1.00  0.00     0.004 C 
ENDBRANCH   5   6
ENDBRANCH   1   5
TORSDOF 3
ENDMDL
