MODEL 1
REMARK VINA RESULT:    -3.337      0.000      0.000
REMARK INTER + INTRA:          -5.369
REMARK INTER:                  -4.897
REMARK INTRA:                  -0.472
REMARK UNBOUND:                -0.472
REMARK SMILES O=C([O-])CCCCCCCC(=O)[O-]
REMARK SMILES IDX 7 1 6 2 5 3 4 4 2 5 1 6 3 7 8 8 9 9 10 10 11 11 12 12 13 13
REMARK H PARENT
REMARK Flexibility Score: inf
ROOT
ATOM      1  C   UNL     1     -96.027 147.681 241.091  1.00  0.00     0.000 C 
ENDROOT
BRANCH   1   2
ATOM      2  C   UNL     1     -95.089 147.886 239.892  1.00  0.00     0.000 C 
BRANCH   2   3
ATOM      3  C   UNL     1     -93.628 147.517 240.208  1.00  0.00     0.006 C 
BRANCH   3   4
ATOM      4  C   UNL     1     -93.255 146.064 239.873  1.00  0.00     0.053 C 
BRANCH   4   5
ATOM      5  C   UNL     1     -92.522 145.398 240.996  1.00  0.00     0.041 C 
ATOM      6  O   UNL     1     -91.289 145.164 240.896  1.00  0.00    -0.550 OA
ATOM      7  O   UNL     1     -93.194 145.067 242.166  1.00  0.00    -0.550 OA
ENDBRANCH   4   5
ENDBRANCH   3   4
ENDBRANCH   2   3
ENDBRANCH   1   2
BRANCH   1   8
ATOM      8  C   UNL     1     -95.363 148.144 242.393  1.00  0.00     0.000 C 
BRANCH   8   9
ATOM      9  C   UNL     1     -96.233 149.179 243.117  1.00  0.00     0.006 C 
BRANCH   9  10
ATOM     10  C   UNL     1     -97.558 148.561 243.572  1.00  0.00     0.053 C 
BRANCH  10  11
ATOM     11  C   UNL     1     -97.408 147.932 244.921  1.00  0.00     0.041 C 
ATOM     12  O   UNL     1     -97.425 148.645 245.958  1.00  0.00    -0.550 OA
ATOM     13  O   UNL     1     -97.300 146.552 245.036  1.00  0.00    -0.550 OA
ENDBRANCH  10  11
ENDBRANCH   9  10
ENDBRANCH   8   9
ENDBRANCH   1   8
TORSDOF 8
ENDMDL
MODEL 2
REMARK VINA RESULT:    -3.305      1.221      1.888
REMARK INTER + INTRA:          -5.323
REMARK INTER:                  -4.875
REMARK INTRA:                  -0.447
REMARK UNBOUND:                -0.472
REMARK SMILES O=C([O-])CCCCCCCC(=O)[O-]
REMARK SMILES IDX 7 1 6 2 5 3 4 4 2 5 1 6 3 7 8 8 9 9 10 10 11 11 12 12 13 13
REMARK H PARENT
REMARK Flexibility Score: inf
ROOT
ATOM      1  C   UNL     1     -95.728 147.841 242.057  1.00  0.00     0.000 C 
ENDROOT
BRANCH   1   2
ATOM      2  C   UNL     1     -95.352 146.530 242.763  1.00  0.00     0.000 C 
BRANCH   2   3
ATOM      3  C   UNL     1     -93.882 146.131 242.538  1.00  0.00     0.006 C 
BRANCH   3   4
ATOM      4  C   UNL     1     -93.225 146.797 241.319  1.00  0.00     0.053 C 
BRANCH   4   5
ATOM      5  C   UNL     1     -92.476 145.813 240.475  1.00  0.00     0.041 C 
ATOM      6  O   UNL     1     -91.503 145.176 240.958  1.00  0.00    -0.550 OA
ATOM      7  O   UNL     1     -92.873 145.575 239.165  1.00  0.00    -0.550 OA
ENDBRANCH   4   5
ENDBRANCH   3   4
ENDBRANCH   2   3
ENDBRANCH   1   2
BRANCH   1   8
ATOM      8  C   UNL     1     -95.902 148.980 243.069  1.00  0.00     0.000 C 
BRANCH   8   9
ATOM      9  C   UNL     1     -97.350 149.483 243.089  1.00  0.00     0.006 C 
BRANCH   9  10
ATOM     10  C   UNL     1     -98.260 148.510 243.845  1.00  0.00     0.053 C 
BRANCH  10  11
ATOM     11  C   UNL     1     -97.753 148.289 245.234  1.00  0.00     0.041 C 
ATOM     12  O   UNL     1     -97.362 147.147 245.593  1.00  0.00    -0.550 OA
ATOM     13  O   UNL     1     -97.662 149.357 246.119  1.00  0.00    -0.550 OA
ENDBRANCH  10  11
ENDBRANCH   9  10
ENDBRANCH   8   9
ENDBRANCH   1   8
TORSDOF 8
ENDMDL
MODEL 3
REMARK VINA RESULT:    -3.279      2.632      3.353
REMARK INTER + INTRA:          -5.284
REMARK INTER:                  -4.503
REMARK INTRA:                  -0.781
REMARK UNBOUND:                -0.472
REMARK SMILES O=C([O-])CCCCCCCC(=O)[O-]
REMARK SMILES IDX 7 1 6 2 5 3 4 4 2 5 1 6 3 7 8 8 9 9 10 10 11 11 12 12 13 13
REMARK H PARENT
REMARK Flexibility Score: inf
ROOT
ATOM      1  C   UNL     1     -93.630 147.328 242.135  1.00  0.00     0.000 C 
ENDROOT
BRANCH   1   2
ATOM      2  C   UNL     1     -92.886 146.878 240.869  1.00  0.00     0.000 C 
BRANCH   2   3
ATOM      3  C   UNL     1     -93.802 146.803 239.633  1.00  0.00     0.006 C 
BRANCH   3   4
ATOM      4  C   UNL     1     -94.458 148.139 239.249  1.00  0.00     0.053 C 
BRANCH   4   5
ATOM      5  C   UNL     1     -95.939 148.008 239.072  1.00  0.00     0.041 C 
ATOM      6  O   UNL     1     -96.611 148.974 238.626  1.00  0.00    -0.550 OA
ATOM      7  O   UNL     1     -96.572 146.807 239.368  1.00  0.00    -0.550 OA
ENDBRANCH   4   5
ENDBRANCH   3   4
ENDBRANCH   2   3
ENDBRANCH   1   2
BRANCH   1   8
ATOM      8  C   UNL     1     -94.671 146.285 242.560  1.00  0.00     0.000 C 
BRANCH   8   9
ATOM      9  C   UNL     1     -96.017 146.947 242.875  1.00  0.00     0.006 C 
BRANCH   9  10
ATOM     10  C   UNL     1     -95.930 148.469 242.724  1.00  0.00     0.053 C 
BRANCH  10  11
ATOM     11  C   UNL     1     -97.049 149.134 243.461  1.00  0.00     0.041 C 
ATOM     12  O   UNL     1     -97.827 149.918 242.857  1.00  0.00    -0.550 OA
ATOM     13  O   UNL     1     -97.264 148.849 244.804  1.00  0.00    -0.550 OA
ENDBRANCH  10  11
ENDBRANCH   9  10
ENDBRANCH   8   9
ENDBRANCH   1   8
TORSDOF 8
ENDMDL
MODEL 4
REMARK VINA RESULT:    -3.265      2.211      3.366
REMARK INTER + INTRA:          -5.264
REMARK INTER:                  -4.993
REMARK INTRA:                  -0.271
REMARK UNBOUND:                -0.472
REMARK SMILES O=C([O-])CCCCCCCC(=O)[O-]
REMARK SMILES IDX 7 1 6 2 5 3 4 4 2 5 1 6 3 7 8 8 9 9 10 10 11 11 12 12 13 13
REMARK H PARENT
REMARK Flexibility Score: inf
ROOT
ATOM      1  C   UNL     1     -96.941 148.122 243.660  1.00  0.00     0.000 C 
ENDROOT
BRANCH   1   2
ATOM      2  C   UNL     1     -95.860 148.817 242.820  1.00  0.00     0.000 C 
BRANCH   2   3
ATOM      3  C   UNL     1     -95.235 147.889 241.762  1.00  0.00     0.006 C 
BRANCH   3   4
ATOM      4  C   UNL     1     -93.819 147.402 242.105  1.00  0.00     0.053 C 
BRANCH   4   5
ATOM      5  C   UNL     1     -93.786 145.936 242.409  1.00  0.00     0.041 C 
ATOM      6  O   UNL     1     -94.656 145.425 243.163  1.00  0.00    -0.550 OA
ATOM      7  O   UNL     1     -92.814 145.127 241.833  1.00  0.00    -0.550 OA
ENDBRANCH   4   5
ENDBRANCH   3   4
ENDBRANCH   2   3
ENDBRANCH   1   2
BRANCH   1   8
ATOM      8  C   UNL     1     -97.789 149.148 244.422  1.00  0.00     0.000 C 
BRANCH   8   9
ATOM      9  C   UNL     1     -97.641 148.969 245.937  1.00  0.00     0.006 C 
BRANCH   9  10
ATOM     10  C   UNL     1     -98.705 149.770 246.692  1.00  0.00     0.053 C 
BRANCH  10  11
ATOM     11  C   UNL     1     -98.065 150.682 247.690  1.00  0.00     0.041 C 
ATOM     12  O   UNL     1     -96.957 150.380 248.206  1.00  0.00    -0.550 OA
ATOM     13  O   UNL     1     -98.666 151.893 248.012  1.00  0.00    -0.550 OA
ENDBRANCH  10  11
ENDBRANCH   9  10
ENDBRANCH   8   9
ENDBRANCH   1   8
TORSDOF 8
ENDMDL
MODEL 5
REMARK VINA RESULT:    -3.255      1.207      6.103
REMARK INTER + INTRA:          -5.249
REMARK INTER:                  -4.808
REMARK INTRA:                  -0.442
REMARK UNBOUND:                -0.472
REMARK SMILES O=C([O-])CCCCCCCC(=O)[O-]
REMARK SMILES IDX 7 1 6 2 5 3 4 4 2 5 1 6 3 7 8 8 9 9 10 10 11 11 12 12 13 13
REMARK H PARENT
REMARK Flexibility Score: inf
ROOT
ATOM      1  C   UNL     1     -96.106 147.567 242.265  1.00  0.00     0.000 C 
ENDROOT
BRANCH   1   2
ATOM      2  C   UNL     1     -96.007 148.952 242.921  1.00  0.00     0.000 C 
BRANCH   2   3
ATOM      3  C   UNL     1     -97.380 149.627 243.103  1.00  0.00     0.006 C 
BRANCH   3   4
ATOM      4  C   UNL     1     -98.366 148.830 243.970  1.00  0.00     0.053 C 
BRANCH   4   5
ATOM      5  C   UNL     1     -97.809 148.533 245.328  1.00  0.00     0.041 C 
ATOM      6  O   UNL     1     -97.715 149.446 246.188  1.00  0.00    -0.550 OA
ATOM      7  O   UNL     1     -97.424 147.237 245.654  1.00  0.00    -0.550 OA
ENDBRANCH   4   5
ENDBRANCH   3   4
ENDBRANCH   2   3
ENDBRANCH   1   2
BRANCH   1   8
ATOM      8  C   UNL     1     -94.905 146.692 242.646  1.00  0.00     0.000 C 
BRANCH   8   9
ATOM      9  C   UNL     1     -93.609 147.244 242.041  1.00  0.00     0.006 C 
BRANCH   9  10
ATOM     10  C   UNL     1     -93.576 147.033 240.524  1.00  0.00     0.053 C 
BRANCH  10  11
ATOM     11  C   UNL     1     -92.714 145.862 240.176  1.00  0.00     0.041 C 
ATOM     12  O   UNL     1     -92.049 145.276 241.071  1.00  0.00    -0.550 OA
ATOM     13  O   UNL     1     -92.683 145.384 238.872  1.00  0.00    -0.550 OA
ENDBRANCH  10  11
ENDBRANCH   9  10
ENDBRANCH   8   9
ENDBRANCH   1   8
TORSDOF 8
ENDMDL
MODEL 6
REMARK VINA RESULT:    -3.240      1.755      6.839
REMARK INTER + INTRA:          -5.227
REMARK INTER:                  -5.065
REMARK INTRA:                  -0.163
REMARK UNBOUND:                -0.472
REMARK SMILES O=C([O-])CCCCCCCC(=O)[O-]
REMARK SMILES IDX 7 1 6 2 5 3 4 4 2 5 1 6 3 7 8 8 9 9 10 10 11 11 12 12 13 13
REMARK H PARENT
REMARK Flexibility Score: inf
ROOT
ATOM      1  C   UNL     1     -96.251 147.963 242.745  1.00  0.00     0.000 C 
ENDROOT
BRANCH   1   2
ATOM      2  C   UNL     1     -96.843 149.168 243.490  1.00  0.00     0.000 C 
BRANCH   2   3
ATOM      3  C   UNL     1     -98.041 148.789 244.381  1.00  0.00     0.006 C 
BRANCH   3   4
ATOM      4  C   UNL     1     -97.671 148.471 245.838  1.00  0.00     0.053 C 
BRANCH   4   5
ATOM      5  C   UNL     1     -98.211 149.492 246.791  1.00  0.00     0.041 C 
ATOM      6  O   UNL     1     -99.453 149.670 246.892  1.00  0.00    -0.550 OA
ATOM      7  O   UNL     1     -97.344 150.223 247.593  1.00  0.00    -0.550 OA
ENDBRANCH   4   5
ENDBRANCH   3   4
ENDBRANCH   2   3
ENDBRANCH   1   2
BRANCH   1   8
ATOM      8  C   UNL     1     -94.835 148.270 242.243  1.00  0.00     0.000 C 
BRANCH   8   9
ATOM      9  C   UNL     1     -94.006 146.987 242.115  1.00  0.00     0.006 C 
BRANCH   9  10
ATOM     10  C   UNL     1     -92.953 147.120 241.010  1.00  0.00     0.053 C 
BRANCH  10  11
ATOM     11  C   UNL     1     -92.540 145.771 240.514  1.00  0.00     0.041 C 
ATOM     12  O   UNL     1     -92.018 144.938 241.301  1.00  0.00    -0.550 OA
ATOM     13  O   UNL     1     -92.778 145.413 239.193  1.00  0.00    -0.550 OA
ENDBRANCH  10  11
ENDBRANCH   9  10
ENDBRANCH   8   9
ENDBRANCH   1   8
TORSDOF 8
ENDMDL
MODEL 7
REMARK VINA RESULT:    -3.223      2.816      5.524
REMARK INTER + INTRA:          -5.203
REMARK INTER:                  -4.510
REMARK INTRA:                  -0.693
REMARK UNBOUND:                -0.472
REMARK SMILES O=C([O-])CCCCCCCC(=O)[O-]
REMARK SMILES IDX 7 1 6 2 5 3 4 4 2 5 1 6 3 7 8 8 9 9 10 10 11 11 12 12 13 13
REMARK H PARENT
REMARK Flexibility Score: inf
ROOT
ATOM      1  C   UNL     1     -93.286 147.161 241.196  1.00  0.00     0.000 C 
ENDROOT
BRANCH   1   2
ATOM      2  C   UNL     1     -94.005 146.498 242.380  1.00  0.00     0.000 C 
BRANCH   2   3
ATOM      3  C   UNL     1     -95.434 147.033 242.586  1.00  0.00     0.006 C 
BRANCH   3   4
ATOM      4  C   UNL     1     -95.533 148.565 242.644  1.00  0.00     0.053 C 
BRANCH   4   5
ATOM      5  C   UNL     1     -96.799 149.022 243.302  1.00  0.00     0.041 C 
ATOM      6  O   UNL     1     -97.608 149.757 242.678  1.00  0.00    -0.550 OA
ATOM      7  O   UNL     1     -97.100 148.609 244.594  1.00  0.00    -0.550 OA
ENDBRANCH   4   5
ENDBRANCH   3   4
ENDBRANCH   2   3
ENDBRANCH   1   2
BRANCH   1   8
ATOM      8  C   UNL     1     -93.260 146.230 239.977  1.00  0.00     0.000 C 
BRANCH   8   9
ATOM      9  C   UNL     1     -94.062 146.824 238.814  1.00  0.00     0.006 C 
BRANCH   9  10
ATOM     10  C   UNL     1     -94.530 148.246 239.138  1.00  0.00     0.053 C 
BRANCH  10  11
ATOM     11  C   UNL     1     -95.971 148.419 238.776  1.00  0.00     0.041 C 
ATOM     12  O   UNL     1     -96.867 147.840 239.445  1.00  0.00    -0.550 OA
ATOM     13  O   UNL     1     -96.329 149.261 237.730  1.00  0.00    -0.550 OA
ENDBRANCH  10  11
ENDBRANCH   9  10
ENDBRANCH   8   9
ENDBRANCH   1   8
TORSDOF 8
ENDMDL
MODEL 8
REMARK VINA RESULT:    -3.204      1.891      6.052
REMARK INTER + INTRA:          -5.174
REMARK INTER:                  -4.679
REMARK INTRA:                  -0.495
REMARK UNBOUND:                -0.472
REMARK SMILES O=C([O-])CCCCCCCC(=O)[O-]
REMARK SMILES IDX 7 1 6 2 5 3 4 4 2 5 1 6 3 7 8 8 9 9 10 10 11 11 12 12 13 13
REMARK H PARENT
REMARK Flexibility Score: inf
ROOT
ATOM      1  C   UNL     1     -95.975 146.717 242.678  1.00  0.00     0.000 C 
ENDROOT
BRANCH   1   2
ATOM      2  C   UNL     1     -96.122 148.156 242.161  1.00  0.00     0.000 C 
BRANCH   2   3
ATOM      3  C   UNL     1     -96.378 149.173 243.288  1.00  0.00     0.006 C 
BRANCH   3   4
ATOM      4  C   UNL     1     -97.781 149.090 243.908  1.00  0.00     0.053 C 
BRANCH   4   5
ATOM      5  C   UNL     1     -97.734 148.735 245.362  1.00  0.00     0.041 C 
ATOM      6  O   UNL     1     -97.418 147.570 245.720  1.00  0.00    -0.550 OA
ATOM      7  O   UNL     1     -98.006 149.701 246.324  1.00  0.00    -0.550 OA
ENDBRANCH   4   5
ENDBRANCH   3   4
ENDBRANCH   2   3
ENDBRANCH   1   2
BRANCH   1   8
ATOM      8  C   UNL     1     -94.510 146.266 242.637  1.00  0.00     0.000 C 
BRANCH   8   9
ATOM      9  C   UNL     1     -93.640 147.288 241.896  1.00  0.00     0.006 C 
BRANCH   9  10
ATOM     10  C   UNL     1     -92.886 146.629 240.737  1.00  0.00     0.053 C 
BRANCH  10  11
ATOM     11  C   UNL     1     -93.661 146.762 239.464  1.00  0.00     0.041 C 
ATOM     12  O   UNL     1     -93.748 145.788 238.671  1.00  0.00    -0.550 OA
ATOM     13  O   UNL     1     -94.331 147.945 239.178  1.00  0.00    -0.550 OA
ENDBRANCH  10  11
ENDBRANCH   9  10
ENDBRANCH   8   9
ENDBRANCH   1   8
TORSDOF 8
ENDMDL
MODEL 9
REMARK VINA RESULT:    -3.203      2.261      3.042
REMARK INTER + INTRA:          -5.172
REMARK INTER:                  -4.648
REMARK INTRA:                  -0.525
REMARK UNBOUND:                -0.472
REMARK SMILES O=C([O-])CCCCCCCC(=O)[O-]
REMARK SMILES IDX 7 1 6 2 5 3 4 4 2 5 1 6 3 7 8 8 9 9 10 10 11 11 12 12 13 13
REMARK H PARENT
REMARK Flexibility Score: inf
ROOT
ATOM      1  C   UNL     1     -93.823 145.939 242.333  1.00  0.00     0.000 C 
ENDROOT
BRANCH   1   2
ATOM      2  C   UNL     1     -92.753 145.091 241.630  1.00  0.00     0.000 C 
BRANCH   2   3
ATOM      3  C   UNL     1     -92.429 145.595 240.211  1.00  0.00     0.006 C 
BRANCH   3   4
ATOM      4  C   UNL     1     -93.510 145.282 239.166  1.00  0.00     0.053 C 
BRANCH   4   5
ATOM      5  C   UNL     1     -93.713 146.416 238.209  1.00  0.00     0.041 C 
ATOM      6  O   UNL     1     -94.304 147.463 238.583  1.00  0.00    -0.550 OA
ATOM      7  O   UNL     1     -93.219 146.330 236.913  1.00  0.00    -0.550 OA
ENDBRANCH   4   5
ENDBRANCH   3   4
ENDBRANCH   2   3
ENDBRANCH   1   2
BRANCH   1   8
ATOM      8  C   UNL     1     -93.620 147.431 242.041  1.00  0.00     0.000 C 
BRANCH   8   9
ATOM      9  C   UNL     1     -94.960 148.175 242.025  1.00  0.00     0.006 C 
BRANCH   9  10
ATOM     10  C   UNL     1     -96.010 147.435 242.859  1.00  0.00     0.053 C 
BRANCH  10  11
ATOM     11  C   UNL     1     -96.861 148.407 243.613  1.00  0.00     0.041 C 
ATOM     12  O   UNL     1     -97.277 148.123 244.767  1.00  0.00    -0.550 OA
ATOM     13  O   UNL     1     -97.154 149.649 243.062  1.00  0.00    -0.550 OA
ENDBRANCH  10  11
ENDBRANCH   9  10
ENDBRANCH   8   9
ENDBRANCH   1   8
TORSDOF 8
ENDMDL
