MODEL 1
REMARK VINA RESULT:    -4.354      0.000      0.000
REMARK INTER + INTRA:         -16.256
REMARK INTER:                 -11.481
REMARK INTRA:                  -4.775
REMARK UNBOUND:                -4.775
REMARK SMILES CCCCCCCCCCCCCCCCCCCCCCCCCCCCCC(=O)[O-]
REMARK SMILES IDX 16 1 17 2 18 3 19 4 20 5 21 6 22 7 23 8 24 9 25 10 26 11
REMARK SMILES IDX 27 12 28 13 29 14 30 15 31 16 32 17 15 18 14 19 13 20 12 21
REMARK SMILES IDX 11 22 10 23 9 24 8 25 7 26 6 27 5 28 4 29 3 30 2 31 1 32
REMARK H PARENT
REMARK Flexibility Score: inf
ROOT
ATOM      1  C   UNL     1      70.473 -38.368  10.957  1.00  0.00     0.000 C 
ENDROOT
BRANCH   1   2
ATOM      2  C   UNL     1      70.202 -38.341   9.443  1.00  0.00     0.000 C 
BRANCH   2   3
ATOM      3  C   UNL     1      69.740 -36.984   8.875  1.00  0.00     0.000 C 
BRANCH   3   4
ATOM      4  C   UNL     1      69.018 -37.051   7.513  1.00  0.00     0.000 C 
BRANCH   4   5
ATOM      5  C   UNL     1      68.237 -35.769   7.147  1.00  0.00     0.000 C 
BRANCH   5   6
ATOM      6  C   UNL     1      68.967 -34.465   7.526  1.00  0.00     0.000 C 
BRANCH   6   7
ATOM      7  C   UNL     1      69.897 -33.897   6.440  1.00  0.00     0.000 C 
BRANCH   7   8
ATOM      8  C   UNL     1      71.078 -33.102   7.022  1.00  0.00     0.000 C 
BRANCH   8   9
ATOM      9  C   UNL     1      72.435 -33.793   6.793  1.00  0.00     0.000 C 
BRANCH   9  10
ATOM     10  C   UNL     1      72.366 -35.115   6.009  1.00  0.00     0.000 C 
BRANCH  10  11
ATOM     11  C   UNL     1      72.676 -36.346   6.881  1.00  0.00     0.000 C 
BRANCH  11  12
ATOM     12  C   UNL     1      72.988 -35.974   8.340  1.00  0.00     0.000 C 
BRANCH  12  13
ATOM     13  C   UNL     1      74.200 -36.740   8.899  1.00  0.00     0.006 C 
BRANCH  13  14
ATOM     14  C   UNL     1      73.943 -37.276  10.315  1.00  0.00     0.053 C 
BRANCH  14  15
ATOM     15  C   UNL     1      75.200 -37.322  11.131  1.00  0.00     0.041 C 
ATOM     16  O   UNL     1      75.326 -38.166  12.059  1.00  0.00    -0.550 OA
ATOM     17  O   UNL     1      76.218 -36.407  10.889  1.00  0.00    -0.550 OA
ENDBRANCH  14  15
ENDBRANCH  13  14
ENDBRANCH  12  13
ENDBRANCH  11  12
ENDBRANCH  10  11
ENDBRANCH   9  10
ENDBRANCH   8   9
ENDBRANCH   7   8
ENDBRANCH   6   7
ENDBRANCH   5   6
ENDBRANCH   4   5
ENDBRANCH   3   4
ENDBRANCH   2   3
ENDBRANCH   1   2
BRANCH   1  18
ATOM     18  C   UNL     1      70.678 -39.793  11.506  1.00  0.00     0.000 C 
BRANCH  18  19
ATOM     19  C   UNL     1      70.299 -40.886  10.485  1.00  0.00     0.000 C 
BRANCH  19  20
ATOM     20  C   UNL     1      69.149 -41.809  10.940  1.00  0.00     0.000 C 
BRANCH  20  21
ATOM     21  C   UNL     1      67.902 -41.804  10.038  1.00  0.00     0.000 C 
BRANCH  21  22
ATOM     22  C   UNL     1      66.880 -40.686  10.339  1.00  0.00     0.000 C 
BRANCH  22  23
ATOM     23  C   UNL     1      67.012 -39.455   9.416  1.00  0.00     0.000 C 
BRANCH  23  24
ATOM     24  C   UNL     1      66.363 -38.196  10.013  1.00  0.00    -0.000 C 
BRANCH  24  25
ATOM     25  C   UNL     1      65.021 -37.848   9.330  1.00  0.00    -0.000 C 
BRANCH  25  26
ATOM     26  C   UNL     1      64.932 -36.383   8.860  1.00  0.00    -0.000 C 
BRANCH  26  27
ATOM     27  C   UNL     1      65.672 -35.373   9.756  1.00  0.00    -0.000 C 
BRANCH  27  28
ATOM     28  C   UNL     1      64.765 -34.525  10.673  1.00  0.00    -0.000 C 
BRANCH  28  29
ATOM     29  C   UNL     1      65.095 -34.599  12.174  1.00  0.00    -0.000 C 
BRANCH  29  30
ATOM     30  C   UNL     1      65.448 -36.018  12.646  1.00  0.00    -0.000 C 
BRANCH  30  31
ATOM     31  C   UNL     1      64.190 -36.782  13.078  1.00  0.00    -0.003 C 
ATOM     32  C   UNL     1      64.385 -38.289  12.941  1.00  0.00     0.004 C 
ENDBRANCH  30  31
ENDBRANCH  29  30
ENDBRANCH  28  29
ENDBRANCH  27  28
ENDBRANCH  26  27
ENDBRANCH  25  26
ENDBRANCH  24  25
ENDBRANCH  23  24
ENDBRANCH  22  23
ENDBRANCH  21  22
ENDBRANCH  20  21
ENDBRANCH  19  20
ENDBRANCH  18  19
ENDBRANCH   1  18
TORSDOF 28
ENDMDL
MODEL 2
REMARK VINA RESULT:    -4.295      3.215      7.894
REMARK INTER + INTRA:         -16.101
REMARK INTER:                 -11.121
REMARK INTRA:                  -4.981
REMARK UNBOUND:                -4.775
REMARK SMILES CCCCCCCCCCCCCCCCCCCCCCCCCCCCCC(=O)[O-]
REMARK SMILES IDX 16 1 17 2 18 3 19 4 20 5 21 6 22 7 23 8 24 9 25 10 26 11
REMARK SMILES IDX 27 12 28 13 29 14 30 15 31 16 32 17 15 18 14 19 13 20 12 21
REMARK SMILES IDX 11 22 10 23 9 24 8 25 7 26 6 27 5 28 4 29 3 30 2 31 1 32
REMARK H PARENT
REMARK Flexibility Score: inf
ROOT
ATOM      1  C   UNL     1      73.124 -37.127  10.493  1.00  0.00     0.000 C 
ENDROOT
BRANCH   1   2
ATOM      2  C   UNL     1      72.607 -38.033  11.624  1.00  0.00     0.000 C 
BRANCH   2   3
ATOM      3  C   UNL     1      71.086 -38.285  11.630  1.00  0.00     0.000 C 
BRANCH   3   4
ATOM      4  C   UNL     1      70.647 -39.681  11.139  1.00  0.00     0.000 C 
BRANCH   4   5
ATOM      5  C   UNL     1      69.694 -39.653   9.924  1.00  0.00     0.000 C 
BRANCH   5   6
ATOM      6  C   UNL     1      68.540 -38.639  10.059  1.00  0.00     0.000 C 
BRANCH   6   7
ATOM      7  C   UNL     1      67.318 -38.917   9.167  1.00  0.00     0.000 C 
BRANCH   7   8
ATOM      8  C   UNL     1      66.687 -40.294   9.433  1.00  0.00     0.000 C 
BRANCH   8   9
ATOM      9  C   UNL     1      66.148 -40.438  10.868  1.00  0.00     0.000 C 
BRANCH   9  10
ATOM     10  C   UNL     1      64.748 -39.842  11.099  1.00  0.00     0.000 C 
BRANCH  10  11
ATOM     11  C   UNL     1      64.538 -39.343  12.541  1.00  0.00     0.000 C 
BRANCH  11  12
ATOM     12  C   UNL     1      64.349 -37.819  12.618  1.00  0.00     0.000 C 
BRANCH  12  13
ATOM     13  C   UNL     1      65.606 -37.045  12.185  1.00  0.00     0.006 C 
BRANCH  13  14
ATOM     14  C   UNL     1      65.348 -36.167  10.951  1.00  0.00     0.053 C 
BRANCH  14  15
ATOM     15  C   UNL     1      64.739 -34.848  11.321  1.00  0.00     0.041 C 
ATOM     16  O   UNL     1      64.441 -34.012  10.427  1.00  0.00    -0.550 OA
ATOM     17  O   UNL     1      64.533 -34.531  12.659  1.00  0.00    -0.550 OA
ENDBRANCH  14  15
ENDBRANCH  13  14
ENDBRANCH  12  13
ENDBRANCH  11  12
ENDBRANCH  10  11
ENDBRANCH   9  10
ENDBRANCH   8   9
ENDBRANCH   7   8
ENDBRANCH   6   7
ENDBRANCH   5   6
ENDBRANCH   4   5
ENDBRANCH   3   4
ENDBRANCH   2   3
ENDBRANCH   1   2
BRANCH   1  18
ATOM     18  C   UNL     1      72.037 -36.778   9.459  1.00  0.00     0.000 C 
BRANCH  18  19
ATOM     19  C   UNL     1      72.543 -35.820   8.360  1.00  0.00     0.000 C 
BRANCH  19  20
ATOM     20  C   UNL     1      73.755 -36.350   7.566  1.00  0.00     0.000 C 
BRANCH  20  21
ATOM     21  C   UNL     1      73.774 -35.988   6.069  1.00  0.00     0.000 C 
BRANCH  21  22
ATOM     22  C   UNL     1      73.281 -37.101   5.121  1.00  0.00     0.000 C 
BRANCH  22  23
ATOM     23  C   UNL     1      71.747 -37.140   4.947  1.00  0.00     0.000 C 
BRANCH  23  24
ATOM     24  C   UNL     1      71.114 -38.400   5.561  1.00  0.00    -0.000 C 
BRANCH  24  25
ATOM     25  C   UNL     1      70.022 -38.060   6.600  1.00  0.00    -0.000 C 
BRANCH  25  26
ATOM     26  C   UNL     1      68.750 -37.450   5.979  1.00  0.00    -0.000 C 
BRANCH  26  27
ATOM     27  C   UNL     1      68.075 -36.362   6.834  1.00  0.00    -0.000 C 
BRANCH  27  28
ATOM     28  C   UNL     1      69.037 -35.518   7.696  1.00  0.00    -0.000 C 
BRANCH  28  29
ATOM     29  C   UNL     1      69.304 -34.093   7.180  1.00  0.00    -0.000 C 
BRANCH  29  30
ATOM     30  C   UNL     1      70.186 -34.061   5.923  1.00  0.00    -0.000 C 
BRANCH  30  31
ATOM     31  C   UNL     1      71.373 -33.106   6.108  1.00  0.00    -0.003 C 
ATOM     32  C   UNL     1      71.336 -32.440   7.481  1.00  0.00     0.004 C 
ENDBRANCH  30  31
ENDBRANCH  29  30
ENDBRANCH  28  29
ENDBRANCH  27  28
ENDBRANCH  26  27
ENDBRANCH  25  26
ENDBRANCH  24  25
ENDBRANCH  23  24
ENDBRANCH  22  23
ENDBRANCH  21  22
ENDBRANCH  20  21
ENDBRANCH  19  20
ENDBRANCH  18  19
ENDBRANCH   1  18
TORSDOF 28
ENDMDL
MODEL 3
REMARK VINA RESULT:    -4.226      3.232      7.632
REMARK INTER + INTRA:         -15.919
REMARK INTER:                 -11.352
REMARK INTRA:                  -4.568
REMARK UNBOUND:                -4.775
REMARK SMILES CCCCCCCCCCCCCCCCCCCCCCCCCCCCCC(=O)[O-]
REMARK SMILES IDX 16 1 17 2 18 3 19 4 20 5 21 6 22 7 23 8 24 9 25 10 26 11
REMARK SMILES IDX 27 12 28 13 29 14 30 15 31 16 32 17 15 18 14 19 13 20 12 21
REMARK SMILES IDX 11 22 10 23 9 24 8 25 7 26 6 27 5 28 4 29 3 30 2 31 1 32
REMARK H PARENT
REMARK Flexibility Score: inf
ROOT
ATOM      1  C   UNL     1      73.400 -35.725   6.261  1.00  0.00     0.000 C 
ENDROOT
BRANCH   1   2
ATOM      2  C   UNL     1      73.229 -36.201   7.713  1.00  0.00     0.000 C 
BRANCH   2   3
ATOM      3  C   UNL     1      74.491 -36.797   8.369  1.00  0.00     0.000 C 
BRANCH   3   4
ATOM      4  C   UNL     1      74.375 -37.087   9.881  1.00  0.00     0.000 C 
BRANCH   4   5
ATOM      5  C   UNL     1      72.930 -37.036  10.425  1.00  0.00     0.000 C 
BRANCH   5   6
ATOM      6  C   UNL     1      72.641 -38.077  11.525  1.00  0.00     0.000 C 
BRANCH   6   7
ATOM      7  C   UNL     1      71.222 -38.671  11.504  1.00  0.00     0.000 C 
BRANCH   7   8
ATOM      8  C   UNL     1      70.574 -38.619  10.110  1.00  0.00     0.000 C 
BRANCH   8   9
ATOM      9  C   UNL     1      69.354 -37.681  10.052  1.00  0.00     0.000 C 
BRANCH   9  10
ATOM     10  C   UNL     1      67.989 -38.384  10.150  1.00  0.00     0.000 C 
BRANCH  10  11
ATOM     11  C   UNL     1      66.840 -37.419  10.497  1.00  0.00     0.000 C 
BRANCH  11  12
ATOM     12  C   UNL     1      65.591 -38.148  11.019  1.00  0.00     0.000 C 
BRANCH  12  13
ATOM     13  C   UNL     1      65.028 -37.513  12.302  1.00  0.00     0.006 C 
BRANCH  13  14
ATOM     14  C   UNL     1      65.818 -36.266  12.726  1.00  0.00     0.053 C 
BRANCH  14  15
ATOM     15  C   UNL     1      64.926 -35.207  13.297  1.00  0.00     0.041 C 
ATOM     16  O   UNL     1      64.615 -35.227  14.519  1.00  0.00    -0.550 OA
ATOM     17  O   UNL     1      64.408 -34.217  12.470  1.00  0.00    -0.550 OA
ENDBRANCH  14  15
ENDBRANCH  13  14
ENDBRANCH  12  13
ENDBRANCH  11  12
ENDBRANCH  10  11
ENDBRANCH   9  10
ENDBRANCH   8   9
ENDBRANCH   7   8
ENDBRANCH   6   7
ENDBRANCH   5   6
ENDBRANCH   4   5
ENDBRANCH   3   4
ENDBRANCH   2   3
ENDBRANCH   1   2
BRANCH   1  18
ATOM     18  C   UNL     1      72.984 -34.256   6.057  1.00  0.00     0.000 C 
BRANCH  18  19
ATOM     19  C   UNL     1      72.123 -33.712   7.216  1.00  0.00     0.000 C 
BRANCH  19  20
ATOM     20  C   UNL     1      70.846 -32.972   6.766  1.00  0.00     0.000 C 
BRANCH  20  21
ATOM     21  C   UNL     1      69.523 -33.708   7.044  1.00  0.00     0.000 C 
BRANCH  21  22
ATOM     22  C   UNL     1      69.674 -35.164   7.534  1.00  0.00     0.000 C 
BRANCH  22  23
ATOM     23  C   UNL     1      69.084 -36.213   6.567  1.00  0.00     0.000 C 
BRANCH  23  24
ATOM     24  C   UNL     1      70.162 -37.117   5.945  1.00  0.00    -0.000 C 
BRANCH  24  25
ATOM     25  C   UNL     1      69.638 -38.542   5.660  1.00  0.00    -0.000 C 
BRANCH  25  26
ATOM     26  C   UNL     1      68.339 -38.883   6.416  1.00  0.00    -0.000 C 
BRANCH  26  27
ATOM     27  C   UNL     1      68.325 -40.273   7.077  1.00  0.00    -0.000 C 
BRANCH  27  28
ATOM     28  C   UNL     1      69.716 -40.897   7.316  1.00  0.00    -0.000 C 
BRANCH  28  29
ATOM     29  C   UNL     1      69.800 -41.883   8.495  1.00  0.00    -0.000 C 
BRANCH  29  30
ATOM     30  C   UNL     1      68.592 -41.799   9.440  1.00  0.00    -0.000 C 
BRANCH  30  31
ATOM     31  C   UNL     1      68.818 -42.648  10.698  1.00  0.00    -0.003 C 
ATOM     32  C   UNL     1      69.673 -41.903  11.720  1.00  0.00     0.004 C 
ENDBRANCH  30  31
ENDBRANCH  29  30
ENDBRANCH  28  29
ENDBRANCH  27  28
ENDBRANCH  26  27
ENDBRANCH  25  26
ENDBRANCH  24  25
ENDBRANCH  23  24
ENDBRANCH  22  23
ENDBRANCH  21  22
ENDBRANCH  20  21
ENDBRANCH  19  20
ENDBRANCH  18  19
ENDBRANCH   1  18
TORSDOF 28
ENDMDL
MODEL 4
REMARK VINA RESULT:    -4.203      3.514      8.207
REMARK INTER + INTRA:         -15.859
REMARK INTER:                 -11.040
REMARK INTRA:                  -4.819
REMARK UNBOUND:                -4.775
REMARK SMILES CCCCCCCCCCCCCCCCCCCCCCCCCCCCCC(=O)[O-]
REMARK SMILES IDX 16 1 17 2 18 3 19 4 20 5 21 6 22 7 23 8 24 9 25 10 26 11
REMARK SMILES IDX 27 12 28 13 29 14 30 15 31 16 32 17 15 18 14 19 13 20 12 21
REMARK SMILES IDX 11 22 10 23 9 24 8 25 7 26 6 27 5 28 4 29 3 30 2 31 1 32
REMARK H PARENT
REMARK Flexibility Score: inf
ROOT
ATOM      1  C   UNL     1      69.582 -36.094   8.027  1.00  0.00     0.000 C 
ENDROOT
BRANCH   1   2
ATOM      2  C   UNL     1      70.106 -37.200   7.096  1.00  0.00     0.000 C 
BRANCH   2   3
ATOM      3  C   UNL     1      69.662 -37.093   5.623  1.00  0.00     0.000 C 
BRANCH   3   4
ATOM      4  C   UNL     1      68.595 -38.117   5.179  1.00  0.00     0.000 C 
BRANCH   4   5
ATOM      5  C   UNL     1      67.251 -37.996   5.930  1.00  0.00     0.000 C 
BRANCH   5   6
ATOM      6  C   UNL     1      66.965 -39.168   6.890  1.00  0.00     0.000 C 
BRANCH   6   7
ATOM      7  C   UNL     1      65.939 -38.870   7.997  1.00  0.00     0.000 C 
BRANCH   7   8
ATOM      8  C   UNL     1      65.867 -37.376   8.357  1.00  0.00     0.000 C 
BRANCH   8   9
ATOM      9  C   UNL     1      66.550 -37.050   9.698  1.00  0.00     0.000 C 
BRANCH   9  10
ATOM     10  C   UNL     1      66.130 -37.947  10.875  1.00  0.00     0.000 C 
BRANCH  10  11
ATOM     11  C   UNL     1      64.667 -37.730  11.303  1.00  0.00     0.000 C 
BRANCH  11  12
ATOM     12  C   UNL     1      64.528 -37.426  12.804  1.00  0.00     0.000 C 
BRANCH  12  13
ATOM     13  C   UNL     1      65.229 -36.118  13.209  1.00  0.00     0.006 C 
BRANCH  13  14
ATOM     14  C   UNL     1      64.387 -35.290  14.192  1.00  0.00     0.053 C 
BRANCH  14  15
ATOM     15  C   UNL     1      63.602 -34.222  13.492  1.00  0.00     0.041 C 
ATOM     16  O   UNL     1      62.705 -33.586  14.107  1.00  0.00    -0.550 OA
ATOM     17  O   UNL     1      63.838 -33.956  12.148  1.00  0.00    -0.550 OA
ENDBRANCH  14  15
ENDBRANCH  13  14
ENDBRANCH  12  13
ENDBRANCH  11  12
ENDBRANCH  10  11
ENDBRANCH   9  10
ENDBRANCH   8   9
ENDBRANCH   7   8
ENDBRANCH   6   7
ENDBRANCH   5   6
ENDBRANCH   4   5
ENDBRANCH   3   4
ENDBRANCH   2   3
ENDBRANCH   1   2
BRANCH   1  18
ATOM     18  C   UNL     1      68.846 -34.971   7.272  1.00  0.00     0.000 C 
BRANCH  18  19
ATOM     19  C   UNL     1      69.640 -33.648   7.248  1.00  0.00     0.000 C 
BRANCH  19  20
ATOM     20  C   UNL     1      70.300 -33.328   5.890  1.00  0.00     0.000 C 
BRANCH  20  21
ATOM     21  C   UNL     1      71.838 -33.263   5.902  1.00  0.00     0.000 C 
BRANCH  21  22
ATOM     22  C   UNL     1      72.528 -34.253   6.864  1.00  0.00     0.000 C 
BRANCH  22  23
ATOM     23  C   UNL     1      73.235 -35.426   6.151  1.00  0.00     0.000 C 
BRANCH  23  24
ATOM     24  C   UNL     1      73.896 -36.406   7.136  1.00  0.00    -0.000 C 
BRANCH  24  25
ATOM     25  C   UNL     1      73.392 -36.211   8.583  1.00  0.00    -0.000 C 
BRANCH  25  26
ATOM     26  C   UNL     1      74.163 -37.050   9.621  1.00  0.00    -0.000 C 
BRANCH  26  27
ATOM     27  C   UNL     1      73.338 -37.463  10.854  1.00  0.00    -0.000 C 
BRANCH  27  28
ATOM     28  C   UNL     1      71.809 -37.472  10.645  1.00  0.00    -0.000 C 
BRANCH  28  29
ATOM     29  C   UNL     1      71.026 -38.422  11.568  1.00  0.00    -0.000 C 
BRANCH  29  30
ATOM     30  C   UNL     1      70.657 -39.752  10.894  1.00  0.00    -0.000 C 
BRANCH  30  31
ATOM     31  C   UNL     1      69.473 -39.571   9.935  1.00  0.00    -0.003 C 
ATOM     32  C   UNL     1      68.492 -40.734  10.043  1.00  0.00     0.004 C 
ENDBRANCH  30  31
ENDBRANCH  29  30
ENDBRANCH  28  29
ENDBRANCH  27  28
ENDBRANCH  26  27
ENDBRANCH  25  26
ENDBRANCH  24  25
ENDBRANCH  23  24
ENDBRANCH  22  23
ENDBRANCH  21  22
ENDBRANCH  20  21
ENDBRANCH  19  20
ENDBRANCH  18  19
ENDBRANCH   1  18
TORSDOF 28
ENDMDL
MODEL 5
REMARK VINA RESULT:    -4.171      2.767      8.067
REMARK INTER + INTRA:         -15.774
REMARK INTER:                 -11.269
REMARK INTRA:                  -4.505
REMARK UNBOUND:                -4.775
REMARK SMILES CCCCCCCCCCCCCCCCCCCCCCCCCCCCCC(=O)[O-]
REMARK SMILES IDX 16 1 17 2 18 3 19 4 20 5 21 6 22 7 23 8 24 9 25 10 26 11
REMARK SMILES IDX 27 12 28 13 29 14 30 15 31 16 32 17 15 18 14 19 13 20 12 21
REMARK SMILES IDX 11 22 10 23 9 24 8 25 7 26 6 27 5 28 4 29 3 30 2 31 1 32
REMARK H PARENT
REMARK Flexibility Score: inf
ROOT
ATOM      1  C   UNL     1      69.875 -37.765  10.111  1.00  0.00     0.000 C 
ENDROOT
BRANCH   1   2
ATOM      2  C   UNL     1      70.848 -38.417  11.108  1.00  0.00     0.000 C 
BRANCH   2   3
ATOM      3  C   UNL     1      70.699 -39.943  11.280  1.00  0.00     0.000 C 
BRANCH   3   4
ATOM      4  C   UNL     1      70.040 -40.679  10.094  1.00  0.00     0.000 C 
BRANCH   4   5
ATOM      5  C   UNL     1      68.574 -41.097  10.346  1.00  0.00     0.000 C 
BRANCH   5   6
ATOM      6  C   UNL     1      67.762 -41.333   9.057  1.00  0.00     0.000 C 
BRANCH   6   7
ATOM      7  C   UNL     1      67.799 -40.177   8.042  1.00  0.00     0.000 C 
BRANCH   7   8
ATOM      8  C   UNL     1      66.804 -39.053   8.382  1.00  0.00     0.000 C 
BRANCH   8   9
ATOM      9  C   UNL     1      66.021 -38.556   7.153  1.00  0.00     0.000 C 
BRANCH   9  10
ATOM     10  C   UNL     1      65.927 -37.026   7.020  1.00  0.00     0.000 C 
BRANCH  10  11
ATOM     11  C   UNL     1      64.544 -36.473   7.411  1.00  0.00     0.000 C 
BRANCH  11  12
ATOM     12  C   UNL     1      64.336 -36.422   8.934  1.00  0.00     0.000 C 
BRANCH  12  13
ATOM     13  C   UNL     1      65.504 -35.740   9.667  1.00  0.00     0.006 C 
BRANCH  13  14
ATOM     14  C   UNL     1      65.909 -36.496  10.941  1.00  0.00     0.053 C 
BRANCH  14  15
ATOM     15  C   UNL     1      65.854 -35.617  12.154  1.00  0.00     0.041 C 
ATOM     16  O   UNL     1      66.535 -35.901  13.176  1.00  0.00    -0.550 OA
ATOM     17  O   UNL     1      65.023 -34.503  12.166  1.00  0.00    -0.550 OA
ENDBRANCH  14  15
ENDBRANCH  13  14
ENDBRANCH  12  13
ENDBRANCH  11  12
ENDBRANCH  10  11
ENDBRANCH   9  10
ENDBRANCH   8   9
ENDBRANCH   7   8
ENDBRANCH   6   7
ENDBRANCH   5   6
ENDBRANCH   4   5
ENDBRANCH   3   4
ENDBRANCH   2   3
ENDBRANCH   1   2
BRANCH   1  18
ATOM     18  C   UNL     1      70.594 -37.005   8.981  1.00  0.00     0.000 C 
BRANCH  18  19
ATOM     19  C   UNL     1      70.157 -37.471   7.576  1.00  0.00     0.000 C 
BRANCH  19  20
ATOM     20  C   UNL     1      69.595 -36.346   6.681  1.00  0.00     0.000 C 
BRANCH  20  21
ATOM     21  C   UNL     1      68.880 -35.204   7.425  1.00  0.00     0.000 C 
BRANCH  21  22
ATOM     22  C   UNL     1      69.479 -33.800   7.199  1.00  0.00     0.000 C 
BRANCH  22  23
ATOM     23  C   UNL     1      70.401 -33.705   5.964  1.00  0.00     0.000 C 
BRANCH  23  24
ATOM     24  C   UNL     1      71.793 -33.149   6.306  1.00  0.00    -0.000 C 
BRANCH  24  25
ATOM     25  C   UNL     1      72.926 -34.124   5.915  1.00  0.00    -0.000 C 
BRANCH  25  26
ATOM     26  C   UNL     1      73.122 -35.274   6.922  1.00  0.00    -0.000 C 
BRANCH  26  27
ATOM     27  C   UNL     1      73.920 -36.474   6.381  1.00  0.00    -0.000 C 
BRANCH  27  28
ATOM     28  C   UNL     1      74.964 -37.058   7.355  1.00  0.00    -0.000 C 
BRANCH  28  29
ATOM     29  C   UNL     1      74.922 -36.485   8.783  1.00  0.00    -0.000 C 
BRANCH  29  30
ATOM     30  C   UNL     1      74.337 -37.465   9.811  1.00  0.00    -0.000 C 
BRANCH  30  31
ATOM     31  C   UNL     1      74.820 -37.130  11.228  1.00  0.00    -0.003 C 
ATOM     32  C   UNL     1      76.293 -36.730  11.228  1.00  0.00     0.004 C 
ENDBRANCH  30  31
ENDBRANCH  29  30
ENDBRANCH  28  29
ENDBRANCH  27  28
ENDBRANCH  26  27
ENDBRANCH  25  26
ENDBRANCH  24  25
ENDBRANCH  23  24
ENDBRANCH  22  23
ENDBRANCH  21  22
ENDBRANCH  20  21
ENDBRANCH  19  20
ENDBRANCH  18  19
ENDBRANCH   1  18
TORSDOF 28
ENDMDL
MODEL 6
REMARK VINA RESULT:    -4.165      3.606      8.756
REMARK INTER + INTRA:         -15.759
REMARK INTER:                 -11.649
REMARK INTRA:                  -4.110
REMARK UNBOUND:                -4.775
REMARK SMILES CCCCCCCCCCCCCCCCCCCCCCCCCCCCCC(=O)[O-]
REMARK SMILES IDX 16 1 17 2 18 3 19 4 20 5 21 6 22 7 23 8 24 9 25 10 26 11
REMARK SMILES IDX 27 12 28 13 29 14 30 15 31 16 32 17 15 18 14 19 13 20 12 21
REMARK SMILES IDX 11 22 10 23 9 24 8 25 7 26 6 27 5 28 4 29 3 30 2 31 1 32
REMARK H PARENT
REMARK Flexibility Score: inf
ROOT
ATOM      1  C   UNL     1      69.820 -37.607   9.440  1.00  0.00     0.000 C 
ENDROOT
BRANCH   1   2
ATOM      2  C   UNL     1      70.883 -38.224  10.365  1.00  0.00     0.000 C 
BRANCH   2   3
ATOM      3  C   UNL     1      70.473 -39.534  11.067  1.00  0.00     0.000 C 
BRANCH   3   4
ATOM      4  C   UNL     1      69.922 -40.636  10.139  1.00  0.00     0.000 C 
BRANCH   4   5
ATOM      5  C   UNL     1      68.775 -41.467  10.755  1.00  0.00     0.000 C 
BRANCH   5   6
ATOM      6  C   UNL     1      67.369 -40.907  10.459  1.00  0.00     0.000 C 
BRANCH   6   7
ATOM      7  C   UNL     1      67.187 -40.313   9.051  1.00  0.00     0.000 C 
BRANCH   7   8
ATOM      8  C   UNL     1      66.507 -38.933   9.070  1.00  0.00     0.000 C 
BRANCH   8   9
ATOM      9  C   UNL     1      66.054 -38.508  10.479  1.00  0.00     0.000 C 
BRANCH   9  10
ATOM     10  C   UNL     1      66.725 -37.234  11.020  1.00  0.00     0.000 C 
BRANCH  10  11
ATOM     11  C   UNL     1      65.758 -36.338  11.816  1.00  0.00     0.000 C 
BRANCH  11  12
ATOM     12  C   UNL     1      66.381 -35.804  13.117  1.00  0.00     0.000 C 
BRANCH  12  13
ATOM     13  C   UNL     1      65.330 -35.521  14.204  1.00  0.00     0.006 C 
BRANCH  13  14
ATOM     14  C   UNL     1      63.946 -36.073  13.828  1.00  0.00     0.053 C 
BRANCH  14  15
ATOM     15  C   UNL     1      62.864 -35.058  14.039  1.00  0.00     0.041 C 
ATOM     16  O   UNL     1      61.963 -35.256  14.897  1.00  0.00    -0.550 OA
ATOM     17  O   UNL     1      62.833 -33.906  13.260  1.00  0.00    -0.550 OA
ENDBRANCH  14  15
ENDBRANCH  13  14
ENDBRANCH  12  13
ENDBRANCH  11  12
ENDBRANCH  10  11
ENDBRANCH   9  10
ENDBRANCH   8   9
ENDBRANCH   7   8
ENDBRANCH   6   7
ENDBRANCH   5   6
ENDBRANCH   4   5
ENDBRANCH   3   4
ENDBRANCH   2   3
ENDBRANCH   1   2
BRANCH   1  18
ATOM     18  C   UNL     1      70.007 -38.002   7.963  1.00  0.00     0.000 C 
BRANCH  18  19
ATOM     19  C   UNL     1      69.156 -37.145   7.003  1.00  0.00     0.000 C 
BRANCH  19  20
ATOM     20  C   UNL     1      68.307 -36.062   7.701  1.00  0.00     0.000 C 
BRANCH  20  21
ATOM     21  C   UNL     1      68.825 -34.620   7.556  1.00  0.00     0.000 C 
BRANCH  21  22
ATOM     22  C   UNL     1      69.881 -34.411   6.450  1.00  0.00     0.000 C 
BRANCH  22  23
ATOM     23  C   UNL     1      70.339 -32.945   6.291  1.00  0.00     0.000 C 
BRANCH  23  24
ATOM     24  C   UNL     1      71.870 -32.801   6.277  1.00  0.00    -0.000 C 
BRANCH  24  25
ATOM     25  C   UNL     1      72.508 -33.456   5.032  1.00  0.00    -0.000 C 
BRANCH  25  26
ATOM     26  C   UNL     1      73.702 -34.373   5.363  1.00  0.00    -0.000 C 
BRANCH  26  27
ATOM     27  C   UNL     1      73.431 -35.876   5.175  1.00  0.00    -0.000 C 
BRANCH  27  28
ATOM     28  C   UNL     1      72.955 -36.618   6.442  1.00  0.00    -0.000 C 
BRANCH  28  29
ATOM     29  C   UNL     1      73.208 -35.880   7.769  1.00  0.00    -0.000 C 
BRANCH  29  30
ATOM     30  C   UNL     1      73.739 -36.799   8.879  1.00  0.00    -0.000 C 
BRANCH  30  31
ATOM     31  C   UNL     1      75.271 -36.758   8.941  1.00  0.00    -0.003 C 
ATOM     32  C   UNL     1      75.768 -36.816  10.383  1.00  0.00     0.004 C 
ENDBRANCH  30  31
ENDBRANCH  29  30
ENDBRANCH  28  29
ENDBRANCH  27  28
ENDBRANCH  26  27
ENDBRANCH  25  26
ENDBRANCH  24  25
ENDBRANCH  23  24
ENDBRANCH  22  23
ENDBRANCH  21  22
ENDBRANCH  20  21
ENDBRANCH  19  20
ENDBRANCH  18  19
ENDBRANCH   1  18
TORSDOF 28
ENDMDL
MODEL 7
REMARK VINA RESULT:    -4.112      3.069      6.443
REMARK INTER + INTRA:         -15.617
REMARK INTER:                 -11.657
REMARK INTRA:                  -3.960
REMARK UNBOUND:                -4.775
REMARK SMILES CCCCCCCCCCCCCCCCCCCCCCCCCCCCCC(=O)[O-]
REMARK SMILES IDX 16 1 17 2 18 3 19 4 20 5 21 6 22 7 23 8 24 9 25 10 26 11
REMARK SMILES IDX 27 12 28 13 29 14 30 15 31 16 32 17 15 18 14 19 13 20 12 21
REMARK SMILES IDX 11 22 10 23 9 24 8 25 7 26 6 27 5 28 4 29 3 30 2 31 1 32
REMARK H PARENT
REMARK Flexibility Score: inf
ROOT
ATOM      1  C   UNL     1      73.264 -36.042   7.791  1.00  0.00     0.000 C 
ENDROOT
BRANCH   1   2
ATOM      2  C   UNL     1      73.456 -35.579   6.336  1.00  0.00     0.000 C 
BRANCH   2   3
ATOM      3  C   UNL     1      72.904 -34.178   6.007  1.00  0.00     0.000 C 
BRANCH   3   4
ATOM      4  C   UNL     1      72.161 -33.473   7.162  1.00  0.00     0.000 C 
BRANCH   4   5
ATOM      5  C   UNL     1      70.675 -33.171   6.867  1.00  0.00     0.000 C 
BRANCH   5   6
ATOM      6  C   UNL     1      69.862 -34.406   6.434  1.00  0.00     0.000 C 
BRANCH   6   7
ATOM      7  C   UNL     1      69.549 -35.410   7.557  1.00  0.00     0.000 C 
BRANCH   7   8
ATOM      8  C   UNL     1      68.922 -36.713   7.034  1.00  0.00     0.000 C 
BRANCH   8   9
ATOM      9  C   UNL     1      67.383 -36.692   7.064  1.00  0.00     0.000 C 
BRANCH   9  10
ATOM     10  C   UNL     1      66.765 -36.347   8.431  1.00  0.00     0.000 C 
BRANCH  10  11
ATOM     11  C   UNL     1      66.395 -37.596   9.254  1.00  0.00     0.000 C 
BRANCH  11  12
ATOM     12  C   UNL     1      66.657 -37.412  10.758  1.00  0.00     0.000 C 
BRANCH  12  13
ATOM     13  C   UNL     1      65.719 -36.375  11.400  1.00  0.00     0.006 C 
BRANCH  13  14
ATOM     14  C   UNL     1      66.202 -35.939  12.791  1.00  0.00     0.053 C 
BRANCH  14  15
ATOM     15  C   UNL     1      65.064 -35.782  13.753  1.00  0.00     0.041 C 
ATOM     16  O   UNL     1      65.249 -35.234  14.874  1.00  0.00    -0.550 OA
ATOM     17  O   UNL     1      63.805 -36.273  13.425  1.00  0.00    -0.550 OA
ENDBRANCH  14  15
ENDBRANCH  13  14
ENDBRANCH  12  13
ENDBRANCH  11  12
ENDBRANCH  10  11
ENDBRANCH   9  10
ENDBRANCH   8   9
ENDBRANCH   7   8
ENDBRANCH   6   7
ENDBRANCH   5   6
ENDBRANCH   4   5
ENDBRANCH   3   4
ENDBRANCH   2   3
ENDBRANCH   1   2
BRANCH   1  18
ATOM     18  C   UNL     1      74.497 -36.772   8.356  1.00  0.00     0.000 C 
BRANCH  18  19
ATOM     19  C   UNL     1      74.329 -37.171   9.837  1.00  0.00     0.000 C 
BRANCH  19  20
ATOM     20  C   UNL     1      72.894 -37.008  10.379  1.00  0.00     0.000 C 
BRANCH  20  21
ATOM     21  C   UNL     1      72.509 -37.957  11.528  1.00  0.00     0.000 C 
BRANCH  21  22
ATOM     22  C   UNL     1      71.012 -38.327  11.598  1.00  0.00     0.000 C 
BRANCH  22  23
ATOM     23  C   UNL     1      70.244 -38.074  10.282  1.00  0.00     0.000 C 
BRANCH  23  24
ATOM     24  C   UNL     1      69.522 -39.330   9.767  1.00  0.00    -0.000 C 
BRANCH  24  25
ATOM     25  C   UNL     1      70.147 -40.632  10.315  1.00  0.00    -0.000 C 
BRANCH  25  26
ATOM     26  C   UNL     1      69.153 -41.510  11.100  1.00  0.00    -0.000 C 
BRANCH  26  27
ATOM     27  C   UNL     1      68.276 -42.427  10.228  1.00  0.00    -0.000 C 
BRANCH  27  28
ATOM     28  C   UNL     1      66.841 -41.917   9.980  1.00  0.00    -0.000 C 
BRANCH  28  29
ATOM     29  C   UNL     1      66.256 -41.035  11.098  1.00  0.00    -0.000 C 
BRANCH  29  30
ATOM     30  C   UNL     1      65.633 -41.846  12.244  1.00  0.00    -0.000 C 
BRANCH  30  31
ATOM     31  C   UNL     1      64.356 -41.172  12.764  1.00  0.00    -0.003 C 
ATOM     32  C   UNL     1      64.413 -39.660  12.571  1.00  0.00     0.004 C 
ENDBRANCH  30  31
ENDBRANCH  29  30
ENDBRANCH  28  29
ENDBRANCH  27  28
ENDBRANCH  26  27
ENDBRANCH  25  26
ENDBRANCH  24  25
ENDBRANCH  23  24
ENDBRANCH  22  23
ENDBRANCH  21  22
ENDBRANCH  20  21
ENDBRANCH  19  20
ENDBRANCH  18  19
ENDBRANCH   1  18
TORSDOF 28
ENDMDL
MODEL 8
REMARK VINA RESULT:    -4.108      2.732      5.361
REMARK INTER + INTRA:         -15.608
REMARK INTER:                 -12.256
REMARK INTRA:                  -3.352
REMARK UNBOUND:                -4.775
REMARK SMILES CCCCCCCCCCCCCCCCCCCCCCCCCCCCCC(=O)[O-]
REMARK SMILES IDX 16 1 17 2 18 3 19 4 20 5 21 6 22 7 23 8 24 9 25 10 26 11
REMARK SMILES IDX 27 12 28 13 29 14 30 15 31 16 32 17 15 18 14 19 13 20 12 21
REMARK SMILES IDX 11 22 10 23 9 24 8 25 7 26 6 27 5 28 4 29 3 30 2 31 1 32
REMARK H PARENT
REMARK Flexibility Score: inf
ROOT
ATOM      1  C   UNL     1      69.292 -34.402   7.511  1.00  0.00     0.000 C 
ENDROOT
BRANCH   1   2
ATOM      2  C   UNL     1      69.907 -33.392   6.526  1.00  0.00     0.000 C 
BRANCH   2   3
ATOM      3  C   UNL     1      71.416 -33.129   6.700  1.00  0.00     0.000 C 
BRANCH   3   4
ATOM      4  C   UNL     1      72.238 -33.115   5.395  1.00  0.00     0.000 C 
BRANCH   4   5
ATOM      5  C   UNL     1      73.362 -34.174   5.343  1.00  0.00     0.000 C 
BRANCH   5   6
ATOM      6  C   UNL     1      72.851 -35.617   5.164  1.00  0.00     0.000 C 
BRANCH   6   7
ATOM      7  C   UNL     1      72.975 -36.514   6.408  1.00  0.00     0.000 C 
BRANCH   7   8
ATOM      8  C   UNL     1      74.417 -36.602   6.937  1.00  0.00     0.000 C 
BRANCH   8   9
ATOM      9  C   UNL     1      74.487 -36.665   8.474  1.00  0.00     0.000 C 
BRANCH   9  10
ATOM     10  C   UNL     1      73.130 -36.549   9.191  1.00  0.00     0.000 C 
BRANCH  10  11
ATOM     11  C   UNL     1      73.121 -37.230  10.573  1.00  0.00     0.000 C 
BRANCH  11  12
ATOM     12  C   UNL     1      71.748 -37.821  10.932  1.00  0.00     0.000 C 
BRANCH  12  13
ATOM     13  C   UNL     1      70.650 -37.418   9.932  1.00  0.00     0.006 C 
BRANCH  13  14
ATOM     14  C   UNL     1      69.270 -37.956  10.339  1.00  0.00     0.053 C 
BRANCH  14  15
ATOM     15  C   UNL     1      68.867 -39.141   9.515  1.00  0.00     0.041 C 
ATOM     16  O   UNL     1      67.967 -39.923   9.923  1.00  0.00    -0.550 OA
ATOM     17  O   UNL     1      69.512 -39.399   8.311  1.00  0.00    -0.550 OA
ENDBRANCH  14  15
ENDBRANCH  13  14
ENDBRANCH  12  13
ENDBRANCH  11  12
ENDBRANCH  10  11
ENDBRANCH   9  10
ENDBRANCH   8   9
ENDBRANCH   7   8
ENDBRANCH   6   7
ENDBRANCH   5   6
ENDBRANCH   4   5
ENDBRANCH   3   4
ENDBRANCH   2   3
ENDBRANCH   1   2
BRANCH   1  18
ATOM     18  C   UNL     1      69.101 -35.801   6.896  1.00  0.00     0.000 C 
BRANCH  18  19
ATOM     19  C   UNL     1      67.702 -36.390   7.172  1.00  0.00     0.000 C 
BRANCH  19  20
ATOM     20  C   UNL     1      66.960 -35.735   8.356  1.00  0.00     0.000 C 
BRANCH  20  21
ATOM     21  C   UNL     1      66.118 -36.692   9.219  1.00  0.00     0.000 C 
BRANCH  21  22
ATOM     22  C   UNL     1      65.474 -36.053  10.467  1.00  0.00     0.000 C 
BRANCH  22  23
ATOM     23  C   UNL     1      66.154 -36.452  11.795  1.00  0.00     0.000 C 
BRANCH  23  24
ATOM     24  C   UNL     1      66.136 -35.319  12.834  1.00  0.00    -0.000 C 
BRANCH  24  25
ATOM     25  C   UNL     1      65.218 -35.639  14.034  1.00  0.00    -0.000 C 
BRANCH  25  26
ATOM     26  C   UNL     1      63.932 -36.392  13.641  1.00  0.00    -0.000 C 
BRANCH  26  27
ATOM     27  C   UNL     1      62.681 -35.504  13.507  1.00  0.00    -0.000 C 
BRANCH  27  28
ATOM     28  C   UNL     1      61.946 -35.207  14.831  1.00  0.00    -0.000 C 
BRANCH  28  29
ATOM     29  C   UNL     1      62.068 -33.759  15.339  1.00  0.00    -0.000 C 
BRANCH  29  30
ATOM     30  C   UNL     1      62.665 -32.802  14.297  1.00  0.00    -0.000 C 
BRANCH  30  31
ATOM     31  C   UNL     1      62.371 -31.340  14.661  1.00  0.00    -0.003 C 
ATOM     32  C   UNL     1      62.881 -30.389  13.582  1.00  0.00     0.004 C 
ENDBRANCH  30  31
ENDBRANCH  29  30
ENDBRANCH  28  29
ENDBRANCH  27  28
ENDBRANCH  26  27
ENDBRANCH  25  26
ENDBRANCH  24  25
ENDBRANCH  23  24
ENDBRANCH  22  23
ENDBRANCH  21  22
ENDBRANCH  20  21
ENDBRANCH  19  20
ENDBRANCH  18  19
ENDBRANCH   1  18
TORSDOF 28
ENDMDL
MODEL 9
REMARK VINA RESULT:    -4.060      1.878      3.395
REMARK INTER + INTRA:         -15.482
REMARK INTER:                 -10.032
REMARK INTRA:                  -5.450
REMARK UNBOUND:                -4.775
REMARK SMILES CCCCCCCCCCCCCCCCCCCCCCCCCCCCCC(=O)[O-]
REMARK SMILES IDX 16 1 17 2 18 3 19 4 20 5 21 6 22 7 23 8 24 9 25 10 26 11
REMARK SMILES IDX 27 12 28 13 29 14 30 15 31 16 32 17 15 18 14 19 13 20 12 21
REMARK SMILES IDX 11 22 10 23 9 24 8 25 7 26 6 27 5 28 4 29 3 30 2 31 1 32
REMARK H PARENT
REMARK Flexibility Score: inf
ROOT
ATOM      1  C   UNL     1      69.229 -36.248   6.351  1.00  0.00     0.000 C 
ENDROOT
BRANCH   1   2
ATOM      2  C   UNL     1      69.668 -35.265   7.451  1.00  0.00     0.000 C 
BRANCH   2   3
ATOM      3  C   UNL     1      69.439 -33.773   7.137  1.00  0.00     0.000 C 
BRANCH   3   4
ATOM      4  C   UNL     1      70.695 -32.991   6.697  1.00  0.00     0.000 C 
BRANCH   4   5
ATOM      5  C   UNL     1      72.026 -33.722   6.981  1.00  0.00     0.000 C 
BRANCH   5   6
ATOM      6  C   UNL     1      72.929 -33.879   5.741  1.00  0.00     0.000 C 
BRANCH   6   7
ATOM      7  C   UNL     1      72.982 -35.297   5.147  1.00  0.00     0.000 C 
BRANCH   7   8
ATOM      8  C   UNL     1      73.053 -36.392   6.225  1.00  0.00     0.000 C 
BRANCH   8   9
ATOM      9  C   UNL     1      74.385 -37.164   6.206  1.00  0.00     0.000 C 
BRANCH   9  10
ATOM     10  C   UNL     1      75.172 -37.134   7.528  1.00  0.00     0.000 C 
BRANCH  10  11
ATOM     11  C   UNL     1      74.314 -36.690   8.727  1.00  0.00     0.000 C 
BRANCH  11  12
ATOM     12  C   UNL     1      74.916 -37.115  10.076  1.00  0.00     0.000 C 
BRANCH  12  13
ATOM     13  C   UNL     1      73.842 -37.487  11.113  1.00  0.00     0.006 C 
BRANCH  13  14
ATOM     14  C   UNL     1      72.419 -37.268  10.577  1.00  0.00     0.053 C 
BRANCH  14  15
ATOM     15  C   UNL     1      71.414 -38.114  11.298  1.00  0.00     0.041 C 
ATOM     16  O   UNL     1      70.510 -37.575  11.991  1.00  0.00    -0.550 OA
ATOM     17  O   UNL     1      71.499 -39.500  11.233  1.00  0.00    -0.550 OA
ENDBRANCH  14  15
ENDBRANCH  13  14
ENDBRANCH  12  13
ENDBRANCH  11  12
ENDBRANCH  10  11
ENDBRANCH   9  10
ENDBRANCH   8   9
ENDBRANCH   7   8
ENDBRANCH   6   7
ENDBRANCH   5   6
ENDBRANCH   4   5
ENDBRANCH   3   4
ENDBRANCH   2   3
ENDBRANCH   1   2
BRANCH   1  18
ATOM     18  C   UNL     1      69.584 -37.711   6.677  1.00  0.00     0.000 C 
BRANCH  18  19
ATOM     19  C   UNL     1      69.604 -37.998   8.193  1.00  0.00     0.000 C 
BRANCH  19  20
ATOM     20  C   UNL     1      69.085 -39.398   8.581  1.00  0.00     0.000 C 
BRANCH  20  21
ATOM     21  C   UNL     1      68.231 -39.456   9.861  1.00  0.00     0.000 C 
BRANCH  21  22
ATOM     22  C   UNL     1      66.890 -40.206   9.720  1.00  0.00     0.000 C 
BRANCH  22  23
ATOM     23  C   UNL     1      66.332 -40.224   8.280  1.00  0.00     0.000 C 
BRANCH  23  24
ATOM     24  C   UNL     1      64.813 -39.990   8.230  1.00  0.00    -0.000 C 
BRANCH  24  25
ATOM     25  C   UNL     1      64.456 -38.507   7.986  1.00  0.00    -0.000 C 
BRANCH  25  26
ATOM     26  C   UNL     1      65.520 -37.744   7.172  1.00  0.00    -0.000 C 
BRANCH  26  27
ATOM     27  C   UNL     1      65.889 -36.359   7.735  1.00  0.00    -0.000 C 
BRANCH  27  28
ATOM     28  C   UNL     1      66.506 -36.372   9.149  1.00  0.00    -0.000 C 
BRANCH  28  29
ATOM     29  C   UNL     1      65.522 -36.085  10.298  1.00  0.00    -0.000 C 
BRANCH  29  30
ATOM     30  C   UNL     1      65.637 -37.087  11.456  1.00  0.00    -0.000 C 
BRANCH  30  31
ATOM     31  C   UNL     1      64.302 -37.803  11.698  1.00  0.00    -0.003 C 
ATOM     32  C   UNL     1      64.515 -39.155  12.372  1.00  0.00     0.004 C 
ENDBRANCH  30  31
ENDBRANCH  29  30
ENDBRANCH  28  29
ENDBRANCH  27  28
ENDBRANCH  26  27
ENDBRANCH  25  26
ENDBRANCH  24  25
ENDBRANCH  23  24
ENDBRANCH  22  23
ENDBRANCH  21  22
ENDBRANCH  20  21
ENDBRANCH  19  20
ENDBRANCH  18  19
ENDBRANCH   1  18
TORSDOF 28
ENDMDL
