MODEL 1
REMARK VINA RESULT:    -2.784      0.000      0.000
REMARK INTER + INTRA:          -3.060
REMARK INTER:                  -3.109
REMARK INTRA:                   0.049
REMARK UNBOUND:                 0.049
REMARK SMILES O=C([O-])c1ccccc1C(=O)[O-]
REMARK SMILES IDX 4 1 9 2 5 3 8 4 6 5 7 6 2 7 1 8 3 9 10 10 11 11 12 12
REMARK H PARENT
REMARK Flexibility Score: inf
ROOT
ATOM      1  C   UNL     1     146.570 146.366 144.404  1.00  0.00     0.006 A 
ATOM      2  C   UNL     1     147.793 146.246 145.123  1.00  0.00     0.006 A 
ATOM      3  C   UNL     1     146.360 145.559 143.271  1.00  0.00     0.010 A 
ATOM      4  C   UNL     1     148.731 145.278 144.719  1.00  0.00     0.010 A 
ATOM      5  C   UNL     1     147.314 144.622 142.875  1.00  0.00     0.001 A 
ATOM      6  C   UNL     1     148.492 144.473 143.605  1.00  0.00     0.001 A 
ENDROOT
BRANCH   1   7
ATOM      7  C   UNL     1     145.470 147.258 144.841  1.00  0.00     0.072 C 
ATOM      8  O   UNL     1     145.256 148.342 144.236  1.00  0.00    -0.545 OA
ATOM      9  O   UNL     1     144.621 146.883 145.874  1.00  0.00    -0.545 OA
ENDBRANCH   1   7
BRANCH   2  10
ATOM     10  C   UNL     1     148.161 147.143 146.242  1.00  0.00     0.072 C 
ATOM     11  O   UNL     1     148.000 148.389 146.150  1.00  0.00    -0.545 OA
ATOM     12  O   UNL     1     148.755 146.622 147.387  1.00  0.00    -0.545 OA
ENDBRANCH   2  10
TORSDOF 2
ENDMDL
MODEL 2
REMARK VINA RESULT:    -2.758      0.162      3.056
REMARK INTER + INTRA:          -3.031
REMARK INTER:                  -3.199
REMARK INTRA:                   0.168
REMARK UNBOUND:                 0.049
REMARK SMILES O=C([O-])c1ccccc1C(=O)[O-]
REMARK SMILES IDX 4 1 9 2 5 3 8 4 6 5 7 6 2 7 1 8 3 9 10 10 11 11 12 12
REMARK H PARENT
REMARK Flexibility Score: inf
ROOT
ATOM      1  C   UNL     1     147.690 146.290 145.116  1.00  0.00     0.006 A 
ATOM      2  C   UNL     1     146.435 146.387 144.450  1.00  0.00     0.006 A 
ATOM      3  C   UNL     1     148.633 145.349 144.664  1.00  0.00     0.010 A 
ATOM      4  C   UNL     1     146.198 145.585 143.319  1.00  0.00     0.010 A 
ATOM      5  C   UNL     1     148.367 144.548 143.553  1.00  0.00     0.001 A 
ATOM      6  C   UNL     1     147.156 144.674 142.875  1.00  0.00     0.001 A 
ENDROOT
BRANCH   1   7
ATOM      7  C   UNL     1     148.078 147.191 146.226  1.00  0.00     0.072 C 
ATOM      8  O   UNL     1     147.733 148.402 146.208  1.00  0.00    -0.545 OA
ATOM      9  O   UNL     1     148.766 146.701 147.329  1.00  0.00    -0.545 OA
ENDBRANCH   1   7
BRANCH   2  10
ATOM     10  C   UNL     1     145.331 147.247 144.934  1.00  0.00     0.072 C 
ATOM     11  O   UNL     1     144.610 146.889 145.903  1.00  0.00    -0.545 OA
ATOM     12  O   UNL     1     145.034 148.436 144.277  1.00  0.00    -0.545 OA
ENDBRANCH   2  10
TORSDOF 2
ENDMDL
MODEL 3
REMARK VINA RESULT:    -2.625      2.308      3.290
REMARK INTER + INTRA:          -2.883
REMARK INTER:                  -2.887
REMARK INTRA:                   0.004
REMARK UNBOUND:                 0.049
REMARK SMILES O=C([O-])c1ccccc1C(=O)[O-]
REMARK SMILES IDX 4 1 9 2 5 3 8 4 6 5 7 6 2 7 1 8 3 9 10 10 11 11 12 12
REMARK H PARENT
REMARK Flexibility Score: inf
ROOT
ATOM      1  C   UNL     1     147.242 146.911 144.132  1.00  0.00     0.006 A 
ATOM      2  C   UNL     1     147.332 146.884 145.553  1.00  0.00     0.006 A 
ATOM      3  C   UNL     1     146.017 147.256 143.531  1.00  0.00     0.010 A 
ATOM      4  C   UNL     1     146.213 147.264 146.317  1.00  0.00     0.010 A 
ATOM      5  C   UNL     1     144.914 147.608 144.309  1.00  0.00     0.001 A 
ATOM      6  C   UNL     1     145.015 147.623 145.699  1.00  0.00     0.001 A 
ENDROOT
BRANCH   1   7
ATOM      7  C   UNL     1     148.407 146.663 143.252  1.00  0.00     0.072 C 
ATOM      8  O   UNL     1     149.132 147.622 142.875  1.00  0.00    -0.545 OA
ATOM      9  O   UNL     1     148.755 145.369 142.885  1.00  0.00    -0.545 OA
ENDBRANCH   1   7
BRANCH   2  10
ATOM     10  C   UNL     1     148.533 146.404 146.274  1.00  0.00     0.072 C 
ATOM     11  O   UNL     1     149.007 145.259 146.048  1.00  0.00    -0.545 OA
ATOM     12  O   UNL     1     149.114 147.192 147.262  1.00  0.00    -0.545 OA
ENDBRANCH   2  10
TORSDOF 2
ENDMDL
MODEL 4
REMARK VINA RESULT:    -2.510      2.301      3.816
REMARK INTER + INTRA:          -2.754
REMARK INTER:                  -2.740
REMARK INTRA:                  -0.014
REMARK UNBOUND:                 0.049
REMARK SMILES O=C([O-])c1ccccc1C(=O)[O-]
REMARK SMILES IDX 4 1 9 2 5 3 8 4 6 5 7 6 2 7 1 8 3 9 10 10 11 11 12 12
REMARK H PARENT
REMARK Flexibility Score: inf
ROOT
ATOM      1  C   UNL     1     147.359 146.886 145.536  1.00  0.00     0.006 A 
ATOM      2  C   UNL     1     147.325 146.877 144.112  1.00  0.00     0.006 A 
ATOM      3  C   UNL     1     146.203 147.261 146.246  1.00  0.00     0.010 A 
ATOM      4  C   UNL     1     146.118 147.180 143.456  1.00  0.00     0.010 A 
ATOM      5  C   UNL     1     145.024 147.579 145.572  1.00  0.00     0.001 A 
ATOM      6  C   UNL     1     144.978 147.527 144.181  1.00  0.00     0.001 A 
ENDROOT
BRANCH   1   7
ATOM      7  C   UNL     1     148.543 146.446 146.310  1.00  0.00     0.072 C 
ATOM      8  O   UNL     1     148.992 147.165 147.243  1.00  0.00    -0.545 OA
ATOM      9  O   UNL     1     149.132 145.212 146.066  1.00  0.00    -0.545 OA
ENDBRANCH   1   7
BRANCH   2  10
ATOM     10  C   UNL     1     148.525 146.630 143.280  1.00  0.00     0.072 C 
ATOM     11  O   UNL     1     149.238 147.587 142.875  1.00  0.00    -0.545 OA
ATOM     12  O   UNL     1     148.840 145.336 142.878  1.00  0.00    -0.545 OA
ENDBRANCH   2  10
TORSDOF 2
ENDMDL
MODEL 5
REMARK VINA RESULT:    -2.407      2.112      3.334
REMARK INTER + INTRA:          -2.639
REMARK INTER:                  -3.054
REMARK INTRA:                   0.415
REMARK UNBOUND:                 0.049
REMARK SMILES O=C([O-])c1ccccc1C(=O)[O-]
REMARK SMILES IDX 4 1 9 2 5 3 8 4 6 5 7 6 2 7 1 8 3 9 10 10 11 11 12 12
REMARK H PARENT
REMARK Flexibility Score: inf
ROOT
ATOM      1  C   UNL     1     147.271 146.938 144.960  1.00  0.00     0.006 A 
ATOM      2  C   UNL     1     147.837 145.668 144.654  1.00  0.00     0.006 A 
ATOM      3  C   UNL     1     147.623 147.571 146.167  1.00  0.00     0.010 A 
ATOM      4  C   UNL     1     148.781 145.110 145.535  1.00  0.00     0.010 A 
ATOM      5  C   UNL     1     148.544 146.988 147.036  1.00  0.00     0.001 A 
ATOM      6  C   UNL     1     149.131 145.765 146.716  1.00  0.00     0.001 A 
ENDROOT
BRANCH   1   7
ATOM      7  C   UNL     1     146.379 147.662 144.025  1.00  0.00     0.072 C 
ATOM      8  O   UNL     1     146.795 147.997 142.884  1.00  0.00    -0.545 OA
ATOM      9  O   UNL     1     145.057 147.923 144.364  1.00  0.00    -0.545 OA
ENDBRANCH   1   7
BRANCH   2  10
ATOM     10  C   UNL     1     147.426 144.865 143.479  1.00  0.00     0.072 C 
ATOM     11  O   UNL     1     148.254 144.133 142.875  1.00  0.00    -0.545 OA
ATOM     12  O   UNL     1     146.128 144.963 142.988  1.00  0.00    -0.545 OA
ENDBRANCH   2  10
TORSDOF 2
ENDMDL
MODEL 6
REMARK VINA RESULT:    -2.340      2.141      3.762
REMARK INTER + INTRA:          -2.565
REMARK INTER:                  -2.849
REMARK INTRA:                   0.285
REMARK UNBOUND:                 0.049
REMARK SMILES O=C([O-])c1ccccc1C(=O)[O-]
REMARK SMILES IDX 4 1 9 2 5 3 8 4 6 5 7 6 2 7 1 8 3 9 10 10 11 11 12 12
REMARK H PARENT
REMARK Flexibility Score: inf
ROOT
ATOM      1  C   UNL     1     147.961 145.729 144.746  1.00  0.00     0.006 A 
ATOM      2  C   UNL     1     147.307 146.969 144.993  1.00  0.00     0.006 A 
ATOM      3  C   UNL     1     148.881 145.240 145.692  1.00  0.00     0.010 A 
ATOM      4  C   UNL     1     147.550 147.641 146.205  1.00  0.00     0.010 A 
ATOM      5  C   UNL     1     149.123 145.935 146.877  1.00  0.00     0.001 A 
ATOM      6  C   UNL     1     148.450 147.127 147.138  1.00  0.00     0.001 A 
ENDROOT
BRANCH   1   7
ATOM      7  C   UNL     1     147.661 144.888 143.564  1.00  0.00     0.072 C 
ATOM      8  O   UNL     1     146.480 144.798 143.134  1.00  0.00    -0.545 OA
ATOM      9  O   UNL     1     148.681 144.243 142.875  1.00  0.00    -0.545 OA
ENDBRANCH   1   7
BRANCH   2  10
ATOM     10  C   UNL     1     146.430 147.629 143.998  1.00  0.00     0.072 C 
ATOM     11  O   UNL     1     146.882 147.998 142.882  1.00  0.00    -0.545 OA
ATOM     12  O   UNL     1     145.105 147.909 144.315  1.00  0.00    -0.545 OA
ENDBRANCH   2  10
TORSDOF 2
ENDMDL
MODEL 7
REMARK VINA RESULT:    -2.244      8.264      9.085
REMARK INTER + INTRA:          -2.458
REMARK INTER:                  -3.737
REMARK INTRA:                   1.279
REMARK UNBOUND:                 0.049
REMARK SMILES O=C([O-])c1ccccc1C(=O)[O-]
REMARK SMILES IDX 4 1 9 2 5 3 8 4 6 5 7 6 2 7 1 8 3 9 10 10 11 11 12 12
REMARK H PARENT
REMARK Flexibility Score: inf
ROOT
ATOM      1  C   UNL     1     152.202 141.890 150.160  1.00  0.00     0.006 A 
ATOM      2  C   UNL     1     153.096 141.795 149.055  1.00  0.00     0.006 A 
ATOM      3  C   UNL     1     150.865 141.482 149.995  1.00  0.00     0.010 A 
ATOM      4  C   UNL     1     152.636 141.236 147.849  1.00  0.00     0.010 A 
ATOM      5  C   UNL     1     150.425 140.952 148.782  1.00  0.00     0.001 A 
ATOM      6  C   UNL     1     151.311 140.819 147.715  1.00  0.00     0.001 A 
ENDROOT
BRANCH   1   7
ATOM      7  C   UNL     1     152.637 142.334 151.505  1.00  0.00     0.072 C 
ATOM      8  O   UNL     1     153.083 143.500 151.673  1.00  0.00    -0.545 OA
ATOM      9  O   UNL     1     152.497 141.499 152.606  1.00  0.00    -0.545 OA
ENDBRANCH   1   7
BRANCH   2  10
ATOM     10  C   UNL     1     154.479 142.324 149.091  1.00  0.00     0.072 C 
ATOM     11  O   UNL     1     154.811 143.207 149.926  1.00  0.00    -0.545 OA
ATOM     12  O   UNL     1     155.413 141.896 148.154  1.00  0.00    -0.545 OA
ENDBRANCH   2  10
TORSDOF 2
ENDMDL
MODEL 8
REMARK VINA RESULT:    -2.231      8.217      9.147
REMARK INTER + INTRA:          -2.443
REMARK INTER:                  -3.628
REMARK INTRA:                   1.185
REMARK UNBOUND:                 0.049
REMARK SMILES O=C([O-])c1ccccc1C(=O)[O-]
REMARK SMILES IDX 4 1 9 2 5 3 8 4 6 5 7 6 2 7 1 8 3 9 10 10 11 11 12 12
REMARK H PARENT
REMARK Flexibility Score: inf
ROOT
ATOM      1  C   UNL     1     152.951 141.734 149.045  1.00  0.00     0.006 A 
ATOM      2  C   UNL     1     152.107 141.854 150.185  1.00  0.00     0.006 A 
ATOM      3  C   UNL     1     152.424 141.189 147.858  1.00  0.00     0.010 A 
ATOM      4  C   UNL     1     150.754 141.486 150.077  1.00  0.00     0.010 A 
ATOM      5  C   UNL     1     151.084 140.809 147.781  1.00  0.00     0.001 A 
ATOM      6  C   UNL     1     150.248 140.968 148.884  1.00  0.00     0.001 A 
ENDROOT
BRANCH   1   7
ATOM      7  C   UNL     1     154.348 142.226 149.027  1.00  0.00     0.072 C 
ATOM      8  O   UNL     1     155.152 141.819 148.147  1.00  0.00    -0.545 OA
ATOM      9  O   UNL     1     154.771 143.190 149.934  1.00  0.00    -0.545 OA
ENDBRANCH   1   7
BRANCH   2  10
ATOM     10  C   UNL     1     152.604 142.286 151.512  1.00  0.00     0.072 C 
ATOM     11  O   UNL     1     152.554 141.511 152.504  1.00  0.00    -0.545 OA
ATOM     12  O   UNL     1     153.073 143.583 151.692  1.00  0.00    -0.545 OA
ENDBRANCH   2  10
TORSDOF 2
ENDMDL
MODEL 9
REMARK VINA RESULT:    -1.964      7.821      9.173
REMARK INTER + INTRA:          -2.145
REMARK INTER:                  -2.278
REMARK INTRA:                   0.133
REMARK UNBOUND:                 0.049
REMARK SMILES O=C([O-])c1ccccc1C(=O)[O-]
REMARK SMILES IDX 4 1 9 2 5 3 8 4 6 5 7 6 2 7 1 8 3 9 10 10 11 11 12 12
REMARK H PARENT
REMARK Flexibility Score: inf
ROOT
ATOM      1  C   UNL     1     153.269 142.094 149.863  1.00  0.00     0.006 A 
ATOM      2  C   UNL     1     152.407 141.498 148.899  1.00  0.00     0.006 A 
ATOM      3  C   UNL     1     154.588 142.419 149.494  1.00  0.00     0.010 A 
ATOM      4  C   UNL     1     152.877 141.309 147.586  1.00  0.00     0.010 A 
ATOM      5  C   UNL     1     155.039 142.202 148.192  1.00  0.00     0.001 A 
ATOM      6  C   UNL     1     154.181 141.659 147.237  1.00  0.00     0.001 A 
ENDROOT
BRANCH   1   7
ATOM      7  C   UNL     1     152.815 142.457 151.226  1.00  0.00     0.072 C 
ATOM      8  O   UNL     1     152.971 143.632 151.653  1.00  0.00    -0.545 OA
ATOM      9  O   UNL     1     152.154 141.531 152.023  1.00  0.00    -0.545 OA
ENDBRANCH   1   7
BRANCH   2  10
ATOM     10  C   UNL     1     151.053 140.999 149.229  1.00  0.00     0.072 C 
ATOM     11  O   UNL     1     150.890 139.848 149.716  1.00  0.00    -0.545 OA
ATOM     12  O   UNL     1     149.935 141.774 148.942  1.00  0.00    -0.545 OA
ENDBRANCH   2  10
TORSDOF 2
ENDMDL
