MODEL 1
REMARK VINA RESULT:    -5.689      0.000      0.000
REMARK INTER + INTRA:          -6.349
REMARK INTER:                  -6.853
REMARK INTRA:                   0.505
REMARK UNBOUND:                 0.505
REMARK SMILES O=c1c(O)c(-c2ccc(O)c(O)c2)oc2cc(O)cc(O)c12
REMARK SMILES IDX 5 1 3 2 2 3 1 4 22 5 20 6 19 7 17 8 16 9 15 10 14 11 6 12
REMARK SMILES IDX 7 13 8 14 9 15 13 16 11 17 10 18 12 20 4 22 21 24 18 26
REMARK H PARENT 10 19 12 21 4 23 21 25 18 27
REMARK Flexibility Score: inf
ROOT
ATOM      1  C   UNL     1     170.919 170.972 156.361  1.00  0.00     0.180 A 
ATOM      2  C   UNL     1     171.735 169.831 156.448  1.00  0.00     0.208 A 
ATOM      3  C   UNL     1     173.130 169.991 156.464  1.00  0.00     0.238 A 
ATOM      4  O   UNL     1     173.854 168.969 156.597  1.00  0.00    -0.285 OA
ATOM      5  C   UNL     1     173.693 171.287 156.376  1.00  0.00     0.111 A 
ATOM      6  C   UNL     1     175.092 171.562 156.343  1.00  0.00     0.134 A 
ATOM      7  C   UNL     1     175.535 172.890 156.386  1.00  0.00     0.093 A 
ATOM      8  C   UNL     1     174.629 173.952 156.396  1.00  0.00     0.123 A 
ATOM      9  C   UNL     1     173.260 173.694 156.368  1.00  0.00     0.094 A 
ATOM     10  C   UNL     1     172.787 172.380 156.361  1.00  0.00     0.146 A 
ATOM     11  O   UNL     1     171.475 172.179 156.345  1.00  0.00    -0.452 OA
ENDROOT
BRANCH   1  12
ATOM     12  C   UNL     1     169.442 170.883 156.314  1.00  0.00     0.025 A 
ATOM     13  C   UNL     1     168.635 172.016 156.520  1.00  0.00     0.016 A 
ATOM     14  C   UNL     1     167.242 171.905 156.496  1.00  0.00     0.051 A 
ATOM     15  C   UNL     1     166.636 170.661 156.275  1.00  0.00     0.157 A 
ATOM     16  C   UNL     1     168.829 169.636 156.115  1.00  0.00     0.062 A 
ATOM     17  C   UNL     1     167.434 169.521 156.088  1.00  0.00     0.158 A 
BRANCH  15  18
ATOM     18  O   UNL     1     165.246 170.554 156.249  1.00  0.00    -0.504 OA
ATOM     19  H   UNL     1     164.780 169.662 156.367  1.00  0.00     0.293 HD
ENDBRANCH  15  18
BRANCH  17  20
ATOM     20  O   UNL     1     166.862 168.267 155.875  1.00  0.00    -0.504 OA
ATOM     21  H   UNL     1     165.860 168.140 155.799  1.00  0.00     0.293 HD
ENDBRANCH  17  20
ENDBRANCH   1  12
BRANCH   2  22
ATOM     22  O   UNL     1     171.160 168.561 156.556  1.00  0.00    -0.502 OA
ATOM     23  H   UNL     1     171.631 167.722 156.241  1.00  0.00     0.293 HD
ENDBRANCH   2  22
BRANCH   6  24
ATOM     24  O   UNL     1     176.079 170.578 156.240  1.00  0.00    -0.507 OA
ATOM     25  H   UNL     1     176.740 170.348 156.966  1.00  0.00     0.293 HD
ENDBRANCH   6  24
BRANCH   8  26
ATOM     26  O   UNL     1     175.079 175.271 156.423  1.00  0.00    -0.508 OA
ATOM     27  H   UNL     1     174.993 175.877 155.615  1.00  0.00     0.293 HD
ENDBRANCH   8  26
TORSDOF 6
ENDMDL
MODEL 2
REMARK VINA RESULT:    -5.669      2.471      7.028
REMARK INTER + INTRA:          -6.324
REMARK INTER:                  -6.679
REMARK INTRA:                   0.355
REMARK UNBOUND:                 0.505
REMARK SMILES O=c1c(O)c(-c2ccc(O)c(O)c2)oc2cc(O)cc(O)c12
REMARK SMILES IDX 5 1 3 2 2 3 1 4 22 5 20 6 19 7 17 8 16 9 15 10 14 11 6 12
REMARK SMILES IDX 7 13 8 14 9 15 13 16 11 17 10 18 12 20 4 22 21 24 18 26
REMARK H PARENT 10 19 12 21 4 23 21 25 18 27
REMARK Flexibility Score: inf
ROOT
ATOM      1  C   UNL     1     173.483 173.221 156.244  1.00  0.00     0.180 A 
ATOM      2  C   UNL     1     173.714 174.607 156.254  1.00  0.00     0.208 A 
ATOM      3  C   UNL     1     172.615 175.480 156.212  1.00  0.00     0.238 A 
ATOM      4  O   UNL     1     172.825 176.720 156.276  1.00  0.00    -0.285 OA
ATOM      5  C   UNL     1     171.301 174.958 156.145  1.00  0.00     0.111 A 
ATOM      6  C   UNL     1     170.118 175.750 156.058  1.00  0.00     0.134 A 
ATOM      7  C   UNL     1     168.865 175.128 156.128  1.00  0.00     0.093 A 
ATOM      8  C   UNL     1     168.753 173.739 156.216  1.00  0.00     0.123 A 
ATOM      9  C   UNL     1     169.903 172.953 156.242  1.00  0.00     0.094 A 
ATOM     10  C   UNL     1     171.167 173.546 156.209  1.00  0.00     0.146 A 
ATOM     11  O   UNL     1     172.237 172.761 156.246  1.00  0.00    -0.452 OA
ENDROOT
BRANCH   1  12
ATOM     12  C   UNL     1     174.590 172.237 156.261  1.00  0.00     0.025 A 
ATOM     13  C   UNL     1     175.895 172.598 155.883  1.00  0.00     0.016 A 
ATOM     14  C   UNL     1     176.919 171.647 155.883  1.00  0.00     0.051 A 
ATOM     15  C   UNL     1     176.653 170.321 156.250  1.00  0.00     0.157 A 
ATOM     16  C   UNL     1     174.324 170.902 156.606  1.00  0.00     0.062 A 
ATOM     17  C   UNL     1     175.347 169.947 156.609  1.00  0.00     0.158 A 
BRANCH  15  18
ATOM     18  O   UNL     1     177.677 169.375 156.251  1.00  0.00    -0.504 OA
ATOM     19  H   UNL     1     178.011 168.956 157.111  1.00  0.00     0.293 HD
ENDBRANCH  15  18
BRANCH  17  20
ATOM     20  O   UNL     1     175.048 168.634 156.970  1.00  0.00    -0.504 OA
ATOM     21  H   UNL     1     174.662 167.970 156.310  1.00  0.00     0.293 HD
ENDBRANCH  17  20
ENDBRANCH   1  12
BRANCH   2  22
ATOM     22  O   UNL     1     175.018 175.102 156.343  1.00  0.00    -0.502 OA
ATOM     23  H   UNL     1     175.556 175.365 155.526  1.00  0.00     0.293 HD
ENDBRANCH   2  22
BRANCH   6  24
ATOM     24  O   UNL     1     170.118 177.135 155.875  1.00  0.00    -0.507 OA
ATOM     25  H   UNL     1     170.946 177.707 155.814  1.00  0.00     0.293 HD
ENDBRANCH   6  24
BRANCH   8  26
ATOM     26  O   UNL     1     167.502 173.128 156.269  1.00  0.00    -0.508 OA
ATOM     27  H   UNL     1     167.226 172.553 157.057  1.00  0.00     0.293 HD
ENDBRANCH   8  26
TORSDOF 6
ENDMDL
MODEL 3
REMARK VINA RESULT:    -5.663      1.899      7.199
REMARK INTER + INTRA:          -6.317
REMARK INTER:                  -6.748
REMARK INTRA:                   0.431
REMARK UNBOUND:                 0.505
REMARK SMILES O=c1c(O)c(-c2ccc(O)c(O)c2)oc2cc(O)cc(O)c12
REMARK SMILES IDX 5 1 3 2 2 3 1 4 22 5 20 6 19 7 17 8 16 9 15 10 14 11 6 12
REMARK SMILES IDX 7 13 8 14 9 15 13 16 11 17 10 18 12 20 4 22 21 24 18 26
REMARK H PARENT 10 19 12 21 4 23 21 25 18 27
REMARK Flexibility Score: inf
ROOT
ATOM      1  C   UNL     1     172.244 173.197 156.485  1.00  0.00     0.180 A 
ATOM      2  C   UNL     1     170.910 173.627 156.582  1.00  0.00     0.208 A 
ATOM      3  C   UNL     1     169.882 172.672 156.546  1.00  0.00     0.238 A 
ATOM      4  O   UNL     1     168.692 173.058 156.688  1.00  0.00    -0.285 OA
ATOM      5  C   UNL     1     170.199 171.300 156.398  1.00  0.00     0.111 A 
ATOM      6  C   UNL     1     169.236 170.251 156.309  1.00  0.00     0.134 A 
ATOM      7  C   UNL     1     169.667 168.918 156.294  1.00  0.00     0.093 A 
ATOM      8  C   UNL     1     171.026 168.600 156.300  1.00  0.00     0.123 A 
ATOM      9  C   UNL     1     171.975 169.620 156.327  1.00  0.00     0.094 A 
ATOM     10  C   UNL     1     171.576 170.958 156.378  1.00  0.00     0.146 A 
ATOM     11  O   UNL     1     172.513 171.897 156.412  1.00  0.00    -0.452 OA
ENDROOT
BRANCH   1  12
ATOM     12  C   UNL     1     173.382 174.145 156.490  1.00  0.00     0.025 A 
ATOM     13  C   UNL     1     174.676 173.732 156.854  1.00  0.00     0.016 A 
ATOM     14  C   UNL     1     175.730 174.650 156.875  1.00  0.00     0.051 A 
ATOM     15  C   UNL     1     175.505 175.993 156.545  1.00  0.00     0.157 A 
ATOM     16  C   UNL     1     173.158 175.496 156.182  1.00  0.00     0.062 A 
ATOM     17  C   UNL     1     174.211 176.418 156.200  1.00  0.00     0.158 A 
BRANCH  15  18
ATOM     18  O   UNL     1     176.558 176.905 156.565  1.00  0.00    -0.504 OA
ATOM     19  H   UNL     1     176.562 177.725 155.969  1.00  0.00     0.293 HD
ENDBRANCH  15  18
BRANCH  17  20
ATOM     20  O   UNL     1     173.952 177.749 155.876  1.00  0.00    -0.504 OA
ATOM     21  H   UNL     1     173.054 178.182 156.057  1.00  0.00     0.293 HD
ENDBRANCH  17  20
ENDBRANCH   1  12
BRANCH   2  22
ATOM     22  O   UNL     1     170.620 174.984 156.750  1.00  0.00    -0.502 OA
ATOM     23  H   UNL     1     169.675 175.326 156.877  1.00  0.00     0.293 HD
ENDBRANCH   2  22
BRANCH   6  24
ATOM     24  O   UNL     1     167.858 170.462 156.204  1.00  0.00    -0.507 OA
ATOM     25  H   UNL     1     167.431 171.275 155.787  1.00  0.00     0.293 HD
ENDBRANCH   6  24
BRANCH   8  26
ATOM     26  O   UNL     1     171.446 167.272 156.270  1.00  0.00    -0.508 OA
ATOM     27  H   UNL     1     172.275 166.966 156.767  1.00  0.00     0.293 HD
ENDBRANCH   8  26
TORSDOF 6
ENDMDL
MODEL 4
REMARK VINA RESULT:    -5.647      2.703      4.521
REMARK INTER + INTRA:          -6.298
REMARK INTER:                  -6.702
REMARK INTRA:                   0.404
REMARK UNBOUND:                 0.505
REMARK SMILES O=c1c(O)c(-c2ccc(O)c(O)c2)oc2cc(O)cc(O)c12
REMARK SMILES IDX 5 1 3 2 2 3 1 4 22 5 20 6 19 7 17 8 16 9 15 10 14 11 6 12
REMARK SMILES IDX 7 13 8 14 9 15 13 16 11 17 10 18 12 20 4 22 21 24 18 26
REMARK H PARENT 10 19 12 21 4 23 21 25 18 27
REMARK Flexibility Score: inf
ROOT
ATOM      1  C   UNL     1     172.391 170.725 156.532  1.00  0.00     0.180 A 
ATOM      2  C   UNL     1     173.710 171.196 156.647  1.00  0.00     0.208 A 
ATOM      3  C   UNL     1     173.944 172.580 156.610  1.00  0.00     0.238 A 
ATOM      4  O   UNL     1     175.121 172.998 156.768  1.00  0.00    -0.285 OA
ATOM      5  C   UNL     1     172.860 173.475 156.443  1.00  0.00     0.111 A 
ATOM      6  C   UNL     1     172.986 174.893 156.352  1.00  0.00     0.134 A 
ATOM      7  C   UNL     1     171.833 175.688 156.318  1.00  0.00     0.093 A 
ATOM      8  C   UNL     1     170.561 175.112 156.307  1.00  0.00     0.123 A 
ATOM      9  C   UNL     1     170.429 173.726 156.336  1.00  0.00     0.094 A 
ATOM     10  C   UNL     1     171.559 172.908 156.406  1.00  0.00     0.146 A 
ATOM     11  O   UNL     1     171.388 171.592 156.442  1.00  0.00    -0.452 OA
ENDROOT
BRANCH   1  12
ATOM     12  C   UNL     1     172.066 169.280 156.537  1.00  0.00     0.025 A 
ATOM     13  C   UNL     1     170.795 168.818 156.923  1.00  0.00     0.016 A 
ATOM     14  C   UNL     1     170.518 167.448 156.943  1.00  0.00     0.051 A 
ATOM     15  C   UNL     1     171.507 166.521 156.590  1.00  0.00     0.157 A 
ATOM     16  C   UNL     1     173.060 168.346 156.206  1.00  0.00     0.062 A 
ATOM     17  C   UNL     1     172.786 166.973 156.223  1.00  0.00     0.158 A 
BRANCH  15  18
ATOM     18  O   UNL     1     171.227 165.156 156.610  1.00  0.00    -0.504 OA
ATOM     19  H   UNL     1     170.276 164.810 156.651  1.00  0.00     0.293 HD
ENDBRANCH  15  18
BRANCH  17  20
ATOM     20  O   UNL     1     173.795 166.077 155.875  1.00  0.00    -0.504 OA
ATOM     21  H   UNL     1     173.982 165.241 156.416  1.00  0.00     0.293 HD
ENDBRANCH  17  20
ENDBRANCH   1  12
BRANCH   2  22
ATOM     22  O   UNL     1     174.764 170.297 156.833  1.00  0.00    -0.502 OA
ATOM     23  H   UNL     1     175.396 170.038 156.085  1.00  0.00     0.293 HD
ENDBRANCH   2  22
BRANCH   6  24
ATOM     24  O   UNL     1     174.209 175.563 156.263  1.00  0.00    -0.507 OA
ATOM     25  H   UNL     1     175.104 175.114 156.140  1.00  0.00     0.293 HD
ENDBRANCH   6  24
BRANCH   8  26
ATOM     26  O   UNL     1     169.420 175.910 156.257  1.00  0.00    -0.508 OA
ATOM     27  H   UNL     1     169.390 176.758 155.704  1.00  0.00     0.293 HD
ENDBRANCH   8  26
TORSDOF 6
ENDMDL
MODEL 5
REMARK VINA RESULT:    -5.638      2.751      4.350
REMARK INTER + INTRA:          -6.286
REMARK INTER:                  -6.682
REMARK INTRA:                   0.396
REMARK UNBOUND:                 0.505
REMARK SMILES O=c1c(O)c(-c2ccc(O)c(O)c2)oc2cc(O)cc(O)c12
REMARK SMILES IDX 5 1 3 2 2 3 1 4 22 5 20 6 19 7 17 8 16 9 15 10 14 11 6 12
REMARK SMILES IDX 7 13 8 14 9 15 13 16 11 17 10 18 12 20 4 22 21 24 18 26
REMARK H PARENT 10 19 12 21 4 23 21 25 18 27
REMARK Flexibility Score: inf
ROOT
ATOM      1  C   UNL     1     171.115 172.870 156.538  1.00  0.00     0.180 A 
ATOM      2  C   UNL     1     170.369 171.688 156.688  1.00  0.00     0.208 A 
ATOM      3  C   UNL     1     171.038 170.454 156.658  1.00  0.00     0.238 A 
ATOM      4  O   UNL     1     170.373 169.401 156.847  1.00  0.00    -0.285 OA
ATOM      5  C   UNL     1     172.439 170.414 156.464  1.00  0.00     0.111 A 
ATOM      6  C   UNL     1     173.213 169.219 156.377  1.00  0.00     0.134 A 
ATOM      7  C   UNL     1     174.609 169.303 156.313  1.00  0.00     0.093 A 
ATOM      8  C   UNL     1     175.255 170.540 156.268  1.00  0.00     0.123 A 
ATOM      9  C   UNL     1     174.505 171.713 156.292  1.00  0.00     0.094 A 
ATOM     10  C   UNL     1     173.113 171.662 156.392  1.00  0.00     0.146 A 
ATOM     11  O   UNL     1     172.437 172.804 156.422  1.00  0.00    -0.452 OA
ENDROOT
BRANCH   1  12
ATOM     12  C   UNL     1     170.480 174.208 156.533  1.00  0.00     0.025 A 
ATOM     13  C   UNL     1     171.198 175.359 156.903  1.00  0.00     0.016 A 
ATOM     14  C   UNL     1     170.571 176.608 156.914  1.00  0.00     0.051 A 
ATOM     15  C   UNL     1     169.219 176.724 156.568  1.00  0.00     0.157 A 
ATOM     16  C   UNL     1     169.120 174.327 156.208  1.00  0.00     0.062 A 
ATOM     17  C   UNL     1     168.489 175.577 156.216  1.00  0.00     0.158 A 
BRANCH  15  18
ATOM     18  O   UNL     1     168.597 177.972 156.578  1.00  0.00    -0.504 OA
ATOM     19  H   UNL     1     167.654 178.098 156.230  1.00  0.00     0.293 HD
ENDBRANCH  15  18
BRANCH  17  20
ATOM     20  O   UNL     1     167.139 175.657 155.875  1.00  0.00    -0.504 OA
ATOM     21  H   UNL     1     166.409 175.301 156.481  1.00  0.00     0.293 HD
ENDBRANCH  17  20
ENDBRANCH   1  12
BRANCH   2  22
ATOM     22  O   UNL     1     168.989 171.749 156.900  1.00  0.00    -0.502 OA
ATOM     23  H   UNL     1     168.320 171.396 156.228  1.00  0.00     0.293 HD
ENDBRANCH   2  22
BRANCH   6  24
ATOM     24  O   UNL     1     172.662 167.935 156.321  1.00  0.00    -0.507 OA
ATOM     25  H   UNL     1     173.182 167.094 156.123  1.00  0.00     0.293 HD
ENDBRANCH   6  24
BRANCH   8  26
ATOM     26  O   UNL     1     176.645 170.614 156.190  1.00  0.00    -0.508 OA
ATOM     27  H   UNL     1     177.157 171.390 156.592  1.00  0.00     0.293 HD
ENDBRANCH   8  26
TORSDOF 6
ENDMDL
MODEL 6
REMARK VINA RESULT:    -5.609      1.922      7.184
REMARK INTER + INTRA:          -6.252
REMARK INTER:                  -6.719
REMARK INTRA:                   0.467
REMARK UNBOUND:                 0.505
REMARK SMILES O=c1c(O)c(-c2ccc(O)c(O)c2)oc2cc(O)cc(O)c12
REMARK SMILES IDX 5 1 3 2 2 3 1 4 22 5 20 6 19 7 17 8 16 9 15 10 14 11 6 12
REMARK SMILES IDX 7 13 8 14 9 15 13 16 11 17 10 18 12 20 4 22 21 24 18 26
REMARK H PARENT 10 19 12 21 4 23 21 25 18 27
REMARK Flexibility Score: inf
ROOT
ATOM      1  C   UNL     1     173.095 172.346 156.406  1.00  0.00     0.180 A 
ATOM      2  C   UNL     1     173.149 173.745 156.531  1.00  0.00     0.208 A 
ATOM      3  C   UNL     1     171.949 174.475 156.527  1.00  0.00     0.238 A 
ATOM      4  O   UNL     1     172.000 175.722 156.694  1.00  0.00    -0.285 OA
ATOM      5  C   UNL     1     170.713 173.801 156.382  1.00  0.00     0.111 A 
ATOM      6  C   UNL     1     169.441 174.443 156.325  1.00  0.00     0.134 A 
ATOM      7  C   UNL     1     168.275 173.667 156.311  1.00  0.00     0.093 A 
ATOM      8  C   UNL     1     168.339 172.272 156.287  1.00  0.00     0.123 A 
ATOM      9  C   UNL     1     169.578 171.636 156.283  1.00  0.00     0.094 A 
ATOM     10  C   UNL     1     170.757 172.383 156.332  1.00  0.00     0.146 A 
ATOM     11  O   UNL     1     171.917 171.736 156.337  1.00  0.00    -0.452 OA
ENDROOT
BRANCH   1  12
ATOM     12  C   UNL     1     174.317 171.510 156.376  1.00  0.00     0.025 A 
ATOM     13  C   UNL     1     174.264 170.129 156.638  1.00  0.00     0.016 A 
ATOM     14  C   UNL     1     175.433 169.363 156.628  1.00  0.00     0.051 A 
ATOM     15  C   UNL     1     176.671 169.966 156.369  1.00  0.00     0.157 A 
ATOM     16  C   UNL     1     175.562 172.112 156.139  1.00  0.00     0.062 A 
ATOM     17  C   UNL     1     176.736 171.348 156.127  1.00  0.00     0.158 A 
BRANCH  15  18
ATOM     18  O   UNL     1     177.835 169.199 156.359  1.00  0.00    -0.504 OA
ATOM     19  H   UNL     1     178.030 168.540 155.614  1.00  0.00     0.293 HD
ENDBRANCH  15  18
BRANCH  17  20
ATOM     20  O   UNL     1     177.953 171.980 155.875  1.00  0.00    -0.504 OA
ATOM     21  H   UNL     1     178.126 172.490 155.017  1.00  0.00     0.293 HD
ENDBRANCH  17  20
ENDBRANCH   1  12
BRANCH   2  22
ATOM     22  O   UNL     1     174.378 174.390 156.694  1.00  0.00    -0.502 OA
ATOM     23  H   UNL     1     175.050 174.110 157.398  1.00  0.00     0.293 HD
ENDBRANCH   2  22
BRANCH   6  24
ATOM     24  O   UNL     1     169.269 175.829 156.252  1.00  0.00    -0.507 OA
ATOM     25  H   UNL     1     168.517 176.290 155.763  1.00  0.00     0.293 HD
ENDBRANCH   6  24
BRANCH   8  26
ATOM     26  O   UNL     1     167.174 171.508 156.257  1.00  0.00    -0.508 OA
ATOM     27  H   UNL     1     167.143 170.606 155.796  1.00  0.00     0.293 HD
ENDBRANCH   8  26
TORSDOF 6
ENDMDL
MODEL 7
REMARK VINA RESULT:    -5.579      1.977      6.566
REMARK INTER + INTRA:          -6.216
REMARK INTER:                  -6.678
REMARK INTRA:                   0.461
REMARK UNBOUND:                 0.505
REMARK SMILES O=c1c(O)c(-c2ccc(O)c(O)c2)oc2cc(O)cc(O)c12
REMARK SMILES IDX 5 1 3 2 2 3 1 4 22 5 20 6 19 7 17 8 16 9 15 10 14 11 6 12
REMARK SMILES IDX 7 13 8 14 9 15 13 16 11 17 10 18 12 20 4 22 21 24 18 26
REMARK H PARENT 10 19 12 21 4 23 21 25 18 27
REMARK Flexibility Score: inf
ROOT
ATOM      1  C   UNL     1     170.988 172.712 156.329  1.00  0.00     0.180 A 
ATOM      2  C   UNL     1     169.587 172.645 156.427  1.00  0.00     0.208 A 
ATOM      3  C   UNL     1     168.964 171.387 156.421  1.00  0.00     0.238 A 
ATOM      4  O   UNL     1     167.714 171.331 156.564  1.00  0.00    -0.285 OA
ATOM      5  C   UNL     1     169.745 170.212 156.301  1.00  0.00     0.111 A 
ATOM      6  C   UNL     1     169.216 168.889 156.244  1.00  0.00     0.134 A 
ATOM      7  C   UNL     1     170.090 167.795 156.256  1.00  0.00     0.093 A 
ATOM      8  C   UNL     1     171.474 167.978 156.258  1.00  0.00     0.123 A 
ATOM      9  C   UNL     1     172.001 169.268 156.254  1.00  0.00     0.094 A 
ATOM     10  C   UNL     1     171.155 170.379 156.278  1.00  0.00     0.146 A 
ATOM     11  O   UNL     1     171.699 171.590 156.284  1.00  0.00    -0.452 OA
ENDROOT
BRANCH   1  12
ATOM     12  C   UNL     1     171.716 174.000 156.304  1.00  0.00     0.025 A 
ATOM     13  C   UNL     1     171.030 175.227 156.267  1.00  0.00     0.016 A 
ATOM     14  C   UNL     1     171.738 176.431 156.218  1.00  0.00     0.051 A 
ATOM     15  C   UNL     1     173.139 176.427 156.195  1.00  0.00     0.157 A 
ATOM     16  C   UNL     1     173.119 174.002 156.258  1.00  0.00     0.062 A 
ATOM     17  C   UNL     1     173.833 175.206 156.212  1.00  0.00     0.158 A 
BRANCH  15  18
ATOM     18  O   UNL     1     173.842 177.630 156.149  1.00  0.00    -0.504 OA
ATOM     19  H   UNL     1     174.215 178.060 156.988  1.00  0.00     0.293 HD
ENDBRANCH  15  18
BRANCH  17  20
ATOM     20  O   UNL     1     175.226 175.167 156.181  1.00  0.00    -0.504 OA
ATOM     21  H   UNL     1     175.760 175.615 155.446  1.00  0.00     0.293 HD
ENDBRANCH  17  20
ENDBRANCH   1  12
BRANCH   2  22
ATOM     22  O   UNL     1     168.836 173.815 156.566  1.00  0.00    -0.502 OA
ATOM     23  H   UNL     1     168.070 173.895 157.224  1.00  0.00     0.293 HD
ENDBRANCH   2  22
BRANCH   6  24
ATOM     24  O   UNL     1     167.852 168.597 156.146  1.00  0.00    -0.507 OA
ATOM     25  H   UNL     1     167.447 167.686 156.296  1.00  0.00     0.293 HD
ENDBRANCH   6  24
BRANCH   8  26
ATOM     26  O   UNL     1     172.337 166.884 156.255  1.00  0.00    -0.508 OA
ATOM     27  H   UNL     1     173.176 166.872 155.687  1.00  0.00     0.293 HD
ENDBRANCH   8  26
TORSDOF 6
ENDMDL
