MODEL 1
REMARK VINA RESULT:    -8.034      0.000      0.000
REMARK INTER + INTRA:         -15.282
REMARK INTER:                 -13.200
REMARK INTRA:                  -2.082
REMARK UNBOUND:                -2.082
REMARK SMILES C[C@@H]1O[C@@H](OC[C@@H]2O[C@H](Oc3c(-c4ccc(O)c(O)c4)oc4cc(O)cc(O)c4c3=O)[C@@H](O)[C@H](O)[C@@H]2O)[C@@H](O)[C@H](O)[C@@H]1O
REMARK SMILES IDX 7 1 36 2 34 3 32 4 9 5 8 6 6 7 5 8 4 9 1 10 2 11 42 12 3 13
REMARK SMILES IDX 40 14 38 15 43 16 41 18 39 20 37 22 35 24 10 26 11 27 12 28
REMARK SMILES IDX 30 29 21 30 29 31 31 32 22 33 27 34 23 35 26 36 24 37 13 38
REMARK SMILES IDX 20 39 14 40 18 41 15 42 16 43 19 44 17 46 28 48 25 50 33 52
REMARK H PARENT 43 17 41 19 39 21 37 23 35 25 19 45 17 47 28 49 25 51 33 53
REMARK Flexibility Score: inf
ROOT
ATOM      1  C   UNL     1      42.088  -7.132  10.544  1.00  0.00     0.180 C 
ATOM      2  C   UNL     1      43.346  -6.284  10.157  1.00  0.00     0.177 C 
ATOM      3  C   UNL     1      44.256  -6.966   9.094  1.00  0.00     0.180 C 
ATOM      4  C   UNL     1      43.483  -7.824   8.039  1.00  0.00     0.214 C 
ATOM      5  C   UNL     1      42.162  -8.402   8.603  1.00  0.00     0.339 C 
ATOM      6  O   UNL     1      42.180  -8.447  10.026  1.00  0.00    -0.332 OA
ENDROOT
BRANCH   1   7
ATOM      7  C   UNL     1      41.817  -7.190  12.049  1.00  0.00     0.198 C 
BRANCH   7   8
ATOM      8  O   UNL     1      42.796  -7.964  12.709  1.00  0.00    -0.347 OA
BRANCH   8   9
ATOM      9  C   UNL     1      42.216  -8.626  13.827  1.00  0.00     0.281 C 
ATOM     10  C   UNL     1      43.156  -6.228  16.455  1.00  0.00     0.041 C 
ATOM     11  C   UNL     1      43.374  -7.292  15.383  1.00  0.00     0.150 C 
ATOM     12  C   UNL     1      44.220  -8.470  15.914  1.00  0.00     0.174 C 
ATOM     13  O   UNL     1      42.103  -7.730  14.925  1.00  0.00    -0.344 OA
ATOM     14  C   UNL     1      44.398  -9.500  14.783  1.00  0.00     0.179 C 
ATOM     15  C   UNL     1      43.026  -9.886  14.206  1.00  0.00     0.202 C 
BRANCH  12  16
ATOM     16  O   UNL     1      43.591  -9.063  17.033  1.00  0.00    -0.388 OA
ATOM     17  H   UNL     1      42.904  -9.694  16.691  1.00  0.00     0.211 HD
ENDBRANCH  12  16
BRANCH  14  18
ATOM     18  O   UNL     1      45.038 -10.643  15.285  1.00  0.00    -0.387 OA
ATOM     19  H   UNL     1      45.368 -11.168  14.504  1.00  0.00     0.211 HD
ENDBRANCH  14  18
BRANCH  15  20
ATOM     20  O   UNL     1      43.182 -10.740  13.098  1.00  0.00    -0.385 OA
ATOM     21  H   UNL     1      44.153 -10.770  12.892  1.00  0.00     0.211 HD
ENDBRANCH  15  20
ENDBRANCH   8   9
ENDBRANCH   7   8
ENDBRANCH   1   7
BRANCH   2  22
ATOM     22  O   UNL     1      44.112  -5.876  11.278  1.00  0.00    -0.387 OA
ATOM     23  H   UNL     1      45.043  -5.735  10.988  1.00  0.00     0.211 HD
ENDBRANCH   2  22
BRANCH   3  24
ATOM     24  O   UNL     1      45.265  -7.727   9.696  1.00  0.00    -0.387 OA
ATOM     25  H   UNL     1      44.862  -8.243  10.440  1.00  0.00     0.211 HD
ENDBRANCH   3  24
BRANCH   5  26
ATOM     26  O   UNL     1      41.916  -9.711   8.052  1.00  0.00    -0.454 OA
BRANCH  26  27
ATOM     27  C   UNL     1      42.427 -10.177   6.830  1.00  0.00     0.214 A 
ATOM     28  C   UNL     1      43.383 -11.211   6.783  1.00  0.00     0.180 A 
ATOM     29  C   UNL     1      41.947  -9.657   5.614  1.00  0.00     0.239 A 
ATOM     30  O   UNL     1      43.971 -11.502   5.633  1.00  0.00    -0.452 OA
ATOM     31  C   UNL     1      42.540 -10.061   4.399  1.00  0.00     0.111 A 
ATOM     32  O   UNL     1      40.967  -8.859   5.622  1.00  0.00    -0.285 OA
ATOM     33  C   UNL     1      43.621 -10.966   4.468  1.00  0.00     0.146 A 
ATOM     34  C   UNL     1      42.088  -9.619   3.128  1.00  0.00     0.134 A 
ATOM     35  C   UNL     1      44.294 -11.347   3.306  1.00  0.00     0.094 A 
ATOM     36  C   UNL     1      42.764 -10.016   1.964  1.00  0.00     0.093 A 
ATOM     37  C   UNL     1      43.875 -10.869   2.052  1.00  0.00     0.123 A 
BRANCH  28  38
ATOM     38  C   UNL     1      43.738 -12.038   7.957  1.00  0.00     0.025 A 
ATOM     39  C   UNL     1      44.331 -11.406   9.066  1.00  0.00     0.062 A 
ATOM     40  C   UNL     1      43.466 -13.419   8.027  1.00  0.00     0.016 A 
ATOM     41  C   UNL     1      44.691 -12.139  10.200  1.00  0.00     0.158 A 
ATOM     42  C   UNL     1      43.837 -14.155   9.164  1.00  0.00     0.051 A 
ATOM     43  C   UNL     1      44.478 -13.528  10.237  1.00  0.00     0.157 A 
BRANCH  41  44
ATOM     44  O   UNL     1      45.269 -11.476  11.289  1.00  0.00    -0.504 OA
ATOM     45  H   UNL     1      44.686 -11.170  12.058  1.00  0.00     0.293 HD
ENDBRANCH  41  44
BRANCH  43  46
ATOM     46  O   UNL     1      44.926 -14.293  11.320  1.00  0.00    -0.504 OA
ATOM     47  H   UNL     1      45.911 -14.452  11.499  1.00  0.00     0.293 HD
ENDBRANCH  43  46
ENDBRANCH  28  38
BRANCH  34  48
ATOM     48  O   UNL     1      40.927  -8.874   3.010  1.00  0.00    -0.507 OA
ATOM     49  H   UNL     1      40.318  -8.944   2.201  1.00  0.00     0.293 HD
ENDBRANCH  34  48
BRANCH  37  50
ATOM     50  O   UNL     1      44.554 -11.259   0.900  1.00  0.00    -0.508 OA
ATOM     51  H   UNL     1      44.068 -11.643   0.095  1.00  0.00     0.293 HD
ENDBRANCH  37  50
ENDBRANCH  26  27
ENDBRANCH   5  26
BRANCH   4  52
ATOM     52  O   UNL     1      43.193  -7.047   6.906  1.00  0.00    -0.384 OA
ATOM     53  H   UNL     1      42.209  -7.074   6.769  1.00  0.00     0.211 HD
ENDBRANCH   4  52
TORSDOF 16
ENDMDL
MODEL 2
REMARK VINA RESULT:    -7.985      3.187      6.669
REMARK INTER + INTRA:         -15.201
REMARK INTER:                 -12.367
REMARK INTRA:                  -2.834
REMARK UNBOUND:                -2.082
REMARK SMILES C[C@@H]1O[C@@H](OC[C@@H]2O[C@H](Oc3c(-c4ccc(O)c(O)c4)oc4cc(O)cc(O)c4c3=O)[C@@H](O)[C@H](O)[C@@H]2O)[C@@H](O)[C@H](O)[C@@H]1O
REMARK SMILES IDX 7 1 36 2 34 3 32 4 9 5 8 6 6 7 5 8 4 9 1 10 2 11 42 12 3 13
REMARK SMILES IDX 40 14 38 15 43 16 41 18 39 20 37 22 35 24 10 26 11 27 12 28
REMARK SMILES IDX 30 29 21 30 29 31 31 32 22 33 27 34 23 35 26 36 24 37 13 38
REMARK SMILES IDX 20 39 14 40 18 41 15 42 16 43 19 44 17 46 28 48 25 50 33 52
REMARK H PARENT 43 17 41 19 39 21 37 23 35 25 19 45 17 47 28 49 25 51 33 53
REMARK Flexibility Score: inf
ROOT
ATOM      1  C   UNL     1      42.553 -11.752  11.029  1.00  0.00     0.180 C 
ATOM      2  C   UNL     1      42.013 -10.520  10.227  1.00  0.00     0.177 C 
ATOM      3  C   UNL     1      43.086  -9.845   9.322  1.00  0.00     0.180 C 
ATOM      4  C   UNL     1      44.127 -10.837   8.709  1.00  0.00     0.214 C 
ATOM      5  C   UNL     1      44.351 -12.083   9.599  1.00  0.00     0.339 C 
ATOM      6  O   UNL     1      43.965 -11.835  10.947  1.00  0.00    -0.332 OA
ENDROOT
BRANCH   1   7
ATOM      7  C   UNL     1      42.121 -11.776  12.497  1.00  0.00     0.198 C 
BRANCH   7   8
ATOM      8  O   UNL     1      42.911 -10.897  13.270  1.00  0.00    -0.347 OA
BRANCH   8   9
ATOM      9  C   UNL     1      42.076 -10.124  14.125  1.00  0.00     0.281 C 
ATOM     10  C   UNL     1      42.956  -6.770  12.893  1.00  0.00     0.041 C 
ATOM     11  C   UNL     1      43.172  -8.111  13.590  1.00  0.00     0.150 C 
ATOM     12  C   UNL     1      43.743  -7.926  15.013  1.00  0.00     0.174 C 
ATOM     13  O   UNL     1      41.933  -8.805  13.612  1.00  0.00    -0.344 OA
ATOM     14  C   UNL     1      43.933  -9.315  15.652  1.00  0.00     0.179 C 
ATOM     15  C   UNL     1      42.622 -10.113  15.569  1.00  0.00     0.202 C 
BRANCH  12  16
ATOM     16  O   UNL     1      42.871  -7.134  15.795  1.00  0.00    -0.388 OA
ATOM     17  H   UNL     1      42.023  -7.641  15.904  1.00  0.00     0.211 HD
ENDBRANCH  12  16
BRANCH  14  18
ATOM     18  O   UNL     1      44.312  -9.165  16.995  1.00  0.00    -0.387 OA
ATOM     19  H   UNL     1      43.615  -9.608  17.553  1.00  0.00     0.211 HD
ENDBRANCH  14  18
BRANCH  15  20
ATOM     20  O   UNL     1      42.814 -11.423  16.048  1.00  0.00    -0.385 OA
ATOM     21  H   UNL     1      42.731 -11.385  17.036  1.00  0.00     0.211 HD
ENDBRANCH  15  20
ENDBRANCH   8   9
ENDBRANCH   7   8
ENDBRANCH   1   7
BRANCH   2  22
ATOM     22  O   UNL     1      41.376  -9.555  11.047  1.00  0.00    -0.387 OA
ATOM     23  H   UNL     1      42.070  -9.034  11.516  1.00  0.00     0.211 HD
ENDBRANCH   2  22
BRANCH   3  24
ATOM     24  O   UNL     1      43.740  -8.805   9.993  1.00  0.00    -0.387 OA
ATOM     25  H   UNL     1      43.123  -8.443  10.679  1.00  0.00     0.211 HD
ENDBRANCH   3  24
BRANCH   5  26
ATOM     26  O   UNL     1      45.727 -12.504   9.530  1.00  0.00    -0.454 OA
BRANCH  26  27
ATOM     27  C   UNL     1      46.645 -12.427  10.589  1.00  0.00     0.214 A 
ATOM     28  C   UNL     1      46.984 -13.565  11.348  1.00  0.00     0.180 A 
ATOM     29  C   UNL     1      47.296 -11.213  10.880  1.00  0.00     0.239 A 
ATOM     30  O   UNL     1      47.712 -13.422  12.446  1.00  0.00    -0.452 OA
ATOM     31  C   UNL     1      48.138 -11.126  12.008  1.00  0.00     0.111 A 
ATOM     32  O   UNL     1      47.145 -10.226  10.106  1.00  0.00    -0.285 OA
ATOM     33  C   UNL     1      48.269 -12.274  12.818  1.00  0.00     0.146 A 
ATOM     34  C   UNL     1      48.866  -9.955  12.347  1.00  0.00     0.134 A 
ATOM     35  C   UNL     1      49.030 -12.228  13.987  1.00  0.00     0.094 A 
ATOM     36  C   UNL     1      49.637  -9.920  13.518  1.00  0.00     0.093 A 
ATOM     37  C   UNL     1      49.711 -11.051  14.345  1.00  0.00     0.123 A 
BRANCH  28  38
ATOM     38  C   UNL     1      46.607 -14.940  10.956  1.00  0.00     0.025 A 
ATOM     39  C   UNL     1      47.460 -15.647  10.088  1.00  0.00     0.062 A 
ATOM     40  C   UNL     1      45.455 -15.585  11.450  1.00  0.00     0.016 A 
ATOM     41  C   UNL     1      47.151 -16.947   9.681  1.00  0.00     0.158 A 
ATOM     42  C   UNL     1      45.142 -16.889  11.032  1.00  0.00     0.051 A 
ATOM     43  C   UNL     1      45.967 -17.560  10.125  1.00  0.00     0.157 A 
BRANCH  41  44
ATOM     44  O   UNL     1      48.028 -17.623   8.825  1.00  0.00    -0.504 OA
ATOM     45  H   UNL     1      48.383 -17.158   7.999  1.00  0.00     0.293 HD
ENDBRANCH  41  44
BRANCH  43  46
ATOM     46  O   UNL     1      45.589 -18.820   9.646  1.00  0.00    -0.504 OA
ATOM     47  H   UNL     1      46.166 -19.349   9.002  1.00  0.00     0.293 HD
ENDBRANCH  43  46
ENDBRANCH  28  38
BRANCH  34  48
ATOM     48  O   UNL     1      48.901  -8.871  11.487  1.00  0.00    -0.507 OA
ATOM     49  H   UNL     1      48.994  -7.917  11.821  1.00  0.00     0.293 HD
ENDBRANCH  34  48
BRANCH  37  50
ATOM     50  O   UNL     1      50.470 -11.018  15.514  1.00  0.00    -0.508 OA
ATOM     51  H   UNL     1      51.257 -11.642  15.660  1.00  0.00     0.293 HD
ENDBRANCH  37  50
ENDBRANCH  26  27
ENDBRANCH   5  26
BRANCH   4  52
ATOM     52  O   UNL     1      43.702 -11.255   7.438  1.00  0.00    -0.384 OA
ATOM     53  H   UNL     1      42.986 -11.932   7.569  1.00  0.00     0.211 HD
ENDBRANCH   4  52
TORSDOF 16
ENDMDL
MODEL 3
REMARK VINA RESULT:    -7.872     15.427     19.351
REMARK INTER + INTRA:         -15.016
REMARK INTER:                 -12.196
REMARK INTRA:                  -2.821
REMARK UNBOUND:                -2.082
REMARK SMILES C[C@@H]1O[C@@H](OC[C@@H]2O[C@H](Oc3c(-c4ccc(O)c(O)c4)oc4cc(O)cc(O)c4c3=O)[C@@H](O)[C@H](O)[C@@H]2O)[C@@H](O)[C@H](O)[C@@H]1O
REMARK SMILES IDX 7 1 36 2 34 3 32 4 9 5 8 6 6 7 5 8 4 9 1 10 2 11 42 12 3 13
REMARK SMILES IDX 40 14 38 15 43 16 41 18 39 20 37 22 35 24 10 26 11 27 12 28
REMARK SMILES IDX 30 29 21 30 29 31 31 32 22 33 27 34 23 35 26 36 24 37 13 38
REMARK SMILES IDX 20 39 14 40 18 41 15 42 16 43 19 44 17 46 28 48 25 50 33 52
REMARK H PARENT 43 17 41 19 39 21 37 23 35 25 19 45 17 47 28 49 25 51 33 53
REMARK Flexibility Score: inf
ROOT
ATOM      1  C   UNL     1      59.343 -23.275   8.694  1.00  0.00     0.180 C 
ATOM      2  C   UNL     1      59.425 -24.727   8.112  1.00  0.00     0.177 C 
ATOM      3  C   UNL     1      58.154 -25.154   7.320  1.00  0.00     0.180 C 
ATOM      4  C   UNL     1      57.459 -23.991   6.540  1.00  0.00     0.214 C 
ATOM      5  C   UNL     1      57.685 -22.614   7.211  1.00  0.00     0.339 C 
ATOM      6  O   UNL     1      58.030 -22.755   8.585  1.00  0.00    -0.332 OA
ENDROOT
BRANCH   1   7
ATOM      7  C   UNL     1      59.823 -23.158  10.142  1.00  0.00     0.198 C 
BRANCH   7   8
ATOM      8  O   UNL     1      58.913 -23.775  11.027  1.00  0.00    -0.347 OA
BRANCH   8   9
ATOM      9  C   UNL     1      58.921 -23.097  12.278  1.00  0.00     0.281 C 
ATOM     10  C   UNL     1      57.569 -25.791  14.390  1.00  0.00     0.041 C 
ATOM     11  C   UNL     1      57.554 -24.713  13.309  1.00  0.00     0.150 C 
ATOM     12  C   UNL     1      56.370 -23.738  13.495  1.00  0.00     0.174 C 
ATOM     13  O   UNL     1      58.799 -24.031  13.344  1.00  0.00    -0.344 OA
ATOM     14  C   UNL     1      56.420 -22.682  12.375  1.00  0.00     0.179 C 
ATOM     15  C   UNL     1      57.810 -22.026  12.335  1.00  0.00     0.202 C 
BRANCH  12  16
ATOM     16  O   UNL     1      56.435 -23.120  14.765  1.00  0.00    -0.388 OA
ATOM     17  H   UNL     1      57.264 -22.571  14.788  1.00  0.00     0.211 HD
ENDBRANCH  12  16
BRANCH  14  18
ATOM     18  O   UNL     1      55.441 -21.704  12.608  1.00  0.00    -0.387 OA
ATOM     19  H   UNL     1      55.826 -20.825  12.335  1.00  0.00     0.211 HD
ENDBRANCH  14  18
BRANCH  15  20
ATOM     20  O   UNL     1      57.903 -21.141  11.245  1.00  0.00    -0.385 OA
ATOM     21  H   UNL     1      58.060 -21.694  10.436  1.00  0.00     0.211 HD
ENDBRANCH  15  20
ENDBRANCH   8   9
ENDBRANCH   7   8
ENDBRANCH   1   7
BRANCH   2  22
ATOM     22  O   UNL     1      59.754 -25.702   9.086  1.00  0.00    -0.387 OA
ATOM     23  H   UNL     1      58.926 -26.152   9.372  1.00  0.00     0.211 HD
ENDBRANCH   2  22
BRANCH   3  24
ATOM     24  O   UNL     1      57.232 -25.807   8.146  1.00  0.00    -0.387 OA
ATOM     25  H   UNL     1      57.272 -26.777   7.949  1.00  0.00     0.211 HD
ENDBRANCH   3  24
BRANCH   5  26
ATOM     26  O   UNL     1      56.514 -21.788   7.059  1.00  0.00    -0.454 OA
BRANCH  26  27
ATOM     27  C   UNL     1      56.405 -20.459   7.500  1.00  0.00     0.214 A 
ATOM     28  C   UNL     1      56.783 -19.381   6.676  1.00  0.00     0.180 A 
ATOM     29  C   UNL     1      55.856 -20.172   8.764  1.00  0.00     0.239 A 
ATOM     30  O   UNL     1      56.834 -18.159   7.184  1.00  0.00    -0.452 OA
ATOM     31  C   UNL     1      55.846 -18.843   9.235  1.00  0.00     0.111 A 
ATOM     32  O   UNL     1      55.348 -21.106   9.448  1.00  0.00    -0.285 OA
ATOM     33  C   UNL     1      56.419 -17.851   8.410  1.00  0.00     0.146 A 
ATOM     34  C   UNL     1      55.273 -18.462  10.476  1.00  0.00     0.134 A 
ATOM     35  C   UNL     1      56.503 -16.531   8.852  1.00  0.00     0.094 A 
ATOM     36  C   UNL     1      55.352 -17.130  10.909  1.00  0.00     0.093 A 
ATOM     37  C   UNL     1      55.978 -16.165  10.103  1.00  0.00     0.123 A 
BRANCH  28  38
ATOM     38  C   UNL     1      57.083 -19.531   5.235  1.00  0.00     0.025 A 
ATOM     39  C   UNL     1      58.283 -20.167   4.864  1.00  0.00     0.062 A 
ATOM     40  C   UNL     1      56.200 -19.104   4.223  1.00  0.00     0.016 A 
ATOM     41  C   UNL     1      58.620 -20.332   3.519  1.00  0.00     0.158 A 
ATOM     42  C   UNL     1      56.545 -19.263   2.872  1.00  0.00     0.051 A 
ATOM     43  C   UNL     1      57.765 -19.845   2.515  1.00  0.00     0.157 A 
BRANCH  41  44
ATOM     44  O   UNL     1      59.816 -20.979   3.187  1.00  0.00    -0.504 OA
ATOM     45  H   UNL     1      60.096 -21.050   2.216  1.00  0.00     0.293 HD
ENDBRANCH  41  44
BRANCH  43  46
ATOM     46  O   UNL     1      58.135 -19.907   1.166  1.00  0.00    -0.504 OA
ATOM     47  H   UNL     1      58.080 -20.765   0.629  1.00  0.00     0.293 HD
ENDBRANCH  43  46
ENDBRANCH  28  38
BRANCH  34  48
ATOM     48  O   UNL     1      54.550 -19.371  11.230  1.00  0.00    -0.507 OA
ATOM     49  H   UNL     1      53.535 -19.370  11.253  1.00  0.00     0.293 HD
ENDBRANCH  34  48
BRANCH  37  50
ATOM     50  O   UNL     1      56.065 -14.842  10.532  1.00  0.00    -0.508 OA
ATOM     51  H   UNL     1      56.389 -14.100   9.920  1.00  0.00     0.293 HD
ENDBRANCH  37  50
ENDBRANCH  26  27
ENDBRANCH   5  26
BRANCH   4  52
ATOM     52  O   UNL     1      57.940 -23.940   5.222  1.00  0.00    -0.384 OA
ATOM     53  H   UNL     1      57.360 -24.528   4.669  1.00  0.00     0.211 HD
ENDBRANCH   4  52
TORSDOF 16
ENDMDL
MODEL 4
REMARK VINA RESULT:    -7.802      4.522      9.181
REMARK INTER + INTRA:         -14.900
REMARK INTER:                 -13.142
REMARK INTRA:                  -1.758
REMARK UNBOUND:                -2.082
REMARK SMILES C[C@@H]1O[C@@H](OC[C@@H]2O[C@H](Oc3c(-c4ccc(O)c(O)c4)oc4cc(O)cc(O)c4c3=O)[C@@H](O)[C@H](O)[C@@H]2O)[C@@H](O)[C@H](O)[C@@H]1O
REMARK SMILES IDX 7 1 36 2 34 3 32 4 9 5 8 6 6 7 5 8 4 9 1 10 2 11 42 12 3 13
REMARK SMILES IDX 40 14 38 15 43 16 41 18 39 20 37 22 35 24 10 26 11 27 12 28
REMARK SMILES IDX 30 29 21 30 29 31 31 32 22 33 27 34 23 35 26 36 24 37 13 38
REMARK SMILES IDX 20 39 14 40 18 41 15 42 16 43 19 44 17 46 28 48 25 50 33 52
REMARK H PARENT 43 17 41 19 39 21 37 23 35 25 19 45 17 47 28 49 25 51 33 53
REMARK Flexibility Score: inf
ROOT
ATOM      1  C   UNL     1      49.230 -11.894  14.241  1.00  0.00     0.180 C 
ATOM      2  C   UNL     1      50.282 -11.937  13.082  1.00  0.00     0.177 C 
ATOM      3  C   UNL     1      49.657 -12.208  11.681  1.00  0.00     0.180 C 
ATOM      4  C   UNL     1      48.234 -11.593  11.481  1.00  0.00     0.214 C 
ATOM      5  C   UNL     1      47.451 -11.472  12.811  1.00  0.00     0.339 C 
ATOM      6  O   UNL     1      47.966 -12.357  13.800  1.00  0.00    -0.332 OA
ENDROOT
BRANCH   1   7
ATOM      7  C   UNL     1      49.652 -12.666  15.493  1.00  0.00     0.198 C 
BRANCH   7   8
ATOM      8  O   UNL     1      49.066 -13.951  15.515  1.00  0.00    -0.347 OA
BRANCH   8   9
ATOM      9  C   UNL     1      50.064 -14.932  15.769  1.00  0.00     0.281 C 
ATOM     10  C   UNL     1      49.721 -16.902  12.680  1.00  0.00     0.041 C 
ATOM     11  C   UNL     1      49.310 -16.336  14.036  1.00  0.00     0.150 C 
ATOM     12  C   UNL     1      48.852 -17.451  15.002  1.00  0.00     0.174 C 
ATOM     13  O   UNL     1      50.408 -15.608  14.565  1.00  0.00    -0.344 OA
ATOM     14  C   UNL     1      48.456 -16.809  16.345  1.00  0.00     0.179 C 
ATOM     15  C   UNL     1      49.602 -15.923  16.860  1.00  0.00     0.202 C 
BRANCH  12  16
ATOM     16  O   UNL     1      49.887 -18.396  15.190  1.00  0.00    -0.388 OA
ATOM     17  H   UNL     1      49.733 -18.839  16.066  1.00  0.00     0.211 HD
ENDBRANCH  12  16
BRANCH  14  18
ATOM     18  O   UNL     1      48.177 -17.814  17.282  1.00  0.00    -0.387 OA
ATOM     19  H   UNL     1      47.536 -18.450  16.857  1.00  0.00     0.211 HD
ENDBRANCH  14  18
BRANCH  15  20
ATOM     20  O   UNL     1      49.209 -15.243  18.028  1.00  0.00    -0.385 OA
ATOM     21  H   UNL     1      48.679 -14.455  17.739  1.00  0.00     0.211 HD
ENDBRANCH  15  20
ENDBRANCH   8   9
ENDBRANCH   7   8
ENDBRANCH   1   7
BRANCH   2  22
ATOM     22  O   UNL     1      51.351 -12.834  13.331  1.00  0.00    -0.387 OA
ATOM     23  H   UNL     1      51.081 -13.454  14.047  1.00  0.00     0.211 HD
ENDBRANCH   2  22
BRANCH   3  24
ATOM     24  O   UNL     1      49.644 -13.576  11.383  1.00  0.00    -0.387 OA
ATOM     25  H   UNL     1      50.341 -13.750  10.700  1.00  0.00     0.211 HD
ENDBRANCH   3  24
BRANCH   5  26
ATOM     26  O   UNL     1      46.048 -11.713  12.587  1.00  0.00    -0.454 OA
BRANCH  26  27
ATOM     27  C   UNL     1      45.016 -10.819  12.915  1.00  0.00     0.214 A 
ATOM     28  C   UNL     1      44.048 -10.439  11.965  1.00  0.00     0.180 A 
ATOM     29  C   UNL     1      44.894 -10.326  14.228  1.00  0.00     0.239 A 
ATOM     30  O   UNL     1      43.200  -9.463  12.255  1.00  0.00    -0.452 OA
ATOM     31  C   UNL     1      43.916  -9.352  14.519  1.00  0.00     0.111 A 
ATOM     32  O   UNL     1      45.639 -10.787  15.138  1.00  0.00    -0.285 OA
ATOM     33  C   UNL     1      43.110  -8.894  13.454  1.00  0.00     0.146 A 
ATOM     34  C   UNL     1      43.696  -8.835  15.822  1.00  0.00     0.134 A 
ATOM     35  C   UNL     1      42.175  -7.881  13.664  1.00  0.00     0.094 A 
ATOM     36  C   UNL     1      42.746  -7.823  16.027  1.00  0.00     0.093 A 
ATOM     37  C   UNL     1      41.993  -7.336  14.948  1.00  0.00     0.123 A 
BRANCH  28  38
ATOM     38  C   UNL     1      43.890 -11.111  10.658  1.00  0.00     0.025 A 
ATOM     39  C   UNL     1      43.443 -12.446  10.642  1.00  0.00     0.062 A 
ATOM     40  C   UNL     1      44.125 -10.459   9.431  1.00  0.00     0.016 A 
ATOM     41  C   UNL     1      43.279 -13.132   9.436  1.00  0.00     0.158 A 
ATOM     42  C   UNL     1      43.969 -11.153   8.221  1.00  0.00     0.051 A 
ATOM     43  C   UNL     1      43.579 -12.496   8.219  1.00  0.00     0.157 A 
BRANCH  41  44
ATOM     44  O   UNL     1      42.822 -14.455   9.457  1.00  0.00    -0.504 OA
ATOM     45  H   UNL     1      42.617 -14.902  10.342  1.00  0.00     0.293 HD
ENDBRANCH  41  44
BRANCH  43  46
ATOM     46  O   UNL     1      43.522 -13.199   7.010  1.00  0.00    -0.504 OA
ATOM     47  H   UNL     1      44.196 -13.054   6.267  1.00  0.00     0.293 HD
ENDBRANCH  43  46
ENDBRANCH  28  38
BRANCH  34  48
ATOM     48  O   UNL     1      44.342  -9.382  16.918  1.00  0.00    -0.507 OA
ATOM     49  H   UNL     1      44.142  -9.086  17.868  1.00  0.00     0.293 HD
ENDBRANCH  34  48
BRANCH  37  50
ATOM     50  O   UNL     1      41.054  -6.326  15.145  1.00  0.00    -0.508 OA
ATOM     51  H   UNL     1      41.120  -5.431  14.670  1.00  0.00     0.293 HD
ENDBRANCH  37  50
ENDBRANCH  26  27
ENDBRANCH   5  26
BRANCH   4  52
ATOM     52  O   UNL     1      48.337 -10.322  10.895  1.00  0.00    -0.384 OA
ATOM     53  H   UNL     1      48.686 -10.444   9.973  1.00  0.00     0.211 HD
ENDBRANCH   4  52
TORSDOF 16
ENDMDL
MODEL 5
REMARK VINA RESULT:    -7.787      1.333      5.148
REMARK INTER + INTRA:         -14.876
REMARK INTER:                 -12.855
REMARK INTRA:                  -2.021
REMARK UNBOUND:                -2.082
REMARK SMILES C[C@@H]1O[C@@H](OC[C@@H]2O[C@H](Oc3c(-c4ccc(O)c(O)c4)oc4cc(O)cc(O)c4c3=O)[C@@H](O)[C@H](O)[C@@H]2O)[C@@H](O)[C@H](O)[C@@H]1O
REMARK SMILES IDX 7 1 36 2 34 3 32 4 9 5 8 6 6 7 5 8 4 9 1 10 2 11 42 12 3 13
REMARK SMILES IDX 40 14 38 15 43 16 41 18 39 20 37 22 35 24 10 26 11 27 12 28
REMARK SMILES IDX 30 29 21 30 29 31 31 32 22 33 27 34 23 35 26 36 24 37 13 38
REMARK SMILES IDX 20 39 14 40 18 41 15 42 16 43 19 44 17 46 28 48 25 50 33 52
REMARK H PARENT 43 17 41 19 39 21 37 23 35 25 19 45 17 47 28 49 25 51 33 53
REMARK Flexibility Score: inf
ROOT
ATOM      1  C   UNL     1      41.549  -8.583  10.536  1.00  0.00     0.180 C 
ATOM      2  C   UNL     1      41.394  -7.056  10.227  1.00  0.00     0.177 C 
ATOM      3  C   UNL     1      42.603  -6.450   9.455  1.00  0.00     0.180 C 
ATOM      4  C   UNL     1      43.280  -7.432   8.445  1.00  0.00     0.214 C 
ATOM      5  C   UNL     1      43.131  -8.912   8.871  1.00  0.00     0.339 C 
ATOM      6  O   UNL     1      42.866  -9.028  10.265  1.00  0.00    -0.332 OA
ENDROOT
BRANCH   1   7
ATOM      7  C   UNL     1      41.160  -8.971  11.965  1.00  0.00     0.198 C 
BRANCH   7   8
ATOM      8  O   UNL     1      42.121  -8.511  12.892  1.00  0.00    -0.347 OA
BRANCH   8   9
ATOM      9  C   UNL     1      41.861  -9.071  14.174  1.00  0.00     0.281 C 
ATOM     10  C   UNL     1      43.046  -6.281  16.260  1.00  0.00     0.041 C 
ATOM     11  C   UNL     1      43.157  -7.452  15.287  1.00  0.00     0.150 C 
ATOM     12  C   UNL     1      44.221  -8.473  15.746  1.00  0.00     0.174 C 
ATOM     13  O   UNL     1      41.876  -8.053  15.168  1.00  0.00    -0.344 OA
ATOM     14  C   UNL     1      44.277  -9.621  14.721  1.00  0.00     0.179 C 
ATOM     15  C   UNL     1      42.867 -10.196  14.502  1.00  0.00     0.202 C 
BRANCH  12  16
ATOM     16  O   UNL     1      43.906  -8.969  17.032  1.00  0.00    -0.388 OA
ATOM     17  H   UNL     1      44.130  -8.259  17.690  1.00  0.00     0.211 HD
ENDBRANCH  12  16
BRANCH  14  18
ATOM     18  O   UNL     1      45.130 -10.630  15.192  1.00  0.00    -0.387 OA
ATOM     19  H   UNL     1      44.625 -11.489  15.158  1.00  0.00     0.211 HD
ENDBRANCH  14  18
BRANCH  15  20
ATOM     20  O   UNL     1      42.887 -11.169  13.485  1.00  0.00    -0.385 OA
ATOM     21  H   UNL     1      42.743 -12.048  13.923  1.00  0.00     0.211 HD
ENDBRANCH  15  20
ENDBRANCH   8   9
ENDBRANCH   7   8
ENDBRANCH   1   7
BRANCH   2  22
ATOM     22  O   UNL     1      41.098  -6.280  11.376  1.00  0.00    -0.387 OA
ATOM     23  H   UNL     1      41.094  -5.329  11.119  1.00  0.00     0.211 HD
ENDBRANCH   2  22
BRANCH   3  24
ATOM     24  O   UNL     1      43.556  -5.919  10.333  1.00  0.00    -0.387 OA
ATOM     25  H   UNL     1      43.487  -6.404  11.194  1.00  0.00     0.211 HD
ENDBRANCH   3  24
BRANCH   5  26
ATOM     26  O   UNL     1      44.313  -9.655   8.511  1.00  0.00    -0.454 OA
BRANCH  26  27
ATOM     27  C   UNL     1      44.448 -11.049   8.616  1.00  0.00     0.214 A 
ATOM     28  C   UNL     1      44.043 -11.905   7.573  1.00  0.00     0.180 A 
ATOM     29  C   UNL     1      45.052 -11.621   9.752  1.00  0.00     0.239 A 
ATOM     30  O   UNL     1      44.020 -13.213   7.776  1.00  0.00    -0.452 OA
ATOM     31  C   UNL     1      45.090 -13.024   9.890  1.00  0.00     0.111 A 
ATOM     32  O   UNL     1      45.583 -10.870  10.619  1.00  0.00    -0.285 OA
ATOM     33  C   UNL     1      44.489 -13.799   8.874  1.00  0.00     0.146 A 
ATOM     34  C   UNL     1      45.718 -13.682  10.980  1.00  0.00     0.134 A 
ATOM     35  C   UNL     1      44.432 -15.188   8.990  1.00  0.00     0.094 A 
ATOM     36  C   UNL     1      45.665 -15.080  11.083  1.00  0.00     0.093 A 
ATOM     37  C   UNL     1      45.012 -15.834  10.096  1.00  0.00     0.123 A 
BRANCH  28  38
ATOM     38  C   UNL     1      43.681 -11.420   6.224  1.00  0.00     0.025 A 
ATOM     39  C   UNL     1      42.424 -10.811   6.046  1.00  0.00     0.062 A 
ATOM     40  C   UNL     1      44.557 -11.502   5.123  1.00  0.00     0.016 A 
ATOM     41  C   UNL     1      42.027 -10.338   4.793  1.00  0.00     0.158 A 
ATOM     42  C   UNL     1      44.152 -11.034   3.863  1.00  0.00     0.051 A 
ATOM     43  C   UNL     1      42.880 -10.483   3.685  1.00  0.00     0.157 A 
BRANCH  41  44
ATOM     44  O   UNL     1      40.775  -9.728   4.656  1.00  0.00    -0.504 OA
ATOM     45  H   UNL     1      40.560  -9.205   3.816  1.00  0.00     0.293 HD
ENDBRANCH  41  44
BRANCH  43  46
ATOM     46  O   UNL     1      42.459 -10.111   2.403  1.00  0.00    -0.504 OA
ATOM     47  H   UNL     1      41.696  -9.461   2.252  1.00  0.00     0.293 HD
ENDBRANCH  43  46
ENDBRANCH  28  38
BRANCH  34  48
ATOM     48  O   UNL     1      46.466 -12.968  11.900  1.00  0.00    -0.507 OA
ATOM     49  H   UNL     1      47.147 -13.414  12.508  1.00  0.00     0.293 HD
ENDBRANCH  34  48
BRANCH  37  50
ATOM     50  O   UNL     1      44.951 -17.222  10.198  1.00  0.00    -0.508 OA
ATOM     51  H   UNL     1      44.109 -17.741   9.967  1.00  0.00     0.293 HD
ENDBRANCH  37  50
ENDBRANCH  26  27
ENDBRANCH   5  26
BRANCH   4  52
ATOM     52  O   UNL     1      42.722  -7.268   7.167  1.00  0.00    -0.384 OA
ATOM     53  H   UNL     1      43.457  -7.002   6.552  1.00  0.00     0.211 HD
ENDBRANCH   4  52
TORSDOF 16
ENDMDL
MODEL 6
REMARK VINA RESULT:    -7.742      2.200      4.539
REMARK INTER + INTRA:         -14.803
REMARK INTER:                 -13.269
REMARK INTRA:                  -1.534
REMARK UNBOUND:                -2.082
REMARK SMILES C[C@@H]1O[C@@H](OC[C@@H]2O[C@H](Oc3c(-c4ccc(O)c(O)c4)oc4cc(O)cc(O)c4c3=O)[C@@H](O)[C@H](O)[C@@H]2O)[C@@H](O)[C@H](O)[C@@H]1O
REMARK SMILES IDX 7 1 36 2 34 3 32 4 9 5 8 6 6 7 5 8 4 9 1 10 2 11 42 12 3 13
REMARK SMILES IDX 40 14 38 15 43 16 41 18 39 20 37 22 35 24 10 26 11 27 12 28
REMARK SMILES IDX 30 29 21 30 29 31 31 32 22 33 27 34 23 35 26 36 24 37 13 38
REMARK SMILES IDX 20 39 14 40 18 41 15 42 16 43 19 44 17 46 28 48 25 50 33 52
REMARK H PARENT 43 17 41 19 39 21 37 23 35 25 19 45 17 47 28 49 25 51 33 53
REMARK Flexibility Score: inf
ROOT
ATOM      1  C   UNL     1      45.923 -10.565  12.953  1.00  0.00     0.180 C 
ATOM      2  C   UNL     1      47.434 -10.974  12.897  1.00  0.00     0.177 C 
ATOM      3  C   UNL     1      47.733 -12.120  11.886  1.00  0.00     0.180 C 
ATOM      4  C   UNL     1      46.835 -12.101  10.606  1.00  0.00     0.214 C 
ATOM      5  C   UNL     1      45.447 -11.468  10.869  1.00  0.00     0.339 C 
ATOM      6  O   UNL     1      45.116 -11.496  12.254  1.00  0.00    -0.332 OA
ENDROOT
BRANCH   1   7
ATOM      7  C   UNL     1      45.382 -10.382  14.373  1.00  0.00     0.198 C 
BRANCH   7   8
ATOM      8  O   UNL     1      44.796  -9.106  14.529  1.00  0.00    -0.347 OA
BRANCH   8   9
ATOM      9  C   UNL     1      43.511  -9.235  15.126  1.00  0.00     0.281 C 
ATOM     10  C   UNL     1      41.476  -7.856  12.388  1.00  0.00     0.041 C 
ATOM     11  C   UNL     1      42.488  -7.839  13.531  1.00  0.00     0.150 C 
ATOM     12  C   UNL     1      42.166  -6.731  14.558  1.00  0.00     0.174 C 
ATOM     13  O   UNL     1      42.496  -9.124  14.136  1.00  0.00    -0.344 OA
ATOM     14  C   UNL     1      43.224  -6.776  15.678  1.00  0.00     0.179 C 
ATOM     15  C   UNL     1      43.318  -8.198  16.254  1.00  0.00     0.202 C 
BRANCH  12  16
ATOM     16  O   UNL     1      40.870  -6.915  15.092  1.00  0.00    -0.388 OA
ATOM     17  H   UNL     1      40.948  -6.900  16.082  1.00  0.00     0.211 HD
ENDBRANCH  12  16
BRANCH  14  18
ATOM     18  O   UNL     1      42.869  -5.876  16.694  1.00  0.00    -0.387 OA
ATOM     19  H   UNL     1      42.471  -6.408  17.439  1.00  0.00     0.211 HD
ENDBRANCH  14  18
BRANCH  15  20
ATOM     20  O   UNL     1      44.358  -8.277  17.198  1.00  0.00    -0.385 OA
ATOM     21  H   UNL     1      43.934  -8.411  18.085  1.00  0.00     0.211 HD
ENDBRANCH  15  20
ENDBRANCH   8   9
ENDBRANCH   7   8
ENDBRANCH   1   7
BRANCH   2  22
ATOM     22  O   UNL     1      47.979 -11.279  14.169  1.00  0.00    -0.387 OA
ATOM     23  H   UNL     1      47.701 -12.190  14.420  1.00  0.00     0.211 HD
ENDBRANCH   2  22
BRANCH   3  24
ATOM     24  O   UNL     1      47.676 -13.375  12.503  1.00  0.00    -0.387 OA
ATOM     25  H   UNL     1      46.723 -13.609  12.641  1.00  0.00     0.211 HD
ENDBRANCH   3  24
BRANCH   5  26
ATOM     26  O   UNL     1      44.438 -12.138  10.088  1.00  0.00    -0.454 OA
BRANCH  26  27
ATOM     27  C   UNL     1      43.898 -11.653   8.887  1.00  0.00     0.214 A 
ATOM     28  C   UNL     1      44.008 -12.382   7.687  1.00  0.00     0.180 A 
ATOM     29  C   UNL     1      43.178 -10.443   8.868  1.00  0.00     0.239 A 
ATOM     30  O   UNL     1      43.647 -11.817   6.545  1.00  0.00    -0.452 OA
ATOM     31  C   UNL     1      42.729  -9.917   7.638  1.00  0.00     0.111 A 
ATOM     32  O   UNL     1      42.913  -9.860   9.957  1.00  0.00    -0.285 OA
ATOM     33  C   UNL     1      43.051 -10.631   6.464  1.00  0.00     0.146 A 
ATOM     34  C   UNL     1      41.960  -8.728   7.535  1.00  0.00     0.134 A 
ATOM     35  C   UNL     1      42.697 -10.124   5.213  1.00  0.00     0.094 A 
ATOM     36  C   UNL     1      41.599  -8.231   6.274  1.00  0.00     0.093 A 
ATOM     37  C   UNL     1      41.977  -8.921   5.112  1.00  0.00     0.123 A 
BRANCH  28  38
ATOM     38  C   UNL     1      44.467 -13.787   7.634  1.00  0.00     0.025 A 
ATOM     39  C   UNL     1      43.606 -14.753   7.078  1.00  0.00     0.062 A 
ATOM     40  C   UNL     1      45.743 -14.190   8.076  1.00  0.00     0.016 A 
ATOM     41  C   UNL     1      43.986 -16.095   7.007  1.00  0.00     0.158 A 
ATOM     42  C   UNL     1      46.119 -15.541   8.012  1.00  0.00     0.051 A 
ATOM     43  C   UNL     1      45.234 -16.501   7.510  1.00  0.00     0.157 A 
BRANCH  41  44
ATOM     44  O   UNL     1      43.109 -17.026   6.438  1.00  0.00    -0.504 OA
ATOM     45  H   UNL     1      43.475 -17.877   6.030  1.00  0.00     0.293 HD
ENDBRANCH  41  44
BRANCH  43  46
ATOM     46  O   UNL     1      45.588 -17.854   7.542  1.00  0.00    -0.504 OA
ATOM     47  H   UNL     1      44.931 -18.591   7.314  1.00  0.00     0.293 HD
ENDBRANCH  43  46
ENDBRANCH  28  38
BRANCH  34  48
ATOM     48  O   UNL     1      41.478  -8.098   8.669  1.00  0.00    -0.507 OA
ATOM     49  H   UNL     1      41.409  -7.087   8.740  1.00  0.00     0.293 HD
ENDBRANCH  34  48
BRANCH  37  50
ATOM     50  O   UNL     1      41.627  -8.426   3.857  1.00  0.00    -0.508 OA
ATOM     51  H   UNL     1      42.213  -8.569   3.041  1.00  0.00     0.293 HD
ENDBRANCH  37  50
ENDBRANCH  26  27
ENDBRANCH   5  26
BRANCH   4  52
ATOM     52  O   UNL     1      47.474 -11.388   9.580  1.00  0.00    -0.384 OA
ATOM     53  H   UNL     1      48.443 -11.357   9.796  1.00  0.00     0.211 HD
ENDBRANCH   4  52
TORSDOF 16
ENDMDL
MODEL 7
REMARK VINA RESULT:    -7.708     14.027     17.788
REMARK INTER + INTRA:         -14.746
REMARK INTER:                 -12.396
REMARK INTRA:                  -2.350
REMARK UNBOUND:                -2.082
REMARK SMILES C[C@@H]1O[C@@H](OC[C@@H]2O[C@H](Oc3c(-c4ccc(O)c(O)c4)oc4cc(O)cc(O)c4c3=O)[C@@H](O)[C@H](O)[C@@H]2O)[C@@H](O)[C@H](O)[C@@H]1O
REMARK SMILES IDX 7 1 36 2 34 3 32 4 9 5 8 6 6 7 5 8 4 9 1 10 2 11 42 12 3 13
REMARK SMILES IDX 40 14 38 15 43 16 41 18 39 20 37 22 35 24 10 26 11 27 12 28
REMARK SMILES IDX 30 29 21 30 29 31 31 32 22 33 27 34 23 35 26 36 24 37 13 38
REMARK SMILES IDX 20 39 14 40 18 41 15 42 16 43 19 44 17 46 28 48 25 50 33 52
REMARK H PARENT 43 17 41 19 39 21 37 23 35 25 19 45 17 47 28 49 25 51 33 53
REMARK Flexibility Score: inf
ROOT
ATOM      1  C   UNL     1      55.465 -17.534  10.052  1.00  0.00     0.180 C 
ATOM      2  C   UNL     1      55.327 -16.662   8.759  1.00  0.00     0.177 C 
ATOM      3  C   UNL     1      56.458 -16.906   7.717  1.00  0.00     0.180 C 
ATOM      4  C   UNL     1      56.982 -18.378   7.668  1.00  0.00     0.214 C 
ATOM      5  C   UNL     1      56.835 -19.103   9.028  1.00  0.00     0.339 C 
ATOM      6  O   UNL     1      56.728 -18.174  10.103  1.00  0.00    -0.332 OA
ENDROOT
BRANCH   1   7
ATOM      7  C   UNL     1      55.231 -16.759  11.351  1.00  0.00     0.198 C 
BRANCH   7   8
ATOM      8  O   UNL     1      54.499 -17.536  12.277  1.00  0.00    -0.347 OA
BRANCH   8   9
ATOM      9  C   UNL     1      53.421 -18.187  11.615  1.00  0.00     0.281 C 
ATOM     10  C   UNL     1      50.624 -16.357  13.154  1.00  0.00     0.041 C 
ATOM     11  C   UNL     1      51.814 -17.312  13.095  1.00  0.00     0.150 C 
ATOM     12  C   UNL     1      51.463 -18.693  13.691  1.00  0.00     0.174 C 
ATOM     13  O   UNL     1      52.231 -17.420  11.742  1.00  0.00    -0.344 OA
ATOM     14  C   UNL     1      52.705 -19.600  13.597  1.00  0.00     0.179 C 
ATOM     15  C   UNL     1      53.228 -19.623  12.151  1.00  0.00     0.202 C 
BRANCH  12  16
ATOM     16  O   UNL     1      50.374 -19.268  12.996  1.00  0.00    -0.388 OA
ATOM     17  H   UNL     1      50.434 -18.974  12.049  1.00  0.00     0.211 HD
ENDBRANCH  12  16
BRANCH  14  18
ATOM     18  O   UNL     1      52.367 -20.901  13.998  1.00  0.00    -0.387 OA
ATOM     19  H   UNL     1      52.775 -21.054  14.895  1.00  0.00     0.211 HD
ENDBRANCH  14  18
BRANCH  15  20
ATOM     20  O   UNL     1      54.427 -20.357  12.075  1.00  0.00    -0.385 OA
ATOM     21  H   UNL     1      54.606 -20.714  12.984  1.00  0.00     0.211 HD
ENDBRANCH  15  20
ENDBRANCH   8   9
ENDBRANCH   7   8
ENDBRANCH   1   7
BRANCH   2  22
ATOM     22  O   UNL     1      55.190 -15.278   9.029  1.00  0.00    -0.387 OA
ATOM     23  H   UNL     1      55.979 -14.978   9.539  1.00  0.00     0.211 HD
ENDBRANCH   2  22
BRANCH   3  24
ATOM     24  O   UNL     1      57.523 -16.016   7.900  1.00  0.00    -0.387 OA
ATOM     25  H   UNL     1      58.055 -15.994   7.065  1.00  0.00     0.211 HD
ENDBRANCH   3  24
BRANCH   5  26
ATOM     26  O   UNL     1      57.942 -20.002   9.237  1.00  0.00    -0.454 OA
BRANCH  26  27
ATOM     27  C   UNL     1      57.869 -21.219   9.932  1.00  0.00     0.214 A 
ATOM     28  C   UNL     1      57.479 -22.409   9.285  1.00  0.00     0.180 A 
ATOM     29  C   UNL     1      58.242 -21.288  11.287  1.00  0.00     0.239 A 
ATOM     30  O   UNL     1      57.250 -23.497  10.006  1.00  0.00    -0.452 OA
ATOM     31  C   UNL     1      58.067 -22.493  11.999  1.00  0.00     0.111 A 
ATOM     32  O   UNL     1      58.762 -20.278  11.841  1.00  0.00    -0.285 OA
ATOM     33  C   UNL     1      57.494 -23.584  11.310  1.00  0.00     0.146 A 
ATOM     34  C   UNL     1      58.459 -22.661  13.353  1.00  0.00     0.134 A 
ATOM     35  C   UNL     1      57.230 -24.779  11.980  1.00  0.00     0.094 A 
ATOM     36  C   UNL     1      58.199 -23.869  14.016  1.00  0.00     0.093 A 
ATOM     37  C   UNL     1      57.574 -24.925  13.335  1.00  0.00     0.123 A 
BRANCH  28  38
ATOM     38  C   UNL     1      57.357 -22.528   7.816  1.00  0.00     0.025 A 
ATOM     39  C   UNL     1      58.523 -22.761   7.064  1.00  0.00     0.062 A 
ATOM     40  C   UNL     1      56.118 -22.463   7.146  1.00  0.00     0.016 A 
ATOM     41  C   UNL     1      58.467 -22.877   5.673  1.00  0.00     0.158 A 
ATOM     42  C   UNL     1      56.066 -22.571   5.748  1.00  0.00     0.051 A 
ATOM     43  C   UNL     1      57.238 -22.746   5.005  1.00  0.00     0.157 A 
BRANCH  41  44
ATOM     44  O   UNL     1      59.646 -23.119   4.958  1.00  0.00    -0.504 OA
ATOM     45  H   UNL     1      59.907 -24.070   4.727  1.00  0.00     0.293 HD
ENDBRANCH  41  44
BRANCH  43  46
ATOM     46  O   UNL     1      57.177 -22.755   3.607  1.00  0.00    -0.504 OA
ATOM     47  H   UNL     1      57.938 -22.415   3.030  1.00  0.00     0.293 HD
ENDBRANCH  43  46
ENDBRANCH  28  38
BRANCH  34  48
ATOM     48  O   UNL     1      59.180 -21.676  14.007  1.00  0.00    -0.507 OA
ATOM     49  H   UNL     1      59.865 -21.099  13.530  1.00  0.00     0.293 HD
ENDBRANCH  34  48
BRANCH  37  50
ATOM     50  O   UNL     1      57.308 -26.125  13.992  1.00  0.00    -0.508 OA
ATOM     51  H   UNL     1      56.361 -26.460  14.134  1.00  0.00     0.293 HD
ENDBRANCH  37  50
ENDBRANCH  26  27
ENDBRANCH   5  26
BRANCH   4  52
ATOM     52  O   UNL     1      56.287 -19.105   6.688  1.00  0.00    -0.384 OA
ATOM     53  H   UNL     1      56.952 -19.659   6.199  1.00  0.00     0.211 HD
ENDBRANCH   4  52
TORSDOF 16
ENDMDL
MODEL 8
REMARK VINA RESULT:    -7.698      2.850      7.911
REMARK INTER + INTRA:         -14.730
REMARK INTER:                 -11.977
REMARK INTRA:                  -2.753
REMARK UNBOUND:                -2.082
REMARK SMILES C[C@@H]1O[C@@H](OC[C@@H]2O[C@H](Oc3c(-c4ccc(O)c(O)c4)oc4cc(O)cc(O)c4c3=O)[C@@H](O)[C@H](O)[C@@H]2O)[C@@H](O)[C@H](O)[C@@H]1O
REMARK SMILES IDX 7 1 36 2 34 3 32 4 9 5 8 6 6 7 5 8 4 9 1 10 2 11 42 12 3 13
REMARK SMILES IDX 40 14 38 15 43 16 41 18 39 20 37 22 35 24 10 26 11 27 12 28
REMARK SMILES IDX 30 29 21 30 29 31 31 32 22 33 27 34 23 35 26 36 24 37 13 38
REMARK SMILES IDX 20 39 14 40 18 41 15 42 16 43 19 44 17 46 28 48 25 50 33 52
REMARK H PARENT 43 17 41 19 39 21 37 23 35 25 19 45 17 47 28 49 25 51 33 53
REMARK Flexibility Score: inf
ROOT
ATOM      1  C   UNL     1      45.951 -12.466   9.311  1.00  0.00     0.180 C 
ATOM      2  C   UNL     1      46.131 -14.016   9.445  1.00  0.00     0.177 C 
ATOM      3  C   UNL     1      45.007 -14.706  10.273  1.00  0.00     0.180 C 
ATOM      4  C   UNL     1      43.597 -14.050  10.117  1.00  0.00     0.214 C 
ATOM      5  C   UNL     1      43.682 -12.538   9.793  1.00  0.00     0.339 C 
ATOM      6  O   UNL     1      44.939 -11.993  10.182  1.00  0.00    -0.332 OA
ENDROOT
BRANCH   1   7
ATOM      7  C   UNL     1      47.238 -11.669   9.539  1.00  0.00     0.198 C 
BRANCH   7   8
ATOM      8  O   UNL     1      47.803 -11.971  10.797  1.00  0.00    -0.347 OA
BRANCH   8   9
ATOM      9  C   UNL     1      47.922 -10.783  11.570  1.00  0.00     0.281 C 
ATOM     10  C   UNL     1      51.587 -10.678  11.883  1.00  0.00     0.041 C 
ATOM     11  C   UNL     1      50.174 -11.206  12.111  1.00  0.00     0.150 C 
ATOM     12  C   UNL     1      49.879 -11.411  13.614  1.00  0.00     0.174 C 
ATOM     13  O   UNL     1      49.258 -10.296  11.521  1.00  0.00    -0.344 OA
ATOM     14  C   UNL     1      48.442 -11.942  13.767  1.00  0.00     0.179 C 
ATOM     15  C   UNL     1      47.461 -11.019  13.025  1.00  0.00     0.202 C 
BRANCH  12  16
ATOM     16  O   UNL     1      50.037 -10.195  14.317  1.00  0.00    -0.388 OA
ATOM     17  H   UNL     1      49.458  -9.517  13.877  1.00  0.00     0.211 HD
ENDBRANCH  12  16
BRANCH  14  18
ATOM     18  O   UNL     1      48.104 -11.997  15.127  1.00  0.00    -0.387 OA
ATOM     19  H   UNL     1      47.152 -12.288  15.187  1.00  0.00     0.211 HD
ENDBRANCH  14  18
BRANCH  15  20
ATOM     20  O   UNL     1      46.160 -11.555  13.063  1.00  0.00    -0.385 OA
ATOM     21  H   UNL     1      45.893 -11.600  14.017  1.00  0.00     0.211 HD
ENDBRANCH  15  20
ENDBRANCH   8   9
ENDBRANCH   7   8
ENDBRANCH   1   7
BRANCH   2  22
ATOM     22  O   UNL     1      47.408 -14.391   9.932  1.00  0.00    -0.387 OA
ATOM     23  H   UNL     1      47.697 -13.727  10.601  1.00  0.00     0.211 HD
ENDBRANCH   2  22
BRANCH   3  24
ATOM     24  O   UNL     1      45.353 -14.802  11.626  1.00  0.00    -0.387 OA
ATOM     25  H   UNL     1      44.571 -14.523  12.166  1.00  0.00     0.211 HD
ENDBRANCH   3  24
BRANCH   5  26
ATOM     26  O   UNL     1      42.599 -11.831  10.428  1.00  0.00    -0.454 OA
BRANCH  26  27
ATOM     27  C   UNL     1      42.750 -10.719  11.272  1.00  0.00     0.214 A 
ATOM     28  C   UNL     1      43.030  -9.439  10.753  1.00  0.00     0.180 A 
ATOM     29  C   UNL     1      42.566 -10.850  12.661  1.00  0.00     0.239 A 
ATOM     30  O   UNL     1      43.341  -8.455  11.583  1.00  0.00    -0.452 OA
ATOM     31  C   UNL     1      42.819  -9.749  13.506  1.00  0.00     0.111 A 
ATOM     32  O   UNL     1      42.141 -11.944  13.132  1.00  0.00    -0.285 OA
ATOM     33  C   UNL     1      43.278  -8.556  12.907  1.00  0.00     0.146 A 
ATOM     34  C   UNL     1      42.616  -9.784  14.910  1.00  0.00     0.134 A 
ATOM     35  C   UNL     1      43.614  -7.457  13.697  1.00  0.00     0.094 A 
ATOM     36  C   UNL     1      42.947  -8.670  15.697  1.00  0.00     0.093 A 
ATOM     37  C   UNL     1      43.458  -7.510  15.094  1.00  0.00     0.123 A 
BRANCH  28  38
ATOM     38  C   UNL     1      42.948  -9.115   9.313  1.00  0.00     0.025 A 
ATOM     39  C   UNL     1      44.142  -9.060   8.569  1.00  0.00     0.062 A 
ATOM     40  C   UNL     1      41.724  -8.903   8.647  1.00  0.00     0.016 A 
ATOM     41  C   UNL     1      44.124  -8.754   7.207  1.00  0.00     0.158 A 
ATOM     42  C   UNL     1      41.709  -8.586   7.280  1.00  0.00     0.051 A 
ATOM     43  C   UNL     1      42.905  -8.479   6.564  1.00  0.00     0.157 A 
BRANCH  41  44
ATOM     44  O   UNL     1      45.330  -8.719   6.497  1.00  0.00    -0.504 OA
ATOM     45  H   UNL     1      45.580  -9.492   5.893  1.00  0.00     0.293 HD
ENDBRANCH  41  44
BRANCH  43  46
ATOM     46  O   UNL     1      42.877  -8.068   5.226  1.00  0.00    -0.504 OA
ATOM     47  H   UNL     1      42.857  -7.090   4.960  1.00  0.00     0.293 HD
ENDBRANCH  43  46
ENDBRANCH  28  38
BRANCH  34  48
ATOM     48  O   UNL     1      42.005 -10.872  15.510  1.00  0.00    -0.507 OA
ATOM     49  H   UNL     1      41.099 -11.217  15.210  1.00  0.00     0.293 HD
ENDBRANCH  34  48
BRANCH  37  50
ATOM     50  O   UNL     1      43.795  -6.404  15.871  1.00  0.00    -0.508 OA
ATOM     51  H   UNL     1      43.935  -5.485  15.465  1.00  0.00     0.293 HD
ENDBRANCH  37  50
ENDBRANCH  26  27
ENDBRANCH   5  26
BRANCH   4  52
ATOM     52  O   UNL     1      42.876 -14.693   9.099  1.00  0.00    -0.384 OA
ATOM     53  H   UNL     1      42.048 -15.063   9.506  1.00  0.00     0.211 HD
ENDBRANCH   4  52
TORSDOF 16
ENDMDL
MODEL 9
REMARK VINA RESULT:    -7.598     13.912     17.886
REMARK INTER + INTRA:         -14.565
REMARK INTER:                 -12.159
REMARK INTRA:                  -2.406
REMARK UNBOUND:                -2.082
REMARK SMILES C[C@@H]1O[C@@H](OC[C@@H]2O[C@H](Oc3c(-c4ccc(O)c(O)c4)oc4cc(O)cc(O)c4c3=O)[C@@H](O)[C@H](O)[C@@H]2O)[C@@H](O)[C@H](O)[C@@H]1O
REMARK SMILES IDX 7 1 36 2 34 3 32 4 9 5 8 6 6 7 5 8 4 9 1 10 2 11 42 12 3 13
REMARK SMILES IDX 40 14 38 15 43 16 41 18 39 20 37 22 35 24 10 26 11 27 12 28
REMARK SMILES IDX 30 29 21 30 29 31 31 32 22 33 27 34 23 35 26 36 24 37 13 38
REMARK SMILES IDX 20 39 14 40 18 41 15 42 16 43 19 44 17 46 28 48 25 50 33 52
REMARK H PARENT 43 17 41 19 39 21 37 23 35 25 19 45 17 47 28 49 25 51 33 53
REMARK Flexibility Score: inf
ROOT
ATOM      1  C   UNL     1      54.509 -18.737   8.933  1.00  0.00     0.180 C 
ATOM      2  C   UNL     1      54.530 -17.266   9.468  1.00  0.00     0.177 C 
ATOM      3  C   UNL     1      55.861 -16.877  10.176  1.00  0.00     0.180 C 
ATOM      4  C   UNL     1      57.134 -17.553   9.571  1.00  0.00     0.214 C 
ATOM      5  C   UNL     1      56.823 -18.923   8.922  1.00  0.00     0.339 C 
ATOM      6  O   UNL     1      55.612 -19.475   9.429  1.00  0.00    -0.332 OA
ENDROOT
BRANCH   1   7
ATOM      7  C   UNL     1      53.211 -19.490   9.234  1.00  0.00     0.198 C 
BRANCH   7   8
ATOM      8  O   UNL     1      52.697 -19.125  10.497  1.00  0.00    -0.347 OA
BRANCH   8   9
ATOM      9  C   UNL     1      53.078 -20.090  11.471  1.00  0.00     0.281 C 
ATOM     10  C   UNL     1      50.097 -22.243  11.329  1.00  0.00     0.041 C 
ATOM     11  C   UNL     1      50.905 -20.982  11.625  1.00  0.00     0.150 C 
ATOM     12  C   UNL     1      50.705 -20.507  13.081  1.00  0.00     0.174 C 
ATOM     13  O   UNL     1      52.271 -21.255  11.350  1.00  0.00    -0.344 OA
ATOM     14  C   UNL     1      51.547 -19.238  13.306  1.00  0.00     0.179 C 
ATOM     15  C   UNL     1      53.006 -19.498  12.895  1.00  0.00     0.202 C 
BRANCH  12  16
ATOM     16  O   UNL     1      51.085 -21.524  13.988  1.00  0.00    -0.388 OA
ATOM     17  H   UNL     1      51.572 -21.090  14.737  1.00  0.00     0.211 HD
ENDBRANCH  12  16
BRANCH  14  18
ATOM     18  O   UNL     1      51.495 -18.874  14.660  1.00  0.00    -0.387 OA
ATOM     19  H   UNL     1      52.410 -18.995  15.038  1.00  0.00     0.211 HD
ENDBRANCH  14  18
BRANCH  15  20
ATOM     20  O   UNL     1      53.761 -18.314  12.990  1.00  0.00    -0.385 OA
ATOM     21  H   UNL     1      54.145 -18.288  13.905  1.00  0.00     0.211 HD
ENDBRANCH  15  20
ENDBRANCH   8   9
ENDBRANCH   7   8
ENDBRANCH   1   7
BRANCH   2  22
ATOM     22  O   UNL     1      53.419 -16.954  10.292  1.00  0.00    -0.387 OA
ATOM     23  H   UNL     1      52.702 -17.606  10.112  1.00  0.00     0.211 HD
ENDBRANCH   2  22
BRANCH   3  24
ATOM     24  O   UNL     1      55.794 -17.111  11.555  1.00  0.00    -0.387 OA
ATOM     25  H   UNL     1      55.015 -16.616  11.915  1.00  0.00     0.211 HD
ENDBRANCH   3  24
BRANCH   5  26
ATOM     26  O   UNL     1      57.924 -19.831   9.123  1.00  0.00    -0.454 OA
BRANCH  26  27
ATOM     27  C   UNL     1      57.833 -21.073   9.771  1.00  0.00     0.214 A 
ATOM     28  C   UNL     1      57.472 -22.240   9.070  1.00  0.00     0.180 A 
ATOM     29  C   UNL     1      58.160 -21.189  11.136  1.00  0.00     0.239 A 
ATOM     30  O   UNL     1      57.223 -23.354   9.743  1.00  0.00    -0.452 OA
ATOM     31  C   UNL     1      57.968 -22.420  11.798  1.00  0.00     0.111 A 
ATOM     32  O   UNL     1      58.656 -20.198  11.743  1.00  0.00    -0.285 OA
ATOM     33  C   UNL     1      57.423 -23.487  11.051  1.00  0.00     0.146 A 
ATOM     34  C   UNL     1      58.313 -22.634  13.158  1.00  0.00     0.134 A 
ATOM     35  C   UNL     1      57.143 -24.706  11.668  1.00  0.00     0.094 A 
ATOM     36  C   UNL     1      58.038 -23.867  13.768  1.00  0.00     0.093 A 
ATOM     37  C   UNL     1      57.441 -24.900  13.028  1.00  0.00     0.123 A 
BRANCH  28  38
ATOM     38  C   UNL     1      57.400 -22.307   7.595  1.00  0.00     0.025 A 
ATOM     39  C   UNL     1      58.553 -22.691   6.885  1.00  0.00     0.062 A 
ATOM     40  C   UNL     1      56.216 -22.046   6.876  1.00  0.00     0.016 A 
ATOM     41  C   UNL     1      58.544 -22.767   5.490  1.00  0.00     0.158 A 
ATOM     42  C   UNL     1      56.212 -22.114   5.474  1.00  0.00     0.051 A 
ATOM     43  C   UNL     1      57.378 -22.442   4.775  1.00  0.00     0.157 A 
BRANCH  41  44
ATOM     44  O   UNL     1      59.706 -23.163   4.818  1.00  0.00    -0.504 OA
ATOM     45  H   UNL     1      60.391 -22.469   4.547  1.00  0.00     0.293 HD
ENDBRANCH  41  44
BRANCH  43  46
ATOM     46  O   UNL     1      57.380 -22.411   3.376  1.00  0.00    -0.504 OA
ATOM     47  H   UNL     1      58.236 -22.450   2.836  1.00  0.00     0.293 HD
ENDBRANCH  43  46
ENDBRANCH  28  38
BRANCH  34  48
ATOM     48  O   UNL     1      59.007 -21.672  13.871  1.00  0.00    -0.507 OA
ATOM     49  H   UNL     1      60.021 -21.620  13.867  1.00  0.00     0.293 HD
ENDBRANCH  34  48
BRANCH  37  50
ATOM     50  O   UNL     1      57.159 -26.124  13.632  1.00  0.00    -0.508 OA
ATOM     51  H   UNL     1      56.700 -26.183  14.536  1.00  0.00     0.293 HD
ENDBRANCH  37  50
ENDBRANCH  26  27
ENDBRANCH   5  26
BRANCH   4  52
ATOM     52  O   UNL     1      57.712 -16.713   8.605  1.00  0.00    -0.384 OA
ATOM     53  H   UNL     1      58.487 -17.197   8.213  1.00  0.00     0.211 HD
ENDBRANCH   4  52
TORSDOF 16
ENDMDL
