MODEL 1
REMARK VINA RESULT:    -3.246      0.000      0.000
REMARK INTER + INTRA:          -6.543
REMARK INTER:                  -5.712
REMARK INTRA:                  -0.831
REMARK UNBOUND:                -0.831
REMARK SMILES CCCCCCCCCCCCCCC(=O)[O-]
REMARK SMILES IDX 9 1 10 2 11 3 12 4 13 5 14 6 15 7 16 8 17 9 8 10 7 11 6 12
REMARK SMILES IDX 5 13 4 14 3 15 2 16 1 17
REMARK H PARENT
REMARK Flexibility Score: inf
ROOT
ATOM      1  C   UNL     1      -3.278  37.153  19.872  1.00  0.00     0.000 C 
ENDROOT
BRANCH   1   2
ATOM      2  C   UNL     1      -3.677  35.785  20.442  1.00  0.00     0.000 C 
BRANCH   2   3
ATOM      3  C   UNL     1      -5.016  35.317  19.862  1.00  0.00     0.000 C 
BRANCH   3   4
ATOM      4  C   UNL     1      -6.115  35.337  20.935  1.00  0.00     0.000 C 
BRANCH   4   5
ATOM      5  C   UNL     1      -5.555  35.183  22.358  1.00  0.00     0.006 C 
BRANCH   5   6
ATOM      6  C   UNL     1      -6.103  36.242  23.326  1.00  0.00     0.053 C 
BRANCH   6   7
ATOM      7  C   UNL     1      -6.009  35.755  24.738  1.00  0.00     0.041 C 
ATOM      8  O   UNL     1      -5.805  36.569  25.676  1.00  0.00    -0.550 OA
ATOM      9  O   UNL     1      -6.096  34.396  25.012  1.00  0.00    -0.550 OA
ENDBRANCH   6   7
ENDBRANCH   5   6
ENDBRANCH   4   5
ENDBRANCH   3   4
ENDBRANCH   2   3
ENDBRANCH   1   2
BRANCH   1  10
ATOM     10  C   UNL     1      -1.761  37.361  19.951  1.00  0.00     0.000 C 
BRANCH  10  11
ATOM     11  C   UNL     1      -1.212  37.906  18.624  1.00  0.00    -0.000 C 
BRANCH  11  12
ATOM     12  C   UNL     1      -2.097  37.547  17.418  1.00  0.00    -0.000 C 
BRANCH  12  13
ATOM     13  C   UNL     1      -1.980  36.088  16.931  1.00  0.00    -0.000 C 
BRANCH  13  14
ATOM     14  C   UNL     1      -2.213  35.882  15.424  1.00  0.00    -0.000 C 
BRANCH  14  15
ATOM     15  C   UNL     1      -3.637  36.251  14.984  1.00  0.00    -0.000 C 
BRANCH  15  16
ATOM     16  C   UNL     1      -3.612  37.353  13.919  1.00  0.00    -0.003 C 
ATOM     17  C   UNL     1      -4.467  38.546  14.339  1.00  0.00     0.004 C 
ENDBRANCH  15  16
ENDBRANCH  14  15
ENDBRANCH  13  14
ENDBRANCH  12  13
ENDBRANCH  11  12
ENDBRANCH  10  11
ENDBRANCH   1  10
TORSDOF 13
ENDMDL
MODEL 2
REMARK VINA RESULT:    -3.188      4.036      7.866
REMARK INTER + INTRA:          -6.442
REMARK INTER:                  -5.868
REMARK INTRA:                  -0.574
REMARK UNBOUND:                -0.831
REMARK SMILES CCCCCCCCCCCCCCC(=O)[O-]
REMARK SMILES IDX 9 1 10 2 11 3 12 4 13 5 14 6 15 7 16 8 17 9 8 10 7 11 6 12
REMARK SMILES IDX 5 13 4 14 3 15 2 16 1 17
REMARK H PARENT
REMARK Flexibility Score: inf
ROOT
ATOM      1  C   UNL     1      -2.303  37.411  19.112  1.00  0.00     0.000 C 
ENDROOT
BRANCH   1   2
ATOM      2  C   UNL     1      -2.978  37.249  17.744  1.00  0.00     0.000 C 
BRANCH   2   3
ATOM      3  C   UNL     1      -3.604  35.857  17.601  1.00  0.00     0.000 C 
BRANCH   3   4
ATOM      4  C   UNL     1      -3.361  35.288  16.195  1.00  0.00     0.000 C 
BRANCH   4   5
ATOM      5  C   UNL     1      -2.274  36.056  15.426  1.00  0.00     0.006 C 
BRANCH   5   6
ATOM      6  C   UNL     1      -2.760  36.560  14.060  1.00  0.00     0.053 C 
BRANCH   6   7
ATOM      7  C   UNL     1      -4.044  37.314  14.210  1.00  0.00     0.041 C 
ATOM      8  O   UNL     1      -5.134  36.781  13.875  1.00  0.00    -0.550 OA
ATOM      9  O   UNL     1      -4.031  38.624  14.673  1.00  0.00    -0.550 OA
ENDBRANCH   6   7
ENDBRANCH   5   6
ENDBRANCH   4   5
ENDBRANCH   3   4
ENDBRANCH   2   3
ENDBRANCH   1   2
BRANCH   1  10
ATOM     10  C   UNL     1      -3.251  37.004  20.246  1.00  0.00     0.000 C 
BRANCH  10  11
ATOM     11  C   UNL     1      -4.647  37.608  20.038  1.00  0.00    -0.000 C 
BRANCH  11  12
ATOM     12  C   UNL     1      -5.749  36.842  20.791  1.00  0.00    -0.000 C 
BRANCH  12  13
ATOM     13  C   UNL     1      -5.462  35.345  21.026  1.00  0.00    -0.000 C 
BRANCH  13  14
ATOM     14  C   UNL     1      -4.958  34.990  22.436  1.00  0.00    -0.000 C 
BRANCH  14  15
ATOM     15  C   UNL     1      -6.080  34.974  23.485  1.00  0.00    -0.000 C 
BRANCH  15  16
ATOM     16  C   UNL     1      -6.125  36.297  24.257  1.00  0.00    -0.003 C 
ATOM     17  C   UNL     1      -5.800  36.085  25.734  1.00  0.00     0.004 C 
ENDBRANCH  15  16
ENDBRANCH  14  15
ENDBRANCH  13  14
ENDBRANCH  12  13
ENDBRANCH  11  12
ENDBRANCH  10  11
ENDBRANCH   1  10
TORSDOF 13
ENDMDL
MODEL 3
REMARK VINA RESULT:    -2.936      0.757      1.374
REMARK INTER + INTRA:          -5.997
REMARK INTER:                  -5.070
REMARK INTRA:                  -0.928
REMARK UNBOUND:                -0.831
REMARK SMILES CCCCCCCCCCCCCCC(=O)[O-]
REMARK SMILES IDX 9 1 10 2 11 3 12 4 13 5 14 6 15 7 16 8 17 9 8 10 7 11 6 12
REMARK SMILES IDX 5 13 4 14 3 15 2 16 1 17
REMARK H PARENT
REMARK Flexibility Score: inf
ROOT
ATOM      1  C   UNL     1      -2.864  37.631  19.699  1.00  0.00     0.000 C 
ENDROOT
BRANCH   1   2
ATOM      2  C   UNL     1      -3.408  36.228  19.997  1.00  0.00     0.000 C 
BRANCH   2   3
ATOM      3  C   UNL     1      -4.670  35.941  19.174  1.00  0.00     0.000 C 
BRANCH   3   4
ATOM      4  C   UNL     1      -5.886  35.736  20.089  1.00  0.00     0.000 C 
BRANCH   4   5
ATOM      5  C   UNL     1      -5.497  35.227  21.486  1.00  0.00     0.006 C 
BRANCH   5   6
ATOM      6  C   UNL     1      -6.072  36.097  22.613  1.00  0.00     0.053 C 
BRANCH   6   7
ATOM      7  C   UNL     1      -5.821  35.459  23.943  1.00  0.00     0.041 C 
ATOM      8  O   UNL     1      -5.379  34.282  24.008  1.00  0.00    -0.550 OA
ATOM      9  O   UNL     1      -6.124  36.146  25.112  1.00  0.00    -0.550 OA
ENDBRANCH   6   7
ENDBRANCH   5   6
ENDBRANCH   4   5
ENDBRANCH   3   4
ENDBRANCH   2   3
ENDBRANCH   1   2
BRANCH   1  10
ATOM     10  C   UNL     1      -1.600  37.559  18.834  1.00  0.00     0.000 C 
BRANCH  10  11
ATOM     11  C   UNL     1      -1.959  37.435  17.346  1.00  0.00    -0.000 C 
BRANCH  11  12
ATOM     12  C   UNL     1      -1.446  36.129  16.713  1.00  0.00    -0.000 C 
BRANCH  12  13
ATOM     13  C   UNL     1      -2.010  35.813  15.313  1.00  0.00    -0.000 C 
BRANCH  13  14
ATOM     14  C   UNL     1      -3.503  36.138  15.122  1.00  0.00    -0.000 C 
BRANCH  14  15
ATOM     15  C   UNL     1      -3.771  37.007  13.884  1.00  0.00    -0.000 C 
BRANCH  15  16
ATOM     16  C   UNL     1      -5.008  37.888  14.092  1.00  0.00    -0.003 C 
ATOM     17  C   UNL     1      -4.629  39.365  14.158  1.00  0.00     0.004 C 
ENDBRANCH  15  16
ENDBRANCH  14  15
ENDBRANCH  13  14
ENDBRANCH  12  13
ENDBRANCH  11  12
ENDBRANCH  10  11
ENDBRANCH   1  10
TORSDOF 13
ENDMDL
MODEL 4
REMARK VINA RESULT:    -2.824      2.354      2.886
REMARK INTER + INTRA:          -5.801
REMARK INTER:                  -5.204
REMARK INTRA:                  -0.597
REMARK UNBOUND:                -0.831
REMARK SMILES CCCCCCCCCCCCCCC(=O)[O-]
REMARK SMILES IDX 9 1 10 2 11 3 12 4 13 5 14 6 15 7 16 8 17 9 8 10 7 11 6 12
REMARK SMILES IDX 5 13 4 14 3 15 2 16 1 17
REMARK H PARENT
REMARK Flexibility Score: inf
ROOT
ATOM      1  C   UNL     1      -3.246  36.927  19.768  1.00  0.00     0.000 C 
ENDROOT
BRANCH   1   2
ATOM      2  C   UNL     1      -3.975  35.642  20.181  1.00  0.00     0.000 C 
BRANCH   2   3
ATOM      3  C   UNL     1      -5.410  35.944  20.631  1.00  0.00     0.000 C 
BRANCH   3   4
ATOM      4  C   UNL     1      -5.779  37.406  20.341  1.00  0.00     0.000 C 
BRANCH   4   5
ATOM      5  C   UNL     1      -6.043  38.215  21.621  1.00  0.00     0.006 C 
BRANCH   5   6
ATOM      6  C   UNL     1      -5.450  39.630  21.559  1.00  0.00     0.053 C 
BRANCH   6   7
ATOM      7  C   UNL     1      -5.675  40.346  22.853  1.00  0.00     0.041 C 
ATOM      8  O   UNL     1      -6.088  41.535  22.855  1.00  0.00    -0.550 OA
ATOM      9  O   UNL     1      -5.380  39.717  24.055  1.00  0.00    -0.550 OA
ENDBRANCH   6   7
ENDBRANCH   5   6
ENDBRANCH   4   5
ENDBRANCH   3   4
ENDBRANCH   2   3
ENDBRANCH   1   2
BRANCH   1  10
ATOM     10  C   UNL     1      -3.485  37.243  18.287  1.00  0.00     0.000 C 
BRANCH  10  11
ATOM     11  C   UNL     1      -2.160  37.272  17.510  1.00  0.00    -0.000 C 
BRANCH  11  12
ATOM     12  C   UNL     1      -1.938  36.009  16.659  1.00  0.00    -0.000 C 
BRANCH  12  13
ATOM     13  C   UNL     1      -2.235  36.173  15.154  1.00  0.00    -0.000 C 
BRANCH  13  14
ATOM     14  C   UNL     1      -3.715  36.024  14.761  1.00  0.00    -0.000 C 
BRANCH  14  15
ATOM     15  C   UNL     1      -4.216  37.174  13.875  1.00  0.00    -0.000 C 
BRANCH  15  16
ATOM     16  C   UNL     1      -4.141  38.511  14.622  1.00  0.00    -0.003 C 
ATOM     17  C   UNL     1      -5.035  39.560  13.965  1.00  0.00     0.004 C 
ENDBRANCH  15  16
ENDBRANCH  14  15
ENDBRANCH  13  14
ENDBRANCH  12  13
ENDBRANCH  11  12
ENDBRANCH  10  11
ENDBRANCH   1  10
TORSDOF 13
ENDMDL
MODEL 5
REMARK VINA RESULT:    -2.815      2.484      4.175
REMARK INTER + INTRA:          -5.786
REMARK INTER:                  -5.038
REMARK INTRA:                  -0.747
REMARK UNBOUND:                -0.831
REMARK SMILES CCCCCCCCCCCCCCC(=O)[O-]
REMARK SMILES IDX 9 1 10 2 11 3 12 4 13 5 14 6 15 7 16 8 17 9 8 10 7 11 6 12
REMARK SMILES IDX 5 13 4 14 3 15 2 16 1 17
REMARK H PARENT
REMARK Flexibility Score: inf
ROOT
ATOM      1  C   UNL     1      -5.268  34.750  22.817  1.00  0.00     0.000 C 
ENDROOT
BRANCH   1   2
ATOM      2  C   UNL     1      -6.125  35.435  23.889  1.00  0.00     0.000 C 
BRANCH   2   3
ATOM      3  C   UNL     1      -5.278  35.817  25.109  1.00  0.00     0.000 C 
BRANCH   3   4
ATOM      4  C   UNL     1      -5.128  37.342  25.216  1.00  0.00     0.000 C 
BRANCH   4   5
ATOM      5  C   UNL     1      -5.798  38.086  24.049  1.00  0.00     0.006 C 
BRANCH   5   6
ATOM      6  C   UNL     1      -5.309  39.535  23.913  1.00  0.00     0.053 C 
BRANCH   6   7
ATOM      7  C   UNL     1      -5.791  40.128  22.626  1.00  0.00     0.041 C 
ATOM      8  O   UNL     1      -5.852  39.422  21.586  1.00  0.00    -0.550 OA
ATOM      9  O   UNL     1      -6.123  41.475  22.564  1.00  0.00    -0.550 OA
ENDBRANCH   6   7
ENDBRANCH   5   6
ENDBRANCH   4   5
ENDBRANCH   3   4
ENDBRANCH   2   3
ENDBRANCH   1   2
BRANCH   1  10
ATOM     10  C   UNL     1      -5.833  35.005  21.415  1.00  0.00     0.000 C 
BRANCH  10  11
ATOM     11  C   UNL     1      -5.194  36.250  20.782  1.00  0.00    -0.000 C 
BRANCH  11  12
ATOM     12  C   UNL     1      -4.343  35.922  19.542  1.00  0.00    -0.000 C 
BRANCH  12  13
ATOM     13  C   UNL     1      -3.933  37.140  18.689  1.00  0.00    -0.000 C 
BRANCH  13  14
ATOM     14  C   UNL     1      -2.795  36.881  17.687  1.00  0.00    -0.000 C 
BRANCH  14  15
ATOM     15  C   UNL     1      -3.227  35.996  16.508  1.00  0.00    -0.000 C 
BRANCH  15  16
ATOM     16  C   UNL     1      -2.788  36.609  15.174  1.00  0.00    -0.003 C 
ATOM     17  C   UNL     1      -3.860  37.541  14.616  1.00  0.00     0.004 C 
ENDBRANCH  15  16
ENDBRANCH  14  15
ENDBRANCH  13  14
ENDBRANCH  12  13
ENDBRANCH  11  12
ENDBRANCH  10  11
ENDBRANCH   1  10
TORSDOF 13
ENDMDL
MODEL 6
REMARK VINA RESULT:    -2.638      4.052      7.664
REMARK INTER + INTRA:          -5.474
REMARK INTER:                  -4.280
REMARK INTRA:                  -1.194
REMARK UNBOUND:                -0.831
REMARK SMILES CCCCCCCCCCCCCCC(=O)[O-]
REMARK SMILES IDX 9 1 10 2 11 3 12 4 13 5 14 6 15 7 16 8 17 9 8 10 7 11 6 12
REMARK SMILES IDX 5 13 4 14 3 15 2 16 1 17
REMARK H PARENT
REMARK Flexibility Score: inf
ROOT
ATOM      1  C   UNL     1      -4.382  35.364  21.448  1.00  0.00     0.000 C 
ENDROOT
BRANCH   1   2
ATOM      2  C   UNL     1      -5.599  35.848  20.649  1.00  0.00     0.000 C 
BRANCH   2   3
ATOM      3  C   UNL     1      -5.172  36.768  19.500  1.00  0.00     0.000 C 
BRANCH   3   4
ATOM      4  C   UNL     1      -3.991  36.165  18.724  1.00  0.00     0.000 C 
BRANCH   4   5
ATOM      5  C   UNL     1      -3.057  37.238  18.141  1.00  0.00     0.006 C 
BRANCH   5   6
ATOM      6  C   UNL     1      -2.238  36.724  16.949  1.00  0.00     0.053 C 
BRANCH   6   7
ATOM      7  C   UNL     1      -3.056  36.766  15.698  1.00  0.00     0.041 C 
ATOM      8  O   UNL     1      -3.135  35.750  14.958  1.00  0.00    -0.550 OA
ATOM      9  O   UNL     1      -3.691  37.942  15.321  1.00  0.00    -0.550 OA
ENDBRANCH   6   7
ENDBRANCH   5   6
ENDBRANCH   4   5
ENDBRANCH   3   4
ENDBRANCH   2   3
ENDBRANCH   1   2
BRANCH   1  10
ATOM     10  C   UNL     1      -4.813  34.499  22.638  1.00  0.00     0.000 C 
BRANCH  10  11
ATOM     11  C   UNL     1      -6.123  35.018  23.249  1.00  0.00    -0.000 C 
BRANCH  11  12
ATOM     12  C   UNL     1      -5.995  35.350  24.747  1.00  0.00    -0.000 C 
BRANCH  12  13
ATOM     13  C   UNL     1      -5.831  36.848  25.074  1.00  0.00    -0.000 C 
BRANCH  13  14
ATOM     14  C   UNL     1      -5.927  37.795  23.864  1.00  0.00    -0.000 C 
BRANCH  14  15
ATOM     15  C   UNL     1      -5.128  39.093  24.057  1.00  0.00    -0.000 C 
BRANCH  15  16
ATOM     16  C   UNL     1      -5.495  40.124  22.984  1.00  0.00    -0.003 C 
ATOM     17  C   UNL     1      -5.858  39.445  21.667  1.00  0.00     0.004 C 
ENDBRANCH  15  16
ENDBRANCH  14  15
ENDBRANCH  13  14
ENDBRANCH  12  13
ENDBRANCH  11  12
ENDBRANCH  10  11
ENDBRANCH   1  10
TORSDOF 13
ENDMDL
MODEL 7
REMARK VINA RESULT:    -2.397      2.698      3.576
REMARK INTER + INTRA:          -5.049
REMARK INTER:                  -4.144
REMARK INTRA:                  -0.905
REMARK UNBOUND:                -0.831
REMARK SMILES CCCCCCCCCCCCCCC(=O)[O-]
REMARK SMILES IDX 9 1 10 2 11 3 12 4 13 5 14 6 15 7 16 8 17 9 8 10 7 11 6 12
REMARK SMILES IDX 5 13 4 14 3 15 2 16 1 17
REMARK H PARENT
REMARK Flexibility Score: inf
ROOT
ATOM      1  C   UNL     1      -5.723  35.145  20.321  1.00  0.00     0.000 C 
ENDROOT
BRANCH   1   2
ATOM      2  C   UNL     1      -4.328  35.763  20.479  1.00  0.00     0.000 C 
BRANCH   2   3
ATOM      3  C   UNL     1      -4.341  37.252  20.115  1.00  0.00     0.000 C 
BRANCH   3   4
ATOM      4  C   UNL     1      -5.714  37.876  20.408  1.00  0.00     0.000 C 
BRANCH   4   5
ATOM      5  C   UNL     1      -5.760  38.590  21.769  1.00  0.00     0.006 C 
BRANCH   5   6
ATOM      6  C   UNL     1      -5.992  40.101  21.636  1.00  0.00     0.053 C 
BRANCH   6   7
ATOM      7  C   UNL     1      -5.812  40.775  22.959  1.00  0.00     0.041 C 
ATOM      8  O   UNL     1      -6.125  41.985  23.102  1.00  0.00    -0.550 OA
ATOM      9  O   UNL     1      -5.250  40.079  24.022  1.00  0.00    -0.550 OA
ENDBRANCH   6   7
ENDBRANCH   5   6
ENDBRANCH   4   5
ENDBRANCH   3   4
ENDBRANCH   2   3
ENDBRANCH   1   2
BRANCH   1  10
ATOM     10  C   UNL     1      -5.933  34.618  18.896  1.00  0.00     0.000 C 
BRANCH  10  11
ATOM     11  C   UNL     1      -4.603  34.164  18.277  1.00  0.00    -0.000 C 
BRANCH  11  12
ATOM     12  C   UNL     1      -4.224  34.966  17.019  1.00  0.00    -0.000 C 
BRANCH  12  13
ATOM     13  C   UNL     1      -2.887  35.729  17.108  1.00  0.00    -0.000 C 
BRANCH  13  14
ATOM     14  C   UNL     1      -2.221  36.040  15.755  1.00  0.00    -0.000 C 
BRANCH  14  15
ATOM     15  C   UNL     1      -2.811  37.282  15.071  1.00  0.00    -0.000 C 
BRANCH  15  16
ATOM     16  C   UNL     1      -3.695  36.885  13.884  1.00  0.00    -0.003 C 
ATOM     17  C   UNL     1      -4.997  37.682  13.875  1.00  0.00     0.004 C 
ENDBRANCH  15  16
ENDBRANCH  14  15
ENDBRANCH  13  14
ENDBRANCH  12  13
ENDBRANCH  11  12
ENDBRANCH  10  11
ENDBRANCH   1  10
TORSDOF 13
ENDMDL
MODEL 8
REMARK VINA RESULT:    -2.242      3.102      4.379
REMARK INTER + INTRA:          -4.777
REMARK INTER:                  -4.481
REMARK INTRA:                  -0.296
REMARK UNBOUND:                -0.831
REMARK SMILES CCCCCCCCCCCCCCC(=O)[O-]
REMARK SMILES IDX 9 1 10 2 11 3 12 4 13 5 14 6 15 7 16 8 17 9 8 10 7 11 6 12
REMARK SMILES IDX 5 13 4 14 3 15 2 16 1 17
REMARK H PARENT
REMARK Flexibility Score: inf
ROOT
ATOM      1  C   UNL     1      -5.262  34.665  20.421  1.00  0.00     0.000 C 
ENDROOT
BRANCH   1   2
ATOM      2  C   UNL     1      -6.125  35.565  21.316  1.00  0.00     0.000 C 
BRANCH   2   3
ATOM      3  C   UNL     1      -5.454  36.926  21.538  1.00  0.00     0.000 C 
BRANCH   3   4
ATOM      4  C   UNL     1      -5.459  37.756  20.246  1.00  0.00     0.000 C 
BRANCH   4   5
ATOM      5  C   UNL     1      -4.205  37.522  19.388  1.00  0.00     0.006 C 
BRANCH   5   6
ATOM      6  C   UNL     1      -2.969  37.177  20.230  1.00  0.00     0.053 C 
BRANCH   6   7
ATOM      7  C   UNL     1      -1.718  37.472  19.466  1.00  0.00     0.041 C 
ATOM      8  O   UNL     1      -1.784  37.941  18.299  1.00  0.00    -0.550 OA
ATOM      9  O   UNL     1      -0.478  37.183  20.022  1.00  0.00    -0.550 OA
ENDBRANCH   6   7
ENDBRANCH   5   6
ENDBRANCH   4   5
ENDBRANCH   3   4
ENDBRANCH   2   3
ENDBRANCH   1   2
BRANCH   1  10
ATOM     10  C   UNL     1      -6.010  34.287  19.137  1.00  0.00     0.000 C 
BRANCH  10  11
ATOM     11  C   UNL     1      -5.025  33.976  18.000  1.00  0.00    -0.000 C 
BRANCH  11  12
ATOM     12  C   UNL     1      -4.264  35.221  17.510  1.00  0.00    -0.000 C 
BRANCH  12  13
ATOM     13  C   UNL     1      -3.262  34.968  16.364  1.00  0.00    -0.000 C 
BRANCH  13  14
ATOM     14  C   UNL     1      -2.451  36.199  15.922  1.00  0.00    -0.000 C 
BRANCH  14  15
ATOM     15  C   UNL     1      -2.635  36.532  14.434  1.00  0.00    -0.000 C 
BRANCH  15  16
ATOM     16  C   UNL     1      -4.094  36.891  14.131  1.00  0.00    -0.003 C 
ATOM     17  C   UNL     1      -4.330  38.394  14.261  1.00  0.00     0.004 C 
ENDBRANCH  15  16
ENDBRANCH  14  15
ENDBRANCH  13  14
ENDBRANCH  12  13
ENDBRANCH  11  12
ENDBRANCH  10  11
ENDBRANCH   1  10
TORSDOF 13
ENDMDL
MODEL 9
REMARK VINA RESULT:    -1.715      1.550      2.364
REMARK INTER + INTRA:          -3.849
REMARK INTER:                  -3.000
REMARK INTRA:                  -0.849
REMARK UNBOUND:                -0.831
REMARK SMILES CCCCCCCCCCCCCCC(=O)[O-]
REMARK SMILES IDX 9 1 10 2 11 3 12 4 13 5 14 6 15 7 16 8 17 9 8 10 7 11 6 12
REMARK SMILES IDX 5 13 4 14 3 15 2 16 1 17
REMARK H PARENT
REMARK Flexibility Score: inf
ROOT
ATOM      1  C   UNL     1      -4.731  36.163  20.306  1.00  0.00     0.000 C 
ENDROOT
BRANCH   1   2
ATOM      2  C   UNL     1      -5.685  35.535  21.330  1.00  0.00     0.000 C 
BRANCH   2   3
ATOM      3  C   UNL     1      -4.909  34.777  22.414  1.00  0.00     0.000 C 
BRANCH   3   4
ATOM      4  C   UNL     1      -5.747  34.640  23.694  1.00  0.00     0.000 C 
BRANCH   4   5
ATOM      5  C   UNL     1      -6.125  36.000  24.302  1.00  0.00     0.006 C 
BRANCH   5   6
ATOM      6  C   UNL     1      -5.654  36.149  25.755  1.00  0.00     0.053 C 
BRANCH   6   7
ATOM      7  C   UNL     1      -4.652  37.254  25.868  1.00  0.00     0.041 C 
ATOM      8  O   UNL     1      -3.523  37.037  26.380  1.00  0.00    -0.550 OA
ATOM      9  O   UNL     1      -4.984  38.538  25.452  1.00  0.00    -0.550 OA
ENDBRANCH   6   7
ENDBRANCH   5   6
ENDBRANCH   4   5
ENDBRANCH   3   4
ENDBRANCH   2   3
ENDBRANCH   1   2
BRANCH   1  10
ATOM     10  C   UNL     1      -4.601  35.279  19.060  1.00  0.00     0.000 C 
BRANCH  10  11
ATOM     11  C   UNL     1      -4.283  36.124  17.818  1.00  0.00    -0.000 C 
BRANCH  11  12
ATOM     12  C   UNL     1      -3.031  37.002  17.996  1.00  0.00    -0.000 C 
BRANCH  12  13
ATOM     13  C   UNL     1      -1.873  36.697  17.024  1.00  0.00    -0.000 C 
BRANCH  13  14
ATOM     14  C   UNL     1      -2.238  35.781  15.842  1.00  0.00    -0.000 C 
BRANCH  14  15
ATOM     15  C   UNL     1      -2.391  36.547  14.519  1.00  0.00    -0.000 C 
BRANCH  15  16
ATOM     16  C   UNL     1      -3.871  36.741  14.168  1.00  0.00    -0.003 C 
ATOM     17  C   UNL     1      -4.274  38.210  14.270  1.00  0.00     0.004 C 
ENDBRANCH  15  16
ENDBRANCH  14  15
ENDBRANCH  13  14
ENDBRANCH  12  13
ENDBRANCH  11  12
ENDBRANCH  10  11
ENDBRANCH   1  10
TORSDOF 13
ENDMDL
