MODEL 1
REMARK VINA RESULT:    -4.197      0.000      0.000
REMARK INTER + INTRA:          -4.370
REMARK INTER:                  -4.933
REMARK INTRA:                   0.564
REMARK UNBOUND:                 0.564
REMARK SMILES O=c1c(O)c(-c2ccc(O)cc2)oc2cc(O)cc(O)c12
REMARK SMILES IDX 5 1 3 2 2 3 1 4 21 5 19 6 18 7 16 8 15 9 14 10 13 11 6 12
REMARK SMILES IDX 7 13 8 14 9 15 12 16 11 17 10 18 4 20 20 22 17 24
REMARK H PARENT 10 19 4 21 20 23 17 25
REMARK Flexibility Score: inf
ROOT
ATOM      1  C   UNL     1       0.728  14.779  16.098  1.00  0.00     0.180 A 
ATOM      2  C   UNL     1       0.182  16.007  15.688  1.00  0.00     0.208 A 
ATOM      3  C   UNL     1       0.676  16.617  14.524  1.00  0.00     0.238 A 
ATOM      4  O   UNL     1       0.221  17.743  14.192  1.00  0.00    -0.285 OA
ATOM      5  C   UNL     1       1.698  15.984  13.777  1.00  0.00     0.111 A 
ATOM      6  C   UNL     1       2.246  16.494  12.560  1.00  0.00     0.134 A 
ATOM      7  C   UNL     1       3.344  15.850  11.976  1.00  0.00     0.093 A 
ATOM      8  C   UNL     1       3.872  14.683  12.526  1.00  0.00     0.123 A 
ATOM      9  C   UNL     1       3.307  14.144  13.682  1.00  0.00     0.094 A 
ATOM     10  C   UNL     1       2.233  14.783  14.309  1.00  0.00     0.146 A 
ATOM     11  O   UNL     1       1.730  14.243  15.413  1.00  0.00    -0.452 OA
ENDROOT
BRANCH   1  12
ATOM     12  C   UNL     1       0.242  14.062  17.299  1.00  0.00     0.021 A 
ATOM     13  C   UNL     1      -0.670  14.693  18.161  1.00  0.00     0.016 A 
ATOM     14  C   UNL     1      -1.125  14.042  19.311  1.00  0.00     0.047 A 
ATOM     15  C   UNL     1      -0.664  12.760  19.624  1.00  0.00     0.115 A 
ATOM     16  C   UNL     1       0.718  12.778  17.629  1.00  0.00     0.016 A 
ATOM     17  C   UNL     1       0.262  12.130  18.781  1.00  0.00     0.047 A 
BRANCH  15  18
ATOM     18  O   UNL     1      -1.125  12.122  20.774  1.00  0.00    -0.508 OA
ATOM     19  H   UNL     1      -1.903  12.491  21.308  1.00  0.00     0.293 HD
ENDBRANCH  15  18
ENDBRANCH   1  12
BRANCH   2  20
ATOM     20  O   UNL     1      -0.812  16.625  16.452  1.00  0.00    -0.502 OA
ATOM     21  H   UNL     1      -1.533  17.205  16.041  1.00  0.00     0.293 HD
ENDBRANCH   2  20
BRANCH   6  22
ATOM     22  O   UNL     1       1.735  17.601  11.878  1.00  0.00    -0.507 OA
ATOM     23  H   UNL     1       2.023  18.555  12.033  1.00  0.00     0.293 HD
ENDBRANCH   6  22
BRANCH   8  24
ATOM     24  O   UNL     1       4.955  14.061  11.908  1.00  0.00    -0.508 OA
ATOM     25  H   UNL     1       5.852  14.525  11.816  1.00  0.00     0.293 HD
ENDBRANCH   8  24
TORSDOF 5
ENDMDL
MODEL 2
REMARK VINA RESULT:    -4.024      3.276      5.470
REMARK INTER + INTRA:          -4.166
REMARK INTER:                  -3.877
REMARK INTRA:                  -0.289
REMARK UNBOUND:                 0.564
REMARK SMILES O=c1c(O)c(-c2ccc(O)cc2)oc2cc(O)cc(O)c12
REMARK SMILES IDX 5 1 3 2 2 3 1 4 21 5 19 6 18 7 16 8 15 9 14 10 13 11 6 12
REMARK SMILES IDX 7 13 8 14 9 15 12 16 11 17 10 18 4 20 20 22 17 24
REMARK H PARENT 10 19 4 21 20 23 17 25
REMARK Flexibility Score: inf
ROOT
ATOM      1  C   UNL     1       1.420  13.844  13.700  1.00  0.00     0.180 A 
ATOM      2  C   UNL     1       0.367  14.457  13.001  1.00  0.00     0.208 A 
ATOM      3  C   UNL     1      -0.139  15.680  13.468  1.00  0.00     0.238 A 
ATOM      4  O   UNL     1      -1.119  16.197  12.869  1.00  0.00    -0.285 OA
ATOM      5  C   UNL     1       0.425  16.283  14.617  1.00  0.00     0.111 A 
ATOM      6  C   UNL     1       0.016  17.542  15.155  1.00  0.00     0.134 A 
ATOM      7  C   UNL     1       0.556  17.980  16.372  1.00  0.00     0.093 A 
ATOM      8  C   UNL     1       1.533  17.239  17.035  1.00  0.00     0.123 A 
ATOM      9  C   UNL     1       1.982  16.036  16.488  1.00  0.00     0.094 A 
ATOM     10  C   UNL     1       1.437  15.555  15.294  1.00  0.00     0.146 A 
ATOM     11  O   UNL     1       1.885  14.402  14.812  1.00  0.00    -0.452 OA
ENDROOT
BRANCH   1  12
ATOM     12  C   UNL     1       2.025  12.567  13.256  1.00  0.00     0.021 A 
ATOM     13  C   UNL     1       3.106  12.588  12.359  1.00  0.00     0.016 A 
ATOM     14  C   UNL     1       3.677  11.394  11.910  1.00  0.00     0.047 A 
ATOM     15  C   UNL     1       3.168  10.164  12.339  1.00  0.00     0.115 A 
ATOM     16  C   UNL     1       1.504  11.326  13.668  1.00  0.00     0.016 A 
ATOM     17  C   UNL     1       2.076  10.134  13.218  1.00  0.00     0.047 A 
BRANCH  15  18
ATOM     18  O   UNL     1       3.746   8.982  11.884  1.00  0.00    -0.508 OA
ATOM     19  H   UNL     1       4.483   8.519  12.402  1.00  0.00     0.293 HD
ENDBRANCH  15  18
ENDBRANCH   1  12
BRANCH   2  20
ATOM     20  O   UNL     1      -0.191  13.834  11.881  1.00  0.00    -0.502 OA
ATOM     21  H   UNL     1       0.376  13.423  11.149  1.00  0.00     0.293 HD
ENDBRANCH   2  20
BRANCH   6  22
ATOM     22  O   UNL     1      -0.886  18.403  14.526  1.00  0.00    -0.507 OA
ATOM     23  H   UNL     1      -1.520  18.134  13.789  1.00  0.00     0.293 HD
ENDBRANCH   6  22
BRANCH   8  24
ATOM     24  O   UNL     1       2.059  17.713  18.235  1.00  0.00    -0.508 OA
ATOM     25  H   UNL     1       2.082  17.136  19.068  1.00  0.00     0.293 HD
ENDBRANCH   8  24
TORSDOF 5
ENDMDL
MODEL 3
REMARK VINA RESULT:    -3.752      2.993      4.647
REMARK INTER + INTRA:          -3.846
REMARK INTER:                  -3.550
REMARK INTRA:                  -0.297
REMARK UNBOUND:                 0.564
REMARK SMILES O=c1c(O)c(-c2ccc(O)cc2)oc2cc(O)cc(O)c12
REMARK SMILES IDX 5 1 3 2 2 3 1 4 21 5 19 6 18 7 16 8 15 9 14 10 13 11 6 12
REMARK SMILES IDX 7 13 8 14 9 15 12 16 11 17 10 18 4 20 20 22 17 24
REMARK H PARENT 10 19 4 21 20 23 17 25
REMARK Flexibility Score: inf
ROOT
ATOM      1  C   UNL     1       1.365  14.846  15.305  1.00  0.00     0.180 A 
ATOM      2  C   UNL     1       0.128  14.182  15.343  1.00  0.00     0.208 A 
ATOM      3  C   UNL     1       0.001  12.942  14.698  1.00  0.00     0.238 A 
ATOM      4  O   UNL     1      -1.125  12.377  14.689  1.00  0.00    -0.285 OA
ATOM      5  C   UNL     1       1.117  12.374  14.037  1.00  0.00     0.111 A 
ATOM      6  C   UNL     1       1.112  11.104  13.384  1.00  0.00     0.134 A 
ATOM      7  C   UNL     1       2.235  10.701  12.651  1.00  0.00     0.093 A 
ATOM      8  C   UNL     1       3.383  11.489  12.601  1.00  0.00     0.123 A 
ATOM      9  C   UNL     1       3.420  12.705  13.284  1.00  0.00     0.094 A 
ATOM     10  C   UNL     1       2.302  13.152  13.995  1.00  0.00     0.146 A 
ATOM     11  O   UNL     1       2.375  14.319  14.623  1.00  0.00    -0.452 OA
ENDROOT
BRANCH   1  12
ATOM     12  C   UNL     1       1.585  16.145  15.983  1.00  0.00     0.021 A 
ATOM     13  C   UNL     1       1.405  17.339  15.266  1.00  0.00     0.016 A 
ATOM     14  C   UNL     1       1.628  18.574  15.881  1.00  0.00     0.047 A 
ATOM     15  C   UNL     1       2.046  18.634  17.213  1.00  0.00     0.115 A 
ATOM     16  C   UNL     1       2.025  16.210  17.319  1.00  0.00     0.016 A 
ATOM     17  C   UNL     1       2.248  17.446  17.930  1.00  0.00     0.047 A 
BRANCH  15  18
ATOM     18  O   UNL     1       2.265  19.871  17.813  1.00  0.00    -0.508 OA
ATOM     19  H   UNL     1       2.340  20.720  17.265  1.00  0.00     0.293 HD
ENDBRANCH  15  18
ENDBRANCH   1  12
BRANCH   2  20
ATOM     20  O   UNL     1      -0.967  14.770  15.983  1.00  0.00    -0.502 OA
ATOM     21  H   UNL     1      -1.906  14.398  15.907  1.00  0.00     0.293 HD
ENDBRANCH   2  20
BRANCH   6  22
ATOM     22  O   UNL     1       0.050  10.198  13.449  1.00  0.00    -0.507 OA
ATOM     23  H   UNL     1      -0.388   9.767  12.649  1.00  0.00     0.293 HD
ENDBRANCH   6  22
BRANCH   8  24
ATOM     24  O   UNL     1       4.488  11.049  11.875  1.00  0.00    -0.508 OA
ATOM     25  H   UNL     1       4.574  10.086  11.570  1.00  0.00     0.293 HD
ENDBRANCH   8  24
TORSDOF 5
ENDMDL
MODEL 4
REMARK VINA RESULT:    -3.157      1.304      2.973
REMARK INTER + INTRA:          -3.147
REMARK INTER:                  -3.563
REMARK INTRA:                   0.416
REMARK UNBOUND:                 0.564
REMARK SMILES O=c1c(O)c(-c2ccc(O)cc2)oc2cc(O)cc(O)c12
REMARK SMILES IDX 5 1 3 2 2 3 1 4 21 5 19 6 18 7 16 8 15 9 14 10 13 11 6 12
REMARK SMILES IDX 7 13 8 14 9 15 12 16 11 17 10 18 4 20 20 22 17 24
REMARK H PARENT 10 19 4 21 20 23 17 25
REMARK Flexibility Score: inf
ROOT
ATOM      1  C   UNL     1       0.795  14.412  16.035  1.00  0.00     0.180 A 
ATOM      2  C   UNL     1       2.025  14.045  15.464  1.00  0.00     0.208 A 
ATOM      3  C   UNL     1       2.447  14.684  14.288  1.00  0.00     0.238 A 
ATOM      4  O   UNL     1       3.525  14.312  13.751  1.00  0.00    -0.285 OA
ATOM      5  C   UNL     1       1.644  15.693  13.707  1.00  0.00     0.111 A 
ATOM      6  C   UNL     1       1.993  16.435  12.537  1.00  0.00     0.134 A 
ATOM      7  C   UNL     1       1.062  17.319  11.977  1.00  0.00     0.093 A 
ATOM      8  C   UNL     1      -0.177  17.536  12.577  1.00  0.00     0.123 A 
ATOM      9  C   UNL     1      -0.506  16.861  13.753  1.00  0.00     0.094 A 
ATOM     10  C   UNL     1       0.388  15.946  14.317  1.00  0.00     0.146 A 
ATOM     11  O   UNL     1       0.033  15.316  15.431  1.00  0.00    -0.452 OA
ENDROOT
BRANCH   1  12
ATOM     12  C   UNL     1       0.293  13.803  17.288  1.00  0.00     0.021 A 
ATOM     13  C   UNL     1      -0.654  14.493  18.063  1.00  0.00     0.016 A 
ATOM     14  C   UNL     1      -1.125  13.945  19.259  1.00  0.00     0.047 A 
ATOM     15  C   UNL     1      -0.646  12.710  19.706  1.00  0.00     0.115 A 
ATOM     16  C   UNL     1       0.786  12.568  17.752  1.00  0.00     0.016 A 
ATOM     17  C   UNL     1       0.314  12.024  18.949  1.00  0.00     0.047 A 
BRANCH  15  18
ATOM     18  O   UNL     1      -1.124  12.175  20.900  1.00  0.00    -0.508 OA
ATOM     19  H   UNL     1      -1.203  11.175  21.038  1.00  0.00     0.293 HD
ENDBRANCH  15  18
ENDBRANCH   1  12
BRANCH   2  20
ATOM     20  O   UNL     1       2.794  13.030  16.042  1.00  0.00    -0.502 OA
ATOM     21  H   UNL     1       2.798  12.851  17.039  1.00  0.00     0.293 HD
ENDBRANCH   2  20
BRANCH   6  22
ATOM     22  O   UNL     1       3.240  16.361  11.911  1.00  0.00    -0.507 OA
ATOM     23  H   UNL     1       4.121  16.574  12.355  1.00  0.00     0.293 HD
ENDBRANCH   6  22
BRANCH   8  24
ATOM     24  O   UNL     1      -1.072  18.434  12.001  1.00  0.00    -0.508 OA
ATOM     25  H   UNL     1      -1.858  18.117  11.444  1.00  0.00     0.293 HD
ENDBRANCH   8  24
TORSDOF 5
ENDMDL
MODEL 5
REMARK VINA RESULT:    -2.911      3.204      4.987
REMARK INTER + INTRA:          -2.858
REMARK INTER:                  -3.125
REMARK INTRA:                   0.267
REMARK UNBOUND:                 0.564
REMARK SMILES O=c1c(O)c(-c2ccc(O)cc2)oc2cc(O)cc(O)c12
REMARK SMILES IDX 5 1 3 2 2 3 1 4 21 5 19 6 18 7 16 8 15 9 14 10 13 11 6 12
REMARK SMILES IDX 7 13 8 14 9 15 12 16 11 17 10 18 4 20 20 22 17 24
REMARK H PARENT 10 19 4 21 20 23 17 25
REMARK Flexibility Score: inf
ROOT
ATOM      1  C   UNL     1       0.683  13.868  14.907  1.00  0.00     0.180 A 
ATOM      2  C   UNL     1       0.961  13.788  16.282  1.00  0.00     0.208 A 
ATOM      3  C   UNL     1       1.340  14.952  16.969  1.00  0.00     0.238 A 
ATOM      4  O   UNL     1       1.641  14.863  18.189  1.00  0.00    -0.285 OA
ATOM      5  C   UNL     1       1.421  16.184  16.277  1.00  0.00     0.111 A 
ATOM      6  C   UNL     1       1.757  17.433  16.883  1.00  0.00     0.134 A 
ATOM      7  C   UNL     1       1.935  18.564  16.077  1.00  0.00     0.093 A 
ATOM      8  C   UNL     1       1.726  18.508  14.700  1.00  0.00     0.123 A 
ATOM      9  C   UNL     1       1.340  17.306  14.105  1.00  0.00     0.094 A 
ATOM     10  C   UNL     1       1.190  16.151  14.878  1.00  0.00     0.146 A 
ATOM     11  O   UNL     1       0.831  15.025  14.272  1.00  0.00    -0.452 OA
ENDROOT
BRANCH   1  12
ATOM     12  C   UNL     1       0.253  12.691  14.119  1.00  0.00     0.021 A 
ATOM     13  C   UNL     1      -0.689  12.854  13.089  1.00  0.00     0.016 A 
ATOM     14  C   UNL     1      -1.125  11.752  12.347  1.00  0.00     0.047 A 
ATOM     15  C   UNL     1      -0.638  10.473  12.633  1.00  0.00     0.115 A 
ATOM     16  C   UNL     1       0.725  11.398  14.415  1.00  0.00     0.016 A 
ATOM     17  C   UNL     1       0.286  10.298  13.672  1.00  0.00     0.047 A 
BRANCH  15  18
ATOM     18  O   UNL     1      -1.081   9.384  11.886  1.00  0.00    -0.508 OA
ATOM     19  H   UNL     1      -1.313   9.475  10.904  1.00  0.00     0.293 HD
ENDBRANCH  15  18
ENDBRANCH   1  12
BRANCH   2  20
ATOM     20  O   UNL     1       0.896  12.557  16.942  1.00  0.00    -0.502 OA
ATOM     21  H   UNL     1       0.222  11.843  16.696  1.00  0.00     0.293 HD
ENDBRANCH   2  20
BRANCH   6  22
ATOM     22  O   UNL     1       1.898  17.619  18.261  1.00  0.00    -0.507 OA
ATOM     23  H   UNL     1       1.213  18.061  18.855  1.00  0.00     0.293 HD
ENDBRANCH   6  22
BRANCH   8  24
ATOM     24  O   UNL     1       1.897  19.657  13.931  1.00  0.00    -0.508 OA
ATOM     25  H   UNL     1       1.298  19.859  13.138  1.00  0.00     0.293 HD
ENDBRANCH   8  24
TORSDOF 5
ENDMDL
MODEL 6
REMARK VINA RESULT:    -2.595      3.088      5.499
REMARK INTER + INTRA:          -2.486
REMARK INTER:                  -2.255
REMARK INTRA:                  -0.231
REMARK UNBOUND:                 0.564
REMARK SMILES O=c1c(O)c(-c2ccc(O)cc2)oc2cc(O)cc(O)c12
REMARK SMILES IDX 5 1 3 2 2 3 1 4 21 5 19 6 18 7 16 8 15 9 14 10 13 11 6 12
REMARK SMILES IDX 7 13 8 14 9 15 12 16 11 17 10 18 4 20 20 22 17 24
REMARK H PARENT 10 19 4 21 20 23 17 25
REMARK Flexibility Score: inf
ROOT
ATOM      1  C   UNL     1       1.867  13.989  14.035  1.00  0.00     0.180 A 
ATOM      2  C   UNL     1       2.161  14.345  15.362  1.00  0.00     0.208 A 
ATOM      3  C   UNL     1       1.682  15.566  15.861  1.00  0.00     0.238 A 
ATOM      4  O   UNL     1       1.994  15.905  17.033  1.00  0.00    -0.285 OA
ATOM      5  C   UNL     1       0.901  16.408  15.032  1.00  0.00     0.111 A 
ATOM      6  C   UNL     1       0.330  17.650  15.447  1.00  0.00     0.134 A 
ATOM      7  C   UNL     1      -0.314  18.462  14.505  1.00  0.00     0.093 A 
ATOM      8  C   UNL     1      -0.465  18.050  13.182  1.00  0.00     0.123 A 
ATOM      9  C   UNL     1       0.038  16.811  12.780  1.00  0.00     0.094 A 
ATOM     10  C   UNL     1       0.717  15.994  13.688  1.00  0.00     0.146 A 
ATOM     11  O   UNL     1       1.189  14.828  13.263  1.00  0.00    -0.452 OA
ENDROOT
BRANCH   1  12
ATOM     12  C   UNL     1       2.316  12.706  13.445  1.00  0.00     0.021 A 
ATOM     13  C   UNL     1       1.673  11.512  13.814  1.00  0.00     0.016 A 
ATOM     14  C   UNL     1       2.094  10.289  13.285  1.00  0.00     0.047 A 
ATOM     15  C   UNL     1       3.170  10.239  12.394  1.00  0.00     0.115 A 
ATOM     16  C   UNL     1       3.411  12.648  12.562  1.00  0.00     0.016 A 
ATOM     17  C   UNL     1       3.830  11.423  12.036  1.00  0.00     0.047 A 
BRANCH  15  18
ATOM     18  O   UNL     1       3.580   9.013  11.875  1.00  0.00    -0.508 OA
ATOM     19  H   UNL     1       3.046   8.167  12.032  1.00  0.00     0.293 HD
ENDBRANCH  15  18
ENDBRANCH   1  12
BRANCH   2  20
ATOM     20  O   UNL     1       2.952  13.510  16.156  1.00  0.00    -0.502 OA
ATOM     21  H   UNL     1       3.865  13.786  16.496  1.00  0.00     0.293 HD
ENDBRANCH   2  20
BRANCH   6  22
ATOM     22  O   UNL     1       0.344  18.113  16.765  1.00  0.00    -0.507 OA
ATOM     23  H   UNL     1       1.071  17.916  17.437  1.00  0.00     0.293 HD
ENDBRANCH   6  22
BRANCH   8  24
ATOM     24  O   UNL     1      -1.125  18.876  12.275  1.00  0.00    -0.508 OA
ATOM     25  H   UNL     1      -1.060  19.886  12.333  1.00  0.00     0.293 HD
ENDBRANCH   8  24
TORSDOF 5
ENDMDL
MODEL 7
REMARK VINA RESULT:    -1.918      3.292      4.838
REMARK INTER + INTRA:          -1.691
REMARK INTER:                  -1.995
REMARK INTRA:                   0.304
REMARK UNBOUND:                 0.564
REMARK SMILES O=c1c(O)c(-c2ccc(O)cc2)oc2cc(O)cc(O)c12
REMARK SMILES IDX 5 1 3 2 2 3 1 4 21 5 19 6 18 7 16 8 15 9 14 10 13 11 6 12
REMARK SMILES IDX 7 13 8 14 9 15 12 16 11 17 10 18 4 20 20 22 17 24
REMARK H PARENT 10 19 4 21 20 23 17 25
REMARK Flexibility Score: inf
ROOT
ATOM      1  C   UNL     1       1.006  15.082  14.839  1.00  0.00     0.180 A 
ATOM      2  C   UNL     1       0.059  15.198  13.808  1.00  0.00     0.208 A 
ATOM      3  C   UNL     1      -0.314  14.048  13.094  1.00  0.00     0.238 A 
ATOM      4  O   UNL     1      -1.123  14.168  12.136  1.00  0.00    -0.285 OA
ATOM      5  C   UNL     1       0.252  12.796  13.430  1.00  0.00     0.111 A 
ATOM      6  C   UNL     1      -0.082  11.559  12.798  1.00  0.00     0.134 A 
ATOM      7  C   UNL     1       0.637  10.402  13.122  1.00  0.00     0.093 A 
ATOM      8  C   UNL     1       1.631  10.422  14.099  1.00  0.00     0.123 A 
ATOM      9  C   UNL     1       1.926  11.612  14.764  1.00  0.00     0.094 A 
ATOM     10  C   UNL     1       1.251  12.792  14.438  1.00  0.00     0.146 A 
ATOM     11  O   UNL     1       1.568  13.905  15.087  1.00  0.00    -0.452 OA
ENDROOT
BRANCH   1  12
ATOM     12  C   UNL     1       1.431  16.243  15.655  1.00  0.00     0.021 A 
ATOM     13  C   UNL     1       1.765  16.055  17.006  1.00  0.00     0.016 A 
ATOM     14  C   UNL     1       2.148  17.140  17.799  1.00  0.00     0.047 A 
ATOM     15  C   UNL     1       2.188  18.429  17.258  1.00  0.00     0.115 A 
ATOM     16  C   UNL     1       1.454  17.545  15.121  1.00  0.00     0.016 A 
ATOM     17  C   UNL     1       1.836  18.629  15.916  1.00  0.00     0.047 A 
BRANCH  15  18
ATOM     18  O   UNL     1       2.571  19.502  18.060  1.00  0.00    -0.508 OA
ATOM     19  H   UNL     1       2.728  19.390  19.054  1.00  0.00     0.293 HD
ENDBRANCH  15  18
ENDBRANCH   1  12
BRANCH   2  20
ATOM     20  O   UNL     1      -0.473  16.448  13.479  1.00  0.00    -0.502 OA
ATOM     21  H   UNL     1       0.016  17.109  12.888  1.00  0.00     0.293 HD
ENDBRANCH   2  20
BRANCH   6  22
ATOM     22  O   UNL     1      -1.121  11.411  11.875  1.00  0.00    -0.507 OA
ATOM     23  H   UNL     1      -2.103  11.424  12.107  1.00  0.00     0.293 HD
ENDBRANCH   6  22
BRANCH   8  24
ATOM     24  O   UNL     1       2.315   9.248  14.407  1.00  0.00    -0.508 OA
ATOM     25  H   UNL     1       3.199   9.264  14.904  1.00  0.00     0.293 HD
ENDBRANCH   8  24
TORSDOF 5
ENDMDL
MODEL 8
REMARK VINA RESULT:    -1.914      4.295      6.273
REMARK INTER + INTRA:          -1.686
REMARK INTER:                  -2.113
REMARK INTRA:                   0.427
REMARK UNBOUND:                 0.564
REMARK SMILES O=c1c(O)c(-c2ccc(O)cc2)oc2cc(O)cc(O)c12
REMARK SMILES IDX 5 1 3 2 2 3 1 4 21 5 19 6 18 7 16 8 15 9 14 10 13 11 6 12
REMARK SMILES IDX 7 13 8 14 9 15 12 16 11 17 10 18 4 20 20 22 17 24
REMARK H PARENT 10 19 4 21 20 23 17 25
REMARK Flexibility Score: inf
ROOT
ATOM      1  C   UNL     1       3.091  11.421  12.511  1.00  0.00     0.180 A 
ATOM      2  C   UNL     1       1.711  11.596  12.711  1.00  0.00     0.208 A 
ATOM      3  C   UNL     1       1.174  12.891  12.655  1.00  0.00     0.238 A 
ATOM      4  O   UNL     1      -0.054  13.047  12.889  1.00  0.00    -0.285 OA
ATOM      5  C   UNL     1       2.019  13.993  12.383  1.00  0.00     0.111 A 
ATOM      6  C   UNL     1       1.575  15.345  12.264  1.00  0.00     0.134 A 
ATOM      7  C   UNL     1       2.518  16.371  12.124  1.00  0.00     0.093 A 
ATOM      8  C   UNL     1       3.880  16.090  12.033  1.00  0.00     0.123 A 
ATOM      9  C   UNL     1       4.321  14.767  12.088  1.00  0.00     0.094 A 
ATOM     10  C   UNL     1       3.407  13.724  12.265  1.00  0.00     0.146 A 
ATOM     11  O   UNL     1       3.868  12.480  12.323  1.00  0.00    -0.452 OA
ENDROOT
BRANCH   1  12
ATOM     12  C   UNL     1       3.728  10.084  12.529  1.00  0.00     0.021 A 
ATOM     13  C   UNL     1       3.127   9.041  13.254  1.00  0.00     0.016 A 
ATOM     14  C   UNL     1       3.722   7.777  13.302  1.00  0.00     0.047 A 
ATOM     15  C   UNL     1       4.931   7.542  12.641  1.00  0.00     0.115 A 
ATOM     16  C   UNL     1       4.955   9.847  11.882  1.00  0.00     0.016 A 
ATOM     17  C   UNL     1       5.549   8.583  11.933  1.00  0.00     0.047 A 
BRANCH  15  18
ATOM     18  O   UNL     1       5.514   6.278  12.697  1.00  0.00    -0.508 OA
ATOM     19  H   UNL     1       5.990   5.879  11.898  1.00  0.00     0.293 HD
ENDBRANCH  15  18
ENDBRANCH   1  12
BRANCH   2  20
ATOM     20  O   UNL     1       0.897  10.496  12.999  1.00  0.00    -0.502 OA
ATOM     21  H   UNL     1       1.104   9.563  12.664  1.00  0.00     0.293 HD
ENDBRANCH   2  20
BRANCH   6  22
ATOM     22  O   UNL     1       0.231  15.726  12.250  1.00  0.00    -0.507 OA
ATOM     23  H   UNL     1      -0.131  16.544  11.783  1.00  0.00     0.293 HD
ENDBRANCH   6  22
BRANCH   8  24
ATOM     24  O   UNL     1       4.789  17.135  11.877  1.00  0.00    -0.508 OA
ATOM     25  H   UNL     1       5.777  16.961  11.728  1.00  0.00     0.293 HD
ENDBRANCH   8  24
TORSDOF 5
ENDMDL
