MODEL 1
REMARK VINA RESULT:    -4.335      0.000      0.000
REMARK INTER + INTRA:          -8.558
REMARK INTER:                  -6.870
REMARK INTRA:                  -1.688
REMARK UNBOUND:                -1.688
REMARK SMILES CCCCCCCCCCCC(=O)[O-]
REMARK SMILES IDX 7 1 8 2 9 3 10 4 11 5 12 6 13 7 14 8 6 9 5 10 4 11 3 12 2 13
REMARK SMILES IDX 1 14
REMARK H PARENT
REMARK Flexibility Score: inf
ROOT
ATOM      1  C   UNL     1     121.402 179.265 126.551  1.00  0.00     0.000 C 
ENDROOT
BRANCH   1   2
ATOM      2  C   UNL     1     120.350 179.823 125.581  1.00  0.00     0.000 C 
BRANCH   2   3
ATOM      3  C   UNL     1     120.410 179.160 124.197  1.00  0.00     0.000 C 
BRANCH   3   4
ATOM      4  C   UNL     1     119.157 178.324 123.886  1.00  0.00     0.006 C 
BRANCH   4   5
ATOM      5  C   UNL     1     118.072 178.486 124.959  1.00  0.00     0.053 C 
BRANCH   5   6
ATOM      6  C   UNL     1     116.702 178.554 124.355  1.00  0.00     0.041 C 
ATOM      7  O   UNL     1     116.561 178.594 123.104  1.00  0.00    -0.550 OA
ATOM      8  O   UNL     1     115.580 178.537 125.173  1.00  0.00    -0.550 OA
ENDBRANCH   5   6
ENDBRANCH   4   5
ENDBRANCH   3   4
ENDBRANCH   2   3
ENDBRANCH   1   2
BRANCH   1   9
ATOM      9  C   UNL     1     120.750 178.791 127.856  1.00  0.00     0.000 C 
BRANCH   9  10
ATOM     10  C   UNL     1     120.278 177.337 127.740  1.00  0.00    -0.000 C 
BRANCH  10  11
ATOM     11  C   UNL     1     121.313 176.480 126.997  1.00  0.00    -0.000 C 
BRANCH  11  12
ATOM     12  C   UNL     1     120.671 175.530 125.974  1.00  0.00    -0.000 C 
BRANCH  12  13
ATOM     13  C   UNL     1     121.397 175.543 124.620  1.00  0.00    -0.003 C 
ATOM     14  C   UNL     1     122.751 176.238 124.730  1.00  0.00     0.004 C 
ENDBRANCH  12  13
ENDBRANCH  11  12
ENDBRANCH  10  11
ENDBRANCH   9  10
ENDBRANCH   1   9
TORSDOF 10
ENDMDL
MODEL 2
REMARK VINA RESULT:    -4.265      1.267      2.687
REMARK INTER + INTRA:          -8.446
REMARK INTER:                  -6.979
REMARK INTRA:                  -1.466
REMARK UNBOUND:                -1.688
REMARK SMILES CCCCCCCCCCCC(=O)[O-]
REMARK SMILES IDX 7 1 8 2 9 3 10 4 11 5 12 6 13 7 14 8 6 9 5 10 4 11 3 12 2 13
REMARK SMILES IDX 1 14
REMARK H PARENT
REMARK Flexibility Score: inf
ROOT
ATOM      1  C   UNL     1     120.234 177.302 127.647  1.00  0.00     0.000 C 
ENDROOT
BRANCH   1   2
ATOM      2  C   UNL     1     118.729 176.998 127.650  1.00  0.00     0.000 C 
BRANCH   2   3
ATOM      3  C   UNL     1     118.143 176.897 126.233  1.00  0.00     0.000 C 
BRANCH   3   4
ATOM      4  C   UNL     1     116.895 177.777 126.044  1.00  0.00     0.006 C 
BRANCH   4   5
ATOM      5  C   UNL     1     116.849 178.427 124.655  1.00  0.00     0.053 C 
BRANCH   5   6
ATOM      6  C   UNL     1     115.891 179.577 124.613  1.00  0.00     0.041 C 
ATOM      7  O   UNL     1     115.452 179.998 123.509  1.00  0.00    -0.550 OA
ATOM      8  O   UNL     1     115.454 180.163 125.794  1.00  0.00    -0.550 OA
ENDBRANCH   5   6
ENDBRANCH   4   5
ENDBRANCH   3   4
ENDBRANCH   2   3
ENDBRANCH   1   2
BRANCH   1   9
ATOM      9  C   UNL     1     120.490 178.810 127.768  1.00  0.00     0.000 C 
BRANCH   9  10
ATOM     10  C   UNL     1     121.268 179.336 126.556  1.00  0.00    -0.000 C 
BRANCH  10  11
ATOM     11  C   UNL     1     120.311 179.796 125.446  1.00  0.00    -0.000 C 
BRANCH  11  12
ATOM     12  C   UNL     1     120.477 178.989 124.149  1.00  0.00    -0.000 C 
BRANCH  12  13
ATOM     13  C   UNL     1     121.677 178.032 124.198  1.00  0.00    -0.003 C 
ATOM     14  C   UNL     1     121.223 176.578 124.092  1.00  0.00     0.004 C 
ENDBRANCH  12  13
ENDBRANCH  11  12
ENDBRANCH  10  11
ENDBRANCH   9  10
ENDBRANCH   1   9
TORSDOF 10
ENDMDL
MODEL 3
REMARK VINA RESULT:    -4.147      1.162      3.016
REMARK INTER + INTRA:          -8.259
REMARK INTER:                  -6.896
REMARK INTRA:                  -1.364
REMARK UNBOUND:                -1.688
REMARK SMILES CCCCCCCCCCCC(=O)[O-]
REMARK SMILES IDX 7 1 8 2 9 3 10 4 11 5 12 6 13 7 14 8 6 9 5 10 4 11 3 12 2 13
REMARK SMILES IDX 1 14
REMARK H PARENT
REMARK Flexibility Score: inf
ROOT
ATOM      1  C   UNL     1     121.859 176.663 124.261  1.00  0.00     0.000 C 
ENDROOT
BRANCH   1   2
ATOM      2  C   UNL     1     121.954 178.041 123.589  1.00  0.00     0.000 C 
BRANCH   2   3
ATOM      3  C   UNL     1     120.637 178.829 123.666  1.00  0.00     0.000 C 
BRANCH   3   4
ATOM      4  C   UNL     1     119.463 177.972 124.171  1.00  0.00     0.006 C 
BRANCH   4   5
ATOM      5  C   UNL     1     118.390 178.816 124.873  1.00  0.00     0.053 C 
BRANCH   5   6
ATOM      6  C   UNL     1     117.008 178.374 124.502  1.00  0.00     0.041 C 
ATOM      7  O   UNL     1     116.267 177.820 125.358  1.00  0.00    -0.550 OA
ATOM      8  O   UNL     1     116.523 178.604 123.221  1.00  0.00    -0.550 OA
ENDBRANCH   5   6
ENDBRANCH   4   5
ENDBRANCH   3   4
ENDBRANCH   2   3
ENDBRANCH   1   2
BRANCH   1   9
ATOM      9  C   UNL     1     122.923 176.513 125.356  1.00  0.00     0.000 C 
BRANCH   9  10
ATOM     10  C   UNL     1     123.565 177.864 125.691  1.00  0.00    -0.000 C 
BRANCH  10  11
ATOM     11  C   UNL     1     123.130 178.350 127.082  1.00  0.00    -0.000 C 
BRANCH  11  12
ATOM     12  C   UNL     1     121.877 179.238 127.034  1.00  0.00    -0.000 C 
BRANCH  12  13
ATOM     13  C   UNL     1     120.754 178.725 127.948  1.00  0.00    -0.003 C 
ATOM     14  C   UNL     1     121.039 177.302 128.420  1.00  0.00     0.004 C 
ENDBRANCH  12  13
ENDBRANCH  11  12
ENDBRANCH  10  11
ENDBRANCH   9  10
ENDBRANCH   1   9
TORSDOF 10
ENDMDL
MODEL 4
REMARK VINA RESULT:    -4.132      1.305      2.526
REMARK INTER + INTRA:          -8.236
REMARK INTER:                  -6.647
REMARK INTRA:                  -1.589
REMARK UNBOUND:                -1.688
REMARK SMILES CCCCCCCCCCCC(=O)[O-]
REMARK SMILES IDX 7 1 8 2 9 3 10 4 11 5 12 6 13 7 14 8 6 9 5 10 4 11 3 12 2 13
REMARK SMILES IDX 1 14
REMARK H PARENT
REMARK Flexibility Score: inf
ROOT
ATOM      1  C   UNL     1     122.638 178.016 127.015  1.00  0.00     0.000 C 
ENDROOT
BRANCH   1   2
ATOM      2  C   UNL     1     121.716 179.244 126.995  1.00  0.00     0.000 C 
BRANCH   2   3
ATOM      3  C   UNL     1     120.281 178.899 126.567  1.00  0.00     0.000 C 
BRANCH   3   4
ATOM      4  C   UNL     1     119.949 179.403 125.151  1.00  0.00     0.006 C 
BRANCH   4   5
ATOM      5  C   UNL     1     118.936 178.497 124.437  1.00  0.00     0.053 C 
BRANCH   5   6
ATOM      6  C   UNL     1     117.613 178.484 125.141  1.00  0.00     0.041 C 
ATOM      7  O   UNL     1     117.238 177.459 125.769  1.00  0.00    -0.550 OA
ATOM      8  O   UNL     1     116.810 179.617 125.133  1.00  0.00    -0.550 OA
ENDBRANCH   5   6
ENDBRANCH   4   5
ENDBRANCH   3   4
ENDBRANCH   2   3
ENDBRANCH   1   2
BRANCH   1   9
ATOM      9  C   UNL     1     123.729 178.131 125.942  1.00  0.00     0.000 C 
BRANCH   9  10
ATOM     10  C   UNL     1     123.673 176.947 124.970  1.00  0.00    -0.000 C 
BRANCH  10  11
ATOM     11  C   UNL     1     122.663 177.208 123.842  1.00  0.00    -0.000 C 
BRANCH  11  12
ATOM     12  C   UNL     1     121.517 176.185 123.824  1.00  0.00    -0.000 C 
BRANCH  12  13
ATOM     13  C   UNL     1     121.615 175.167 124.970  1.00  0.00    -0.003 C 
ATOM     14  C   UNL     1     120.362 175.199 125.840  1.00  0.00     0.004 C 
ENDBRANCH  12  13
ENDBRANCH  11  12
ENDBRANCH  10  11
ENDBRANCH   9  10
ENDBRANCH   1   9
TORSDOF 10
ENDMDL
MODEL 5
REMARK VINA RESULT:    -4.074      2.287      4.107
REMARK INTER + INTRA:          -8.144
REMARK INTER:                  -6.546
REMARK INTRA:                  -1.598
REMARK UNBOUND:                -1.688
REMARK SMILES CCCCCCCCCCCC(=O)[O-]
REMARK SMILES IDX 7 1 8 2 9 3 10 4 11 5 12 6 13 7 14 8 6 9 5 10 4 11 3 12 2 13
REMARK SMILES IDX 1 14
REMARK H PARENT
REMARK Flexibility Score: inf
ROOT
ATOM      1  C   UNL     1     123.645 176.892 124.850  1.00  0.00     0.000 C 
ENDROOT
BRANCH   1   2
ATOM      2  C   UNL     1     122.532 177.212 123.843  1.00  0.00     0.000 C 
BRANCH   2   3
ATOM      3  C   UNL     1     121.314 176.287 123.992  1.00  0.00     0.000 C 
BRANCH   3   4
ATOM      4  C   UNL     1     121.572 175.120 124.961  1.00  0.00     0.006 C 
BRANCH   4   5
ATOM      5  C   UNL     1     120.736 175.237 126.243  1.00  0.00     0.053 C 
BRANCH   5   6
ATOM      6  C   UNL     1     119.299 174.890 126.001  1.00  0.00     0.041 C 
ATOM      7  O   UNL     1     118.425 175.796 125.964  1.00  0.00    -0.550 OA
ATOM      8  O   UNL     1     118.930 173.569 125.782  1.00  0.00    -0.550 OA
ENDBRANCH   5   6
ENDBRANCH   4   5
ENDBRANCH   3   4
ENDBRANCH   2   3
ENDBRANCH   1   2
BRANCH   1   9
ATOM      9  C   UNL     1     123.983 178.121 125.704  1.00  0.00     0.000 C 
BRANCH   9  10
ATOM     10  C   UNL     1     123.238 178.084 127.044  1.00  0.00    -0.000 C 
BRANCH  10  11
ATOM     11  C   UNL     1     122.244 179.249 127.153  1.00  0.00    -0.000 C 
BRANCH  11  12
ATOM     12  C   UNL     1     120.815 178.782 127.474  1.00  0.00    -0.000 C 
BRANCH  12  13
ATOM     13  C   UNL     1     119.881 178.857 126.257  1.00  0.00    -0.003 C 
ATOM     14  C   UNL     1     120.254 180.027 125.352  1.00  0.00     0.004 C 
ENDBRANCH  12  13
ENDBRANCH  11  12
ENDBRANCH  10  11
ENDBRANCH   9  10
ENDBRANCH   1   9
TORSDOF 10
ENDMDL
MODEL 6
REMARK VINA RESULT:    -4.059      1.734      3.111
REMARK INTER + INTRA:          -8.121
REMARK INTER:                  -6.867
REMARK INTRA:                  -1.254
REMARK UNBOUND:                -1.688
REMARK SMILES CCCCCCCCCCCC(=O)[O-]
REMARK SMILES IDX 7 1 8 2 9 3 10 4 11 5 12 6 13 7 14 8 6 9 5 10 4 11 3 12 2 13
REMARK SMILES IDX 1 14
REMARK H PARENT
REMARK Flexibility Score: inf
ROOT
ATOM      1  C   UNL     1     120.506 179.255 124.541  1.00  0.00     0.000 C 
ENDROOT
BRANCH   1   2
ATOM      2  C   UNL     1     119.464 179.334 125.665  1.00  0.00     0.000 C 
BRANCH   2   3
ATOM      3  C   UNL     1     119.109 177.955 126.241  1.00  0.00     0.000 C 
BRANCH   3   4
ATOM      4  C   UNL     1     117.623 177.600 126.056  1.00  0.00     0.006 C 
BRANCH   4   5
ATOM      5  C   UNL     1     116.999 178.328 124.858  1.00  0.00     0.053 C 
BRANCH   5   6
ATOM      6  C   UNL     1     115.687 178.957 125.214  1.00  0.00     0.041 C 
ATOM      7  O   UNL     1     115.349 179.082 126.421  1.00  0.00    -0.550 OA
ATOM      8  O   UNL     1     114.851 179.437 124.214  1.00  0.00    -0.550 OA
ENDBRANCH   5   6
ENDBRANCH   4   5
ENDBRANCH   3   4
ENDBRANCH   2   3
ENDBRANCH   1   2
BRANCH   1   9
ATOM      9  C   UNL     1     120.887 177.799 124.245  1.00  0.00     0.000 C 
BRANCH   9  10
ATOM     10  C   UNL     1     122.399 177.586 124.376  1.00  0.00    -0.000 C 
BRANCH  10  11
ATOM     11  C   UNL     1     122.797 177.350 125.840  1.00  0.00    -0.000 C 
BRANCH  11  12
ATOM     12  C   UNL     1     123.809 178.386 126.354  1.00  0.00    -0.000 C 
BRANCH  12  13
ATOM     13  C   UNL     1     123.179 179.398 127.322  1.00  0.00    -0.003 C 
ATOM     14  C   UNL     1     122.187 178.715 128.259  1.00  0.00     0.004 C 
ENDBRANCH  12  13
ENDBRANCH  11  12
ENDBRANCH  10  11
ENDBRANCH   9  10
ENDBRANCH   1   9
TORSDOF 10
ENDMDL
MODEL 7
REMARK VINA RESULT:    -4.024      1.162      2.390
REMARK INTER + INTRA:          -8.065
REMARK INTER:                  -6.531
REMARK INTRA:                  -1.533
REMARK UNBOUND:                -1.688
REMARK SMILES CCCCCCCCCCCC(=O)[O-]
REMARK SMILES IDX 7 1 8 2 9 3 10 4 11 5 12 6 13 7 14 8 6 9 5 10 4 11 3 12 2 13
REMARK SMILES IDX 1 14
REMARK H PARENT
REMARK Flexibility Score: inf
ROOT
ATOM      1  C   UNL     1     122.060 178.027 125.964  1.00  0.00     0.000 C 
ENDROOT
BRANCH   1   2
ATOM      2  C   UNL     1     121.053 179.070 126.470  1.00  0.00     0.000 C 
BRANCH   2   3
ATOM      3  C   UNL     1     120.307 179.776 125.327  1.00  0.00     0.000 C 
BRANCH   3   4
ATOM      4  C   UNL     1     118.780 179.619 125.431  1.00  0.00     0.006 C 
BRANCH   4   5
ATOM      5  C   UNL     1     118.252 178.482 124.545  1.00  0.00     0.053 C 
BRANCH   5   6
ATOM      6  C   UNL     1     116.777 178.287 124.716  1.00  0.00     0.041 C 
ATOM      7  O   UNL     1     116.332 177.649 125.706  1.00  0.00    -0.550 OA
ATOM      8  O   UNL     1     115.891 178.838 123.799  1.00  0.00    -0.550 OA
ENDBRANCH   5   6
ENDBRANCH   4   5
ENDBRANCH   3   4
ENDBRANCH   2   3
ENDBRANCH   1   2
BRANCH   1   9
ATOM      9  C   UNL     1     121.887 177.780 124.460  1.00  0.00     0.000 C 
BRANCH   9  10
ATOM     10  C   UNL     1     121.595 176.303 124.174  1.00  0.00    -0.000 C 
BRANCH  10  11
ATOM     11  C   UNL     1     121.811 175.446 125.430  1.00  0.00    -0.000 C 
BRANCH  11  12
ATOM     12  C   UNL     1     120.599 174.561 125.760  1.00  0.00    -0.000 C 
BRANCH  12  13
ATOM     13  C   UNL     1     119.299 175.368 125.898  1.00  0.00    -0.003 C 
ATOM     14  C   UNL     1     119.164 175.952 127.302  1.00  0.00     0.004 C 
ENDBRANCH  12  13
ENDBRANCH  11  12
ENDBRANCH  10  11
ENDBRANCH   9  10
ENDBRANCH   1   9
TORSDOF 10
ENDMDL
MODEL 8
REMARK VINA RESULT:    -4.010      1.434      2.807
REMARK INTER + INTRA:          -8.042
REMARK INTER:                  -6.437
REMARK INTRA:                  -1.605
REMARK UNBOUND:                -1.688
REMARK SMILES CCCCCCCCCCCC(=O)[O-]
REMARK SMILES IDX 7 1 8 2 9 3 10 4 11 5 12 6 13 7 14 8 6 9 5 10 4 11 3 12 2 13
REMARK SMILES IDX 1 14
REMARK H PARENT
REMARK Flexibility Score: inf
ROOT
ATOM      1  C   UNL     1     121.497 176.880 127.772  1.00  0.00     0.000 C 
ENDROOT
BRANCH   1   2
ATOM      2  C   UNL     1     122.475 178.062 127.713  1.00  0.00     0.000 C 
BRANCH   2   3
ATOM      3  C   UNL     1     122.004 179.174 126.762  1.00  0.00     0.000 C 
BRANCH   3   4
ATOM      4  C   UNL     1     120.472 179.311 126.724  1.00  0.00     0.006 C 
BRANCH   4   5
ATOM      5  C   UNL     1     119.962 179.731 125.339  1.00  0.00     0.053 C 
BRANCH   5   6
ATOM      6  C   UNL     1     118.861 178.837 124.859  1.00  0.00     0.041 C 
ATOM      7  O   UNL     1     118.859 178.411 123.674  1.00  0.00    -0.550 OA
ATOM      8  O   UNL     1     117.854 178.444 125.732  1.00  0.00    -0.550 OA
ENDBRANCH   5   6
ENDBRANCH   4   5
ENDBRANCH   3   4
ENDBRANCH   2   3
ENDBRANCH   1   2
BRANCH   1   9
ATOM      9  C   UNL     1     121.848 175.824 126.717  1.00  0.00     0.000 C 
BRANCH   9  10
ATOM     10  C   UNL     1     120.844 175.847 125.558  1.00  0.00    -0.000 C 
BRANCH  10  11
ATOM     11  C   UNL     1     121.567 175.788 124.203  1.00  0.00    -0.000 C 
BRANCH  11  12
ATOM     12  C   UNL     1     122.143 177.149 123.780  1.00  0.00    -0.000 C 
BRANCH  12  13
ATOM     13  C   UNL     1     123.626 177.066 123.390  1.00  0.00    -0.003 C 
ATOM     14  C   UNL     1     124.525 177.318 124.597  1.00  0.00     0.004 C 
ENDBRANCH  12  13
ENDBRANCH  11  12
ENDBRANCH  10  11
ENDBRANCH   9  10
ENDBRANCH   1   9
TORSDOF 10
ENDMDL
MODEL 9
REMARK VINA RESULT:    -3.993      1.194      3.238
REMARK INTER + INTRA:          -8.016
REMARK INTER:                  -6.600
REMARK INTRA:                  -1.416
REMARK UNBOUND:                -1.688
REMARK SMILES CCCCCCCCCCCC(=O)[O-]
REMARK SMILES IDX 7 1 8 2 9 3 10 4 11 5 12 6 13 7 14 8 6 9 5 10 4 11 3 12 2 13
REMARK SMILES IDX 1 14
REMARK H PARENT
REMARK Flexibility Score: inf
ROOT
ATOM      1  C   UNL     1     120.143 175.210 126.542  1.00  0.00     0.000 C 
ENDROOT
BRANCH   1   2
ATOM      2  C   UNL     1     118.754 175.685 126.091  1.00  0.00     0.000 C 
BRANCH   2   3
ATOM      3  C   UNL     1     118.307 176.971 126.804  1.00  0.00     0.000 C 
BRANCH   3   4
ATOM      4  C   UNL     1     117.133 177.666 126.092  1.00  0.00     0.006 C 
BRANCH   4   5
ATOM      5  C   UNL     1     117.597 178.502 124.891  1.00  0.00     0.053 C 
BRANCH   5   6
ATOM      6  C   UNL     1     116.479 178.754 123.927  1.00  0.00     0.041 C 
ATOM      7  O   UNL     1     116.658 178.591 122.690  1.00  0.00    -0.550 OA
ATOM      8  O   UNL     1     115.228 179.134 124.396  1.00  0.00    -0.550 OA
ENDBRANCH   5   6
ENDBRANCH   4   5
ENDBRANCH   3   4
ENDBRANCH   2   3
ENDBRANCH   1   2
BRANCH   1   9
ATOM      9  C   UNL     1     121.021 174.854 125.336  1.00  0.00     0.000 C 
BRANCH   9  10
ATOM     10  C   UNL     1     121.260 176.080 124.446  1.00  0.00    -0.000 C 
BRANCH  10  11
ATOM     11  C   UNL     1     121.948 177.205 125.233  1.00  0.00    -0.000 C 
BRANCH  11  12
ATOM     12  C   UNL     1     121.235 178.558 125.081  1.00  0.00    -0.000 C 
BRANCH  12  13
ATOM     13  C   UNL     1     121.166 179.341 126.400  1.00  0.00    -0.003 C 
ATOM     14  C   UNL     1     121.637 178.484 127.571  1.00  0.00     0.004 C 
ENDBRANCH  12  13
ENDBRANCH  11  12
ENDBRANCH  10  11
ENDBRANCH   9  10
ENDBRANCH   1   9
TORSDOF 10
ENDMDL
