MODEL 1
REMARK VINA RESULT:    -4.601      0.000      0.000
REMARK INTER + INTRA:         -10.634
REMARK INTER:                  -8.366
REMARK INTRA:                  -2.267
REMARK UNBOUND:                -2.267
REMARK SMILES CCCCCC=CCC=CCCCCCCCC(=O)[O-]
REMARK SMILES IDX 11 1 12 2 13 3 14 4 15 5 16 6 17 7 18 8 19 9 20 10 10 11
REMARK SMILES IDX 9 12 8 13 7 14 6 15 5 16 4 17 3 18 2 19 1 20
REMARK H PARENT
REMARK Flexibility Score: inf
ROOT
ATOM      1  C   UNL     1       2.180  19.146   0.414  1.00  0.00     0.027 C 
ENDROOT
BRANCH   1   2
ATOM      2  C   UNL     1       2.716  17.710   0.307  1.00  0.00     0.004 C 
BRANCH   2   3
ATOM      3  C   UNL     1       1.603  16.655   0.405  1.00  0.00     0.000 C 
BRANCH   3   4
ATOM      4  C   UNL     1       2.143  15.259   0.747  1.00  0.00     0.000 C 
BRANCH   4   5
ATOM      5  C   UNL     1       3.023  15.302   2.003  1.00  0.00     0.000 C 
BRANCH   5   6
ATOM      6  C   UNL     1       4.351  14.572   1.770  1.00  0.00     0.006 C 
BRANCH   6   7
ATOM      7  C   UNL     1       5.483  15.566   1.494  1.00  0.00     0.053 C 
BRANCH   7   8
ATOM      8  C   UNL     1       6.022  15.376   0.112  1.00  0.00     0.041 C 
ATOM      9  O   UNL     1       7.265  15.338  -0.083  1.00  0.00    -0.550 OA
ATOM     10  O   UNL     1       5.151  15.190  -0.954  1.00  0.00    -0.550 OA
ENDBRANCH   7   8
ENDBRANCH   6   7
ENDBRANCH   5   6
ENDBRANCH   4   5
ENDBRANCH   3   4
ENDBRANCH   2   3
ENDBRANCH   1   2
BRANCH   1  11
ATOM     11  C   UNL     1       2.515  19.750   1.750  1.00  0.00    -0.031 C 
ATOM     12  C   UNL     1       3.771  19.763   2.218  1.00  0.00    -0.027 C 
BRANCH  12  13
ATOM     13  C   UNL     1       4.089  20.387   3.549  1.00  0.00     0.054 C 
BRANCH  13  14
ATOM     14  C   UNL     1       4.824  19.426   4.441  1.00  0.00    -0.027 C 
ATOM     15  C   UNL     1       5.141  18.191   4.026  1.00  0.00    -0.031 C 
BRANCH  15  16
ATOM     16  C   UNL     1       5.899  17.228   4.900  1.00  0.00     0.027 C 
BRANCH  16  17
ATOM     17  C   UNL     1       4.965  16.513   5.889  1.00  0.00     0.004 C 
BRANCH  17  18
ATOM     18  C   UNL     1       4.448  15.154   5.367  1.00  0.00     0.000 C 
BRANCH  18  19
ATOM     19  C   UNL     1       2.958  14.909   5.657  1.00  0.00    -0.003 C 
ATOM     20  C   UNL     1       2.504  13.496   5.299  1.00  0.00     0.004 C 
ENDBRANCH  18  19
ENDBRANCH  17  18
ENDBRANCH  16  17
ENDBRANCH  15  16
ENDBRANCH  13  14
ENDBRANCH  12  13
ENDBRANCH   1  11
TORSDOF 14
ENDMDL
MODEL 2
REMARK VINA RESULT:    -4.470      3.002      4.959
REMARK INTER + INTRA:         -10.396
REMARK INTER:                  -7.607
REMARK INTRA:                  -2.789
REMARK UNBOUND:                -2.267
REMARK SMILES CCCCCC=CCC=CCCCCCCCC(=O)[O-]
REMARK SMILES IDX 11 1 12 2 13 3 14 4 15 5 16 6 17 7 18 8 19 9 20 10 10 11
REMARK SMILES IDX 9 12 8 13 7 14 6 15 5 16 4 17 3 18 2 19 1 20
REMARK H PARENT
REMARK Flexibility Score: inf
ROOT
ATOM      1  C   UNL     1       3.423  20.515   3.284  1.00  0.00     0.027 C 
ENDROOT
BRANCH   1   2
ATOM      2  C   UNL     1       4.537  20.034   4.226  1.00  0.00     0.004 C 
BRANCH   2   3
ATOM      3  C   UNL     1       3.994  19.244   5.428  1.00  0.00     0.000 C 
BRANCH   3   4
ATOM      4  C   UNL     1       4.606  17.841   5.536  1.00  0.00     0.000 C 
BRANCH   4   5
ATOM      5  C   UNL     1       5.855  17.716   4.654  1.00  0.00     0.000 C 
BRANCH   5   6
ATOM      6  C   UNL     1       6.894  16.791   5.298  1.00  0.00     0.006 C 
BRANCH   6   7
ATOM      7  C   UNL     1       6.244  15.876   6.341  1.00  0.00     0.053 C 
BRANCH   7   8
ATOM      8  C   UNL     1       7.009  15.917   7.625  1.00  0.00     0.041 C 
ATOM      9  O   UNL     1       8.198  15.506   7.667  1.00  0.00    -0.550 OA
ATOM     10  O   UNL     1       6.426  16.458   8.764  1.00  0.00    -0.550 OA
ENDBRANCH   7   8
ENDBRANCH   6   7
ENDBRANCH   5   6
ENDBRANCH   4   5
ENDBRANCH   3   4
ENDBRANCH   2   3
ENDBRANCH   1   2
BRANCH   1  11
ATOM     11  C   UNL     1       3.496  19.814   1.956  1.00  0.00    -0.031 C 
ATOM     12  C   UNL     1       3.194  18.513   1.832  1.00  0.00    -0.027 C 
BRANCH  12  13
ATOM     13  C   UNL     1       3.257  17.834   0.492  1.00  0.00     0.054 C 
BRANCH  13  14
ATOM     14  C   UNL     1       4.145  16.622   0.536  1.00  0.00    -0.027 C 
ATOM     15  C   UNL     1       5.024  16.437   1.532  1.00  0.00    -0.031 C 
BRANCH  15  16
ATOM     16  C   UNL     1       5.900  15.215   1.602  1.00  0.00     0.027 C 
BRANCH  16  17
ATOM     17  C   UNL     1       5.581  14.366   2.843  1.00  0.00     0.004 C 
BRANCH  17  18
ATOM     18  C   UNL     1       4.090  13.975   2.949  1.00  0.00     0.000 C 
BRANCH  18  19
ATOM     19  C   UNL     1       3.390  14.547   4.193  1.00  0.00    -0.003 C 
ATOM     20  C   UNL     1       2.208  15.450   3.852  1.00  0.00     0.004 C 
ENDBRANCH  18  19
ENDBRANCH  17  18
ENDBRANCH  16  17
ENDBRANCH  15  16
ENDBRANCH  13  14
ENDBRANCH  12  13
ENDBRANCH   1  11
TORSDOF 14
ENDMDL
MODEL 3
REMARK VINA RESULT:    -4.416     10.054     12.214
REMARK INTER + INTRA:         -10.298
REMARK INTER:                  -8.445
REMARK INTRA:                  -1.853
REMARK UNBOUND:                -2.267
REMARK SMILES CCCCCC=CCC=CCCCCCCCC(=O)[O-]
REMARK SMILES IDX 11 1 12 2 13 3 14 4 15 5 16 6 17 7 18 8 19 9 20 10 10 11
REMARK SMILES IDX 9 12 8 13 7 14 6 15 5 16 4 17 3 18 2 19 1 20
REMARK H PARENT
REMARK Flexibility Score: inf
ROOT
ATOM      1  C   UNL     1      12.615  14.105  -4.285  1.00  0.00     0.027 C 
ENDROOT
BRANCH   1   2
ATOM      2  C   UNL     1      13.390  13.069  -5.114  1.00  0.00     0.004 C 
BRANCH   2   3
ATOM      3  C   UNL     1      14.913  13.252  -5.014  1.00  0.00     0.000 C 
BRANCH   3   4
ATOM      4  C   UNL     1      15.374  13.583  -3.587  1.00  0.00     0.000 C 
BRANCH   4   5
ATOM      5  C   UNL     1      15.623  12.304  -2.778  1.00  0.00     0.000 C 
BRANCH   5   6
ATOM      6  C   UNL     1      14.838  12.323  -1.462  1.00  0.00     0.006 C 
BRANCH   6   7
ATOM      7  C   UNL     1      13.475  11.643  -1.625  1.00  0.00     0.053 C 
BRANCH   7   8
ATOM      8  C   UNL     1      12.530  12.102  -0.561  1.00  0.00     0.041 C 
ATOM      9  O   UNL     1      12.877  13.000   0.250  1.00  0.00    -0.550 OA
ATOM     10  O   UNL     1      11.246  11.574  -0.496  1.00  0.00    -0.550 OA
ENDBRANCH   7   8
ENDBRANCH   6   7
ENDBRANCH   5   6
ENDBRANCH   4   5
ENDBRANCH   3   4
ENDBRANCH   2   3
ENDBRANCH   1   2
BRANCH   1  11
ATOM     11  C   UNL     1      11.254  13.589  -3.909  1.00  0.00    -0.031 C 
ATOM     12  C   UNL     1      10.799  12.413  -4.365  1.00  0.00    -0.027 C 
BRANCH  12  13
ATOM     13  C   UNL     1       9.442  11.906  -3.964  1.00  0.00     0.054 C 
BRANCH  13  14
ATOM     14  C   UNL     1       9.532  10.546  -3.330  1.00  0.00    -0.027 C 
ATOM     15  C   UNL     1      10.625   9.782  -3.471  1.00  0.00    -0.031 C 
BRANCH  15  16
ATOM     16  C   UNL     1      10.738   8.429  -2.820  1.00  0.00     0.027 C 
BRANCH  16  17
ATOM     17  C   UNL     1       9.440   7.622  -2.974  1.00  0.00     0.004 C 
BRANCH  17  18
ATOM     18  C   UNL     1       9.618   6.332  -3.806  1.00  0.00     0.000 C 
BRANCH  18  19
ATOM     19  C   UNL     1       8.700   5.181  -3.362  1.00  0.00    -0.003 C 
ATOM     20  C   UNL     1       9.428   4.118  -2.543  1.00  0.00     0.004 C 
ENDBRANCH  18  19
ENDBRANCH  17  18
ENDBRANCH  16  17
ENDBRANCH  15  16
ENDBRANCH  13  14
ENDBRANCH  12  13
ENDBRANCH   1  11
TORSDOF 14
ENDMDL
MODEL 4
REMARK VINA RESULT:    -4.391      9.387     11.799
REMARK INTER + INTRA:         -10.252
REMARK INTER:                  -7.912
REMARK INTRA:                  -2.340
REMARK UNBOUND:                -2.267
REMARK SMILES CCCCCC=CCC=CCCCCCCCC(=O)[O-]
REMARK SMILES IDX 11 1 12 2 13 3 14 4 15 5 16 6 17 7 18 8 19 9 20 10 10 11
REMARK SMILES IDX 9 12 8 13 7 14 6 15 5 16 4 17 3 18 2 19 1 20
REMARK H PARENT
REMARK Flexibility Score: inf
ROOT
ATOM      1  C   UNL     1      15.195  13.550  -4.831  1.00  0.00     0.027 C 
ENDROOT
BRANCH   1   2
ATOM      2  C   UNL     1      15.283  12.865  -3.459  1.00  0.00     0.004 C 
BRANCH   2   3
ATOM      3  C   UNL     1      15.807  13.806  -2.362  1.00  0.00     0.000 C 
BRANCH   3   4
ATOM      4  C   UNL     1      14.788  14.888  -1.977  1.00  0.00     0.000 C 
BRANCH   4   5
ATOM      5  C   UNL     1      13.657  14.300  -1.123  1.00  0.00     0.000 C 
BRANCH   5   6
ATOM      6  C   UNL     1      14.203  13.716   0.185  1.00  0.00     0.006 C 
BRANCH   6   7
ATOM      7  C   UNL     1      13.589  12.342   0.472  1.00  0.00     0.053 C 
BRANCH   7   8
ATOM      8  C   UNL     1      12.997  12.308   1.845  1.00  0.00     0.041 C 
ATOM      9  O   UNL     1      11.925  11.683   2.057  1.00  0.00    -0.550 OA
ATOM     10  O   UNL     1      13.656  12.926   2.901  1.00  0.00    -0.550 OA
ENDBRANCH   7   8
ENDBRANCH   6   7
ENDBRANCH   5   6
ENDBRANCH   4   5
ENDBRANCH   3   4
ENDBRANCH   2   3
ENDBRANCH   1   2
BRANCH   1  11
ATOM     11  C   UNL     1      13.776  13.589  -5.327  1.00  0.00    -0.031 C 
ATOM     12  C   UNL     1      12.962  14.616  -5.045  1.00  0.00    -0.027 C 
BRANCH  12  13
ATOM     13  C   UNL     1      11.551  14.644  -5.564  1.00  0.00     0.054 C 
BRANCH  13  14
ATOM     14  C   UNL     1      10.648  13.772  -4.737  1.00  0.00    -0.027 C 
ATOM     15  C   UNL     1      10.832  13.631  -3.416  1.00  0.00    -0.031 C 
BRANCH  15  16
ATOM     16  C   UNL     1       9.919  12.782  -2.573  1.00  0.00     0.027 C 
BRANCH  16  17
ATOM     17  C   UNL     1      10.703  11.703  -1.810  1.00  0.00     0.004 C 
BRANCH  17  18
ATOM     18  C   UNL     1      11.950  11.201  -2.571  1.00  0.00     0.000 C 
BRANCH  18  19
ATOM     19  C   UNL     1      11.766   9.815  -3.211  1.00  0.00    -0.003 C 
ATOM     20  C   UNL     1      10.460   9.137  -2.805  1.00  0.00     0.004 C 
ENDBRANCH  18  19
ENDBRANCH  17  18
ENDBRANCH  16  17
ENDBRANCH  15  16
ENDBRANCH  13  14
ENDBRANCH  12  13
ENDBRANCH   1  11
TORSDOF 14
ENDMDL
MODEL 5
REMARK VINA RESULT:    -4.362      9.634     11.708
REMARK INTER + INTRA:         -10.200
REMARK INTER:                  -8.802
REMARK INTRA:                  -1.398
REMARK UNBOUND:                -2.267
REMARK SMILES CCCCCC=CCC=CCCCCCCCC(=O)[O-]
REMARK SMILES IDX 11 1 12 2 13 3 14 4 15 5 16 6 17 7 18 8 19 9 20 10 10 11
REMARK SMILES IDX 9 12 8 13 7 14 6 15 5 16 4 17 3 18 2 19 1 20
REMARK H PARENT
REMARK Flexibility Score: inf
ROOT
ATOM      1  C   UNL     1      13.777  14.206  -3.557  1.00  0.00     0.027 C 
ENDROOT
BRANCH   1   2
ATOM      2  C   UNL     1      14.698  13.534  -2.527  1.00  0.00     0.004 C 
BRANCH   2   3
ATOM      3  C   UNL     1      14.732  14.284  -1.186  1.00  0.00     0.000 C 
BRANCH   3   4
ATOM      4  C   UNL     1      13.646  13.803  -0.213  1.00  0.00     0.000 C 
BRANCH   4   5
ATOM      5  C   UNL     1      13.399  12.297  -0.367  1.00  0.00     0.000 C 
BRANCH   5   6
ATOM      6  C   UNL     1      12.539  11.760   0.784  1.00  0.00     0.006 C 
BRANCH   6   7
ATOM      7  C   UNL     1      12.977  12.360   2.123  1.00  0.00     0.053 C 
BRANCH   7   8
ATOM      8  C   UNL     1      12.459  11.539   3.260  1.00  0.00     0.041 C 
ATOM      9  O   UNL     1      13.259  10.945   4.030  1.00  0.00    -0.550 OA
ATOM     10  O   UNL     1      11.092  11.469   3.501  1.00  0.00    -0.550 OA
ENDBRANCH   7   8
ENDBRANCH   6   7
ENDBRANCH   5   6
ENDBRANCH   4   5
ENDBRANCH   3   4
ENDBRANCH   2   3
ENDBRANCH   1   2
BRANCH   1  11
ATOM     11  C   UNL     1      12.568  13.357  -3.838  1.00  0.00    -0.031 C 
ATOM     12  C   UNL     1      11.400  13.572  -3.217  1.00  0.00    -0.027 C 
BRANCH  12  13
ATOM     13  C   UNL     1      10.198  12.722  -3.524  1.00  0.00     0.054 C 
BRANCH  13  14
ATOM     14  C   UNL     1      10.208  11.451  -2.722  1.00  0.00    -0.027 C 
ATOM     15  C   UNL     1      10.459  10.265  -3.297  1.00  0.00    -0.031 C 
BRANCH  15  16
ATOM     16  C   UNL     1      10.498   8.989  -2.500  1.00  0.00     0.027 C 
BRANCH  16  17
ATOM     17  C   UNL     1       9.993   7.796  -3.327  1.00  0.00     0.004 C 
BRANCH  17  18
ATOM     18  C   UNL     1       9.014   6.887  -2.552  1.00  0.00     0.000 C 
BRANCH  18  19
ATOM     19  C   UNL     1       8.499   5.693  -3.374  1.00  0.00    -0.003 C 
ATOM     20  C   UNL     1       9.175   4.375  -3.002  1.00  0.00     0.004 C 
ENDBRANCH  18  19
ENDBRANCH  17  18
ENDBRANCH  16  17
ENDBRANCH  15  16
ENDBRANCH  13  14
ENDBRANCH  12  13
ENDBRANCH   1  11
TORSDOF 14
ENDMDL
MODEL 6
REMARK VINA RESULT:    -4.326      1.068      4.337
REMARK INTER + INTRA:         -10.134
REMARK INTER:                  -7.913
REMARK INTRA:                  -2.221
REMARK UNBOUND:                -2.267
REMARK SMILES CCCCCC=CCC=CCCCCCCCC(=O)[O-]
REMARK SMILES IDX 11 1 12 2 13 3 14 4 15 5 16 6 17 7 18 8 19 9 20 10 10 11
REMARK SMILES IDX 9 12 8 13 7 14 6 15 5 16 4 17 3 18 2 19 1 20
REMARK H PARENT
REMARK Flexibility Score: inf
ROOT
ATOM      1  C   UNL     1       5.586  16.372   5.648  1.00  0.00     0.027 C 
ENDROOT
BRANCH   1   2
ATOM      2  C   UNL     1       4.096  16.042   5.826  1.00  0.00     0.004 C 
BRANCH   2   3
ATOM      3  C   UNL     1       3.711  14.691   5.203  1.00  0.00     0.000 C 
BRANCH   3   4
ATOM      4  C   UNL     1       3.454  14.790   3.693  1.00  0.00     0.000 C 
BRANCH   4   5
ATOM      5  C   UNL     1       4.463  13.943   2.907  1.00  0.00     0.000 C 
BRANCH   5   6
ATOM      6  C   UNL     1       5.591  14.815   2.341  1.00  0.00     0.006 C 
BRANCH   6   7
ATOM      7  C   UNL     1       5.050  15.815   1.315  1.00  0.00     0.053 C 
BRANCH   7   8
ATOM      8  C   UNL     1       5.065  15.218  -0.056  1.00  0.00     0.041 C 
ATOM      9  O   UNL     1       6.031  15.438  -0.833  1.00  0.00    -0.550 OA
ATOM     10  O   UNL     1       4.035  14.378  -0.460  1.00  0.00    -0.550 OA
ENDBRANCH   7   8
ENDBRANCH   6   7
ENDBRANCH   5   6
ENDBRANCH   4   5
ENDBRANCH   3   4
ENDBRANCH   2   3
ENDBRANCH   1   2
BRANCH   1  11
ATOM     11  C   UNL     1       5.769  17.645   4.870  1.00  0.00    -0.031 C 
ATOM     12  C   UNL     1       4.760  18.197   4.180  1.00  0.00    -0.027 C 
BRANCH  12  13
ATOM     13  C   UNL     1       4.959  19.481   3.422  1.00  0.00     0.054 C 
BRANCH  13  14
ATOM     14  C   UNL     1       3.694  19.907   2.730  1.00  0.00    -0.027 C 
ATOM     15  C   UNL     1       3.223  19.241   1.666  1.00  0.00    -0.031 C 
BRANCH  15  16
ATOM     16  C   UNL     1       1.944  19.642   0.980  1.00  0.00     0.027 C 
BRANCH  16  17
ATOM     17  C   UNL     1       1.539  18.619  -0.093  1.00  0.00     0.004 C 
BRANCH  17  18
ATOM     18  C   UNL     1       1.895  17.164   0.284  1.00  0.00     0.000 C 
BRANCH  18  19
ATOM     19  C   UNL     1       0.678  16.315   0.687  1.00  0.00    -0.003 C 
ATOM     20  C   UNL     1       0.592  14.994  -0.074  1.00  0.00     0.004 C 
ENDBRANCH  18  19
ENDBRANCH  17  18
ENDBRANCH  16  17
ENDBRANCH  15  16
ENDBRANCH  13  14
ENDBRANCH  12  13
ENDBRANCH   1  11
TORSDOF 14
ENDMDL
MODEL 7
REMARK VINA RESULT:    -4.324      2.538      4.679
REMARK INTER + INTRA:         -10.131
REMARK INTER:                  -7.922
REMARK INTRA:                  -2.209
REMARK UNBOUND:                -2.267
REMARK SMILES CCCCCC=CCC=CCCCCCCCC(=O)[O-]
REMARK SMILES IDX 11 1 12 2 13 3 14 4 15 5 16 6 17 7 18 8 19 9 20 10 10 11
REMARK SMILES IDX 9 12 8 13 7 14 6 15 5 16 4 17 3 18 2 19 1 20
REMARK H PARENT
REMARK Flexibility Score: inf
ROOT
ATOM      1  C   UNL     1       4.136  20.417   3.123  1.00  0.00     0.027 C 
ENDROOT
BRANCH   1   2
ATOM      2  C   UNL     1       3.951  19.995   4.589  1.00  0.00     0.004 C 
BRANCH   2   3
ATOM      3  C   UNL     1       3.746  18.480   4.745  1.00  0.00     0.000 C 
BRANCH   3   4
ATOM      4  C   UNL     1       4.719  17.854   5.754  1.00  0.00     0.000 C 
BRANCH   4   5
ATOM      5  C   UNL     1       6.012  17.402   5.063  1.00  0.00     0.000 C 
BRANCH   5   6
ATOM      6  C   UNL     1       6.782  16.403   5.934  1.00  0.00     0.006 C 
BRANCH   6   7
ATOM      7  C   UNL     1       8.266  16.375   5.557  1.00  0.00     0.053 C 
BRANCH   7   8
ATOM      8  C   UNL     1       8.845  15.019   5.808  1.00  0.00     0.041 C 
ATOM      9  O   UNL     1       9.362  14.366   4.864  1.00  0.00    -0.550 OA
ATOM     10  O   UNL     1       8.860  14.497   7.096  1.00  0.00    -0.550 OA
ENDBRANCH   7   8
ENDBRANCH   6   7
ENDBRANCH   5   6
ENDBRANCH   4   5
ENDBRANCH   3   4
ENDBRANCH   2   3
ENDBRANCH   1   2
BRANCH   1  11
ATOM     11  C   UNL     1       4.046  19.231   2.202  1.00  0.00    -0.031 C 
ATOM     12  C   UNL     1       3.130  19.169   1.226  1.00  0.00    -0.027 C 
BRANCH  12  13
ATOM     13  C   UNL     1       3.068  17.982   0.305  1.00  0.00     0.054 C 
BRANCH  13  14
ATOM     14  C   UNL     1       3.820  16.811   0.873  1.00  0.00    -0.027 C 
ATOM     15  C   UNL     1       4.898  16.308   0.255  1.00  0.00    -0.031 C 
BRANCH  15  16
ATOM     16  C   UNL     1       5.676  15.152   0.827  1.00  0.00     0.027 C 
BRANCH  16  17
ATOM     17  C   UNL     1       5.608  15.137   2.362  1.00  0.00     0.004 C 
BRANCH  17  18
ATOM     18  C   UNL     1       4.718  14.005   2.923  1.00  0.00     0.000 C 
BRANCH  18  19
ATOM     19  C   UNL     1       3.915  14.412   4.170  1.00  0.00    -0.003 C 
ATOM     20  C   UNL     1       2.562  15.034   3.834  1.00  0.00     0.004 C 
ENDBRANCH  18  19
ENDBRANCH  17  18
ENDBRANCH  16  17
ENDBRANCH  15  16
ENDBRANCH  13  14
ENDBRANCH  12  13
ENDBRANCH   1  11
TORSDOF 14
ENDMDL
MODEL 8
REMARK VINA RESULT:    -4.312      2.531      5.407
REMARK INTER + INTRA:         -10.109
REMARK INTER:                  -7.327
REMARK INTRA:                  -2.782
REMARK UNBOUND:                -2.267
REMARK SMILES CCCCCC=CCC=CCCCCCCCC(=O)[O-]
REMARK SMILES IDX 11 1 12 2 13 3 14 4 15 5 16 6 17 7 18 8 19 9 20 10 10 11
REMARK SMILES IDX 9 12 8 13 7 14 6 15 5 16 4 17 3 18 2 19 1 20
REMARK H PARENT
REMARK Flexibility Score: inf
ROOT
ATOM      1  C   UNL     1       6.591  14.862   3.351  1.00  0.00     0.027 C 
ENDROOT
BRANCH   1   2
ATOM      2  C   UNL     1       5.960  15.503   4.596  1.00  0.00     0.004 C 
BRANCH   2   3
ATOM      3  C   UNL     1       6.351  16.980   4.763  1.00  0.00     0.000 C 
BRANCH   3   4
ATOM      4  C   UNL     1       5.140  17.921   4.694  1.00  0.00     0.000 C 
BRANCH   4   5
ATOM      5  C   UNL     1       4.818  18.300   3.243  1.00  0.00     0.000 C 
BRANCH   5   6
ATOM      6  C   UNL     1       3.543  19.147   3.164  1.00  0.00     0.006 C 
BRANCH   6   7
ATOM      7  C   UNL     1       3.101  19.340   1.710  1.00  0.00     0.053 C 
BRANCH   7   8
ATOM      8  C   UNL     1       1.661  19.739   1.649  1.00  0.00     0.041 C 
ATOM      9  O   UNL     1       1.123  20.000   0.541  1.00  0.00    -0.550 OA
ATOM     10  O   UNL     1       0.899  19.773   2.810  1.00  0.00    -0.550 OA
ENDBRANCH   7   8
ENDBRANCH   6   7
ENDBRANCH   5   6
ENDBRANCH   4   5
ENDBRANCH   3   4
ENDBRANCH   2   3
ENDBRANCH   1   2
BRANCH   1  11
ATOM     11  C   UNL     1       5.603  14.786   2.220  1.00  0.00    -0.031 C 
ATOM     12  C   UNL     1       5.764  15.503   1.098  1.00  0.00    -0.027 C 
BRANCH  12  13
ATOM     13  C   UNL     1       4.773  15.400  -0.028  1.00  0.00     0.054 C 
BRANCH  13  14
ATOM     14  C   UNL     1       3.459  16.031   0.343  1.00  0.00    -0.027 C 
ATOM     15  C   UNL     1       2.499  15.330   0.963  1.00  0.00    -0.031 C 
BRANCH  15  16
ATOM     16  C   UNL     1       1.190  15.956   1.362  1.00  0.00     0.027 C 
BRANCH  16  17
ATOM     17  C   UNL     1       1.125  16.200   2.878  1.00  0.00     0.004 C 
BRANCH  17  18
ATOM     18  C   UNL     1       2.299  15.560   3.651  1.00  0.00     0.000 C 
BRANCH  18  19
ATOM     19  C   UNL     1       1.867  14.814   4.925  1.00  0.00    -0.003 C 
ATOM     20  C   UNL     1       2.791  13.652   5.280  1.00  0.00     0.004 C 
ENDBRANCH  18  19
ENDBRANCH  17  18
ENDBRANCH  16  17
ENDBRANCH  15  16
ENDBRANCH  13  14
ENDBRANCH  12  13
ENDBRANCH   1  11
TORSDOF 14
ENDMDL
MODEL 9
REMARK VINA RESULT:    -4.279      2.583      4.606
REMARK INTER + INTRA:         -10.049
REMARK INTER:                  -7.383
REMARK INTRA:                  -2.666
REMARK UNBOUND:                -2.267
REMARK SMILES CCCCCC=CCC=CCCCCCCCC(=O)[O-]
REMARK SMILES IDX 11 1 12 2 13 3 14 4 15 5 16 6 17 7 18 8 19 9 20 10 10 11
REMARK SMILES IDX 9 12 8 13 7 14 6 15 5 16 4 17 3 18 2 19 1 20
REMARK H PARENT
REMARK Flexibility Score: inf
ROOT
ATOM      1  C   UNL     1       2.554  19.469   1.564  1.00  0.00     0.027 C 
ENDROOT
BRANCH   1   2
ATOM      2  C   UNL     1       3.540  20.253   2.445  1.00  0.00     0.004 C 
BRANCH   2   3
ATOM      3  C   UNL     1       3.560  19.754   3.898  1.00  0.00     0.000 C 
BRANCH   3   4
ATOM      4  C   UNL     1       4.956  19.296   4.344  1.00  0.00     0.000 C 
BRANCH   4   5
ATOM      5  C   UNL     1       4.913  17.870   4.908  1.00  0.00     0.000 C 
BRANCH   5   6
ATOM      6  C   UNL     1       6.270  17.175   4.752  1.00  0.00     0.006 C 
BRANCH   6   7
ATOM      7  C   UNL     1       6.494  16.150   5.868  1.00  0.00     0.053 C 
BRANCH   7   8
ATOM      8  C   UNL     1       7.912  16.190   6.341  1.00  0.00     0.041 C 
ATOM      9  O   UNL     1       8.211  16.807   7.397  1.00  0.00    -0.550 OA
ATOM     10  O   UNL     1       8.898  15.505   5.642  1.00  0.00    -0.550 OA
ENDBRANCH   7   8
ENDBRANCH   6   7
ENDBRANCH   5   6
ENDBRANCH   4   5
ENDBRANCH   3   4
ENDBRANCH   2   3
ENDBRANCH   1   2
BRANCH   1  11
ATOM     11  C   UNL     1       2.997  18.042   1.395  1.00  0.00    -0.031 C 
ATOM     12  C   UNL     1       4.159  17.735   0.801  1.00  0.00    -0.027 C 
BRANCH  12  13
ATOM     13  C   UNL     1       4.593  16.302   0.656  1.00  0.00     0.054 C 
BRANCH  13  14
ATOM     14  C   UNL     1       4.480  15.564   1.961  1.00  0.00    -0.027 C 
ATOM     15  C   UNL     1       3.884  14.365   2.036  1.00  0.00    -0.031 C 
BRANCH  15  16
ATOM     16  C   UNL     1       3.788  13.604   3.331  1.00  0.00     0.027 C 
BRANCH  16  17
ATOM     17  C   UNL     1       3.516  14.545   4.515  1.00  0.00     0.004 C 
BRANCH  17  18
ATOM     18  C   UNL     1       2.015  14.687   4.851  1.00  0.00     0.000 C 
BRANCH  18  19
ATOM     19  C   UNL     1       1.414  16.038   4.428  1.00  0.00    -0.003 C 
ATOM     20  C   UNL     1       0.589  15.950   3.146  1.00  0.00     0.004 C 
ENDBRANCH  18  19
ENDBRANCH  17  18
ENDBRANCH  16  17
ENDBRANCH  15  16
ENDBRANCH  13  14
ENDBRANCH  12  13
ENDBRANCH   1  11
TORSDOF 14
ENDMDL
