MODEL 1
REMARK VINA RESULT:    -3.180      0.000      0.000
REMARK INTER + INTRA:          -3.758
REMARK INTER:                  -3.645
REMARK INTRA:                  -0.113
REMARK UNBOUND:                -0.113
REMARK SMILES C=Cc1ccc(O)c(OC)c1
REMARK SMILES IDX 8 1 6 2 5 3 4 4 3 5 11 6 9 7 10 8 7 9 2 11 1 12
REMARK H PARENT 7 10
REMARK Flexibility Score: inf
ROOT
ATOM      1  C   UNL     1     144.261 142.787 143.125  1.00  0.00     0.161 A 
ATOM      2  C   UNL     1     144.290 142.943 141.727  1.00  0.00     0.157 A 
ATOM      3  C   UNL     1     143.218 143.549 141.069  1.00  0.00     0.051 A 
ATOM      4  C   UNL     1     142.114 144.008 141.788  1.00  0.00     0.012 A 
ATOM      5  C   UNL     1     142.067 143.878 143.184  1.00  0.00    -0.022 A 
ATOM      6  C   UNL     1     143.143 143.253 143.847  1.00  0.00     0.058 A 
ENDROOT
BRANCH   1   7
ATOM      7  O   UNL     1     145.348 142.164 143.758  1.00  0.00    -0.493 OA
ATOM      8  C   UNL     1     145.394 140.788 144.125  1.00  0.00     0.278 C 
ENDBRANCH   1   7
BRANCH   2   9
ATOM      9  O   UNL     1     145.378 142.499 140.976  1.00  0.00    -0.504 OA
ATOM     10  H   UNL     1     145.920 143.123 140.388  1.00  0.00     0.293 HD
ENDBRANCH   2   9
BRANCH   5  11
ATOM     11  C   UNL     1     140.867 144.378 143.900  1.00  0.00     0.000 C 
ATOM     12  C   UNL     1     140.229 145.509 143.594  1.00  0.00     0.009 C 
ENDBRANCH   5  11
TORSDOF 3
ENDMDL
MODEL 2
REMARK VINA RESULT:    -3.164      4.488      5.671
REMARK INTER + INTRA:          -3.740
REMARK INTER:                  -3.636
REMARK INTRA:                  -0.103
REMARK UNBOUND:                -0.113
REMARK SMILES C=Cc1ccc(O)c(OC)c1
REMARK SMILES IDX 8 1 6 2 5 3 4 4 3 5 11 6 9 7 10 8 7 9 2 11 1 12
REMARK H PARENT 7 10
REMARK Flexibility Score: inf
ROOT
ATOM      1  C   UNL     1     138.931 144.295 143.081  1.00  0.00     0.161 A 
ATOM      2  C   UNL     1     138.722 144.311 141.691  1.00  0.00     0.157 A 
ATOM      3  C   UNL     1     138.106 143.225 141.064  1.00  0.00     0.051 A 
ATOM      4  C   UNL     1     137.689 142.121 141.809  1.00  0.00     0.012 A 
ATOM      5  C   UNL     1     137.873 142.088 143.200  1.00  0.00    -0.022 A 
ATOM      6  C   UNL     1     138.507 143.177 143.829  1.00  0.00     0.058 A 
ENDROOT
BRANCH   1   7
ATOM      7  O   UNL     1     139.561 145.396 143.682  1.00  0.00    -0.493 OA
ATOM      8  C   UNL     1     140.915 145.413 144.125  1.00  0.00     0.278 C 
ENDBRANCH   1   7
BRANCH   2   9
ATOM      9  O   UNL     1     139.122 145.398 140.914  1.00  0.00    -0.504 OA
ATOM     10  H   UNL     1     138.482 146.138 140.649  1.00  0.00     0.293 HD
ENDBRANCH   2   9
BRANCH   5  11
ATOM     11  C   UNL     1     137.417 140.887 143.944  1.00  0.00     0.000 C 
ATOM     12  C   UNL     1     136.137 140.554 144.117  1.00  0.00     0.009 C 
ENDBRANCH   5  11
TORSDOF 3
ENDMDL
MODEL 3
REMARK VINA RESULT:    -3.136      3.391      4.923
REMARK INTER + INTRA:          -3.708
REMARK INTER:                  -3.618
REMARK INTRA:                  -0.090
REMARK UNBOUND:                -0.113
REMARK SMILES C=Cc1ccc(O)c(OC)c1
REMARK SMILES IDX 8 1 6 2 5 3 4 4 3 5 11 6 9 7 10 8 7 9 2 11 1 12
REMARK H PARENT 7 10
REMARK Flexibility Score: inf
ROOT
ATOM      1  C   UNL     1     144.616 141.051 141.386  1.00  0.00     0.161 A 
ATOM      2  C   UNL     1     145.224 141.736 142.453  1.00  0.00     0.157 A 
ATOM      3  C   UNL     1     145.220 141.179 143.734  1.00  0.00     0.051 A 
ATOM      4  C   UNL     1     144.620 139.941 143.966  1.00  0.00     0.012 A 
ATOM      5  C   UNL     1     144.021 139.230 142.915  1.00  0.00    -0.022 A 
ATOM      6  C   UNL     1     144.012 139.799 141.626  1.00  0.00     0.058 A 
ENDROOT
BRANCH   1   7
ATOM      7  O   UNL     1     144.626 141.640 140.112  1.00  0.00    -0.493 OA
ATOM      8  C   UNL     1     145.574 141.345 139.090  1.00  0.00     0.278 C 
ENDBRANCH   1   7
BRANCH   2   9
ATOM      9  O   UNL     1     145.835 142.974 142.259  1.00  0.00    -0.504 OA
ATOM     10  H   UNL     1     146.253 143.496 143.021  1.00  0.00     0.293 HD
ENDBRANCH   2   9
BRANCH   5  11
ATOM     11  C   UNL     1     143.392 137.920 143.217  1.00  0.00     0.000 C 
ATOM     12  C   UNL     1     142.911 137.089 142.292  1.00  0.00     0.009 C 
ENDBRANCH   5  11
TORSDOF 3
ENDMDL
MODEL 4
REMARK VINA RESULT:    -3.136      7.325      8.229
REMARK INTER + INTRA:          -3.708
REMARK INTER:                  -3.592
REMARK INTRA:                  -0.116
REMARK UNBOUND:                -0.113
REMARK SMILES C=Cc1ccc(O)c(OC)c1
REMARK SMILES IDX 8 1 6 2 5 3 4 4 3 5 11 6 9 7 10 8 7 9 2 11 1 12
REMARK H PARENT 7 10
REMARK Flexibility Score: inf
ROOT
ATOM      1  C   UNL     1     137.225 138.790 142.810  1.00  0.00     0.161 A 
ATOM      2  C   UNL     1     137.233 138.724 141.405  1.00  0.00     0.157 A 
ATOM      3  C   UNL     1     138.309 138.132 140.740  1.00  0.00     0.051 A 
ATOM      4  C   UNL     1     139.379 137.598 141.459  1.00  0.00     0.012 A 
ATOM      5  C   UNL     1     139.387 137.637 142.861  1.00  0.00    -0.022 A 
ATOM      6  C   UNL     1     138.308 138.248 143.532  1.00  0.00     0.058 A 
ENDROOT
BRANCH   1   7
ATOM      7  O   UNL     1     136.135 139.400 143.451  1.00  0.00    -0.493 OA
ATOM      8  C   UNL     1     136.189 140.654 144.125  1.00  0.00     0.278 C 
ENDBRANCH   1   7
BRANCH   2   9
ATOM      9  O   UNL     1     136.180 139.245 140.653  1.00  0.00    -0.504 OA
ATOM     10  H   UNL     1     135.417 138.667 140.319  1.00  0.00     0.293 HD
ENDBRANCH   2   9
BRANCH   5  11
ATOM     11  C   UNL     1     140.551 137.060 143.577  1.00  0.00     0.000 C 
ATOM     12  C   UNL     1     141.426 136.216 143.027  1.00  0.00     0.009 C 
ENDBRANCH   5  11
TORSDOF 3
ENDMDL
MODEL 5
REMARK VINA RESULT:    -3.133      3.159      5.117
REMARK INTER + INTRA:          -3.704
REMARK INTER:                  -3.615
REMARK INTRA:                  -0.090
REMARK UNBOUND:                -0.113
REMARK SMILES C=Cc1ccc(O)c(OC)c1
REMARK SMILES IDX 8 1 6 2 5 3 4 4 3 5 11 6 9 7 10 8 7 9 2 11 1 12
REMARK H PARENT 7 10
REMARK Flexibility Score: inf
ROOT
ATOM      1  C   UNL     1     140.610 144.627 141.482  1.00  0.00     0.161 A 
ATOM      2  C   UNL     1     139.911 145.280 142.513  1.00  0.00     0.157 A 
ATOM      3  C   UNL     1     140.434 145.300 143.808  1.00  0.00     0.051 A 
ATOM      4  C   UNL     1     141.652 144.679 144.089  1.00  0.00     0.012 A 
ATOM      5  C   UNL     1     142.375 144.035 143.075  1.00  0.00    -0.022 A 
ATOM      6  C   UNL     1     141.840 144.002 141.772  1.00  0.00     0.058 A 
ENDROOT
BRANCH   1   7
ATOM      7  O   UNL     1     140.055 144.615 140.192  1.00  0.00    -0.493 OA
ATOM      8  C   UNL     1     140.389 145.534 139.157  1.00  0.00     0.278 C 
ENDBRANCH   1   7
BRANCH   2   9
ATOM      9  O   UNL     1     138.693 145.913 142.269  1.00  0.00    -0.504 OA
ATOM     10  H   UNL     1     138.590 146.921 142.309  1.00  0.00     0.293 HD
ENDBRANCH   2   9
BRANCH   5  11
ATOM     11  C   UNL     1     143.662 143.386 143.429  1.00  0.00     0.000 C 
ATOM     12  C   UNL     1     144.558 142.961 142.537  1.00  0.00     0.009 C 
ENDBRANCH   5  11
TORSDOF 3
ENDMDL
MODEL 6
REMARK VINA RESULT:    -3.122      6.847      7.325
REMARK INTER + INTRA:          -3.692
REMARK INTER:                  -3.601
REMARK INTRA:                  -0.090
REMARK UNBOUND:                -0.113
REMARK SMILES C=Cc1ccc(O)c(OC)c1
REMARK SMILES IDX 8 1 6 2 5 3 4 4 3 5 11 6 9 7 10 8 7 9 2 11 1 12
REMARK H PARENT 7 10
REMARK Flexibility Score: inf
ROOT
ATOM      1  C   UNL     1     141.020 136.998 141.432  1.00  0.00     0.161 A 
ATOM      2  C   UNL     1     141.685 136.377 142.504  1.00  0.00     0.157 A 
ATOM      3  C   UNL     1     141.115 136.382 143.778  1.00  0.00     0.051 A 
ATOM      4  C   UNL     1     139.882 136.997 144.000  1.00  0.00     0.012 A 
ATOM      5  C   UNL     1     139.191 137.610 142.944  1.00  0.00    -0.022 A 
ATOM      6  C   UNL     1     139.774 137.617 141.661  1.00  0.00     0.058 A 
ENDROOT
BRANCH   1   7
ATOM      7  O   UNL     1     141.622 136.985 140.164  1.00  0.00    -0.493 OA
ATOM      8  C   UNL     1     141.321 136.050 139.133  1.00  0.00     0.278 C 
ENDBRANCH   1   7
BRANCH   2   9
ATOM      9  O   UNL     1     142.918 135.750 142.320  1.00  0.00    -0.504 OA
ATOM     10  H   UNL     1     143.304 135.576 141.400  1.00  0.00     0.293 HD
ENDBRANCH   2   9
BRANCH   5  11
ATOM     11  C   UNL     1     137.886 138.254 143.235  1.00  0.00     0.000 C 
ATOM     12  C   UNL     1     137.072 138.753 142.303  1.00  0.00     0.009 C 
ENDBRANCH   5  11
TORSDOF 3
ENDMDL
MODEL 7
REMARK VINA RESULT:    -3.063      5.260      6.100
REMARK INTER + INTRA:          -3.624
REMARK INTER:                  -3.539
REMARK INTRA:                  -0.085
REMARK UNBOUND:                -0.113
REMARK SMILES C=Cc1ccc(O)c(OC)c1
REMARK SMILES IDX 8 1 6 2 5 3 4 4 3 5 11 6 9 7 10 8 7 9 2 11 1 12
REMARK H PARENT 7 10
REMARK Flexibility Score: inf
ROOT
ATOM      1  C   UNL     1     142.006 138.940 144.065  1.00  0.00     0.161 A 
ATOM      2  C   UNL     1     142.667 137.698 144.071  1.00  0.00     0.157 A 
ATOM      3  C   UNL     1     141.929 136.513 144.024  1.00  0.00     0.051 A 
ATOM      4  C   UNL     1     140.535 136.549 143.967  1.00  0.00     0.012 A 
ATOM      5  C   UNL     1     139.853 137.775 143.944  1.00  0.00    -0.022 A 
ATOM      6  C   UNL     1     140.597 138.970 144.006  1.00  0.00     0.058 A 
ENDROOT
BRANCH   1   7
ATOM      7  O   UNL     1     142.773 140.114 144.123  1.00  0.00    -0.493 OA
ATOM      8  C   UNL     1     142.805 141.113 143.108  1.00  0.00     0.278 C 
ENDBRANCH   1   7
BRANCH   2   9
ATOM      9  O   UNL     1     144.058 137.623 144.125  1.00  0.00    -0.504 OA
ATOM     10  H   UNL     1     144.654 138.293 143.653  1.00  0.00     0.293 HD
ENDBRANCH   2   9
BRANCH   5  11
ATOM     11  C   UNL     1     138.370 137.757 143.888  1.00  0.00     0.000 C 
ATOM     12  C   UNL     1     137.648 138.360 142.943  1.00  0.00     0.009 C 
ENDBRANCH   5  11
TORSDOF 3
ENDMDL
MODEL 8
REMARK VINA RESULT:    -2.954      4.648      5.787
REMARK INTER + INTRA:          -3.499
REMARK INTER:                  -3.394
REMARK INTRA:                  -0.105
REMARK UNBOUND:                -0.113
REMARK SMILES C=Cc1ccc(O)c(OC)c1
REMARK SMILES IDX 8 1 6 2 5 3 4 4 3 5 11 6 9 7 10 8 7 9 2 11 1 12
REMARK H PARENT 7 10
REMARK Flexibility Score: inf
ROOT
ATOM      1  C   UNL     1     142.762 137.274 142.852  1.00  0.00     0.161 A 
ATOM      2  C   UNL     1     142.937 137.381 141.460  1.00  0.00     0.157 A 
ATOM      3  C   UNL     1     143.551 138.512 140.918  1.00  0.00     0.051 A 
ATOM      4  C   UNL     1     143.999 139.541 141.747  1.00  0.00     0.012 A 
ATOM      5  C   UNL     1     143.850 139.452 143.139  1.00  0.00    -0.022 A 
ATOM      6  C   UNL     1     143.217 138.317 143.685  1.00  0.00     0.058 A 
ENDROOT
BRANCH   1   7
ATOM      7  O   UNL     1     142.133 136.130 143.368  1.00  0.00    -0.493 OA
ATOM      8  C   UNL     1     140.927 136.141 144.125  1.00  0.00     0.278 C 
ENDBRANCH   1   7
BRANCH   2   9
ATOM      9  O   UNL     1     142.505 136.372 140.600  1.00  0.00    -0.504 OA
ATOM     10  H   UNL     1     142.973 136.172 139.723  1.00  0.00     0.293 HD
ENDBRANCH   2   9
BRANCH   5  11
ATOM     11  C   UNL     1     144.338 140.577 143.975  1.00  0.00     0.000 C 
ATOM     12  C   UNL     1     145.473 141.240 143.749  1.00  0.00     0.009 C 
ENDBRANCH   5  11
TORSDOF 3
ENDMDL
