MODEL 1
REMARK VINA RESULT:    -4.585      0.000      0.000
REMARK INTER + INTRA:          -4.719
REMARK INTER:                  -4.719
REMARK INTRA:                   0.000
REMARK UNBOUND:                 0.000
REMARK SMILES Nc1ncnc2nc[nH]c12
REMARK SMILES IDX 8 1 7 2 6 3 5 4 4 5 3 6 2 7 10 8 9 9 1 11
REMARK H PARENT 9 10 1 12 1 13
REMARK Flexibility Score: inf
ROOT
ATOM      1  C   UNL     1     -13.223  29.403  19.188  1.00  0.00     0.199 A 
ATOM      2  N   UNL     1     -14.157  29.293  18.203  1.00  0.00    -0.217 NA
ATOM      3  C   UNL     1     -14.826  30.454  18.315  1.00  0.00     0.182 A 
ATOM      4  N   UNL     1     -15.873  30.858  17.557  1.00  0.00    -0.215 NA
ATOM      5  C   UNL     1     -16.426  32.082  17.821  1.00  0.00     0.226 A 
ATOM      6  N   UNL     1     -15.927  32.868  18.828  1.00  0.00    -0.217 NA
ATOM      7  C   UNL     1     -14.870  32.461  19.593  1.00  0.00     0.152 A 
ATOM      8  C   UNL     1     -14.318  31.215  19.311  1.00  0.00     0.127 A 
ATOM      9  N   UNL     1     -13.296  30.566  19.883  1.00  0.00    -0.340 N 
ATOM     10  H   UNL     1     -12.690  30.872  20.676  1.00  0.00     0.168 HD
ENDROOT
BRANCH   7  11
ATOM     11  N   UNL     1     -14.368  33.298  20.635  1.00  0.00    -0.382 N 
ATOM     12  H   UNL     1     -14.932  34.110  20.972  1.00  0.00     0.158 HD
ATOM     13  H   UNL     1     -13.439  33.119  21.077  1.00  0.00     0.158 HD
ENDBRANCH   7  11
TORSDOF 1
ENDMDL
MODEL 2
REMARK VINA RESULT:    -4.531      1.782      3.472
REMARK INTER + INTRA:          -4.663
REMARK INTER:                  -4.663
REMARK INTRA:                   0.000
REMARK UNBOUND:                 0.000
REMARK SMILES Nc1ncnc2nc[nH]c12
REMARK SMILES IDX 8 1 7 2 6 3 5 4 4 5 3 6 2 7 10 8 9 9 1 11
REMARK H PARENT 9 10 1 12 1 13
REMARK Flexibility Score: inf
ROOT
ATOM      1  C   UNL     1     -14.318  31.796  19.450  1.00  0.00     0.199 A 
ATOM      2  N   UNL     1     -15.363  31.316  18.721  1.00  0.00    -0.217 NA
ATOM      3  C   UNL     1     -15.244  29.988  18.893  1.00  0.00     0.182 A 
ATOM      4  N   UNL     1     -16.048  29.031  18.371  1.00  0.00    -0.215 NA
ATOM      5  C   UNL     1     -15.767  27.724  18.660  1.00  0.00     0.226 A 
ATOM      6  N   UNL     1     -14.699  27.402  19.457  1.00  0.00    -0.217 NA
ATOM      7  C   UNL     1     -13.887  28.367  19.985  1.00  0.00     0.152 A 
ATOM      8  C   UNL     1     -14.186  29.692  19.682  1.00  0.00     0.127 A 
ATOM      9  N   UNL     1     -13.579  30.827  20.048  1.00  0.00    -0.340 N 
ATOM     10  H   UNL     1     -12.737  30.952  20.653  1.00  0.00     0.168 HD
ENDROOT
BRANCH   7  11
ATOM     11  N   UNL     1     -12.780  28.007  20.812  1.00  0.00    -0.382 N 
ATOM     12  H   UNL     1     -12.699  27.034  21.183  1.00  0.00     0.158 HD
ATOM     13  H   UNL     1     -12.038  28.699  21.061  1.00  0.00     0.158 HD
ENDBRANCH   7  11
TORSDOF 1
ENDMDL
MODEL 3
REMARK VINA RESULT:    -4.364      3.006      4.062
REMARK INTER + INTRA:          -4.492
REMARK INTER:                  -4.492
REMARK INTRA:                   0.000
REMARK UNBOUND:                 0.000
REMARK SMILES Nc1ncnc2nc[nH]c12
REMARK SMILES IDX 8 1 7 2 6 3 5 4 4 5 3 6 2 7 10 8 9 9 1 11
REMARK H PARENT 9 10 1 12 1 13
REMARK Flexibility Score: inf
ROOT
ATOM      1  C   UNL     1     -15.330  25.430  19.323  1.00  0.00     0.199 A 
ATOM      2  N   UNL     1     -15.230  25.990  18.086  1.00  0.00    -0.217 NA
ATOM      3  C   UNL     1     -14.633  27.165  18.353  1.00  0.00     0.182 A 
ATOM      4  N   UNL     1     -14.297  28.122  17.457  1.00  0.00    -0.215 NA
ATOM      5  C   UNL     1     -13.691  29.257  17.921  1.00  0.00     0.226 A 
ATOM      6  N   UNL     1     -13.437  29.413  19.259  1.00  0.00    -0.217 NA
ATOM      7  C   UNL     1     -13.775  28.447  20.166  1.00  0.00     0.152 A 
ATOM      8  C   UNL     1     -14.390  27.298  19.678  1.00  0.00     0.127 A 
ATOM      9  N   UNL     1     -14.826  26.206  20.317  1.00  0.00    -0.340 N 
ATOM     10  H   UNL     1     -14.791  25.988  21.337  1.00  0.00     0.168 HD
ENDROOT
BRANCH   7  11
ATOM     11  N   UNL     1     -13.500  28.631  21.555  1.00  0.00    -0.382 N 
ATOM     12  H   UNL     1     -12.539  28.894  21.867  1.00  0.00     0.158 HD
ATOM     13  H   UNL     1     -14.243  28.509  22.278  1.00  0.00     0.158 HD
ENDBRANCH   7  11
TORSDOF 1
ENDMDL
MODEL 4
REMARK VINA RESULT:    -4.204      1.704      3.419
REMARK INTER + INTRA:          -4.327
REMARK INTER:                  -4.327
REMARK INTRA:                   0.000
REMARK UNBOUND:                 0.000
REMARK SMILES Nc1ncnc2nc[nH]c12
REMARK SMILES IDX 8 1 7 2 6 3 5 4 4 5 3 6 2 7 10 8 9 9 1 11
REMARK H PARENT 9 10 1 12 1 13
REMARK Flexibility Score: inf
ROOT
ATOM      1  C   UNL     1     -16.403  31.435  19.290  1.00  0.00     0.199 A 
ATOM      2  N   UNL     1     -16.036  31.105  18.021  1.00  0.00    -0.217 NA
ATOM      3  C   UNL     1     -15.102  30.162  18.230  1.00  0.00     0.182 A 
ATOM      4  N   UNL     1     -14.406  29.491  17.282  1.00  0.00    -0.215 NA
ATOM      5  C   UNL     1     -13.490  28.560  17.691  1.00  0.00     0.226 A 
ATOM      6  N   UNL     1     -13.290  28.321  19.026  1.00  0.00    -0.217 NA
ATOM      7  C   UNL     1     -13.992  28.998  19.984  1.00  0.00     0.152 A 
ATOM      8  C   UNL     1     -14.921  29.941  19.552  1.00  0.00     0.127 A 
ATOM      9  N   UNL     1     -15.737  30.740  20.248  1.00  0.00    -0.340 N 
ATOM     10  H   UNL     1     -15.848  30.820  21.283  1.00  0.00     0.168 HD
ENDROOT
BRANCH   7  11
ATOM     11  N   UNL     1     -13.767  28.731  21.369  1.00  0.00    -0.382 N 
ATOM     12  H   UNL     1     -14.564  28.460  21.986  1.00  0.00     0.158 HD
ATOM     13  H   UNL     1     -12.813  28.802  21.788  1.00  0.00     0.158 HD
ENDBRANCH   7  11
TORSDOF 1
ENDMDL
MODEL 5
REMARK VINA RESULT:    -4.129      2.596      4.094
REMARK INTER + INTRA:          -4.249
REMARK INTER:                  -4.249
REMARK INTRA:                   0.000
REMARK UNBOUND:                 0.000
REMARK SMILES Nc1ncnc2nc[nH]c12
REMARK SMILES IDX 8 1 7 2 6 3 5 4 4 5 3 6 2 7 10 8 9 9 1 11
REMARK H PARENT 9 10 1 12 1 13
REMARK Flexibility Score: inf
ROOT
ATOM      1  C   UNL     1     -16.909  30.699  19.481  1.00  0.00     0.199 A 
ATOM      2  N   UNL     1     -17.294  29.657  18.693  1.00  0.00    -0.217 NA
ATOM      3  C   UNL     1     -16.416  28.700  19.037  1.00  0.00     0.182 A 
ATOM      4  N   UNL     1     -16.357  27.441  18.541  1.00  0.00    -0.215 NA
ATOM      5  C   UNL     1     -15.386  26.603  19.019  1.00  0.00     0.226 A 
ATOM      6  N   UNL     1     -14.501  27.036  19.973  1.00  0.00    -0.217 NA
ATOM      7  C   UNL     1     -14.560  28.307  20.474  1.00  0.00     0.152 A 
ATOM      8  C   UNL     1     -15.553  29.146  19.979  1.00  0.00     0.127 A 
ATOM      9  N   UNL     1     -15.847  30.417  20.277  1.00  0.00    -0.340 N 
ATOM     10  H   UNL     1     -15.378  31.053  20.960  1.00  0.00     0.168 HD
ENDROOT
BRANCH   7  11
ATOM     11  N   UNL     1     -13.627  28.735  21.467  1.00  0.00    -0.382 N 
ATOM     12  H   UNL     1     -13.970  29.144  22.365  1.00  0.00     0.158 HD
ATOM     13  H   UNL     1     -12.597  28.649  21.320  1.00  0.00     0.158 HD
ENDBRANCH   7  11
TORSDOF 1
ENDMDL
MODEL 6
REMARK VINA RESULT:    -3.940      2.184      3.348
REMARK INTER + INTRA:          -4.055
REMARK INTER:                  -4.055
REMARK INTRA:                   0.000
REMARK UNBOUND:                 0.000
REMARK SMILES Nc1ncnc2nc[nH]c12
REMARK SMILES IDX 8 1 7 2 6 3 5 4 4 5 3 6 2 7 10 8 9 9 1 11
REMARK H PARENT 9 10 1 12 1 13
REMARK Flexibility Score: inf
ROOT
ATOM      1  C   UNL     1     -17.462  29.773  19.918  1.00  0.00     0.199 A 
ATOM      2  N   UNL     1     -17.368  28.850  18.921  1.00  0.00    -0.217 NA
ATOM      3  C   UNL     1     -16.048  28.833  18.672  1.00  0.00     0.182 A 
ATOM      4  N   UNL     1     -15.409  28.072  17.752  1.00  0.00    -0.215 NA
ATOM      5  C   UNL     1     -14.051  28.192  17.645  1.00  0.00     0.226 A 
ATOM      6  N   UNL     1     -13.364  29.064  18.450  1.00  0.00    -0.217 NA
ATOM      7  C   UNL     1     -14.007  29.833  19.379  1.00  0.00     0.152 A 
ATOM      8  C   UNL     1     -15.388  29.698  19.477  1.00  0.00     0.127 A 
ATOM      9  N   UNL     1     -16.268  30.310  20.279  1.00  0.00    -0.340 N 
ATOM     10  H   UNL     1     -16.091  31.030  21.014  1.00  0.00     0.168 HD
ENDROOT
BRANCH   7  11
ATOM     11  N   UNL     1     -13.270  30.734  20.206  1.00  0.00    -0.382 N 
ATOM     12  H   UNL     1     -13.743  31.223  20.999  1.00  0.00     0.158 HD
ATOM     13  H   UNL     1     -12.256  30.921  20.039  1.00  0.00     0.158 HD
ENDBRANCH   7  11
TORSDOF 1
ENDMDL
MODEL 7
REMARK VINA RESULT:    -3.905      1.687      2.125
REMARK INTER + INTRA:          -4.020
REMARK INTER:                  -4.020
REMARK INTRA:                   0.000
REMARK UNBOUND:                 0.000
REMARK SMILES Nc1ncnc2nc[nH]c12
REMARK SMILES IDX 8 1 7 2 6 3 5 4 4 5 3 6 2 7 10 8 9 9 1 11
REMARK H PARENT 9 10 1 12 1 13
REMARK Flexibility Score: inf
ROOT
ATOM      1  C   UNL     1     -14.149  31.350  19.469  1.00  0.00     0.199 A 
ATOM      2  N   UNL     1     -15.193  30.780  18.807  1.00  0.00    -0.217 NA
ATOM      3  C   UNL     1     -16.135  31.736  18.883  1.00  0.00     0.182 A 
ATOM      4  N   UNL     1     -17.388  31.677  18.374  1.00  0.00    -0.215 NA
ATOM      5  C   UNL     1     -18.209  32.757  18.552  1.00  0.00     0.226 A 
ATOM      6  N   UNL     1     -17.765  33.864  19.229  1.00  0.00    -0.217 NA
ATOM      7  C   UNL     1     -16.500  33.925  19.742  1.00  0.00     0.152 A 
ATOM      8  C   UNL     1     -15.677  32.819  19.553  1.00  0.00     0.127 A 
ATOM      9  N   UNL     1     -14.415  32.597  19.937  1.00  0.00    -0.340 N 
ATOM     10  H   UNL     1     -13.774  33.225  20.470  1.00  0.00     0.168 HD
ENDROOT
BRANCH   7  11
ATOM     11  N   UNL     1     -16.060  35.089  20.444  1.00  0.00    -0.382 N 
ATOM     12  H   UNL     1     -16.759  35.741  20.865  1.00  0.00     0.158 HD
ATOM     13  H   UNL     1     -15.045  35.310  20.548  1.00  0.00     0.158 HD
ENDBRANCH   7  11
TORSDOF 1
ENDMDL
MODEL 8
REMARK VINA RESULT:    -3.867      3.052      4.176
REMARK INTER + INTRA:          -3.980
REMARK INTER:                  -3.980
REMARK INTRA:                   0.000
REMARK UNBOUND:                 0.000
REMARK SMILES Nc1ncnc2nc[nH]c12
REMARK SMILES IDX 8 1 7 2 6 3 5 4 4 5 3 6 2 7 10 8 9 9 1 11
REMARK H PARENT 9 10 1 12 1 13
REMARK Flexibility Score: inf
ROOT
ATOM      1  C   UNL     1     -13.736  29.472  17.017  1.00  0.00     0.199 A 
ATOM      2  N   UNL     1     -14.313  28.307  16.612  1.00  0.00    -0.217 NA
ATOM      3  C   UNL     1     -14.514  27.668  17.777  1.00  0.00     0.182 A 
ATOM      4  N   UNL     1     -15.071  26.445  17.942  1.00  0.00    -0.215 NA
ATOM      5  C   UNL     1     -15.194  25.958  19.214  1.00  0.00     0.226 A 
ATOM      6  N   UNL     1     -14.760  26.695  20.287  1.00  0.00    -0.217 NA
ATOM      7  C   UNL     1     -14.198  27.930  20.121  1.00  0.00     0.152 A 
ATOM      8  C   UNL     1     -14.081  28.412  18.821  1.00  0.00     0.127 A 
ATOM      9  N   UNL     1     -13.581  29.565  18.362  1.00  0.00    -0.340 N 
ATOM     10  H   UNL     1     -13.167  30.358  18.900  1.00  0.00     0.168 HD
ENDROOT
BRANCH   7  11
ATOM     11  N   UNL     1     -13.755  28.679  21.253  1.00  0.00    -0.382 N 
ATOM     12  H   UNL     1     -14.047  29.676  21.369  1.00  0.00     0.158 HD
ATOM     13  H   UNL     1     -13.137  28.254  21.980  1.00  0.00     0.158 HD
ENDBRANCH   7  11
TORSDOF 1
ENDMDL
MODEL 9
REMARK VINA RESULT:    -3.730      1.395      2.001
REMARK INTER + INTRA:          -3.839
REMARK INTER:                  -3.839
REMARK INTRA:                   0.000
REMARK UNBOUND:                 0.000
REMARK SMILES Nc1ncnc2nc[nH]c12
REMARK SMILES IDX 8 1 7 2 6 3 5 4 4 5 3 6 2 7 10 8 9 9 1 11
REMARK H PARENT 9 10 1 12 1 13
REMARK Flexibility Score: inf
ROOT
ATOM      1  C   UNL     1     -13.864  28.018  16.893  1.00  0.00     0.199 A 
ATOM      2  N   UNL     1     -14.869  28.709  16.287  1.00  0.00    -0.217 NA
ATOM      3  C   UNL     1     -15.039  29.751  17.119  1.00  0.00     0.182 A 
ATOM      4  N   UNL     1     -15.931  30.760  16.977  1.00  0.00    -0.215 NA
ATOM      5  C   UNL     1     -15.955  31.739  17.932  1.00  0.00     0.226 A 
ATOM      6  N   UNL     1     -15.096  31.691  19.000  1.00  0.00    -0.217 NA
ATOM      7  C   UNL     1     -14.195  30.674  19.144  1.00  0.00     0.152 A 
ATOM      8  C   UNL     1     -14.182  29.686  18.164  1.00  0.00     0.127 A 
ATOM      9  N   UNL     1     -13.424  28.589  18.043  1.00  0.00    -0.340 N 
ATOM     10  H   UNL     1     -12.668  28.244  18.675  1.00  0.00     0.168 HD
ENDROOT
BRANCH   7  11
ATOM     11  N   UNL     1     -13.310  30.645  20.264  1.00  0.00    -0.382 N 
ATOM     12  H   UNL     1     -13.688  30.750  21.233  1.00  0.00     0.158 HD
ATOM     13  H   UNL     1     -12.280  30.521  20.142  1.00  0.00     0.158 HD
ENDBRANCH   7  11
TORSDOF 1
ENDMDL
