MODEL 1
REMARK VINA RESULT:    -4.287      0.000      0.000
REMARK INTER + INTRA:          -9.724
REMARK INTER:                  -7.921
REMARK INTRA:                  -1.804
REMARK UNBOUND:                -1.804
REMARK SMILES CCCCCCCCCCCCCCCCO
REMARK SMILES IDX 9 1 8 2 7 3 6 4 5 5 4 6 3 7 2 8 1 9 10 10 11 11 12 12 13 13
REMARK SMILES IDX 14 14 15 15 16 16 17 17
REMARK H PARENT 17 18
REMARK Flexibility Score: inf
ROOT
ATOM      1  C   UNL     1     116.257 119.341 118.428  1.00  0.00     0.000 C 
ENDROOT
BRANCH   1   2
ATOM      2  C   UNL     1     115.625 118.396 117.389  1.00  0.00    -0.000 C 
BRANCH   2   3
ATOM      3  C   UNL     1     115.814 116.910 117.740  1.00  0.00    -0.000 C 
BRANCH   3   4
ATOM      4  C   UNL     1     116.325 116.079 116.552  1.00  0.00    -0.000 C 
BRANCH   4   5
ATOM      5  C   UNL     1     116.635 116.947 115.320  1.00  0.00    -0.000 C 
BRANCH   5   6
ATOM      6  C   UNL     1     116.153 116.305 114.009  1.00  0.00    -0.000 C 
BRANCH   6   7
ATOM      7  C   UNL     1     117.237 116.296 112.920  1.00  0.00    -0.000 C 
BRANCH   7   8
ATOM      8  C   UNL     1     116.955 117.366 111.859  1.00  0.00    -0.003 C 
ATOM      9  C   UNL     1     115.467 117.694 111.784  1.00  0.00     0.004 C 
ENDBRANCH   7   8
ENDBRANCH   6   7
ENDBRANCH   5   6
ENDBRANCH   4   5
ENDBRANCH   3   4
ENDBRANCH   2   3
ENDBRANCH   1   2
BRANCH   1  10
ATOM     10  C   UNL     1     117.499 118.779 119.144  1.00  0.00     0.000 C 
BRANCH  10  11
ATOM     11  C   UNL     1     118.808 119.062 118.385  1.00  0.00     0.000 C 
BRANCH  11  12
ATOM     12  C   UNL     1     119.533 117.768 117.956  1.00  0.00     0.000 C 
BRANCH  12  13
ATOM     13  C   UNL     1     119.600 116.697 119.063  1.00  0.00     0.000 C 
BRANCH  13  14
ATOM     14  C   UNL     1     119.174 115.284 118.629  1.00  0.00     0.002 C 
BRANCH  14  15
ATOM     15  C   UNL     1     118.165 114.588 119.563  1.00  0.00     0.028 C 
BRANCH  15  16
ATOM     16  C   UNL     1     117.441 113.404 118.912  1.00  0.00     0.156 C 
BRANCH  16  17
ATOM     17  O   UNL     1     118.139 112.971 117.778  1.00  0.00    -0.396 OA
ATOM     18  H   UNL     1     118.382 112.025 117.948  1.00  0.00     0.210 HD
ENDBRANCH  16  17
ENDBRANCH  15  16
ENDBRANCH  14  15
ENDBRANCH  13  14
ENDBRANCH  12  13
ENDBRANCH  11  12
ENDBRANCH  10  11
ENDBRANCH   1  10
TORSDOF 15
ENDMDL
MODEL 2
REMARK VINA RESULT:    -4.217      3.267      5.239
REMARK INTER + INTRA:          -9.596
REMARK INTER:                  -8.138
REMARK INTRA:                  -1.457
REMARK UNBOUND:                -1.804
REMARK SMILES CCCCCCCCCCCCCCCCO
REMARK SMILES IDX 9 1 8 2 7 3 6 4 5 5 4 6 3 7 2 8 1 9 10 10 11 11 12 12 13 13
REMARK SMILES IDX 14 14 15 15 16 16 17 17
REMARK H PARENT 17 18
REMARK Flexibility Score: inf
ROOT
ATOM      1  C   UNL     1     116.827 113.886 118.529  1.00  0.00     0.000 C 
ENDROOT
BRANCH   1   2
ATOM      2  C   UNL     1     117.757 114.648 117.566  1.00  0.00    -0.000 C 
BRANCH   2   3
ATOM      3  C   UNL     1     117.764 116.166 117.816  1.00  0.00    -0.000 C 
BRANCH   3   4
ATOM      4  C   UNL     1     117.406 116.976 116.561  1.00  0.00    -0.000 C 
BRANCH   4   5
ATOM      5  C   UNL     1     116.588 116.159 115.547  1.00  0.00    -0.000 C 
BRANCH   5   6
ATOM      6  C   UNL     1     116.220 116.968 114.294  1.00  0.00    -0.000 C 
BRANCH   6   7
ATOM      7  C   UNL     1     117.128 116.651 113.096  1.00  0.00    -0.000 C 
BRANCH   7   8
ATOM      8  C   UNL     1     116.311 116.532 111.804  1.00  0.00    -0.003 C 
ATOM      9  C   UNL     1     115.442 115.279 111.813  1.00  0.00     0.004 C 
ENDBRANCH   7   8
ENDBRANCH   6   7
ENDBRANCH   5   6
ENDBRANCH   4   5
ENDBRANCH   3   4
ENDBRANCH   2   3
ENDBRANCH   1   2
BRANCH   1  10
ATOM     10  C   UNL     1     115.651 114.712 119.081  1.00  0.00     0.000 C 
BRANCH  10  11
ATOM     11  C   UNL     1     114.336 114.467 118.318  1.00  0.00     0.000 C 
BRANCH  11  12
ATOM     12  C   UNL     1     113.550 115.771 118.063  1.00  0.00     0.000 C 
BRANCH  12  13
ATOM     13  C   UNL     1     114.281 117.041 118.542  1.00  0.00     0.000 C 
BRANCH  13  14
ATOM     14  C   UNL     1     113.386 118.090 119.225  1.00  0.00     0.002 C 
BRANCH  14  15
ATOM     15  C   UNL     1     113.300 119.448 118.503  1.00  0.00     0.028 C 
BRANCH  15  16
ATOM     16  C   UNL     1     112.617 120.542 119.330  1.00  0.00     0.156 C 
BRANCH  16  17
ATOM     17  O   UNL     1     112.466 121.707 118.567  1.00  0.00    -0.396 OA
ATOM     18  H   UNL     1     113.261 122.267 118.759  1.00  0.00     0.210 HD
ENDBRANCH  16  17
ENDBRANCH  15  16
ENDBRANCH  14  15
ENDBRANCH  13  14
ENDBRANCH  12  13
ENDBRANCH  11  12
ENDBRANCH  10  11
ENDBRANCH   1  10
TORSDOF 15
ENDMDL
MODEL 3
REMARK VINA RESULT:    -4.139      2.608      5.796
REMARK INTER + INTRA:          -9.451
REMARK INTER:                  -7.642
REMARK INTRA:                  -1.809
REMARK UNBOUND:                -1.804
REMARK SMILES CCCCCCCCCCCCCCCCO
REMARK SMILES IDX 9 1 8 2 7 3 6 4 5 5 4 6 3 7 2 8 1 9 10 10 11 11 12 12 13 13
REMARK SMILES IDX 14 14 15 15 16 16 17 17
REMARK H PARENT 17 18
REMARK Flexibility Score: inf
ROOT
ATOM      1  C   UNL     1     117.769 114.509 117.633  1.00  0.00     0.000 C 
ENDROOT
BRANCH   1   2
ATOM      2  C   UNL     1     116.837 113.614 118.470  1.00  0.00    -0.000 C 
BRANCH   2   3
ATOM      3  C   UNL     1     115.795 114.416 119.268  1.00  0.00    -0.000 C 
BRANCH   3   4
ATOM      4  C   UNL     1     114.360 114.189 118.766  1.00  0.00    -0.000 C 
BRANCH   4   5
ATOM      5  C   UNL     1     113.659 115.502 118.378  1.00  0.00    -0.000 C 
BRANCH   5   6
ATOM      6  C   UNL     1     114.269 116.727 119.078  1.00  0.00    -0.000 C 
BRANCH   6   7
ATOM      7  C   UNL     1     113.507 118.025 118.771  1.00  0.00    -0.000 C 
BRANCH   7   8
ATOM      8  C   UNL     1     114.401 119.251 118.997  1.00  0.00    -0.003 C 
ATOM      9  C   UNL     1     115.101 119.670 117.709  1.00  0.00     0.004 C 
ENDBRANCH   7   8
ENDBRANCH   6   7
ENDBRANCH   5   6
ENDBRANCH   4   5
ENDBRANCH   3   4
ENDBRANCH   2   3
ENDBRANCH   1   2
BRANCH   1  10
ATOM     10  C   UNL     1     117.775 115.994 118.037  1.00  0.00     0.000 C 
BRANCH  10  11
ATOM     11  C   UNL     1     117.427 116.935 116.869  1.00  0.00     0.000 C 
BRANCH  11  12
ATOM     12  C   UNL     1     116.309 116.367 115.968  1.00  0.00     0.000 C 
BRANCH  12  13
ATOM     13  C   UNL     1     116.330 116.920 114.529  1.00  0.00     0.000 C 
BRANCH  13  14
ATOM     14  C   UNL     1     117.120 116.071 113.517  1.00  0.00     0.002 C 
BRANCH  14  15
ATOM     15  C   UNL     1     116.798 116.349 112.036  1.00  0.00     0.028 C 
BRANCH  15  16
ATOM     16  C   UNL     1     116.800 117.838 111.675  1.00  0.00     0.156 C 
BRANCH  16  17
ATOM     17  O   UNL     1     118.114 118.315 111.585  1.00  0.00    -0.396 OA
ATOM     18  H   UNL     1     118.585 117.981 112.391  1.00  0.00     0.210 HD
ENDBRANCH  16  17
ENDBRANCH  15  16
ENDBRANCH  14  15
ENDBRANCH  13  14
ENDBRANCH  12  13
ENDBRANCH  11  12
ENDBRANCH  10  11
ENDBRANCH   1  10
TORSDOF 15
ENDMDL
MODEL 4
REMARK VINA RESULT:    -4.081      3.409      5.134
REMARK INTER + INTRA:          -9.343
REMARK INTER:                  -8.012
REMARK INTRA:                  -1.331
REMARK UNBOUND:                -1.804
REMARK SMILES CCCCCCCCCCCCCCCCO
REMARK SMILES IDX 9 1 8 2 7 3 6 4 5 5 4 6 3 7 2 8 1 9 10 10 11 11 12 12 13 13
REMARK SMILES IDX 14 14 15 15 16 16 17 17
REMARK H PARENT 17 18
REMARK Flexibility Score: inf
ROOT
ATOM      1  C   UNL     1     118.040 118.059 119.043  1.00  0.00     0.000 C 
ENDROOT
BRANCH   1   2
ATOM      2  C   UNL     1     118.224 117.442 117.644  1.00  0.00    -0.000 C 
BRANCH   2   3
ATOM      3  C   UNL     1     117.526 116.079 117.494  1.00  0.00    -0.000 C 
BRANCH   3   4
ATOM      4  C   UNL     1     116.291 116.142 116.582  1.00  0.00    -0.000 C 
BRANCH   4   5
ATOM      5  C   UNL     1     116.489 117.093 115.390  1.00  0.00    -0.000 C 
BRANCH   5   6
ATOM      6  C   UNL     1     116.671 116.344 114.060  1.00  0.00    -0.000 C 
BRANCH   6   7
ATOM      7  C   UNL     1     116.066 117.099 112.867  1.00  0.00    -0.000 C 
BRANCH   7   8
ATOM      8  C   UNL     1     116.864 116.827 111.585  1.00  0.00    -0.003 C 
ATOM      9  C   UNL     1     117.781 115.621 111.751  1.00  0.00     0.004 C 
ENDBRANCH   7   8
ENDBRANCH   6   7
ENDBRANCH   5   6
ENDBRANCH   4   5
ENDBRANCH   3   4
ENDBRANCH   2   3
ENDBRANCH   1   2
BRANCH   1  10
ATOM     10  C   UNL     1     116.656 118.683 119.298  1.00  0.00     0.000 C 
BRANCH  10  11
ATOM     11  C   UNL     1     116.298 119.782 118.282  1.00  0.00     0.000 C 
BRANCH  11  12
ATOM     12  C   UNL     1     114.881 119.604 117.695  1.00  0.00     0.000 C 
BRANCH  12  13
ATOM     13  C   UNL     1     113.878 118.964 118.675  1.00  0.00     0.000 C 
BRANCH  13  14
ATOM     14  C   UNL     1     112.537 119.707 118.813  1.00  0.00     0.002 C 
BRANCH  14  15
ATOM     15  C   UNL     1     112.156 120.110 120.251  1.00  0.00     0.028 C 
BRANCH  15  16
ATOM     16  C   UNL     1     112.026 121.623 120.451  1.00  0.00     0.156 C 
BRANCH  16  17
ATOM     17  O   UNL     1     112.828 122.306 119.527  1.00  0.00    -0.396 OA
ATOM     18  H   UNL     1     112.306 122.346 118.685  1.00  0.00     0.210 HD
ENDBRANCH  16  17
ENDBRANCH  15  16
ENDBRANCH  14  15
ENDBRANCH  13  14
ENDBRANCH  12  13
ENDBRANCH  11  12
ENDBRANCH  10  11
ENDBRANCH   1  10
TORSDOF 15
ENDMDL
MODEL 5
REMARK VINA RESULT:    -4.074      1.997      3.490
REMARK INTER + INTRA:          -9.332
REMARK INTER:                  -7.753
REMARK INTRA:                  -1.579
REMARK UNBOUND:                -1.804
REMARK SMILES CCCCCCCCCCCCCCCCO
REMARK SMILES IDX 9 1 8 2 7 3 6 4 5 5 4 6 3 7 2 8 1 9 10 10 11 11 12 12 13 13
REMARK SMILES IDX 14 14 15 15 16 16 17 17
REMARK H PARENT 17 18
REMARK Flexibility Score: inf
ROOT
ATOM      1  C   UNL     1     114.156 116.180 118.120  1.00  0.00     0.000 C 
ENDROOT
BRANCH   1   2
ATOM      2  C   UNL     1     115.402 115.298 118.318  1.00  0.00    -0.000 C 
BRANCH   2   3
ATOM      3  C   UNL     1     116.472 115.523 117.235  1.00  0.00    -0.000 C 
BRANCH   3   4
ATOM      4  C   UNL     1     115.926 116.266 116.006  1.00  0.00    -0.000 C 
BRANCH   4   5
ATOM      5  C   UNL     1     117.034 116.978 115.210  1.00  0.00    -0.000 C 
BRANCH   5   6
ATOM      6  C   UNL     1     116.695 117.113 113.717  1.00  0.00    -0.000 C 
BRANCH   6   7
ATOM      7  C   UNL     1     117.206 115.929 112.883  1.00  0.00    -0.000 C 
BRANCH   7   8
ATOM      8  C   UNL     1     116.415 115.796 111.577  1.00  0.00    -0.003 C 
ATOM      9  C   UNL     1     115.207 116.727 111.565  1.00  0.00     0.004 C 
ENDBRANCH   7   8
ENDBRANCH   6   7
ENDBRANCH   5   6
ENDBRANCH   4   5
ENDBRANCH   3   4
ENDBRANCH   2   3
ENDBRANCH   1   2
BRANCH   1  10
ATOM     10  C   UNL     1     113.993 117.311 119.153  1.00  0.00     0.000 C 
BRANCH  10  11
ATOM     11  C   UNL     1     113.907 118.705 118.507  1.00  0.00     0.000 C 
BRANCH  11  12
ATOM     12  C   UNL     1     115.274 119.199 117.987  1.00  0.00     0.000 C 
BRANCH  12  13
ATOM     13  C   UNL     1     116.131 119.901 119.059  1.00  0.00     0.000 C 
BRANCH  13  14
ATOM     14  C   UNL     1     117.652 119.787 118.855  1.00  0.00     0.002 C 
BRANCH  14  15
ATOM     15  C   UNL     1     118.164 118.372 118.520  1.00  0.00     0.028 C 
BRANCH  15  16
ATOM     16  C   UNL     1     119.516 118.363 117.799  1.00  0.00     0.156 C 
BRANCH  16  17
ATOM     17  O   UNL     1     120.340 117.359 118.324  1.00  0.00    -0.396 OA
ATOM     18  H   UNL     1     120.855 116.997 117.558  1.00  0.00     0.210 HD
ENDBRANCH  16  17
ENDBRANCH  15  16
ENDBRANCH  14  15
ENDBRANCH  13  14
ENDBRANCH  12  13
ENDBRANCH  11  12
ENDBRANCH  10  11
ENDBRANCH   1  10
TORSDOF 15
ENDMDL
MODEL 6
REMARK VINA RESULT:    -4.074      1.878      3.053
REMARK INTER + INTRA:          -9.331
REMARK INTER:                  -8.001
REMARK INTRA:                  -1.330
REMARK UNBOUND:                -1.804
REMARK SMILES CCCCCCCCCCCCCCCCO
REMARK SMILES IDX 9 1 8 2 7 3 6 4 5 5 4 6 3 7 2 8 1 9 10 10 11 11 12 12 13 13
REMARK SMILES IDX 14 14 15 15 16 16 17 17
REMARK H PARENT 17 18
REMARK Flexibility Score: inf
ROOT
ATOM      1  C   UNL     1     114.268 116.335 118.259  1.00  0.00     0.000 C 
ENDROOT
BRANCH   1   2
ATOM      2  C   UNL     1     115.505 117.245 118.375  1.00  0.00    -0.000 C 
BRANCH   2   3
ATOM      3  C   UNL     1     115.929 117.853 117.027  1.00  0.00    -0.000 C 
BRANCH   3   4
ATOM      4  C   UNL     1     116.923 116.966 116.262  1.00  0.00    -0.000 C 
BRANCH   4   5
ATOM      5  C   UNL     1     116.257 116.201 115.105  1.00  0.00    -0.000 C 
BRANCH   5   6
ATOM      6  C   UNL     1     116.975 116.415 113.764  1.00  0.00    -0.000 C 
BRANCH   6   7
ATOM      7  C   UNL     1     116.061 116.167 112.555  1.00  0.00    -0.000 C 
BRANCH   7   8
ATOM      8  C   UNL     1     116.507 117.003 111.349  1.00  0.00    -0.003 C 
ATOM      9  C   UNL     1     117.653 117.939 111.719  1.00  0.00     0.004 C 
ENDBRANCH   7   8
ENDBRANCH   6   7
ENDBRANCH   5   6
ENDBRANCH   4   5
ENDBRANCH   3   4
ENDBRANCH   2   3
ENDBRANCH   1   2
BRANCH   1  10
ATOM     10  C   UNL     1     114.580 114.836 118.099  1.00  0.00     0.000 C 
BRANCH  10  11
ATOM     11  C   UNL     1     115.079 114.185 119.402  1.00  0.00     0.000 C 
BRANCH  11  12
ATOM     12  C   UNL     1     116.606 113.960 119.402  1.00  0.00     0.000 C 
BRANCH  12  13
ATOM     13  C   UNL     1     117.135 113.288 118.120  1.00  0.00     0.000 C 
BRANCH  13  14
ATOM     14  C   UNL     1     118.560 113.701 117.708  1.00  0.00     0.002 C 
BRANCH  14  15
ATOM     15  C   UNL     1     119.531 113.957 118.877  1.00  0.00     0.028 C 
BRANCH  15  16
ATOM     16  C   UNL     1     120.746 113.023 118.881  1.00  0.00     0.156 C 
BRANCH  16  17
ATOM     17  O   UNL     1     120.407 111.781 118.330  1.00  0.00    -0.396 OA
ATOM     18  H   UNL     1     119.468 111.863 118.021  1.00  0.00     0.210 HD
ENDBRANCH  16  17
ENDBRANCH  15  16
ENDBRANCH  14  15
ENDBRANCH  13  14
ENDBRANCH  12  13
ENDBRANCH  11  12
ENDBRANCH  10  11
ENDBRANCH   1  10
TORSDOF 15
ENDMDL
MODEL 7
REMARK VINA RESULT:    -4.066      1.850      5.638
REMARK INTER + INTRA:          -9.316
REMARK INTER:                  -7.300
REMARK INTRA:                  -2.015
REMARK UNBOUND:                -1.804
REMARK SMILES CCCCCCCCCCCCCCCCO
REMARK SMILES IDX 9 1 8 2 7 3 6 4 5 5 4 6 3 7 2 8 1 9 10 10 11 11 12 12 13 13
REMARK SMILES IDX 14 14 15 15 16 16 17 17
REMARK H PARENT 17 18
REMARK Flexibility Score: inf
ROOT
ATOM      1  C   UNL     1     115.882 118.069 119.161  1.00  0.00     0.000 C 
ENDROOT
BRANCH   1   2
ATOM      2  C   UNL     1     117.356 118.366 119.493  1.00  0.00    -0.000 C 
BRANCH   2   3
ATOM      3  C   UNL     1     118.152 118.872 118.277  1.00  0.00    -0.000 C 
BRANCH   3   4
ATOM      4  C   UNL     1     119.381 118.002 117.968  1.00  0.00    -0.000 C 
BRANCH   4   5
ATOM      5  C   UNL     1     119.752 117.074 119.137  1.00  0.00    -0.000 C 
BRANCH   5   6
ATOM      6  C   UNL     1     119.630 115.586 118.772  1.00  0.00    -0.000 C 
BRANCH   6   7
ATOM      7  C   UNL     1     118.557 114.859 119.596  1.00  0.00    -0.000 C 
BRANCH   7   8
ATOM      8  C   UNL     1     118.341 113.432 119.077  1.00  0.00    -0.003 C 
ATOM      9  C   UNL     1     118.835 113.285 117.642  1.00  0.00     0.004 C 
ENDBRANCH   7   8
ENDBRANCH   6   7
ENDBRANCH   5   6
ENDBRANCH   4   5
ENDBRANCH   3   4
ENDBRANCH   2   3
ENDBRANCH   1   2
BRANCH   1  10
ATOM     10  C   UNL     1     115.611 117.704 117.690  1.00  0.00     0.000 C 
BRANCH  10  11
ATOM     11  C   UNL     1     115.776 116.200 117.404  1.00  0.00     0.000 C 
BRANCH  11  12
ATOM     12  C   UNL     1     116.791 115.923 116.275  1.00  0.00     0.000 C 
BRANCH  12  13
ATOM     13  C   UNL     1     116.766 116.970 115.145  1.00  0.00     0.000 C 
BRANCH  13  14
ATOM     14  C   UNL     1     116.328 116.435 113.770  1.00  0.00     0.002 C 
BRANCH  14  15
ATOM     15  C   UNL     1     116.922 117.178 112.558  1.00  0.00     0.028 C 
BRANCH  15  16
ATOM     16  C   UNL     1     117.308 116.252 111.399  1.00  0.00     0.156 C 
BRANCH  16  17
ATOM     17  O   UNL     1     116.612 115.041 111.491  1.00  0.00    -0.396 OA
ATOM     18  H   UNL     1     115.897 115.184 112.164  1.00  0.00     0.210 HD
ENDBRANCH  16  17
ENDBRANCH  15  16
ENDBRANCH  14  15
ENDBRANCH  13  14
ENDBRANCH  12  13
ENDBRANCH  11  12
ENDBRANCH  10  11
ENDBRANCH   1  10
TORSDOF 15
ENDMDL
MODEL 8
REMARK VINA RESULT:    -4.048      2.269      5.376
REMARK INTER + INTRA:          -9.283
REMARK INTER:                  -7.482
REMARK INTRA:                  -1.801
REMARK UNBOUND:                -1.804
REMARK SMILES CCCCCCCCCCCCCCCCO
REMARK SMILES IDX 9 1 8 2 7 3 6 4 5 5 4 6 3 7 2 8 1 9 10 10 11 11 12 12 13 13
REMARK SMILES IDX 14 14 15 15 16 16 17 17
REMARK H PARENT 17 18
REMARK Flexibility Score: inf
ROOT
ATOM      1  C   UNL     1     118.385 118.688 118.357  1.00  0.00     0.000 C 
ENDROOT
BRANCH   1   2
ATOM      2  C   UNL     1     117.015 118.698 119.060  1.00  0.00    -0.000 C 
BRANCH   2   3
ATOM      3  C   UNL     1     115.946 119.478 118.275  1.00  0.00    -0.000 C 
BRANCH   3   4
ATOM      4  C   UNL     1     114.625 118.704 118.141  1.00  0.00    -0.000 C 
BRANCH   4   5
ATOM      5  C   UNL     1     114.264 117.933 119.422  1.00  0.00    -0.000 C 
BRANCH   5   6
ATOM      6  C   UNL     1     114.379 116.410 119.247  1.00  0.00    -0.000 C 
BRANCH   6   7
ATOM      7  C   UNL     1     113.369 115.852 118.234  1.00  0.00    -0.000 C 
BRANCH   7   8
ATOM      8  C   UNL     1     113.556 114.341 118.048  1.00  0.00    -0.003 C 
ATOM      9  C   UNL     1     114.775 113.837 118.813  1.00  0.00     0.004 C 
ENDBRANCH   7   8
ENDBRANCH   6   7
ENDBRANCH   5   6
ENDBRANCH   4   5
ENDBRANCH   3   4
ENDBRANCH   2   3
ENDBRANCH   1   2
BRANCH   1  10
ATOM     10  C   UNL     1     118.613 117.505 117.399  1.00  0.00     0.000 C 
BRANCH  10  11
ATOM     11  C   UNL     1     117.695 116.305 117.698  1.00  0.00     0.000 C 
BRANCH  11  12
ATOM     12  C   UNL     1     116.751 115.977 116.522  1.00  0.00     0.000 C 
BRANCH  12  13
ATOM     13  C   UNL     1     116.967 116.870 115.284  1.00  0.00     0.000 C 
BRANCH  13  14
ATOM     14  C   UNL     1     116.593 116.221 113.940  1.00  0.00     0.002 C 
BRANCH  14  15
ATOM     15  C   UNL     1     116.610 117.171 112.726  1.00  0.00     0.028 C 
BRANCH  15  16
ATOM     16  C   UNL     1     117.325 116.590 111.501  1.00  0.00     0.156 C 
BRANCH  16  17
ATOM     17  O   UNL     1     118.081 115.469 111.866  1.00  0.00    -0.396 OA
ATOM     18  H   UNL     1     119.000 115.636 111.533  1.00  0.00     0.210 HD
ENDBRANCH  16  17
ENDBRANCH  15  16
ENDBRANCH  14  15
ENDBRANCH  13  14
ENDBRANCH  12  13
ENDBRANCH  11  12
ENDBRANCH  10  11
ENDBRANCH   1  10
TORSDOF 15
ENDMDL
MODEL 9
REMARK VINA RESULT:    -4.020      2.462      5.861
REMARK INTER + INTRA:          -9.232
REMARK INTER:                  -7.711
REMARK INTRA:                  -1.520
REMARK UNBOUND:                -1.804
REMARK SMILES CCCCCCCCCCCCCCCCO
REMARK SMILES IDX 9 1 8 2 7 3 6 4 5 5 4 6 3 7 2 8 1 9 10 10 11 11 12 12 13 13
REMARK SMILES IDX 14 14 15 15 16 16 17 17
REMARK H PARENT 17 18
REMARK Flexibility Score: inf
ROOT
ATOM      1  C   UNL     1     118.265 116.261 118.821  1.00  0.00     0.000 C 
ENDROOT
BRANCH   1   2
ATOM      2  C   UNL     1     119.439 117.067 118.237  1.00  0.00    -0.000 C 
BRANCH   2   3
ATOM      3  C   UNL     1     119.169 118.581 118.207  1.00  0.00    -0.000 C 
BRANCH   3   4
ATOM      4  C   UNL     1     118.909 119.166 119.604  1.00  0.00    -0.000 C 
BRANCH   4   5
ATOM      5  C   UNL     1     117.566 119.913 119.687  1.00  0.00    -0.000 C 
BRANCH   5   6
ATOM      6  C   UNL     1     116.660 119.636 118.477  1.00  0.00    -0.000 C 
BRANCH   6   7
ATOM      7  C   UNL     1     115.173 119.564 118.855  1.00  0.00    -0.000 C 
BRANCH   7   8
ATOM      8  C   UNL     1     114.285 119.914 117.654  1.00  0.00    -0.003 C 
ATOM      9  C   UNL     1     112.836 120.125 118.081  1.00  0.00     0.004 C 
ENDBRANCH   7   8
ENDBRANCH   6   7
ENDBRANCH   5   6
ENDBRANCH   4   5
ENDBRANCH   3   4
ENDBRANCH   2   3
ENDBRANCH   1   2
BRANCH   1  10
ATOM     10  C   UNL     1     117.583 115.300 117.831  1.00  0.00     0.000 C 
BRANCH  10  11
ATOM     11  C   UNL     1     116.149 115.729 117.470  1.00  0.00     0.000 C 
BRANCH  11  12
ATOM     12  C   UNL     1     116.117 116.821 116.379  1.00  0.00     0.000 C 
BRANCH  12  13
ATOM     13  C   UNL     1     116.995 116.501 115.153  1.00  0.00     0.000 C 
BRANCH  13  14
ATOM     14  C   UNL     1     116.321 116.736 113.790  1.00  0.00     0.002 C 
BRANCH  14  15
ATOM     15  C   UNL     1     117.208 116.452 112.562  1.00  0.00     0.028 C 
BRANCH  15  16
ATOM     16  C   UNL     1     116.683 117.079 111.266  1.00  0.00     0.156 C 
BRANCH  16  17
ATOM     17  O   UNL     1     116.898 118.463 111.274  1.00  0.00    -0.396 OA
ATOM     18  H   UNL     1     116.000 118.882 111.281  1.00  0.00     0.210 HD
ENDBRANCH  16  17
ENDBRANCH  15  16
ENDBRANCH  14  15
ENDBRANCH  13  14
ENDBRANCH  12  13
ENDBRANCH  11  12
ENDBRANCH  10  11
ENDBRANCH   1  10
TORSDOF 15
ENDMDL
