MODEL 1
REMARK VINA RESULT:    -3.700      0.000      0.000
REMARK INTER + INTRA:          -5.035
REMARK INTER:                  -4.457
REMARK INTRA:                  -0.578
REMARK UNBOUND:                -0.578
REMARK SMILES O=c1ccn([C@@H]2O[C@@H](CO)[C@H](O)[C@H]2O)c(=O)[nH]1
REMARK SMILES IDX 6 1 13 2 11 3 8 4 7 5 5 6 3 7 4 8 2 9 17 10 1 11 15 12 16 14
REMARK SMILES IDX 14 15 12 17 9 19 10 20
REMARK H PARENT 17 13 14 16 12 18 10 21
REMARK Flexibility Score: inf
ROOT
ATOM      1  C   UNL     1     172.977 171.159 176.278  1.00  0.00     0.255 C 
ATOM      2  C   UNL     1     172.964 171.371 177.787  1.00  0.00     0.196 C 
ATOM      3  C   UNL     1     171.581 171.916 178.019  1.00  0.00     0.179 C 
ATOM      4  C   UNL     1     171.301 172.647 176.710  1.00  0.00     0.178 C 
ATOM      5  O   UNL     1     172.045 172.035 175.678  1.00  0.00    -0.347 OA
ENDROOT
BRANCH   1   6
ATOM      6  N   UNL     1     174.331 171.377 175.727  1.00  0.00    -0.271 N 
ATOM      7  C   UNL     1     176.444 172.513 175.822  1.00  0.00     0.090 A 
ATOM      8  C   UNL     1     175.155 172.308 176.304  1.00  0.00     0.099 A 
ATOM      9  C   UNL     1     176.886 171.741 174.754  1.00  0.00     0.253 A 
ATOM     10  N   UNL     1     176.064 170.807 174.208  1.00  0.00    -0.274 N 
ATOM     11  O   UNL     1     178.049 171.904 174.296  1.00  0.00    -0.269 OA
ATOM     12  C   UNL     1     174.803 170.613 174.688  1.00  0.00     0.330 A 
ATOM     13  H   UNL     1     176.407 170.223 173.411  1.00  0.00     0.175 HD
ATOM     14  O   UNL     1     174.079 169.721 174.166  1.00  0.00    -0.248 OA
ENDBRANCH   1   6
BRANCH   2  15
ATOM     15  O   UNL     1     173.159 170.157 178.464  1.00  0.00    -0.386 OA
ATOM     16  H   UNL     1     173.844 170.330 179.162  1.00  0.00     0.211 HD
ENDBRANCH   2  15
BRANCH   3  17
ATOM     17  O   UNL     1     171.554 172.806 179.104  1.00  0.00    -0.387 OA
ATOM     18  H   UNL     1     172.077 173.603 178.827  1.00  0.00     0.211 HD
ENDBRANCH   3  17
BRANCH   4  19
ATOM     19  C   UNL     1     169.807 172.639 176.360  1.00  0.00     0.191 C 
BRANCH  19  20
ATOM     20  O   UNL     1     169.051 173.133 177.432  1.00  0.00    -0.394 OA
ATOM     21  H   UNL     1     169.279 172.577 178.222  1.00  0.00     0.210 HD
ENDBRANCH  19  20
ENDBRANCH   4  19
TORSDOF 5
ENDMDL
MODEL 2
REMARK VINA RESULT:    -3.687      7.832      9.021
REMARK INTER + INTRA:          -5.020
REMARK INTER:                  -4.437
REMARK INTRA:                  -0.583
REMARK UNBOUND:                -0.578
REMARK SMILES O=c1ccn([C@@H]2O[C@@H](CO)[C@H](O)[C@H]2O)c(=O)[nH]1
REMARK SMILES IDX 6 1 13 2 11 3 8 4 7 5 5 6 3 7 4 8 2 9 17 10 1 11 15 12 16 14
REMARK SMILES IDX 14 15 12 17 9 19 10 20
REMARK H PARENT 17 13 14 16 12 18 10 21
REMARK Flexibility Score: inf
ROOT
ATOM      1  C   UNL     1     171.180 164.227 176.249  1.00  0.00     0.255 C 
ATOM      2  C   UNL     1     171.349 164.238 177.764  1.00  0.00     0.196 C 
ATOM      3  C   UNL     1     171.880 165.623 178.015  1.00  0.00     0.179 C 
ATOM      4  C   UNL     1     172.647 165.910 176.728  1.00  0.00     0.178 C 
ATOM      5  O   UNL     1     172.069 165.165 175.676  1.00  0.00    -0.347 OA
ENDROOT
BRANCH   1   6
ATOM      6  N   UNL     1     171.421 162.876 175.702  1.00  0.00    -0.271 N 
ATOM      7  C   UNL     1     172.623 160.799 175.775  1.00  0.00     0.090 A 
ATOM      8  C   UNL     1     172.396 162.086 176.253  1.00  0.00     0.099 A 
ATOM      9  C   UNL     1     171.829 160.324 174.738  1.00  0.00     0.253 A 
ATOM     10  N   UNL     1     170.852 161.112 174.218  1.00  0.00    -0.274 N 
ATOM     11  O   UNL     1     172.012 159.163 174.284  1.00  0.00    -0.269 OA
ATOM     12  C   UNL     1     170.636 162.371 174.695  1.00  0.00     0.330 A 
ATOM     13  H   UNL     1     170.251 160.744 173.445  1.00  0.00     0.175 HD
ATOM     14  O   UNL     1     169.704 163.063 174.198  1.00  0.00    -0.248 OA
ENDBRANCH   1   6
BRANCH   2  15
ATOM     15  O   UNL     1     170.116 164.036 178.404  1.00  0.00    -0.386 OA
ATOM     16  H   UNL     1     170.194 163.181 178.902  1.00  0.00     0.211 HD
ENDBRANCH   2  15
BRANCH   3  17
ATOM     17  O   UNL     1     172.738 165.652 179.124  1.00  0.00    -0.387 OA
ATOM     18  H   UNL     1     173.655 165.778 178.768  1.00  0.00     0.211 HD
ENDBRANCH   3  17
BRANCH   4  19
ATOM     19  C   UNL     1     172.643 167.404 176.380  1.00  0.00     0.191 C 
BRANCH  19  20
ATOM     20  O   UNL     1     173.023 168.166 177.494  1.00  0.00    -0.394 OA
ATOM     21  H   UNL     1     172.308 168.840 177.637  1.00  0.00     0.210 HD
ENDBRANCH  19  20
ENDBRANCH   4  19
TORSDOF 5
ENDMDL
MODEL 3
REMARK VINA RESULT:    -3.677     10.252     12.758
REMARK INTER + INTRA:          -5.008
REMARK INTER:                  -4.425
REMARK INTRA:                  -0.583
REMARK UNBOUND:                -0.578
REMARK SMILES O=c1ccn([C@@H]2O[C@@H](CO)[C@H](O)[C@H]2O)c(=O)[nH]1
REMARK SMILES IDX 6 1 13 2 11 3 8 4 7 5 5 6 3 7 4 8 2 9 17 10 1 11 15 12 16 14
REMARK SMILES IDX 14 15 12 17 9 19 10 20
REMARK H PARENT 17 13 14 16 12 18 10 21
REMARK Flexibility Score: inf
ROOT
ATOM      1  C   UNL     1     164.255 166.036 176.258  1.00  0.00     0.255 C 
ATOM      2  C   UNL     1     164.256 165.848 177.771  1.00  0.00     0.196 C 
ATOM      3  C   UNL     1     165.643 165.324 178.026  1.00  0.00     0.179 C 
ATOM      4  C   UNL     1     165.945 164.575 176.732  1.00  0.00     0.178 C 
ATOM      5  O   UNL     1     165.204 165.161 175.682  1.00  0.00    -0.347 OA
ENDROOT
BRANCH   1   6
ATOM      6  N   UNL     1     162.910 165.791 175.698  1.00  0.00    -0.271 N 
ATOM      7  C   UNL     1     160.827 164.599 175.763  1.00  0.00     0.090 A 
ATOM      8  C   UNL     1     162.109 164.828 176.254  1.00  0.00     0.099 A 
ATOM      9  C   UNL     1     160.369 165.378 174.707  1.00  0.00     0.253 A 
ATOM     10  N   UNL     1     161.168 166.343 174.182  1.00  0.00    -0.274 N 
ATOM     11  O   UNL     1     159.213 165.192 174.241  1.00  0.00    -0.269 OA
ATOM     12  C   UNL     1     162.422 166.562 174.671  1.00  0.00     0.330 A 
ATOM     13  H   UNL     1     160.813 166.933 173.395  1.00  0.00     0.175 HD
ATOM     14  O   UNL     1     163.124 167.482 174.168  1.00  0.00    -0.248 OA
ENDBRANCH   1   6
BRANCH   2  15
ATOM     15  O   UNL     1     164.039 167.071 178.425  1.00  0.00    -0.386 OA
ATOM     16  H   UNL     1     164.200 167.783 177.752  1.00  0.00     0.211 HD
ENDBRANCH   2  15
BRANCH   3  17
ATOM     17  O   UNL     1     165.670 164.452 179.125  1.00  0.00    -0.387 OA
ATOM     18  H   UNL     1     165.870 165.009 179.921  1.00  0.00     0.211 HD
ENDBRANCH   3  17
BRANCH   4  19
ATOM     19  C   UNL     1     167.442 164.596 176.396  1.00  0.00     0.191 C 
BRANCH  19  20
ATOM     20  O   UNL     1     168.199 164.208 177.510  1.00  0.00    -0.394 OA
ATOM     21  H   UNL     1     169.147 164.407 177.295  1.00  0.00     0.210 HD
ENDBRANCH  19  20
ENDBRANCH   4  19
TORSDOF 5
ENDMDL
MODEL 4
REMARK VINA RESULT:    -3.672      7.818      9.050
REMARK INTER + INTRA:          -5.001
REMARK INTER:                  -4.419
REMARK INTRA:                  -0.583
REMARK UNBOUND:                -0.578
REMARK SMILES O=c1ccn([C@@H]2O[C@@H](CO)[C@H](O)[C@H]2O)c(=O)[nH]1
REMARK SMILES IDX 6 1 13 2 11 3 8 4 7 5 5 6 3 7 4 8 2 9 17 10 1 11 15 12 16 14
REMARK SMILES IDX 14 15 12 17 9 19 10 20
REMARK H PARENT 17 13 14 16 12 18 10 21
REMARK Flexibility Score: inf
ROOT
ATOM      1  C   UNL     1     166.044 173.006 176.274  1.00  0.00     0.255 C 
ATOM      2  C   UNL     1     165.887 172.959 177.790  1.00  0.00     0.196 C 
ATOM      3  C   UNL     1     165.335 171.577 178.009  1.00  0.00     0.179 C 
ATOM      4  C   UNL     1     164.552 171.336 176.722  1.00  0.00     0.178 C 
ATOM      5  O   UNL     1     165.135 172.098 175.685  1.00  0.00    -0.347 OA
ENDROOT
BRANCH   1   6
ATOM      6  N   UNL     1     165.821 174.374 175.764  1.00  0.00    -0.271 N 
ATOM      7  C   UNL     1     164.609 176.444 175.856  1.00  0.00     0.090 A 
ATOM      8  C   UNL     1     164.820 175.142 176.299  1.00  0.00     0.099 A 
ATOM      9  C   UNL     1     165.445 176.957 174.870  1.00  0.00     0.253 A 
ATOM     10  N   UNL     1     166.446 176.189 174.366  1.00  0.00    -0.274 N 
ATOM     11  O   UNL     1     165.276 178.132 174.449  1.00  0.00    -0.269 OA
ATOM     12  C   UNL     1     166.646 174.915 174.808  1.00  0.00     0.330 A 
ATOM     13  H   UNL     1     167.077 176.585 173.632  1.00  0.00     0.175 HD
ATOM     14  O   UNL     1     167.601 174.243 174.328  1.00  0.00    -0.248 OA
ENDBRANCH   1   6
BRANCH   2  15
ATOM     15  O   UNL     1     167.128 173.124 178.425  1.00  0.00    -0.386 OA
ATOM     16  H   UNL     1     167.244 172.341 179.024  1.00  0.00     0.211 HD
ENDBRANCH   2  15
BRANCH   3  17
ATOM     17  O   UNL     1     164.485 171.534 179.125  1.00  0.00    -0.387 OA
ATOM     18  H   UNL     1     163.869 170.770 178.980  1.00  0.00     0.211 HD
ENDBRANCH   3  17
BRANCH   4  19
ATOM     19  C   UNL     1     164.529 169.851 176.336  1.00  0.00     0.191 C 
BRANCH  19  20
ATOM     20  O   UNL     1     164.120 169.069 177.425  1.00  0.00    -0.394 OA
ATOM     21  H   UNL     1     164.539 168.177 177.311  1.00  0.00     0.210 HD
ENDBRANCH  19  20
ENDBRANCH   4  19
TORSDOF 5
ENDMDL
MODEL 5
REMARK VINA RESULT:    -3.552     12.825     13.831
REMARK INTER + INTRA:          -4.857
REMARK INTER:                  -4.312
REMARK INTRA:                  -0.545
REMARK UNBOUND:                -0.578
REMARK SMILES O=c1ccn([C@@H]2O[C@@H](CO)[C@H](O)[C@H]2O)c(=O)[nH]1
REMARK SMILES IDX 6 1 13 2 11 3 8 4 7 5 5 6 3 7 4 8 2 9 17 10 1 11 15 12 16 14
REMARK SMILES IDX 14 15 12 17 9 19 10 20
REMARK H PARENT 17 13 14 16 12 18 10 21
REMARK Flexibility Score: inf
ROOT
ATOM      1  C   UNL     1     173.008 176.076 162.805  1.00  0.00     0.255 C 
ATOM      2  C   UNL     1     171.686 175.614 162.203  1.00  0.00     0.196 C 
ATOM      3  C   UNL     1     170.735 176.684 162.665  1.00  0.00     0.179 C 
ATOM      4  C   UNL     1     171.356 177.114 163.990  1.00  0.00     0.178 C 
ATOM      5  O   UNL     1     172.747 176.874 163.942  1.00  0.00    -0.347 OA
ENDROOT
BRANCH   1   6
ATOM      6  N   UNL     1     173.857 174.921 163.160  1.00  0.00    -0.271 N 
ATOM      7  C   UNL     1     174.052 172.610 163.781  1.00  0.00     0.090 A 
ATOM      8  C   UNL     1     173.273 173.721 163.471  1.00  0.00     0.099 A 
ATOM      9  C   UNL     1     175.436 172.737 163.753  1.00  0.00     0.253 A 
ATOM     10  N   UNL     1     175.998 173.929 163.421  1.00  0.00    -0.274 N 
ATOM     11  O   UNL     1     176.167 171.749 164.030  1.00  0.00    -0.269 OA
ATOM     12  C   UNL     1     175.227 175.011 163.117  1.00  0.00     0.330 A 
ATOM     13  H   UNL     1     177.041 174.015 163.392  1.00  0.00     0.175 HD
ATOM     14  O   UNL     1     175.790 176.094 162.795  1.00  0.00    -0.248 OA
ENDBRANCH   1   6
BRANCH   2  15
ATOM     15  O   UNL     1     171.765 175.565 160.803  1.00  0.00    -0.386 OA
ATOM     16  H   UNL     1     172.699 175.308 160.583  1.00  0.00     0.211 HD
ENDBRANCH   2  15
BRANCH   3  17
ATOM     17  O   UNL     1     169.443 176.175 162.862  1.00  0.00    -0.387 OA
ATOM     18  H   UNL     1     169.327 176.069 163.841  1.00  0.00     0.211 HD
ENDBRANCH   3  17
BRANCH   4  19
ATOM     19  C   UNL     1     171.087 178.594 164.294  1.00  0.00     0.191 C 
BRANCH  19  20
ATOM     20  O   UNL     1     169.723 178.802 164.541  1.00  0.00    -0.394 OA
ATOM     21  H   UNL     1     169.575 178.621 165.505  1.00  0.00     0.210 HD
ENDBRANCH  19  20
ENDBRANCH   4  19
TORSDOF 5
ENDMDL
MODEL 6
REMARK VINA RESULT:    -3.504     14.833     16.473
REMARK INTER + INTRA:          -4.799
REMARK INTER:                  -4.118
REMARK INTRA:                  -0.681
REMARK UNBOUND:                -0.578
REMARK SMILES O=c1ccn([C@@H]2O[C@@H](CO)[C@H](O)[C@H]2O)c(=O)[nH]1
REMARK SMILES IDX 6 1 13 2 11 3 8 4 7 5 5 6 3 7 4 8 2 9 17 10 1 11 15 12 16 14
REMARK SMILES IDX 14 15 12 17 9 19 10 20
REMARK H PARENT 17 13 14 16 12 18 10 21
REMARK Flexibility Score: inf
ROOT
ATOM      1  C   UNL     1     174.367 163.721 163.370  1.00  0.00     0.255 C 
ATOM      2  C   UNL     1     175.050 163.280 162.080  1.00  0.00     0.196 C 
ATOM      3  C   UNL     1     175.987 164.426 161.809  1.00  0.00     0.179 C 
ATOM      4  C   UNL     1     175.234 165.606 162.415  1.00  0.00     0.178 C 
ATOM      5  O   UNL     1     174.405 165.132 163.455  1.00  0.00    -0.347 OA
ENDROOT
BRANCH   1   6
ATOM      6  N   UNL     1     172.974 163.231 163.422  1.00  0.00    -0.271 N 
ATOM      7  C   UNL     1     170.646 163.561 162.940  1.00  0.00     0.090 A 
ATOM      8  C   UNL     1     171.962 164.012 162.929  1.00  0.00     0.099 A 
ATOM      9  C   UNL     1     170.380 162.294 163.447  1.00  0.00     0.253 A 
ATOM     10  N   UNL     1     171.399 161.525 163.912  1.00  0.00    -0.274 N 
ATOM     11  O   UNL     1     169.198 161.860 163.471  1.00  0.00    -0.269 OA
ATOM     12  C   UNL     1     172.685 161.974 163.895  1.00  0.00     0.330 A 
ATOM     13  H   UNL     1     171.192 160.568 164.282  1.00  0.00     0.175 HD
ATOM     14  O   UNL     1     173.604 161.219 164.317  1.00  0.00    -0.248 OA
ENDBRANCH   1   6
BRANCH   2  15
ATOM     15  O   UNL     1     175.749 162.078 162.273  1.00  0.00    -0.386 OA
ATOM     16  H   UNL     1     175.355 161.419 161.643  1.00  0.00     0.211 HD
ENDBRANCH   2  15
BRANCH   3  17
ATOM     17  O   UNL     1     176.184 164.614 160.432  1.00  0.00    -0.387 OA
ATOM     18  H   UNL     1     176.423 163.727 160.058  1.00  0.00     0.211 HD
ENDBRANCH   3  17
BRANCH   4  19
ATOM     19  C   UNL     1     176.191 166.679 162.951  1.00  0.00     0.191 C 
BRANCH  19  20
ATOM     20  O   UNL     1     177.356 166.728 162.173  1.00  0.00    -0.394 OA
ATOM     21  H   UNL     1     177.471 165.827 161.773  1.00  0.00     0.210 HD
ENDBRANCH  19  20
ENDBRANCH   4  19
TORSDOF 5
ENDMDL
MODEL 7
REMARK VINA RESULT:    -3.497     17.715     19.255
REMARK INTER + INTRA:          -4.791
REMARK INTER:                  -4.108
REMARK INTRA:                  -0.684
REMARK UNBOUND:                -0.578
REMARK SMILES O=c1ccn([C@@H]2O[C@@H](CO)[C@H](O)[C@H]2O)c(=O)[nH]1
REMARK SMILES IDX 6 1 13 2 11 3 8 4 7 5 5 6 3 7 4 8 2 9 17 10 1 11 15 12 16 14
REMARK SMILES IDX 14 15 12 17 9 19 10 20
REMARK H PARENT 17 13 14 16 12 18 10 21
REMARK Flexibility Score: inf
ROOT
ATOM      1  C   UNL     1     163.745 162.860 163.359  1.00  0.00     0.255 C 
ATOM      2  C   UNL     1     163.290 162.162 162.083  1.00  0.00     0.196 C 
ATOM      3  C   UNL     1     164.426 161.212 161.818  1.00  0.00     0.179 C 
ATOM      4  C   UNL     1     165.616 161.963 162.406  1.00  0.00     0.178 C 
ATOM      5  O   UNL     1     165.156 162.812 163.437  1.00  0.00    -0.347 OA
ENDROOT
BRANCH   1   6
ATOM      6  N   UNL     1     163.267 164.258 163.394  1.00  0.00    -0.271 N 
ATOM      7  C   UNL     1     163.610 166.575 162.869  1.00  0.00     0.090 A 
ATOM      8  C   UNL     1     164.050 165.255 162.875  1.00  0.00     0.099 A 
ATOM      9  C   UNL     1     162.351 166.860 163.386  1.00  0.00     0.253 A 
ATOM     10  N   UNL     1     161.579 165.856 163.877  1.00  0.00    -0.274 N 
ATOM     11  O   UNL     1     161.926 168.046 163.396  1.00  0.00    -0.269 OA
ATOM     12  C   UNL     1     162.018 164.565 163.876  1.00  0.00     0.330 A 
ATOM     13  H   UNL     1     160.629 166.076 164.255  1.00  0.00     0.175 HD
ATOM     14  O   UNL     1     161.261 163.660 164.323  1.00  0.00    -0.248 OA
ENDBRANCH   1   6
BRANCH   2  15
ATOM     15  O   UNL     1     162.084 161.476 162.293  1.00  0.00    -0.386 OA
ATOM     16  H   UNL     1     162.298 160.703 162.878  1.00  0.00     0.211 HD
ENDBRANCH   2  15
BRANCH   3  17
ATOM     17  O   UNL     1     164.604 160.993 160.444  1.00  0.00    -0.387 OA
ATOM     18  H   UNL     1     165.248 161.679 160.130  1.00  0.00     0.211 HD
ENDBRANCH   3  17
BRANCH   4  19
ATOM     19  C   UNL     1     166.685 161.006 162.949  1.00  0.00     0.191 C 
BRANCH  19  20
ATOM     20  O   UNL     1     166.722 159.831 162.187  1.00  0.00    -0.394 OA
ATOM     21  H   UNL     1     167.569 159.367 162.417  1.00  0.00     0.210 HD
ENDBRANCH  19  20
ENDBRANCH   4  19
TORSDOF 5
ENDMDL
MODEL 8
REMARK VINA RESULT:    -3.491     11.727     13.113
REMARK INTER + INTRA:          -4.783
REMARK INTER:                  -4.100
REMARK INTRA:                  -0.683
REMARK UNBOUND:                -0.578
REMARK SMILES O=c1ccn([C@@H]2O[C@@H](CO)[C@H](O)[C@H]2O)c(=O)[nH]1
REMARK SMILES IDX 6 1 13 2 11 3 8 4 7 5 5 6 3 7 4 8 2 9 17 10 1 11 15 12 16 14
REMARK SMILES IDX 14 15 12 17 9 19 10 20
REMARK H PARENT 17 13 14 16 12 18 10 21
REMARK Flexibility Score: inf
ROOT
ATOM      1  C   UNL     1     162.825 163.745 173.810  1.00  0.00     0.255 C 
ATOM      2  C   UNL     1     162.130 163.304 175.093  1.00  0.00     0.196 C 
ATOM      3  C   UNL     1     161.187 164.448 175.353  1.00  0.00     0.179 C 
ATOM      4  C   UNL     1     161.942 165.629 174.751  1.00  0.00     0.178 C 
ATOM      5  O   UNL     1     162.783 165.155 173.721  1.00  0.00    -0.347 OA
ENDROOT
BRANCH   1   6
ATOM      6  N   UNL     1     164.220 163.259 173.773  1.00  0.00    -0.271 N 
ATOM      7  C   UNL     1     166.541 163.593 174.287  1.00  0.00     0.090 A 
ATOM      8  C   UNL     1     165.223 164.040 174.284  1.00  0.00     0.099 A 
ATOM      9  C   UNL     1     166.817 162.330 173.776  1.00  0.00     0.253 A 
ATOM     10  N   UNL     1     165.807 161.561 173.292  1.00  0.00    -0.274 N 
ATOM     11  O   UNL     1     168.001 161.899 173.764  1.00  0.00    -0.269 OA
ATOM     12  C   UNL     1     164.519 162.006 173.296  1.00  0.00     0.330 A 
ATOM     13  H   UNL     1     166.021 160.607 172.919  1.00  0.00     0.175 HD
ATOM     14  O   UNL     1     163.608 161.251 172.856  1.00  0.00    -0.248 OA
ENDBRANCH   1   6
BRANCH   2  15
ATOM     15  O   UNL     1     161.437 162.100 174.896  1.00  0.00    -0.386 OA
ATOM     16  H   UNL     1     161.489 161.900 173.925  1.00  0.00     0.211 HD
ENDBRANCH   2  15
BRANCH   3  17
ATOM     17  O   UNL     1     160.976 164.638 176.727  1.00  0.00    -0.387 OA
ATOM     18  H   UNL     1     161.345 165.532 176.947  1.00  0.00     0.211 HD
ENDBRANCH   3  17
BRANCH   4  19
ATOM     19  C   UNL     1     160.988 166.698 174.204  1.00  0.00     0.191 C 
BRANCH  19  20
ATOM     20  O   UNL     1     159.815 166.745 174.970  1.00  0.00    -0.394 OA
ATOM     21  H   UNL     1     159.572 165.806 175.180  1.00  0.00     0.210 HD
ENDBRANCH  19  20
ENDBRANCH   4  19
TORSDOF 5
ENDMDL
MODEL 9
REMARK VINA RESULT:    -3.483     12.390     13.944
REMARK INTER + INTRA:          -4.774
REMARK INTER:                  -4.130
REMARK INTRA:                  -0.644
REMARK UNBOUND:                -0.578
REMARK SMILES O=c1ccn([C@@H]2O[C@@H](CO)[C@H](O)[C@H]2O)c(=O)[nH]1
REMARK SMILES IDX 6 1 13 2 11 3 8 4 7 5 5 6 3 7 4 8 2 9 17 10 1 11 15 12 16 14
REMARK SMILES IDX 14 15 12 17 9 19 10 20
REMARK H PARENT 17 13 14 16 12 18 10 21
REMARK Flexibility Score: inf
ROOT
ATOM      1  C   UNL     1     173.057 174.821 163.382  1.00  0.00     0.255 C 
ATOM      2  C   UNL     1     173.106 175.869 162.276  1.00  0.00     0.196 C 
ATOM      3  C   UNL     1     172.093 175.344 161.296  1.00  0.00     0.179 C 
ATOM      4  C   UNL     1     172.186 173.838 161.515  1.00  0.00     0.178 C 
ATOM      5  O   UNL     1     172.611 173.595 162.840  1.00  0.00    -0.347 OA
ENDROOT
BRANCH   1   6
ATOM      6  N   UNL     1     174.383 174.662 164.016  1.00  0.00    -0.271 N 
ATOM      7  C   UNL     1     176.508 173.549 164.115  1.00  0.00     0.090 A 
ATOM      8  C   UNL     1     175.243 173.700 163.555  1.00  0.00     0.099 A 
ATOM      9  C   UNL     1     176.888 174.406 165.143  1.00  0.00     0.253 A 
ATOM     10  N   UNL     1     176.030 175.368 165.573  1.00  0.00    -0.274 N 
ATOM     11  O   UNL     1     178.026 174.292 165.670  1.00  0.00    -0.269 OA
ATOM     12  C   UNL     1     174.794 175.509 165.016  1.00  0.00     0.330 A 
ATOM     13  H   UNL     1     176.327 176.015 166.339  1.00  0.00     0.175 HD
ATOM     14  O   UNL     1     174.036 176.429 165.431  1.00  0.00    -0.248 OA
ENDBRANCH   1   6
BRANCH   2  15
ATOM     15  O   UNL     1     172.740 177.132 162.769  1.00  0.00    -0.386 OA
ATOM     16  H   UNL     1     172.583 177.018 163.743  1.00  0.00     0.211 HD
ENDBRANCH   2  15
BRANCH   3  17
ATOM     17  O   UNL     1     172.433 175.679 159.976  1.00  0.00    -0.387 OA
ATOM     18  H   UNL     1     171.648 176.148 159.594  1.00  0.00     0.211 HD
ENDBRANCH   3  17
BRANCH   4  19
ATOM     19  C   UNL     1     170.845 173.139 161.255  1.00  0.00     0.191 C 
BRANCH  19  20
ATOM     20  O   UNL     1     170.457 173.306 159.919  1.00  0.00    -0.394 OA
ATOM     21  H   UNL     1     169.787 172.600 159.725  1.00  0.00     0.210 HD
ENDBRANCH  19  20
ENDBRANCH   4  19
TORSDOF 5
ENDMDL
