MODEL 1
REMARK VINA RESULT:    -2.616      0.000      0.000
REMARK INTER + INTRA:          -4.167
REMARK INTER:                  -3.534
REMARK INTRA:                  -0.634
REMARK UNBOUND:                -0.634
REMARK SMILES O=C[C@@H](O)[C@@H](O)[C@H](O)CO
REMARK SMILES IDX 7 1 9 2 10 3 5 5 3 6 2 7 1 8 4 9 6 11 8 13
REMARK H PARENT 10 4 4 10 6 12 8 14
REMARK Flexibility Score: inf
ROOT
ATOM      1  C   UNL     1      13.059 -19.725  34.842  1.00  0.00     0.171 C 
ENDROOT
BRANCH   1   2
ATOM      2  C   UNL     1      12.433 -19.494  36.229  1.00  0.00     0.190 C 
BRANCH   2   3
ATOM      3  O   UNL     1      12.692 -18.190  36.674  1.00  0.00    -0.394 OA
ATOM      4  H   UNL     1      13.489 -17.881  36.169  1.00  0.00     0.210 HD
ENDBRANCH   2   3
ENDBRANCH   1   2
BRANCH   1   5
ATOM      5  C   UNL     1      14.471 -20.370  34.886  1.00  0.00     0.181 C 
BRANCH   5   6
ATOM      6  C   UNL     1      15.524 -19.577  34.073  1.00  0.00     0.209 C 
BRANCH   6   7
ATOM      7  C   UNL     1      16.889 -20.203  34.196  1.00  0.00     0.258 C 
ATOM      8  O   UNL     1      17.556 -20.047  35.207  1.00  0.00    -0.300 OA
ENDBRANCH   6   7
BRANCH   6   9
ATOM      9  O   UNL     1      15.166 -19.548  32.716  1.00  0.00    -0.383 OA
ATOM     10  H   UNL     1      15.275 -20.471  32.369  1.00  0.00     0.211 HD
ENDBRANCH   6   9
ENDBRANCH   5   6
BRANCH   5  11
ATOM     11  O   UNL     1      14.887 -20.433  36.230  1.00  0.00    -0.387 OA
ATOM     12  H   UNL     1      15.318 -19.564  36.446  1.00  0.00     0.211 HD
ENDBRANCH   5  11
ENDBRANCH   1   5
BRANCH   1  13
ATOM     13  O   UNL     1      13.144 -18.494  34.169  1.00  0.00    -0.388 OA
ATOM     14  H   UNL     1      14.109 -18.307  34.022  1.00  0.00     0.211 HD
ENDBRANCH   1  13
TORSDOF 8
ENDMDL
MODEL 2
REMARK VINA RESULT:    -2.610     12.872     14.036
REMARK INTER + INTRA:          -4.159
REMARK INTER:                  -3.176
REMARK INTRA:                  -0.983
REMARK UNBOUND:                -0.634
REMARK SMILES O=C[C@@H](O)[C@@H](O)[C@H](O)CO
REMARK SMILES IDX 7 1 9 2 10 3 5 5 3 6 2 7 1 8 4 9 6 11 8 13
REMARK H PARENT 10 4 4 10 6 12 8 14
REMARK Flexibility Score: inf
ROOT
ATOM      1  C   UNL     1      13.342 -10.168  26.805  1.00  0.00     0.171 C 
ENDROOT
BRANCH   1   2
ATOM      2  C   UNL     1      14.003  -8.789  26.978  1.00  0.00     0.190 C 
BRANCH   2   3
ATOM      3  O   UNL     1      13.171  -7.778  26.480  1.00  0.00    -0.394 OA
ATOM      4  H   UNL     1      13.765  -7.149  25.993  1.00  0.00     0.210 HD
ENDBRANCH   2   3
ENDBRANCH   1   2
BRANCH   1   5
ATOM      5  C   UNL     1      13.397 -10.717  25.353  1.00  0.00     0.181 C 
BRANCH   5   6
ATOM      6  C   UNL     1      11.994 -10.962  24.745  1.00  0.00     0.209 C 
BRANCH   6   7
ATOM      7  C   UNL     1      11.554  -9.791  23.905  1.00  0.00     0.258 C 
ATOM      8  O   UNL     1      11.292  -8.718  24.425  1.00  0.00    -0.300 OA
ENDBRANCH   6   7
BRANCH   6   9
ATOM      9  O   UNL     1      12.010 -12.111  23.938  1.00  0.00    -0.383 OA
ATOM     10  H   UNL     1      11.089 -12.480  23.944  1.00  0.00     0.211 HD
ENDBRANCH   6   9
ENDBRANCH   5   6
BRANCH   5  11
ATOM     11  O   UNL     1      14.083  -9.783  24.553  1.00  0.00    -0.387 OA
ATOM     12  H   UNL     1      14.238  -8.975  25.109  1.00  0.00     0.211 HD
ENDBRANCH   5  11
ENDBRANCH   1   5
BRANCH   1  13
ATOM     13  O   UNL     1      11.998 -10.082  27.206  1.00  0.00    -0.388 OA
ATOM     14  H   UNL     1      11.458 -10.558  26.521  1.00  0.00     0.211 HD
ENDBRANCH   1  13
TORSDOF 8
ENDMDL
MODEL 3
REMARK VINA RESULT:    -2.575      1.707      2.567
REMARK INTER + INTRA:          -4.112
REMARK INTER:                  -3.646
REMARK INTRA:                  -0.466
REMARK UNBOUND:                -0.634
REMARK SMILES O=C[C@@H](O)[C@@H](O)[C@H](O)CO
REMARK SMILES IDX 7 1 9 2 10 3 5 5 3 6 2 7 1 8 4 9 6 11 8 13
REMARK H PARENT 10 4 4 10 6 12 8 14
REMARK Flexibility Score: inf
ROOT
ATOM      1  C   UNL     1      12.479 -19.980  35.402  1.00  0.00     0.171 C 
ENDROOT
BRANCH   1   2
ATOM      2  C   UNL     1      12.192 -19.401  36.799  1.00  0.00     0.190 C 
BRANCH   2   3
ATOM      3  O   UNL     1      12.519 -18.039  36.844  1.00  0.00    -0.394 OA
ATOM      4  H   UNL     1      13.433 -17.989  37.227  1.00  0.00     0.210 HD
ENDBRANCH   2   3
ENDBRANCH   1   2
BRANCH   1   5
ATOM      5  C   UNL     1      13.559 -19.198  34.605  1.00  0.00     0.181 C 
BRANCH   5   6
ATOM      6  C   UNL     1      14.598 -20.124  33.926  1.00  0.00     0.209 C 
BRANCH   6   7
ATOM      7  C   UNL     1      13.926 -21.128  33.027  1.00  0.00     0.258 C 
ATOM      8  O   UNL     1      13.144 -20.763  32.163  1.00  0.00    -0.300 OA
ENDBRANCH   6   7
BRANCH   6   9
ATOM      9  O   UNL     1      15.494 -19.364  33.158  1.00  0.00    -0.383 OA
ATOM     10  H   UNL     1      16.404 -19.714  33.347  1.00  0.00     0.211 HD
ENDBRANCH   6   9
ENDBRANCH   5   6
BRANCH   5  11
ATOM     11  O   UNL     1      12.911 -18.437  33.613  1.00  0.00    -0.387 OA
ATOM     12  H   UNL     1      12.814 -17.513  33.966  1.00  0.00     0.211 HD
ENDBRANCH   5  11
ENDBRANCH   1   5
BRANCH   1  13
ATOM     13  O   UNL     1      11.286 -19.991  34.660  1.00  0.00    -0.388 OA
ATOM     14  H   UNL     1      10.786 -20.808  34.923  1.00  0.00     0.211 HD
ENDBRANCH   1  13
TORSDOF 8
ENDMDL
MODEL 4
REMARK VINA RESULT:    -2.559      1.381      2.144
REMARK INTER + INTRA:          -4.090
REMARK INTER:                  -3.447
REMARK INTRA:                  -0.644
REMARK UNBOUND:                -0.634
REMARK SMILES O=C[C@@H](O)[C@@H](O)[C@H](O)CO
REMARK SMILES IDX 7 1 9 2 10 3 5 5 3 6 2 7 1 8 4 9 6 11 8 13
REMARK H PARENT 10 4 4 10 6 12 8 14
REMARK Flexibility Score: inf
ROOT
ATOM      1  C   UNL     1      12.250 -19.529  36.355  1.00  0.00     0.171 C 
ENDROOT
BRANCH   1   2
ATOM      2  C   UNL     1      12.023 -20.316  37.658  1.00  0.00     0.190 C 
BRANCH   2   3
ATOM      3  O   UNL     1      13.016 -20.010  38.598  1.00  0.00    -0.394 OA
ATOM      4  H   UNL     1      13.827 -20.505  38.311  1.00  0.00     0.210 HD
ENDBRANCH   2   3
ENDBRANCH   1   2
BRANCH   1   5
ATOM      5  C   UNL     1      13.347 -20.134  35.436  1.00  0.00     0.181 C 
BRANCH   5   6
ATOM      6  C   UNL     1      13.671 -19.240  34.213  1.00  0.00     0.209 C 
BRANCH   6   7
ATOM      7  C   UNL     1      14.565 -19.959  33.236  1.00  0.00     0.258 C 
ATOM      8  O   UNL     1      15.746 -20.137  33.489  1.00  0.00    -0.300 OA
ENDBRANCH   6   7
BRANCH   6   9
ATOM      9  O   UNL     1      12.487 -18.876  33.552  1.00  0.00    -0.383 OA
ATOM     10  H   UNL     1      11.943 -18.358  34.200  1.00  0.00     0.211 HD
ENDBRANCH   6   9
ENDBRANCH   5   6
BRANCH   5  11
ATOM     11  O   UNL     1      14.518 -20.305  36.198  1.00  0.00    -0.387 OA
ATOM     12  H   UNL     1      14.253 -20.730  37.056  1.00  0.00     0.211 HD
ENDBRANCH   5  11
ENDBRANCH   1   5
BRANCH   1  13
ATOM     13  O   UNL     1      12.606 -18.208  36.677  1.00  0.00    -0.388 OA
ATOM     14  H   UNL     1      13.104 -18.242  37.536  1.00  0.00     0.211 HD
ENDBRANCH   1  13
TORSDOF 8
ENDMDL
MODEL 5
REMARK VINA RESULT:    -2.510      1.452      4.014
REMARK INTER + INTRA:          -4.024
REMARK INTER:                  -3.543
REMARK INTRA:                  -0.481
REMARK UNBOUND:                -0.634
REMARK SMILES O=C[C@@H](O)[C@@H](O)[C@H](O)CO
REMARK SMILES IDX 7 1 9 2 10 3 5 5 3 6 2 7 1 8 4 9 6 11 8 13
REMARK H PARENT 10 4 4 10 6 12 8 14
REMARK Flexibility Score: inf
ROOT
ATOM      1  C   UNL     1      13.468 -19.261  34.965  1.00  0.00     0.171 C 
ENDROOT
BRANCH   1   2
ATOM      2  C   UNL     1      14.660 -20.225  34.830  1.00  0.00     0.190 C 
BRANCH   2   3
ATOM      3  O   UNL     1      15.207 -20.512  36.088  1.00  0.00    -0.394 OA
ATOM      4  H   UNL     1      14.503 -21.000  36.588  1.00  0.00     0.210 HD
ENDBRANCH   2   3
ENDBRANCH   1   2
BRANCH   1   5
ATOM      5  C   UNL     1      12.218 -19.892  35.635  1.00  0.00     0.181 C 
BRANCH   5   6
ATOM      6  C   UNL     1      11.831 -19.203  36.967  1.00  0.00     0.209 C 
BRANCH   6   7
ATOM      7  C   UNL     1      12.180 -20.069  38.149  1.00  0.00     0.258 C 
ATOM      8  O   UNL     1      12.995 -20.972  38.038  1.00  0.00    -0.300 OA
ENDBRANCH   6   7
BRANCH   6   9
ATOM      9  O   UNL     1      12.508 -17.979  37.092  1.00  0.00    -0.383 OA
ATOM     10  H   UNL     1      12.187 -17.395  36.357  1.00  0.00     0.211 HD
ENDBRANCH   6   9
ENDBRANCH   5   6
BRANCH   5  11
ATOM     11  O   UNL     1      11.137 -19.789  34.739  1.00  0.00    -0.387 OA
ATOM     12  H   UNL     1      10.305 -19.753  35.282  1.00  0.00     0.211 HD
ENDBRANCH   5  11
ENDBRANCH   1   5
BRANCH   1  13
ATOM     13  O   UNL     1      13.113 -18.794  33.688  1.00  0.00    -0.388 OA
ATOM     14  H   UNL     1      13.514 -19.418  33.027  1.00  0.00     0.211 HD
ENDBRANCH   1  13
TORSDOF 8
ENDMDL
MODEL 6
REMARK VINA RESULT:    -2.446      2.415      4.141
REMARK INTER + INTRA:          -3.937
REMARK INTER:                  -3.257
REMARK INTRA:                  -0.680
REMARK UNBOUND:                -0.634
REMARK SMILES O=C[C@@H](O)[C@@H](O)[C@H](O)CO
REMARK SMILES IDX 7 1 9 2 10 3 5 5 3 6 2 7 1 8 4 9 6 11 8 13
REMARK H PARENT 10 4 4 10 6 12 8 14
REMARK Flexibility Score: inf
ROOT
ATOM      1  C   UNL     1      12.538 -19.796  33.378  1.00  0.00     0.171 C 
ENDROOT
BRANCH   1   2
ATOM      2  C   UNL     1      11.434 -19.706  32.310  1.00  0.00     0.190 C 
BRANCH   2   3
ATOM      3  O   UNL     1      10.915 -18.406  32.247  1.00  0.00    -0.394 OA
ATOM      4  H   UNL     1      10.054 -18.430  32.742  1.00  0.00     0.210 HD
ENDBRANCH   2   3
ENDBRANCH   1   2
BRANCH   1   5
ATOM      5  C   UNL     1      12.022 -20.196  34.787  1.00  0.00     0.181 C 
BRANCH   5   6
ATOM      6  C   UNL     1      12.793 -19.497  35.934  1.00  0.00     0.209 C 
BRANCH   6   7
ATOM      7  C   UNL     1      12.068 -19.647  37.247  1.00  0.00     0.258 C 
ATOM      8  O   UNL     1      11.271 -18.800  37.617  1.00  0.00    -0.300 OA
ENDBRANCH   6   7
BRANCH   6   9
ATOM      9  O   UNL     1      14.075 -20.052  36.065  1.00  0.00    -0.383 OA
ATOM     10  H   UNL     1      13.979 -21.032  35.938  1.00  0.00     0.211 HD
ENDBRANCH   6   9
ENDBRANCH   5   6
BRANCH   5  11
ATOM     11  O   UNL     1      10.661 -19.847  34.875  1.00  0.00    -0.387 OA
ATOM     12  H   UNL     1      10.422 -19.375  34.034  1.00  0.00     0.211 HD
ENDBRANCH   5  11
ENDBRANCH   1   5
BRANCH   1  13
ATOM     13  O   UNL     1      13.187 -18.553  33.468  1.00  0.00    -0.388 OA
ATOM     14  H   UNL     1      13.539 -18.474  34.394  1.00  0.00     0.211 HD
ENDBRANCH   1  13
TORSDOF 8
ENDMDL
MODEL 7
REMARK VINA RESULT:    -2.431     12.931     13.636
REMARK INTER + INTRA:          -3.918
REMARK INTER:                  -3.237
REMARK INTRA:                  -0.681
REMARK UNBOUND:                -0.634
REMARK SMILES O=C[C@@H](O)[C@@H](O)[C@H](O)CO
REMARK SMILES IDX 7 1 9 2 10 3 5 5 3 6 2 7 1 8 4 9 6 11 8 13
REMARK H PARENT 10 4 4 10 6 12 8 14
REMARK Flexibility Score: inf
ROOT
ATOM      1  C   UNL     1      11.760  -9.259  26.373  1.00  0.00     0.171 C 
ENDROOT
BRANCH   1   2
ATOM      2  C   UNL     1      10.752  -8.377  27.130  1.00  0.00     0.190 C 
BRANCH   2   3
ATOM      3  O   UNL     1      10.135  -9.105  28.156  1.00  0.00    -0.394 OA
ATOM      4  H   UNL     1       9.586  -9.800  27.709  1.00  0.00     0.210 HD
ENDBRANCH   2   3
ENDBRANCH   1   2
BRANCH   1   5
ATOM      5  C   UNL     1      11.148 -10.030  25.171  1.00  0.00     0.181 C 
BRANCH   5   6
ATOM      6  C   UNL     1      11.776 -11.431  24.968  1.00  0.00     0.209 C 
BRANCH   6   7
ATOM      7  C   UNL     1      10.951 -12.265  24.023  1.00  0.00     0.258 C 
ATOM      8  O   UNL     1      10.069 -12.996  24.447  1.00  0.00    -0.300 OA
ENDBRANCH   6   7
BRANCH   6   9
ATOM      9  O   UNL     1      13.072 -11.309  24.442  1.00  0.00    -0.383 OA
ATOM     10  H   UNL     1      13.703 -11.474  25.190  1.00  0.00     0.211 HD
ENDBRANCH   6   9
ENDBRANCH   5   6
BRANCH   5  11
ATOM     11  O   UNL     1       9.767 -10.179  25.399  1.00  0.00    -0.387 OA
ATOM     12  H   UNL     1       9.657 -10.542  26.318  1.00  0.00     0.211 HD
ENDBRANCH   5  11
ENDBRANCH   1   5
BRANCH   1  13
ATOM     13  O   UNL     1      12.318 -10.186  27.270  1.00  0.00    -0.388 OA
ATOM     14  H   UNL     1      13.004 -10.702  26.768  1.00  0.00     0.211 HD
ENDBRANCH   1  13
TORSDOF 8
ENDMDL
MODEL 8
REMARK VINA RESULT:    -2.429      2.082      5.120
REMARK INTER + INTRA:          -3.915
REMARK INTER:                  -3.215
REMARK INTRA:                  -0.700
REMARK UNBOUND:                -0.634
REMARK SMILES O=C[C@@H](O)[C@@H](O)[C@H](O)CO
REMARK SMILES IDX 7 1 9 2 10 3 5 5 3 6 2 7 1 8 4 9 6 11 8 13
REMARK H PARENT 10 4 4 10 6 12 8 14
REMARK Flexibility Score: inf
ROOT
ATOM      1  C   UNL     1      12.941 -20.140  36.008  1.00  0.00     0.171 C 
ENDROOT
BRANCH   1   2
ATOM      2  C   UNL     1      13.765 -19.587  34.832  1.00  0.00     0.190 C 
BRANCH   2   3
ATOM      3  O   UNL     1      13.072 -18.552  34.190  1.00  0.00    -0.394 OA
ATOM      4  H   UNL     1      13.119 -18.751  33.218  1.00  0.00     0.210 HD
ENDBRANCH   2   3
ENDBRANCH   1   2
BRANCH   1   5
ATOM      5  C   UNL     1      11.950 -19.114  36.622  1.00  0.00     0.181 C 
BRANCH   5   6
ATOM      6  C   UNL     1      11.267 -19.629  37.913  1.00  0.00     0.209 C 
BRANCH   6   7
ATOM      7  C   UNL     1      10.008 -18.856  38.209  1.00  0.00     0.258 C 
ATOM      8  O   UNL     1       9.905 -17.686  37.877  1.00  0.00    -0.300 OA
ENDBRANCH   6   7
BRANCH   6   9
ATOM      9  O   UNL     1      10.937 -20.987  37.777  1.00  0.00    -0.383 OA
ATOM     10  H   UNL     1      11.638 -21.503  38.253  1.00  0.00     0.211 HD
ENDBRANCH   6   9
ENDBRANCH   5   6
BRANCH   5  11
ATOM     11  O   UNL     1      12.661 -17.937  36.923  1.00  0.00    -0.387 OA
ATOM     12  H   UNL     1      13.463 -17.918  36.336  1.00  0.00     0.211 HD
ENDBRANCH   5  11
ENDBRANCH   1   5
BRANCH   1  13
ATOM     13  O   UNL     1      13.819 -20.579  37.014  1.00  0.00    -0.388 OA
ATOM     14  H   UNL     1      13.790 -19.903  37.742  1.00  0.00     0.211 HD
ENDBRANCH   1  13
TORSDOF 8
ENDMDL
MODEL 9
REMARK VINA RESULT:    -2.351     12.599     13.626
REMARK INTER + INTRA:          -3.810
REMARK INTER:                  -3.292
REMARK INTRA:                  -0.517
REMARK UNBOUND:                -0.634
REMARK SMILES O=C[C@@H](O)[C@@H](O)[C@H](O)CO
REMARK SMILES IDX 7 1 9 2 10 3 5 5 3 6 2 7 1 8 4 9 6 11 8 13
REMARK H PARENT 10 4 4 10 6 12 8 14
REMARK Flexibility Score: inf
ROOT
ATOM      1  C   UNL     1      12.165  -9.632  26.160  1.00  0.00     0.171 C 
ENDROOT
BRANCH   1   2
ATOM      2  C   UNL     1      11.727 -10.657  25.100  1.00  0.00     0.190 C 
BRANCH   2   3
ATOM      3  O   UNL     1      12.821 -11.421  24.672  1.00  0.00    -0.394 OA
ATOM      4  H   UNL     1      13.101 -11.962  25.456  1.00  0.00     0.210 HD
ENDBRANCH   2   3
ENDBRANCH   1   2
BRANCH   1   5
ATOM      5  C   UNL     1      13.642  -9.785  26.614  1.00  0.00     0.181 C 
BRANCH   5   6
ATOM      6  C   UNL     1      14.240  -8.473  27.181  1.00  0.00     0.209 C 
BRANCH   6   7
ATOM      7  C   UNL     1      15.140  -7.806  26.174  1.00  0.00     0.258 C 
ATOM      8  O   UNL     1      15.459  -8.384  25.146  1.00  0.00    -0.300 OA
ENDBRANCH   6   7
BRANCH   6   9
ATOM      9  O   UNL     1      13.212  -7.580  27.523  1.00  0.00    -0.383 OA
ATOM     10  H   UNL     1      13.504  -6.679  27.229  1.00  0.00     0.211 HD
ENDBRANCH   6   9
ENDBRANCH   5   6
BRANCH   5  11
ATOM     11  O   UNL     1      13.699 -10.778  27.610  1.00  0.00    -0.387 OA
ATOM     12  H   UNL     1      12.973 -11.429  27.419  1.00  0.00     0.211 HD
ENDBRANCH   5  11
ENDBRANCH   1   5
BRANCH   1  13
ATOM     13  O   UNL     1      11.330  -9.754  27.284  1.00  0.00    -0.388 OA
ATOM     14  H   UNL     1      10.615  -9.071  27.192  1.00  0.00     0.211 HD
ENDBRANCH   1  13
TORSDOF 8
ENDMDL
