MODEL 1
REMARK VINA RESULT:    -5.185      0.000      0.000
REMARK INTER + INTRA:          -5.185
REMARK INTER:                  -5.185
REMARK INTRA:                   0.000
REMARK UNBOUND:                 0.000
REMARK SMILES CC1=CC(=O)[C@H]2C[C@@H]1C2(C)C
REMARK SMILES IDX 1 1 2 2 3 3 4 4 5 5 6 6 7 7 8 8 9 9 10 10 11 11
REMARK H PARENT
REMARK Flexibility Score: inf
ROOT
ATOM      1  C   UNL     1      16.272 -21.645 -27.394  1.00  0.00     0.040 C 
ATOM      2  C   UNL     1      17.238 -22.302 -26.460  1.00  0.00    -0.066 C 
ATOM      3  C   UNL     1      17.361 -23.658 -26.404  1.00  0.00     0.047 C 
ATOM      4  C   UNL     1      18.341 -24.194 -25.406  1.00  0.00     0.159 C 
ATOM      5  O   UNL     1      18.516 -25.429 -25.233  1.00  0.00    -0.295 OA
ATOM      6  C   UNL     1      19.112 -23.138 -24.613  1.00  0.00     0.067 C 
ATOM      7  C   UNL     1      19.555 -22.114 -25.679  1.00  0.00     0.021 C 
ATOM      8  C   UNL     1      18.154 -21.480 -25.529  1.00  0.00     0.022 C 
ATOM      9  C   UNL     1      18.102 -22.076 -24.092  1.00  0.00    -0.019 C 
ATOM     10  C   UNL     1      16.730 -22.565 -23.549  1.00  0.00     0.012 C 
ATOM     11  C   UNL     1      18.732 -21.130 -23.039  1.00  0.00     0.012 C 
ENDROOT
TORSDOF 0
ENDMDL
MODEL 2
REMARK VINA RESULT:    -5.161      1.976      3.548
REMARK INTER + INTRA:          -5.161
REMARK INTER:                  -5.161
REMARK INTRA:                   0.000
REMARK UNBOUND:                 0.000
REMARK SMILES CC1=CC(=O)[C@H]2C[C@@H]1C2(C)C
REMARK SMILES IDX 1 1 2 2 3 3 4 4 5 5 6 6 7 7 8 8 9 9 10 10 11 11
REMARK H PARENT
REMARK Flexibility Score: inf
ROOT
ATOM      1  C   UNL     1      19.586 -25.277 -23.626  1.00  0.00     0.040 C 
ATOM      2  C   UNL     1      19.218 -23.894 -24.058  1.00  0.00    -0.066 C 
ATOM      3  C   UNL     1      19.111 -22.875 -23.159  1.00  0.00     0.047 C 
ATOM      4  C   UNL     1      18.705 -21.543 -23.712  1.00  0.00     0.159 C 
ATOM      5  O   UNL     1      18.534 -20.535 -22.979  1.00  0.00    -0.295 OA
ATOM      6  C   UNL     1      18.510 -21.495 -25.228  1.00  0.00     0.067 C 
ATOM      7  C   UNL     1      19.741 -22.238 -25.790  1.00  0.00     0.021 C 
ATOM      8  C   UNL     1      18.958 -23.547 -25.539  1.00  0.00     0.022 C 
ATOM      9  C   UNL     1      17.647 -22.717 -25.655  1.00  0.00    -0.019 C 
ATOM     10  C   UNL     1      16.441 -23.118 -24.759  1.00  0.00     0.012 C 
ATOM     11  C   UNL     1      17.148 -22.604 -27.118  1.00  0.00     0.012 C 
ENDROOT
TORSDOF 0
ENDMDL
MODEL 3
REMARK VINA RESULT:    -4.922      1.665      3.099
REMARK INTER + INTRA:          -4.922
REMARK INTER:                  -4.922
REMARK INTRA:                   0.000
REMARK UNBOUND:                 0.000
REMARK SMILES CC1=CC(=O)[C@H]2C[C@@H]1C2(C)C
REMARK SMILES IDX 1 1 2 2 3 3 4 4 5 5 6 6 7 7 8 8 9 9 10 10 11 11
REMARK H PARENT
REMARK Flexibility Score: inf
ROOT
ATOM      1  C   UNL     1      18.759 -20.538 -22.856  1.00  0.00     0.040 C 
ATOM      2  C   UNL     1      18.486 -21.370 -24.068  1.00  0.00    -0.066 C 
ATOM      3  C   UNL     1      17.603 -20.964 -25.023  1.00  0.00     0.047 C 
ATOM      4  C   UNL     1      17.394 -21.901 -26.173  1.00  0.00     0.159 C 
ATOM      5  O   UNL     1      16.576 -21.657 -27.098  1.00  0.00    -0.295 OA
ATOM      6  C   UNL     1      18.241 -23.174 -26.144  1.00  0.00     0.067 C 
ATOM      7  C   UNL     1      19.657 -22.677 -25.782  1.00  0.00     0.021 C 
ATOM      8  C   UNL     1      19.200 -22.718 -24.306  1.00  0.00     0.022 C 
ATOM      9  C   UNL     1      18.154 -23.793 -24.719  1.00  0.00    -0.019 C 
ATOM     10  C   UNL     1      16.777 -23.794 -23.997  1.00  0.00     0.012 C 
ATOM     11  C   UNL     1      18.732 -25.230 -24.665  1.00  0.00     0.012 C 
ENDROOT
TORSDOF 0
ENDMDL
MODEL 4
REMARK VINA RESULT:    -4.876      1.629      3.364
REMARK INTER + INTRA:          -4.876
REMARK INTER:                  -4.876
REMARK INTRA:                   0.000
REMARK UNBOUND:                 0.000
REMARK SMILES CC1=CC(=O)[C@H]2C[C@@H]1C2(C)C
REMARK SMILES IDX 1 1 2 2 3 3 4 4 5 5 6 6 7 7 8 8 9 9 10 10 11 11
REMARK H PARENT
REMARK Flexibility Score: inf
ROOT
ATOM      1  C   UNL     1      20.765 -24.965 -22.746  1.00  0.00     0.040 C 
ATOM      2  C   UNL     1      19.563 -24.414 -23.445  1.00  0.00    -0.066 C 
ATOM      3  C   UNL     1      18.848 -25.169 -24.326  1.00  0.00     0.047 C 
ATOM      4  C   UNL     1      17.684 -24.492 -24.985  1.00  0.00     0.159 C 
ATOM      5  O   UNL     1      16.971 -25.071 -25.846  1.00  0.00    -0.295 OA
ATOM      6  C   UNL     1      17.426 -23.052 -24.541  1.00  0.00     0.067 C 
ATOM      7  C   UNL     1      17.537 -23.106 -23.002  1.00  0.00     0.021 C 
ATOM      8  C   UNL     1      19.065 -22.976 -23.194  1.00  0.00     0.022 C 
ATOM      9  C   UNL     1      18.777 -22.281 -24.555  1.00  0.00    -0.019 C 
ATOM     10  C   UNL     1      19.760 -22.535 -25.732  1.00  0.00     0.012 C 
ATOM     11  C   UNL     1      18.583 -20.750 -24.407  1.00  0.00     0.012 C 
ENDROOT
TORSDOF 0
ENDMDL
MODEL 5
REMARK VINA RESULT:    -4.638      1.439      1.935
REMARK INTER + INTRA:          -4.638
REMARK INTER:                  -4.638
REMARK INTRA:                   0.000
REMARK UNBOUND:                 0.000
REMARK SMILES CC1=CC(=O)[C@H]2C[C@@H]1C2(C)C
REMARK SMILES IDX 1 1 2 2 3 3 4 4 5 5 6 6 7 7 8 8 9 9 10 10 11 11
REMARK H PARENT
REMARK Flexibility Score: inf
ROOT
ATOM      1  C   UNL     1      14.192 -23.409 -25.429  1.00  0.00     0.040 C 
ATOM      2  C   UNL     1      15.670 -23.539 -25.618  1.00  0.00    -0.066 C 
ATOM      3  C   UNL     1      16.310 -24.724 -25.406  1.00  0.00     0.047 C 
ATOM      4  C   UNL     1      17.796 -24.717 -25.598  1.00  0.00     0.159 C 
ATOM      5  O   UNL     1      18.504 -25.738 -25.395  1.00  0.00    -0.295 OA
ATOM      6  C   UNL     1      18.391 -23.385 -26.055  1.00  0.00     0.067 C 
ATOM      7  C   UNL     1      17.450 -22.919 -27.186  1.00  0.00     0.021 C 
ATOM      8  C   UNL     1      16.539 -22.349 -26.075  1.00  0.00     0.022 C 
ATOM      9  C   UNL     1      17.800 -22.250 -25.170  1.00  0.00    -0.019 C 
ATOM     10  C   UNL     1      17.634 -22.511 -23.647  1.00  0.00     0.012 C 
ATOM     11  C   UNL     1      18.553 -20.907 -25.354  1.00  0.00     0.012 C 
ENDROOT
TORSDOF 0
ENDMDL
MODEL 6
REMARK VINA RESULT:    -4.636      1.617      2.039
REMARK INTER + INTRA:          -4.636
REMARK INTER:                  -4.636
REMARK INTRA:                   0.000
REMARK UNBOUND:                 0.000
REMARK SMILES CC1=CC(=O)[C@H]2C[C@@H]1C2(C)C
REMARK SMILES IDX 1 1 2 2 3 3 4 4 5 5 6 6 7 7 8 8 9 9 10 10 11 11
REMARK H PARENT
REMARK Flexibility Score: inf
ROOT
ATOM      1  C   UNL     1      16.798 -20.590 -25.970  1.00  0.00     0.040 C 
ATOM      2  C   UNL     1      17.035 -22.058 -25.815  1.00  0.00    -0.066 C 
ATOM      3  C   UNL     1      16.005 -22.950 -25.850  1.00  0.00     0.047 C 
ATOM      4  C   UNL     1      16.369 -24.390 -25.653  1.00  0.00     0.159 C 
ATOM      5  O   UNL     1      15.504 -25.304 -25.624  1.00  0.00    -0.295 OA
ATOM      6  C   UNL     1      17.863 -24.671 -25.486  1.00  0.00     0.067 C 
ATOM      7  C   UNL     1      18.531 -23.837 -26.600  1.00  0.00     0.021 C 
ATOM      8  C   UNL     1      18.453 -22.637 -25.628  1.00  0.00     0.022 C 
ATOM      9  C   UNL     1      18.444 -23.661 -24.456  1.00  0.00    -0.019 C 
ATOM     10  C   UNL     1      17.602 -23.325 -23.194  1.00  0.00     0.012 C 
ATOM     11  C   UNL     1      19.875 -24.044 -23.998  1.00  0.00     0.012 C 
ENDROOT
TORSDOF 0
ENDMDL
MODEL 7
REMARK VINA RESULT:    -4.608      1.778      3.026
REMARK INTER + INTRA:          -4.608
REMARK INTER:                  -4.608
REMARK INTRA:                   0.000
REMARK UNBOUND:                 0.000
REMARK SMILES CC1=CC(=O)[C@H]2C[C@@H]1C2(C)C
REMARK SMILES IDX 1 1 2 2 3 3 4 4 5 5 6 6 7 7 8 8 9 9 10 10 11 11
REMARK H PARENT
REMARK Flexibility Score: inf
ROOT
ATOM      1  C   UNL     1      18.118 -25.347 -25.487  1.00  0.00     0.040 C 
ATOM      2  C   UNL     1      17.627 -23.935 -25.516  1.00  0.00    -0.066 C 
ATOM      3  C   UNL     1      17.115 -23.386 -26.653  1.00  0.00     0.047 C 
ATOM      4  C   UNL     1      16.687 -21.953 -26.562  1.00  0.00     0.159 C 
ATOM      5  O   UNL     1      16.235 -21.322 -27.553  1.00  0.00    -0.295 OA
ATOM      6  C   UNL     1      16.839 -21.310 -25.183  1.00  0.00     0.067 C 
ATOM      7  C   UNL     1      16.270 -22.365 -24.210  1.00  0.00     0.021 C 
ATOM      8  C   UNL     1      17.660 -23.037 -24.262  1.00  0.00     0.022 C 
ATOM      9  C   UNL     1      18.255 -21.648 -24.634  1.00  0.00    -0.019 C 
ATOM     10  C   UNL     1      19.458 -21.603 -25.616  1.00  0.00     0.012 C 
ATOM     11  C   UNL     1      18.617 -20.808 -23.383  1.00  0.00     0.012 C 
ENDROOT
TORSDOF 0
ENDMDL
MODEL 8
REMARK VINA RESULT:    -4.511      1.828      3.074
REMARK INTER + INTRA:          -4.511
REMARK INTER:                  -4.511
REMARK INTRA:                   0.000
REMARK UNBOUND:                 0.000
REMARK SMILES CC1=CC(=O)[C@H]2C[C@@H]1C2(C)C
REMARK SMILES IDX 1 1 2 2 3 3 4 4 5 5 6 6 7 7 8 8 9 9 10 10 11 11
REMARK H PARENT
REMARK Flexibility Score: inf
ROOT
ATOM      1  C   UNL     1      16.215 -21.538 -27.372  1.00  0.00     0.040 C 
ATOM      2  C   UNL     1      16.800 -21.883 -26.039  1.00  0.00    -0.066 C 
ATOM      3  C   UNL     1      17.163 -20.914 -25.152  1.00  0.00     0.047 C 
ATOM      4  C   UNL     1      17.766 -21.387 -23.865  1.00  0.00     0.159 C 
ATOM      5  O   UNL     1      18.178 -20.589 -22.983  1.00  0.00    -0.295 OA
ATOM      6  C   UNL     1      17.849 -22.905 -23.699  1.00  0.00     0.067 C 
ATOM      7  C   UNL     1      16.463 -23.410 -24.151  1.00  0.00     0.021 C 
ATOM      8  C   UNL     1      17.006 -23.346 -25.596  1.00  0.00     0.022 C 
ATOM      9  C   UNL     1      18.435 -23.513 -25.005  1.00  0.00    -0.019 C 
ATOM     10  C   UNL     1      19.610 -22.773 -25.703  1.00  0.00     0.012 C 
ATOM     11  C   UNL     1      18.833 -25.002 -24.835  1.00  0.00     0.012 C 
ENDROOT
TORSDOF 0
ENDMDL
MODEL 9
REMARK VINA RESULT:    -4.374      1.577      3.368
REMARK INTER + INTRA:          -4.374
REMARK INTER:                  -4.374
REMARK INTRA:                   0.000
REMARK UNBOUND:                 0.000
REMARK SMILES CC1=CC(=O)[C@H]2C[C@@H]1C2(C)C
REMARK SMILES IDX 1 1 2 2 3 3 4 4 5 5 6 6 7 7 8 8 9 9 10 10 11 11
REMARK H PARENT
REMARK Flexibility Score: inf
ROOT
ATOM      1  C   UNL     1      16.938 -21.691 -22.286  1.00  0.00     0.040 C 
ATOM      2  C   UNL     1      17.727 -22.676 -23.089  1.00  0.00    -0.066 C 
ATOM      3  C   UNL     1      18.929 -23.146 -22.652  1.00  0.00     0.047 C 
ATOM      4  C   UNL     1      19.635 -24.104 -23.562  1.00  0.00     0.159 C 
ATOM      5  O   UNL     1      20.769 -24.577 -23.289  1.00  0.00    -0.295 OA
ATOM      6  C   UNL     1      18.884 -24.465 -24.844  1.00  0.00     0.067 C 
ATOM      7  C   UNL     1      17.443 -24.748 -24.370  1.00  0.00     0.021 C 
ATOM      8  C   UNL     1      17.213 -23.221 -24.438  1.00  0.00     0.022 C 
ATOM      9  C   UNL     1      18.355 -23.154 -25.493  1.00  0.00    -0.019 C 
ATOM     10  C   UNL     1      19.281 -21.905 -25.495  1.00  0.00     0.012 C 
ATOM     11  C   UNL     1      17.838 -23.378 -26.936  1.00  0.00     0.012 C 
ENDROOT
TORSDOF 0
ENDMDL
