MODEL 1
REMARK VINA RESULT:    -4.751      0.000      0.000
REMARK INTER + INTRA:          -4.751
REMARK INTER:                  -4.751
REMARK INTRA:                   0.000
REMARK UNBOUND:                 0.000
REMARK SMILES C[C@@H]1C(=O)CC[C@@H]2[C@]1(C)CC[C@H]1[C@]2(C)CC[C@]2(C)[C@H]3CC(C)(C)CC[C@]3(C)CC[C@]12C
REMARK SMILES IDX 1 1 2 2 3 3 4 4 5 5 6 6 7 7 8 8 10 9 11 10 12 11 13 12 15 13
REMARK SMILES IDX 16 14 17 15 30 16 29 17 28 18 26 19 19 20 20 21 21 22 24 23
REMARK SMILES IDX 25 24 22 25 23 26 27 27 31 28 18 29 14 30 9 31
REMARK H PARENT
REMARK Flexibility Score: inf
ROOT
ATOM      1  C   UNL     1     123.113 109.905 104.579  1.00  0.00     0.016 C 
ATOM      2  C   UNL     1     123.621 110.957 103.571  1.00  0.00     0.059 C 
ATOM      3  C   UNL     1     125.089 110.710 103.299  1.00  0.00     0.136 C 
ATOM      4  O   UNL     1     125.427 110.034 102.337  1.00  0.00    -0.299 OA
ATOM      5  C   UNL     1     126.125 111.224 104.256  1.00  0.00     0.076 C 
ATOM      6  C   UNL     1     125.854 112.687 104.633  1.00  0.00     0.012 C 
ATOM      7  C   UNL     1     124.381 112.893 105.111  1.00  0.00     0.002 C 
ATOM      8  C   UNL     1     123.391 112.476 103.954  1.00  0.00    -0.020 C 
ATOM      9  C   UNL     1     121.954 112.689 104.452  1.00  0.00     0.008 C 
ATOM     10  C   UNL     1     121.709 114.119 104.925  1.00  0.00     0.005 C 
ATOM     11  C   UNL     1     122.558 114.508 106.182  1.00  0.00     0.002 C 
ATOM     12  C   UNL     1     124.101 114.260 105.910  1.00  0.00    -0.026 C 
ATOM     13  C   UNL     1     124.650 115.477 105.142  1.00  0.00     0.008 C 
ATOM     14  C   UNL     1     124.534 116.778 105.920  1.00  0.00     0.008 C 
ATOM     15  C   UNL     1     123.080 117.207 106.379  1.00  0.00    -0.024 C 
ATOM     16  C   UNL     1     122.145 115.949 106.826  1.00  0.00    -0.024 C 
ATOM     17  C   UNL     1     122.159 115.827 108.392  1.00  0.00     0.008 C 
ATOM     18  C   UNL     1     121.618 117.064 109.145  1.00  0.00     0.007 C 
ATOM     19  C   UNL     1     122.195 118.444 108.664  1.00  0.00    -0.029 C 
ATOM     20  C   UNL     1     123.324 118.234 107.595  1.00  0.00     0.002 C 
ATOM     21  C   UNL     1     123.958 119.596 107.190  1.00  0.00     0.011 C 
ATOM     22  C   UNL     1     124.582 120.366 108.392  1.00  0.00    -0.035 C 
ATOM     23  C   UNL     1     123.585 120.462 109.580  1.00  0.00     0.007 C 
ATOM     24  C   UNL     1     122.855 119.141 109.903  1.00  0.00     0.007 C 
ATOM     25  C   UNL     1     125.898 119.689 108.855  1.00  0.00     0.011 C 
ATOM     26  C   UNL     1     124.934 121.794 107.923  1.00  0.00     0.011 C 
ATOM     27  C   UNL     1     121.038 119.371 108.177  1.00  0.00     0.011 C 
ATOM     28  C   UNL     1     120.627 116.201 106.493  1.00  0.00     0.012 C 
ATOM     29  C   UNL     1     122.472 117.943 105.142  1.00  0.00     0.012 C 
ATOM     30  C   UNL     1     124.843 114.102 107.283  1.00  0.00     0.012 C 
ATOM     31  C   UNL     1     123.584 113.274 102.623  1.00  0.00     0.012 C 
ENDROOT
TORSDOF 0
ENDMDL
MODEL 2
REMARK VINA RESULT:    -4.751     13.158     16.745
REMARK INTER + INTRA:          -4.751
REMARK INTER:                  -4.751
REMARK INTRA:                   0.000
REMARK UNBOUND:                 0.000
REMARK SMILES C[C@@H]1C(=O)CC[C@@H]2[C@]1(C)CC[C@H]1[C@]2(C)CC[C@]2(C)[C@H]3CC(C)(C)CC[C@]3(C)CC[C@]12C
REMARK SMILES IDX 1 1 2 2 3 3 4 4 5 5 6 6 7 7 8 8 10 9 11 10 12 11 13 12 15 13
REMARK SMILES IDX 16 14 17 15 30 16 29 17 28 18 26 19 19 20 20 21 21 22 24 23
REMARK SMILES IDX 25 24 22 25 23 26 27 27 31 28 18 29 14 30 9 31
REMARK H PARENT
REMARK Flexibility Score: inf
ROOT
ATOM      1  C   UNL     1     108.877 122.089 104.615  1.00  0.00     0.016 C 
ATOM      2  C   UNL     1     108.385 121.041 103.595  1.00  0.00     0.059 C 
ATOM      3  C   UNL     1     106.919 121.282 103.310  1.00  0.00     0.136 C 
ATOM      4  O   UNL     1     106.587 121.962 102.348  1.00  0.00    -0.299 OA
ATOM      5  C   UNL     1     105.875 120.756 104.253  1.00  0.00     0.076 C 
ATOM      6  C   UNL     1     106.150 119.293 104.624  1.00  0.00     0.012 C 
ATOM      7  C   UNL     1     107.620 119.092 105.115  1.00  0.00     0.002 C 
ATOM      8  C   UNL     1     108.619 119.521 103.972  1.00  0.00    -0.020 C 
ATOM      9  C   UNL     1     110.052 119.313 104.483  1.00  0.00     0.008 C 
ATOM     10  C   UNL     1     110.300 117.881 104.950  1.00  0.00     0.005 C 
ATOM     11  C   UNL     1     109.440 117.480 106.195  1.00  0.00     0.002 C 
ATOM     12  C   UNL     1     107.899 117.721 105.909  1.00  0.00    -0.026 C 
ATOM     13  C   UNL     1     107.364 116.506 105.128  1.00  0.00     0.008 C 
ATOM     14  C   UNL     1     107.479 115.201 105.900  1.00  0.00     0.008 C 
ATOM     15  C   UNL     1     108.930 114.777 106.371  1.00  0.00    -0.024 C 
ATOM     16  C   UNL     1     109.854 116.037 106.836  1.00  0.00    -0.024 C 
ATOM     17  C   UNL     1     109.824 116.150 108.402  1.00  0.00     0.008 C 
ATOM     18  C   UNL     1     110.364 114.911 109.153  1.00  0.00     0.007 C 
ATOM     19  C   UNL     1     109.799 113.531 108.658  1.00  0.00    -0.029 C 
ATOM     20  C   UNL     1     108.680 113.741 107.578  1.00  0.00     0.002 C 
ATOM     21  C   UNL     1     108.058 112.379 107.159  1.00  0.00     0.011 C 
ATOM     22  C   UNL     1     107.425 111.598 108.349  1.00  0.00    -0.035 C 
ATOM     23  C   UNL     1     108.410 111.500 109.547  1.00  0.00     0.007 C 
ATOM     24  C   UNL     1     109.130 112.823 109.886  1.00  0.00     0.007 C 
ATOM     25  C   UNL     1     106.101 112.264 108.802  1.00  0.00     0.011 C 
ATOM     26  C   UNL     1     107.086 110.170 107.868  1.00  0.00     0.011 C 
ATOM     27  C   UNL     1     110.966 112.613 108.178  1.00  0.00     0.011 C 
ATOM     28  C   UNL     1     111.377 115.795 106.516  1.00  0.00     0.012 C 
ATOM     29  C   UNL     1     109.556 114.052 105.136  1.00  0.00     0.012 C 
ATOM     30  C   UNL     1     107.141 117.867 107.275  1.00  0.00     0.012 C 
ATOM     31  C   UNL     1     108.445 118.730 102.634  1.00  0.00     0.012 C 
ENDROOT
TORSDOF 0
ENDMDL
MODEL 3
REMARK VINA RESULT:    -4.744      8.757     11.868
REMARK INTER + INTRA:          -4.744
REMARK INTER:                  -4.744
REMARK INTRA:                   0.000
REMARK UNBOUND:                 0.000
REMARK SMILES C[C@@H]1C(=O)CC[C@@H]2[C@]1(C)CC[C@H]1[C@]2(C)CC[C@]2(C)[C@H]3CC(C)(C)CC[C@]3(C)CC[C@]12C
REMARK SMILES IDX 1 1 2 2 3 3 4 4 5 5 6 6 7 7 8 8 10 9 11 10 12 11 13 12 15 13
REMARK SMILES IDX 16 14 17 15 30 16 29 17 28 18 26 19 19 20 20 21 21 22 24 23
REMARK SMILES IDX 25 24 22 25 23 26 27 27 31 28 18 29 14 30 9 31
REMARK H PARENT
REMARK Flexibility Score: inf
ROOT
ATOM      1  C   UNL     1     122.086 123.122 104.653  1.00  0.00     0.016 C 
ATOM      2  C   UNL     1     121.049 123.617 103.624  1.00  0.00     0.059 C 
ATOM      3  C   UNL     1     121.293 125.084 103.345  1.00  0.00     0.136 C 
ATOM      4  O   UNL     1     121.983 125.419 102.392  1.00  0.00    -0.299 OA
ATOM      5  C   UNL     1     120.758 126.125 104.286  1.00  0.00     0.076 C 
ATOM      6  C   UNL     1     119.291 125.850 104.641  1.00  0.00     0.012 C 
ATOM      7  C   UNL     1     119.084 124.379 105.126  1.00  0.00     0.002 C 
ATOM      8  C   UNL     1     119.525 123.382 103.984  1.00  0.00    -0.020 C 
ATOM      9  C   UNL     1     119.310 121.948 104.488  1.00  0.00     0.008 C 
ATOM     10  C   UNL     1     117.874 121.700 104.940  1.00  0.00     0.005 C 
ATOM     11  C   UNL     1     117.460 122.556 106.184  1.00  0.00     0.002 C 
ATOM     12  C   UNL     1     117.705 124.098 105.904  1.00  0.00    -0.026 C 
ATOM     13  C   UNL     1     116.498 124.636 105.113  1.00  0.00     0.008 C 
ATOM     14  C   UNL     1     115.185 124.519 105.870  1.00  0.00     0.008 C 
ATOM     15  C   UNL     1     114.755 123.067 106.332  1.00  0.00    -0.024 C 
ATOM     16  C   UNL     1     116.010 122.141 106.807  1.00  0.00    -0.024 C 
ATOM     17  C   UNL     1     116.107 122.167 108.375  1.00  0.00     0.008 C 
ATOM     18  C   UNL     1     114.859 121.625 109.111  1.00  0.00     0.007 C 
ATOM     19  C   UNL     1     113.485 122.192 108.603  1.00  0.00    -0.029 C 
ATOM     20  C   UNL     1     113.708 123.314 107.529  1.00  0.00     0.002 C 
ATOM     21  C   UNL     1     112.350 123.938 107.098  1.00  0.00     0.011 C 
ATOM     22  C   UNL     1     111.557 124.567 108.281  1.00  0.00    -0.035 C 
ATOM     23  C   UNL     1     111.445 123.579 109.476  1.00  0.00     0.007 C 
ATOM     24  C   UNL     1     112.765 122.858 109.826  1.00  0.00     0.007 C 
ATOM     25  C   UNL     1     112.219 125.889 108.746  1.00  0.00     0.011 C 
ATOM     26  C   UNL     1     110.134 124.909 107.787  1.00  0.00     0.011 C 
ATOM     27  C   UNL     1     112.572 121.026 108.110  1.00  0.00     0.011 C 
ATOM     28  C   UNL     1     115.771 120.619 106.481  1.00  0.00     0.012 C 
ATOM     29  C   UNL     1     114.043 122.445 105.088  1.00  0.00     0.012 C 
ATOM     30  C   UNL     1     117.836 124.851 107.274  1.00  0.00     0.012 C 
ATOM     31  C   UNL     1     118.748 123.562 102.639  1.00  0.00     0.012 C 
ENDROOT
TORSDOF 0
ENDMDL
MODEL 4
REMARK VINA RESULT:    -4.743      8.738     11.822
REMARK INTER + INTRA:          -4.743
REMARK INTER:                  -4.743
REMARK INTRA:                   0.000
REMARK UNBOUND:                 0.000
REMARK SMILES C[C@@H]1C(=O)CC[C@@H]2[C@]1(C)CC[C@H]1[C@]2(C)CC[C@]2(C)[C@H]3CC(C)(C)CC[C@]3(C)CC[C@]12C
REMARK SMILES IDX 1 1 2 2 3 3 4 4 5 5 6 6 7 7 8 8 10 9 11 10 12 11 13 12 15 13
REMARK SMILES IDX 16 14 17 15 30 16 29 17 28 18 26 19 19 20 20 21 21 22 24 23
REMARK SMILES IDX 25 24 22 25 23 26 27 27 31 28 18 29 14 30 9 31
REMARK H PARENT
REMARK Flexibility Score: inf
ROOT
ATOM      1  C   UNL     1     109.919 108.879 104.604  1.00  0.00     0.016 C 
ATOM      2  C   UNL     1     110.963 108.383 103.584  1.00  0.00     0.059 C 
ATOM      3  C   UNL     1     110.720 106.916 103.305  1.00  0.00     0.136 C 
ATOM      4  O   UNL     1     110.038 106.581 102.346  1.00  0.00    -0.299 OA
ATOM      5  C   UNL     1     111.247 105.875 104.251  1.00  0.00     0.076 C 
ATOM      6  C   UNL     1     112.712 106.150 104.617  1.00  0.00     0.012 C 
ATOM      7  C   UNL     1     112.916 107.620 105.102  1.00  0.00     0.002 C 
ATOM      8  C   UNL     1     112.485 108.616 103.956  1.00  0.00    -0.020 C 
ATOM      9  C   UNL     1     112.697 110.051 104.461  1.00  0.00     0.008 C 
ATOM     10  C   UNL     1     114.129 110.299 104.924  1.00  0.00     0.005 C 
ATOM     11  C   UNL     1     114.533 109.443 106.171  1.00  0.00     0.002 C 
ATOM     12  C   UNL     1     114.289 107.901 105.891  1.00  0.00    -0.026 C 
ATOM     13  C   UNL     1     115.502 107.362 105.110  1.00  0.00     0.008 C 
ATOM     14  C   UNL     1     116.808 107.478 105.878  1.00  0.00     0.008 C 
ATOM     15  C   UNL     1     117.235 108.930 106.342  1.00  0.00    -0.024 C 
ATOM     16  C   UNL     1     115.978 109.857 106.806  1.00  0.00    -0.024 C 
ATOM     17  C   UNL     1     115.869 109.833 108.373  1.00  0.00     0.008 C 
ATOM     18  C   UNL     1     117.110 110.374 109.119  1.00  0.00     0.007 C 
ATOM     19  C   UNL     1     118.488 109.806 108.623  1.00  0.00    -0.029 C 
ATOM     20  C   UNL     1     118.274 108.683 107.547  1.00  0.00     0.002 C 
ATOM     21  C   UNL     1     119.634 108.057 107.127  1.00  0.00     0.011 C 
ATOM     22  C   UNL     1     120.417 107.428 108.318  1.00  0.00    -0.035 C 
ATOM     23  C   UNL     1     120.520 108.418 109.512  1.00  0.00     0.007 C 
ATOM     24  C   UNL     1     119.199 109.140 109.851  1.00  0.00     0.007 C 
ATOM     25  C   UNL     1     119.751 106.107 108.778  1.00  0.00     0.011 C 
ATOM     26  C   UNL     1     121.843 107.085 107.835  1.00  0.00     0.011 C 
ATOM     27  C   UNL     1     119.406 110.970 108.136  1.00  0.00     0.011 C 
ATOM     28  C   UNL     1     116.221 111.379 106.481  1.00  0.00     0.012 C 
ATOM     29  C   UNL     1     117.958 109.550 105.103  1.00  0.00     0.012 C 
ATOM     30  C   UNL     1     114.146 107.149 107.261  1.00  0.00     0.012 C 
ATOM     31  C   UNL     1     113.272 108.436 102.617  1.00  0.00     0.012 C 
ENDROOT
TORSDOF 0
ENDMDL
MODEL 5
REMARK VINA RESULT:    -4.266      9.369     12.707
REMARK INTER + INTRA:          -4.266
REMARK INTER:                  -4.266
REMARK INTRA:                   0.000
REMARK UNBOUND:                 0.000
REMARK SMILES C[C@@H]1C(=O)CC[C@@H]2[C@]1(C)CC[C@H]1[C@]2(C)CC[C@]2(C)[C@H]3CC(C)(C)CC[C@]3(C)CC[C@]12C
REMARK SMILES IDX 1 1 2 2 3 3 4 4 5 5 6 6 7 7 8 8 10 9 11 10 12 11 13 12 15 13
REMARK SMILES IDX 16 14 17 15 30 16 29 17 28 18 26 19 19 20 20 21 21 22 24 23
REMARK SMILES IDX 25 24 22 25 23 26 27 27 31 28 18 29 14 30 9 31
REMARK H PARENT
REMARK Flexibility Score: inf
ROOT
ATOM      1  C   UNL     1     107.963 116.884 107.866  1.00  0.00     0.016 C 
ATOM      2  C   UNL     1     108.006 115.753 106.817  1.00  0.00     0.059 C 
ATOM      3  C   UNL     1     107.123 114.616 107.283  1.00  0.00     0.136 C 
ATOM      4  O   UNL     1     105.963 114.546 106.900  1.00  0.00    -0.299 OA
ATOM      5  C   UNL     1     107.645 113.622 108.280  1.00  0.00     0.076 C 
ATOM      6  C   UNL     1     109.047 113.132 107.892  1.00  0.00     0.012 C 
ATOM      7  C   UNL     1     110.014 114.326 107.609  1.00  0.00     0.002 C 
ATOM      8  C   UNL     1     109.438 115.201 106.428  1.00  0.00    -0.020 C 
ATOM      9  C   UNL     1     110.408 116.364 106.174  1.00  0.00     0.008 C 
ATOM     10  C   UNL     1     111.828 115.884 105.889  1.00  0.00     0.005 C 
ATOM     11  C   UNL     1     112.491 115.157 107.107  1.00  0.00     0.002 C 
ATOM     12  C   UNL     1     111.579 113.958 107.603  1.00  0.00    -0.026 C 
ATOM     13  C   UNL     1     111.863 112.740 106.703  1.00  0.00     0.008 C 
ATOM     14  C   UNL     1     113.305 112.267 106.773  1.00  0.00     0.008 C 
ATOM     15  C   UNL     1     114.422 113.324 106.393  1.00  0.00    -0.024 C 
ATOM     16  C   UNL     1     114.077 114.837 106.891  1.00  0.00    -0.024 C 
ATOM     17  C   UNL     1     114.839 115.125 108.233  1.00  0.00     0.008 C 
ATOM     18  C   UNL     1     116.380 115.037 108.137  1.00  0.00     0.007 C 
ATOM     19  C   UNL     1     116.932 113.753 107.418  1.00  0.00    -0.029 C 
ATOM     20  C   UNL     1     115.765 112.761 107.076  1.00  0.00     0.002 C 
ATOM     21  C   UNL     1     116.324 111.451 106.451  1.00  0.00     0.011 C 
ATOM     22  C   UNL     1     117.326 110.702 107.380  1.00  0.00    -0.035 C 
ATOM     23  C   UNL     1     118.423 111.663 107.917  1.00  0.00     0.007 C 
ATOM     24  C   UNL     1     117.886 113.019 108.421  1.00  0.00     0.007 C 
ATOM     25  C   UNL     1     116.583 110.030 108.561  1.00  0.00     0.011 C 
ATOM     26  C   UNL     1     118.005 109.583 106.560  1.00  0.00     0.011 C 
ATOM     27  C   UNL     1     117.790 114.158 106.179  1.00  0.00     0.011 C 
ATOM     28  C   UNL     1     114.650 115.923 105.905  1.00  0.00     0.012 C 
ATOM     29  C   UNL     1     114.520 113.259 104.834  1.00  0.00     0.012 C 
ATOM     30  C   UNL     1     111.937 113.626 109.095  1.00  0.00     0.012 C 
ATOM     31  C   UNL     1     109.232 114.418 105.090  1.00  0.00     0.012 C 
ENDROOT
TORSDOF 0
ENDMDL
MODEL 6
REMARK VINA RESULT:    -4.226      4.354      6.947
REMARK INTER + INTRA:          -4.226
REMARK INTER:                  -4.226
REMARK INTRA:                   0.000
REMARK UNBOUND:                 0.000
REMARK SMILES C[C@@H]1C(=O)CC[C@@H]2[C@]1(C)CC[C@H]1[C@]2(C)CC[C@]2(C)[C@H]3CC(C)(C)CC[C@]3(C)CC[C@]12C
REMARK SMILES IDX 1 1 2 2 3 3 4 4 5 5 6 6 7 7 8 8 10 9 11 10 12 11 13 12 15 13
REMARK SMILES IDX 16 14 17 15 30 16 29 17 28 18 26 19 19 20 20 21 21 22 24 23
REMARK SMILES IDX 25 24 22 25 23 26 27 27 31 28 18 29 14 30 9 31
REMARK H PARENT
REMARK Flexibility Score: inf
ROOT
ATOM      1  C   UNL     1     123.995 115.031 107.815  1.00  0.00     0.016 C 
ATOM      2  C   UNL     1     123.962 116.152 106.755  1.00  0.00     0.059 C 
ATOM      3  C   UNL     1     124.864 117.280 107.204  1.00  0.00     0.136 C 
ATOM      4  O   UNL     1     126.021 117.330 106.813  1.00  0.00    -0.299 OA
ATOM      5  C   UNL     1     124.361 118.293 108.193  1.00  0.00     0.076 C 
ATOM      6  C   UNL     1     122.965 118.798 107.809  1.00  0.00     0.012 C 
ATOM      7  C   UNL     1     121.979 117.615 107.545  1.00  0.00     0.002 C 
ATOM      8  C   UNL     1     122.535 116.721 106.369  1.00  0.00    -0.020 C 
ATOM      9  C   UNL     1     121.547 115.569 106.133  1.00  0.00     0.008 C 
ATOM     10  C   UNL     1     120.132 116.066 105.851  1.00  0.00     0.005 C 
ATOM     11  C   UNL     1     119.487 116.815 107.066  1.00  0.00     0.002 C 
ATOM     12  C   UNL     1     120.419 118.006 107.545  1.00  0.00    -0.026 C 
ATOM     13  C   UNL     1     120.147 119.218 106.633  1.00  0.00     0.008 C 
ATOM     14  C   UNL     1     118.712 119.713 106.707  1.00  0.00     0.008 C 
ATOM     15  C   UNL     1     117.578 118.668 106.345  1.00  0.00    -0.024 C 
ATOM     16  C   UNL     1     117.905 117.155 106.857  1.00  0.00    -0.024 C 
ATOM     17  C   UNL     1     117.147 116.892 108.206  1.00  0.00     0.008 C 
ATOM     18  C   UNL     1     115.607 117.001 108.118  1.00  0.00     0.007 C 
ATOM     19  C   UNL     1     115.069 118.285 107.390  1.00  0.00    -0.029 C 
ATOM     20  C   UNL     1     116.247 119.257 107.031  1.00  0.00     0.002 C 
ATOM     21  C   UNL     1     115.703 120.569 106.396  1.00  0.00     0.011 C 
ATOM     22  C   UNL     1     114.718 121.341 107.323  1.00  0.00    -0.035 C 
ATOM     23  C   UNL     1     113.610 120.402 107.877  1.00  0.00     0.007 C 
ATOM     24  C   UNL     1     114.132 119.043 108.392  1.00  0.00     0.007 C 
ATOM     25  C   UNL     1     115.478 122.015 108.493  1.00  0.00     0.011 C 
ATOM     26  C   UNL     1     114.050 122.461 106.496  1.00  0.00     0.011 C 
ATOM     27  C   UNL     1     114.197 117.880 106.161  1.00  0.00     0.011 C 
ATOM     28  C   UNL     1     117.310 116.068 105.885  1.00  0.00     0.012 C 
ATOM     29  C   UNL     1     117.471 118.719 104.786  1.00  0.00     0.012 C 
ATOM     30  C   UNL     1     120.075 118.358 109.035  1.00  0.00     0.012 C 
ATOM     31  C   UNL     1     122.744 117.486 105.022  1.00  0.00     0.012 C 
ENDROOT
TORSDOF 0
ENDMDL
MODEL 7
REMARK VINA RESULT:    -4.221      5.055      6.595
REMARK INTER + INTRA:          -4.221
REMARK INTER:                  -4.221
REMARK INTRA:                   0.000
REMARK UNBOUND:                 0.000
REMARK SMILES C[C@@H]1C(=O)CC[C@@H]2[C@]1(C)CC[C@H]1[C@]2(C)CC[C@]2(C)[C@H]3CC(C)(C)CC[C@]3(C)CC[C@]12C
REMARK SMILES IDX 1 1 2 2 3 3 4 4 5 5 6 6 7 7 8 8 10 9 11 10 12 11 13 12 15 13
REMARK SMILES IDX 16 14 17 15 30 16 29 17 28 18 26 19 19 20 20 21 21 22 24 23
REMARK SMILES IDX 25 24 22 25 23 26 27 27 31 28 18 29 14 30 9 31
REMARK H PARENT
REMARK Flexibility Score: inf
ROOT
ATOM      1  C   UNL     1     114.989 108.015 107.902  1.00  0.00     0.016 C 
ATOM      2  C   UNL     1     116.091 108.038 106.823  1.00  0.00     0.059 C 
ATOM      3  C   UNL     1     117.222 107.130 107.255  1.00  0.00     0.136 C 
ATOM      4  O   UNL     1     117.257 105.971 106.868  1.00  0.00    -0.299 OA
ATOM      5  C   UNL     1     118.254 107.630 108.224  1.00  0.00     0.076 C 
ATOM      6  C   UNL     1     118.762 109.022 107.825  1.00  0.00     0.012 C 
ATOM      7  C   UNL     1     117.580 110.014 107.578  1.00  0.00     0.002 C 
ATOM      8  C   UNL     1     116.662 109.459 106.421  1.00  0.00    -0.020 C 
ATOM      9  C   UNL     1     115.512 110.453 106.201  1.00  0.00     0.008 C 
ATOM     10  C   UNL     1     116.013 111.864 105.905  1.00  0.00     0.005 C 
ATOM     11  C   UNL     1     116.787 112.509 107.104  1.00  0.00     0.002 C 
ATOM     12  C   UNL     1     117.980 111.572 107.565  1.00  0.00    -0.026 C 
ATOM     13  C   UNL     1     119.178 111.832 106.631  1.00  0.00     0.008 C 
ATOM     14  C   UNL     1     119.683 113.264 106.690  1.00  0.00     0.008 C 
ATOM     15  C   UNL     1     118.638 114.403 106.342  1.00  0.00    -0.024 C 
ATOM     16  C   UNL     1     117.133 114.088 106.882  1.00  0.00    -0.024 C 
ATOM     17  C   UNL     1     116.899 114.853 108.233  1.00  0.00     0.008 C 
ATOM     18  C   UNL     1     117.016 116.392 108.137  1.00  0.00     0.007 C 
ATOM     19  C   UNL     1     118.290 116.919 107.383  1.00  0.00    -0.029 C 
ATOM     20  C   UNL     1     119.248 115.734 107.012  1.00  0.00     0.002 C 
ATOM     21  C   UNL     1     120.552 116.267 106.351  1.00  0.00     0.011 C 
ATOM     22  C   UNL     1     121.346 117.251 107.260  1.00  0.00    -0.035 C 
ATOM     23  C   UNL     1     120.424 118.366 107.827  1.00  0.00     0.007 C 
ATOM     24  C   UNL     1     119.071 117.856 108.368  1.00  0.00     0.007 C 
ATOM     25  C   UNL     1     122.036 116.491 108.421  1.00  0.00     0.011 C 
ATOM     26  C   UNL     1     122.456 117.909 106.411  1.00  0.00     0.011 C 
ATOM     27  C   UNL     1     117.869 117.789 106.158  1.00  0.00     0.011 C 
ATOM     28  C   UNL     1     116.032 114.686 105.928  1.00  0.00     0.012 C 
ATOM     29  C   UNL     1     118.662 114.504 104.782  1.00  0.00     0.012 C 
ATOM     30  C   UNL     1     118.361 111.919 109.047  1.00  0.00     0.012 C 
ATOM     31  C   UNL     1     117.402 109.240 105.061  1.00  0.00     0.012 C 
ENDROOT
TORSDOF 0
ENDMDL
MODEL 8
REMARK VINA RESULT:    -4.215      9.011     12.887
REMARK INTER + INTRA:          -4.215
REMARK INTER:                  -4.215
REMARK INTRA:                   0.000
REMARK UNBOUND:                 0.000
REMARK SMILES C[C@@H]1C(=O)CC[C@@H]2[C@]1(C)CC[C@H]1[C@]2(C)CC[C@]2(C)[C@H]3CC(C)(C)CC[C@]3(C)CC[C@]12C
REMARK SMILES IDX 1 1 2 2 3 3 4 4 5 5 6 6 7 7 8 8 10 9 11 10 12 11 13 12 15 13
REMARK SMILES IDX 16 14 17 15 30 16 29 17 28 18 26 19 19 20 20 21 21 22 24 23
REMARK SMILES IDX 25 24 22 25 23 26 27 27 31 28 18 29 14 30 9 31
REMARK H PARENT
REMARK Flexibility Score: inf
ROOT
ATOM      1  C   UNL     1     117.017 123.977 107.860  1.00  0.00     0.016 C 
ATOM      2  C   UNL     1     115.908 123.949 106.788  1.00  0.00     0.059 C 
ATOM      3  C   UNL     1     114.777 124.854 107.226  1.00  0.00     0.136 C 
ATOM      4  O   UNL     1     114.735 126.013 106.837  1.00  0.00    -0.299 OA
ATOM      5  C   UNL     1     113.752 124.353 108.203  1.00  0.00     0.076 C 
ATOM      6  C   UNL     1     113.247 122.958 107.811  1.00  0.00     0.012 C 
ATOM      7  C   UNL     1     114.429 121.970 107.558  1.00  0.00     0.002 C 
ATOM      8  C   UNL     1     115.339 122.525 106.393  1.00  0.00    -0.020 C 
ATOM      9  C   UNL     1     116.490 121.534 106.167  1.00  0.00     0.008 C 
ATOM     10  C   UNL     1     115.991 120.121 105.878  1.00  0.00     0.005 C 
ATOM     11  C   UNL     1     115.228 119.476 107.083  1.00  0.00     0.002 C 
ATOM     12  C   UNL     1     114.034 120.411 107.550  1.00  0.00    -0.026 C 
ATOM     13  C   UNL     1     112.831 120.145 106.625  1.00  0.00     0.008 C 
ATOM     14  C   UNL     1     112.332 118.711 106.690  1.00  0.00     0.008 C 
ATOM     15  C   UNL     1     113.377 117.575 106.337  1.00  0.00    -0.024 C 
ATOM     16  C   UNL     1     114.885 117.896 106.866  1.00  0.00    -0.024 C 
ATOM     17  C   UNL     1     115.131 117.134 108.218  1.00  0.00     0.008 C 
ATOM     18  C   UNL     1     115.018 115.594 108.125  1.00  0.00     0.007 C 
ATOM     19  C   UNL     1     113.740 115.062 107.382  1.00  0.00    -0.029 C 
ATOM     20  C   UNL     1     112.776 116.244 107.015  1.00  0.00     0.002 C 
ATOM     21  C   UNL     1     111.470 115.705 106.363  1.00  0.00     0.011 C 
ATOM     22  C   UNL     1     110.685 114.720 107.280  1.00  0.00    -0.035 C 
ATOM     23  C   UNL     1     111.614 113.609 107.842  1.00  0.00     0.007 C 
ATOM     24  C   UNL     1     112.969 114.125 108.373  1.00  0.00     0.007 C 
ATOM     25  C   UNL     1     110.000 115.480 108.444  1.00  0.00     0.011 C 
ATOM     26  C   UNL     1     109.572 114.057 106.440  1.00  0.00     0.011 C 
ATOM     27  C   UNL     1     114.156 114.191 106.155  1.00  0.00     0.011 C 
ATOM     28  C   UNL     1     115.981 117.300 105.906  1.00  0.00     0.012 C 
ATOM     29  C   UNL     1     113.343 117.470 104.778  1.00  0.00     0.012 C 
ATOM     30  C   UNL     1     113.665 120.065 109.035  1.00  0.00     0.012 C 
ATOM     31  C   UNL     1     114.588 122.739 105.038  1.00  0.00     0.012 C 
ENDROOT
TORSDOF 0
ENDMDL
MODEL 9
REMARK VINA RESULT:    -4.158      9.354     11.059
REMARK INTER + INTRA:          -4.158
REMARK INTER:                  -4.158
REMARK INTRA:                   0.000
REMARK UNBOUND:                 0.000
REMARK SMILES C[C@@H]1C(=O)CC[C@@H]2[C@]1(C)CC[C@H]1[C@]2(C)CC[C@]2(C)[C@H]3CC(C)(C)CC[C@]3(C)CC[C@]12C
REMARK SMILES IDX 1 1 2 2 3 3 4 4 5 5 6 6 7 7 8 8 10 9 11 10 12 11 13 12 15 13
REMARK SMILES IDX 16 14 17 15 30 16 29 17 28 18 26 19 19 20 20 21 21 22 24 23
REMARK SMILES IDX 25 24 22 25 23 26 27 27 31 28 18 29 14 30 9 31
REMARK H PARENT
REMARK Flexibility Score: inf
ROOT
ATOM      1  C   UNL     1     111.138 115.396 107.615  1.00  0.00     0.016 C 
ATOM      2  C   UNL     1     112.292 115.477 106.595  1.00  0.00     0.059 C 
ATOM      3  C   UNL     1     113.462 114.668 107.110  1.00  0.00     0.136 C 
ATOM      4  O   UNL     1     113.605 113.506 106.756  1.00  0.00    -0.299 OA
ATOM      5  C   UNL     1     114.401 115.267 108.118  1.00  0.00     0.076 C 
ATOM      6  C   UNL     1     114.824 116.684 107.709  1.00  0.00     0.012 C 
ATOM      7  C   UNL     1     113.587 117.577 107.374  1.00  0.00     0.002 C 
ATOM      8  C   UNL     1     112.776 116.928 106.185  1.00  0.00    -0.020 C 
ATOM      9  C   UNL     1     111.569 117.827 105.879  1.00  0.00     0.008 C 
ATOM     10  C   UNL     1     111.979 119.264 105.572  1.00  0.00     0.005 C 
ATOM     11  C   UNL     1     112.636 119.994 106.791  1.00  0.00     0.002 C 
ATOM     12  C   UNL     1     113.870 119.160 107.339  1.00  0.00    -0.026 C 
ATOM     13  C   UNL     1     115.093 119.489 106.462  1.00  0.00     0.008 C 
ATOM     14  C   UNL     1     115.486 120.957 106.509  1.00  0.00     0.008 C 
ATOM     15  C   UNL     1     114.380 122.005 106.076  1.00  0.00    -0.024 C 
ATOM     16  C   UNL     1     112.875 121.589 106.545  1.00  0.00    -0.024 C 
ATOM     17  C   UNL     1     112.512 122.365 107.862  1.00  0.00     0.008 C 
ATOM     18  C   UNL     1     112.519 123.905 107.730  1.00  0.00     0.007 C 
ATOM     19  C   UNL     1     113.789 124.510 107.030  1.00  0.00    -0.029 C 
ATOM     20  C   UNL     1     114.852 123.393 106.742  1.00  0.00     0.002 C 
ATOM     21  C   UNL     1     116.146 124.008 106.135  1.00  0.00     0.011 C 
ATOM     22  C   UNL     1     116.814 125.070 107.058  1.00  0.00    -0.035 C 
ATOM     23  C   UNL     1     115.782 126.125 107.545  1.00  0.00     0.007 C 
ATOM     24  C   UNL     1     114.444 125.526 108.028  1.00  0.00     0.007 C 
ATOM     25  C   UNL     1     117.495 124.391 108.273  1.00  0.00     0.011 C 
ATOM     26  C   UNL     1     117.916 125.791 106.251  1.00  0.00     0.011 C 
ATOM     27  C   UNL     1     113.371 125.317 105.762  1.00  0.00     0.011 C 
ATOM     28  C   UNL     1     111.786 122.079 105.519  1.00  0.00     0.012 C 
ATOM     29  C   UNL     1     114.480 122.072 104.518  1.00  0.00     0.012 C 
ATOM     30  C   UNL     1     114.143 119.569 108.829  1.00  0.00     0.012 C 
ATOM     31  C   UNL     1     113.603 116.735 104.872  1.00  0.00     0.012 C 
ENDROOT
TORSDOF 0
ENDMDL
