MODEL 1
REMARK VINA RESULT:    -4.395      0.000      0.000
REMARK INTER + INTRA:          -6.900
REMARK INTER:                  -5.936
REMARK INTRA:                  -0.964
REMARK UNBOUND:                -0.964
REMARK SMILES O=C[C@H](O)[C@@H](O)[C@H](O)CO
REMARK SMILES IDX 7 1 9 2 10 3 5 5 3 6 2 7 1 8 4 9 6 11 8 13
REMARK H PARENT 10 4 4 10 6 12 8 14
REMARK Flexibility Score: inf
ROOT
ATOM      1  C   UNL     1     -99.587 -62.002 -65.766  1.00  0.00     0.171 C 
ENDROOT
BRANCH   1   2
ATOM      2  C   UNL     1    -100.022 -62.071 -64.294  1.00  0.00     0.190 C 
BRANCH   2   3
ATOM      3  O   UNL     1    -100.877 -61.002 -63.991  1.00  0.00    -0.394 OA
ATOM      4  H   UNL     1    -100.416 -60.471 -63.291  1.00  0.00     0.210 HD
ENDBRANCH   2   3
ENDBRANCH   1   2
BRANCH   1   5
ATOM      5  C   UNL     1     -98.677 -60.774 -66.039  1.00  0.00     0.181 C 
BRANCH   5   6
ATOM      6  C   UNL     1     -99.397 -59.664 -66.847  1.00  0.00     0.209 C 
BRANCH   6   7
ATOM      7  C   UNL     1     -98.443 -58.562 -67.212  1.00  0.00     0.258 C 
ATOM      8  O   UNL     1     -98.099 -57.740 -66.378  1.00  0.00    -0.300 OA
ENDBRANCH   6   7
BRANCH   6   9
ATOM      9  O   UNL     1    -100.429 -59.107 -66.076  1.00  0.00    -0.383 OA
ATOM     10  H   UNL     1    -100.673 -58.240 -66.495  1.00  0.00     0.211 HD
ENDBRANCH   6   9
ENDBRANCH   5   6
BRANCH   5  11
ATOM     11  O   UNL     1     -98.169 -60.254 -64.834  1.00  0.00    -0.387 OA
ATOM     12  H   UNL     1     -98.586 -59.365 -64.688  1.00  0.00     0.211 HD
ENDBRANCH   5  11
ENDBRANCH   1   5
BRANCH   1  13
ATOM     13  O   UNL     1    -100.725 -61.945 -66.589  1.00  0.00    -0.388 OA
ATOM     14  H   UNL     1    -100.402 -61.902 -67.527  1.00  0.00     0.211 HD
ENDBRANCH   1  13
TORSDOF 8
ENDMDL
MODEL 2
REMARK VINA RESULT:    -4.230      1.594      3.002
REMARK INTER + INTRA:          -6.678
REMARK INTER:                  -5.764
REMARK INTRA:                  -0.914
REMARK UNBOUND:                -0.964
REMARK SMILES O=C[C@H](O)[C@@H](O)[C@H](O)CO
REMARK SMILES IDX 7 1 9 2 10 3 5 5 3 6 2 7 1 8 4 9 6 11 8 13
REMARK H PARENT 10 4 4 10 6 12 8 14
REMARK Flexibility Score: inf
ROOT
ATOM      1  C   UNL     1     -98.429 -61.604 -64.937  1.00  0.00     0.171 C 
ENDROOT
BRANCH   1   2
ATOM      2  C   UNL     1     -97.039 -61.181 -64.434  1.00  0.00     0.190 C 
BRANCH   2   3
ATOM      3  O   UNL     1     -97.007 -59.798 -64.207  1.00  0.00    -0.394 OA
ATOM      4  H   UNL     1     -96.487 -59.408 -64.956  1.00  0.00     0.210 HD
ENDBRANCH   2   3
ENDBRANCH   1   2
BRANCH   1   5
ATOM      5  C   UNL     1     -98.789 -60.910 -66.279  1.00  0.00     0.181 C 
BRANCH   5   6
ATOM      6  C   UNL     1     -99.985 -61.585 -66.998  1.00  0.00     0.209 C 
BRANCH   6   7
ATOM      7  C   UNL     1    -101.212 -60.721 -66.924  1.00  0.00     0.258 C 
ATOM      8  O   UNL     1    -101.630 -60.330 -65.846  1.00  0.00    -0.300 OA
ENDBRANCH   6   7
BRANCH   6   9
ATOM      9  O   UNL     1    -100.280 -62.812 -66.383  1.00  0.00    -0.383 OA
ATOM     10  H   UNL     1     -99.825 -62.813 -65.500  1.00  0.00     0.211 HD
ENDBRANCH   6   9
ENDBRANCH   5   6
BRANCH   5  11
ATOM     11  O   UNL     1     -99.045 -59.541 -66.077  1.00  0.00    -0.387 OA
ATOM     12  H   UNL     1     -98.447 -59.225 -65.351  1.00  0.00     0.211 HD
ENDBRANCH   5  11
ENDBRANCH   1   5
BRANCH   1  13
ATOM     13  O   UNL     1     -99.394 -61.291 -63.965  1.00  0.00    -0.388 OA
ATOM     14  H   UNL     1     -99.777 -62.152 -63.650  1.00  0.00     0.211 HD
ENDBRANCH   1  13
TORSDOF 8
ENDMDL
MODEL 3
REMARK VINA RESULT:    -4.186      1.194      3.959
REMARK INTER + INTRA:          -6.618
REMARK INTER:                  -5.940
REMARK INTRA:                  -0.678
REMARK UNBOUND:                -0.964
REMARK SMILES O=C[C@H](O)[C@@H](O)[C@H](O)CO
REMARK SMILES IDX 7 1 9 2 10 3 5 5 3 6 2 7 1 8 4 9 6 11 8 13
REMARK H PARENT 10 4 4 10 6 12 8 14
REMARK Flexibility Score: inf
ROOT
ATOM      1  C   UNL     1     -97.340 -59.458 -65.928  1.00  0.00     0.171 C 
ENDROOT
BRANCH   1   2
ATOM      2  C   UNL     1     -97.392 -57.982 -66.353  1.00  0.00     0.190 C 
BRANCH   2   3
ATOM      3  O   UNL     1     -98.055 -57.855 -67.582  1.00  0.00    -0.394 OA
ATOM      4  H   UNL     1     -97.700 -57.029 -68.001  1.00  0.00     0.210 HD
ENDBRANCH   2   3
ENDBRANCH   1   2
BRANCH   1   5
ATOM      5  C   UNL     1     -98.670 -60.194 -66.242  1.00  0.00     0.181 C 
BRANCH   5   6
ATOM      6  C   UNL     1     -98.823 -61.517 -65.449  1.00  0.00     0.209 C 
BRANCH   6   7
ATOM      7  C   UNL     1     -99.821 -62.425 -66.110  1.00  0.00     0.258 C 
ATOM      8  O   UNL     1    -100.362 -62.096 -67.154  1.00  0.00    -0.300 OA
ENDBRANCH   6   7
BRANCH   6   9
ATOM      9  O   UNL     1     -99.278 -61.244 -64.150  1.00  0.00    -0.383 OA
ATOM     10  H   UNL     1     -99.160 -62.075 -63.618  1.00  0.00     0.211 HD
ENDBRANCH   6   9
ENDBRANCH   5   6
BRANCH   5  11
ATOM     11  O   UNL     1     -99.773 -59.349 -66.007  1.00  0.00    -0.387 OA
ATOM     12  H   UNL     1     -99.682 -58.561 -66.604  1.00  0.00     0.211 HD
ENDBRANCH   5  11
ENDBRANCH   1   5
BRANCH   1  13
ATOM     13  O   UNL     1     -97.062 -59.540 -64.553  1.00  0.00    -0.388 OA
ATOM     14  H   UNL     1     -96.138 -59.201 -64.423  1.00  0.00     0.211 HD
ENDBRANCH   1  13
TORSDOF 8
ENDMDL
MODEL 4
REMARK VINA RESULT:    -4.138      1.702      3.032
REMARK INTER + INTRA:          -6.553
REMARK INTER:                  -5.856
REMARK INTRA:                  -0.698
REMARK UNBOUND:                -0.964
REMARK SMILES O=C[C@H](O)[C@@H](O)[C@H](O)CO
REMARK SMILES IDX 7 1 9 2 10 3 5 5 3 6 2 7 1 8 4 9 6 11 8 13
REMARK H PARENT 10 4 4 10 6 12 8 14
REMARK Flexibility Score: inf
ROOT
ATOM      1  C   UNL     1     -99.744 -60.129 -66.435  1.00  0.00     0.171 C 
ENDROOT
BRANCH   1   2
ATOM      2  C   UNL     1    -101.210 -60.378 -66.045  1.00  0.00     0.190 C 
BRANCH   2   3
ATOM      3  O   UNL     1    -101.542 -59.631 -64.906  1.00  0.00    -0.394 OA
ATOM      4  H   UNL     1    -101.075 -58.761 -65.002  1.00  0.00     0.210 HD
ENDBRANCH   2   3
ENDBRANCH   1   2
BRANCH   1   5
ATOM      5  C   UNL     1     -98.770 -60.991 -65.587  1.00  0.00     0.181 C 
BRANCH   5   6
ATOM      6  C   UNL     1     -97.329 -60.418 -65.565  1.00  0.00     0.209 C 
BRANCH   6   7
ATOM      7  C   UNL     1     -96.331 -61.492 -65.239  1.00  0.00     0.258 C 
ATOM      8  O   UNL     1     -96.499 -62.223 -64.276  1.00  0.00    -0.300 OA
ENDBRANCH   6   7
BRANCH   6   9
ATOM      9  O   UNL     1     -97.229 -59.419 -64.584  1.00  0.00    -0.383 OA
ATOM     10  H   UNL     1     -97.827 -59.683 -63.836  1.00  0.00     0.211 HD
ENDBRANCH   6   9
ENDBRANCH   5   6
BRANCH   5  11
ATOM     11  O   UNL     1     -99.257 -61.148 -64.276  1.00  0.00    -0.387 OA
ATOM     12  H   UNL     1     -98.878 -61.989 -63.911  1.00  0.00     0.211 HD
ENDBRANCH   5  11
ENDBRANCH   1   5
BRANCH   1  13
ATOM     13  O   UNL     1     -99.441 -58.766 -66.271  1.00  0.00    -0.388 OA
ATOM     14  H   UNL     1     -99.845 -58.286 -67.041  1.00  0.00     0.211 HD
ENDBRANCH   1  13
TORSDOF 8
ENDMDL
MODEL 5
REMARK VINA RESULT:    -4.138      1.220      1.609
REMARK INTER + INTRA:          -6.553
REMARK INTER:                  -5.732
REMARK INTRA:                  -0.821
REMARK UNBOUND:                -0.964
REMARK SMILES O=C[C@H](O)[C@@H](O)[C@H](O)CO
REMARK SMILES IDX 7 1 9 2 10 3 5 5 3 6 2 7 1 8 4 9 6 11 8 13
REMARK H PARENT 10 4 4 10 6 12 8 14
REMARK Flexibility Score: inf
ROOT
ATOM      1  C   UNL     1     -99.603 -60.789 -66.046  1.00  0.00     0.171 C 
ENDROOT
BRANCH   1   2
ATOM      2  C   UNL     1    -100.295 -61.673 -64.997  1.00  0.00     0.190 C 
BRANCH   2   3
ATOM      3  O   UNL     1    -100.815 -60.882 -63.964  1.00  0.00    -0.394 OA
ATOM      4  H   UNL     1    -101.226 -61.511 -63.316  1.00  0.00     0.210 HD
ENDBRANCH   2   3
ENDBRANCH   1   2
BRANCH   1   5
ATOM      5  C   UNL     1     -98.072 -60.700 -65.804  1.00  0.00     0.181 C 
BRANCH   5   6
ATOM      6  C   UNL     1     -97.344 -59.856 -66.881  1.00  0.00     0.209 C 
BRANCH   6   7
ATOM      7  C   UNL     1     -97.052 -58.473 -66.372  1.00  0.00     0.258 C 
ATOM      8  O   UNL     1     -97.925 -57.620 -66.363  1.00  0.00    -0.300 OA
ENDBRANCH   6   7
BRANCH   6   9
ATOM      9  O   UNL     1     -98.154 -59.738 -68.022  1.00  0.00    -0.383 OA
ATOM     10  H   UNL     1     -99.029 -59.374 -67.722  1.00  0.00     0.211 HD
ENDBRANCH   6   9
ENDBRANCH   5   6
BRANCH   5  11
ATOM     11  O   UNL     1     -97.801 -60.196 -64.518  1.00  0.00    -0.387 OA
ATOM     12  H   UNL     1     -96.819 -60.070 -64.443  1.00  0.00     0.211 HD
ENDBRANCH   5  11
ENDBRANCH   1   5
BRANCH   1  13
ATOM     13  O   UNL     1    -100.166 -59.501 -66.018  1.00  0.00    -0.388 OA
ATOM     14  H   UNL     1    -100.850 -59.468 -66.738  1.00  0.00     0.211 HD
ENDBRANCH   1  13
TORSDOF 8
ENDMDL
MODEL 6
REMARK VINA RESULT:    -3.978      1.733      2.179
REMARK INTER + INTRA:          -6.337
REMARK INTER:                  -5.803
REMARK INTRA:                  -0.534
REMARK UNBOUND:                -0.964
REMARK SMILES O=C[C@H](O)[C@@H](O)[C@H](O)CO
REMARK SMILES IDX 7 1 9 2 10 3 5 5 3 6 2 7 1 8 4 9 6 11 8 13
REMARK H PARENT 10 4 4 10 6 12 8 14
REMARK Flexibility Score: inf
ROOT
ATOM      1  C   UNL     1     -99.857 -62.235 -65.178  1.00  0.00     0.171 C 
ENDROOT
BRANCH   1   2
ATOM      2  C   UNL     1    -100.815 -61.034 -65.141  1.00  0.00     0.190 C 
BRANCH   2   3
ATOM      3  O   UNL     1    -101.169 -60.737 -63.817  1.00  0.00    -0.394 OA
ATOM      4  H   UNL     1    -102.029 -61.202 -63.651  1.00  0.00     0.210 HD
ENDBRANCH   2   3
ENDBRANCH   1   2
BRANCH   1   5
ATOM      5  C   UNL     1     -98.384 -61.802 -64.948  1.00  0.00     0.181 C 
BRANCH   5   6
ATOM      6  C   UNL     1     -98.047 -60.446 -65.620  1.00  0.00     0.209 C 
BRANCH   6   7
ATOM      7  C   UNL     1     -97.320 -60.657 -66.917  1.00  0.00     0.258 C 
ATOM      8  O   UNL     1     -97.845 -61.278 -67.828  1.00  0.00    -0.300 OA
ENDBRANCH   6   7
BRANCH   6   9
ATOM      9  O   UNL     1     -97.218 -59.690 -64.775  1.00  0.00    -0.383 OA
ATOM     10  H   UNL     1     -97.515 -59.864 -63.843  1.00  0.00     0.211 HD
ENDBRANCH   6   9
ENDBRANCH   5   6
BRANCH   5  11
ATOM     11  O   UNL     1     -98.088 -61.757 -63.573  1.00  0.00    -0.387 OA
ATOM     12  H   UNL     1     -98.481 -60.923 -63.206  1.00  0.00     0.211 HD
ENDBRANCH   5  11
ENDBRANCH   1   5
BRANCH   1  13
ATOM     13  O   UNL     1     -99.974 -62.889 -66.417  1.00  0.00    -0.388 OA
ATOM     14  H   UNL     1     -99.665 -63.823 -66.281  1.00  0.00     0.211 HD
ENDBRANCH   1  13
TORSDOF 8
ENDMDL
MODEL 7
REMARK VINA RESULT:    -3.935      1.668      2.135
REMARK INTER + INTRA:          -6.280
REMARK INTER:                  -5.790
REMARK INTRA:                  -0.489
REMARK UNBOUND:                -0.964
REMARK SMILES O=C[C@H](O)[C@@H](O)[C@H](O)CO
REMARK SMILES IDX 7 1 9 2 10 3 5 5 3 6 2 7 1 8 4 9 6 11 8 13
REMARK H PARENT 10 4 4 10 6 12 8 14
REMARK Flexibility Score: inf
ROOT
ATOM      1  C   UNL     1     -99.958 -60.945 -65.899  1.00  0.00     0.171 C 
ENDROOT
BRANCH   1   2
ATOM      2  C   UNL     1    -100.306 -61.598 -64.552  1.00  0.00     0.190 C 
BRANCH   2   3
ATOM      3  O   UNL     1    -101.219 -60.800 -63.848  1.00  0.00    -0.394 OA
ATOM      4  H   UNL     1    -101.170 -61.096 -62.902  1.00  0.00     0.210 HD
ENDBRANCH   2   3
ENDBRANCH   1   2
BRANCH   1   5
ATOM      5  C   UNL     1     -98.423 -60.844 -66.108  1.00  0.00     0.181 C 
BRANCH   5   6
ATOM      6  C   UNL     1     -98.039 -60.531 -67.577  1.00  0.00     0.209 C 
BRANCH   6   7
ATOM      7  C   UNL     1     -96.635 -60.976 -67.870  1.00  0.00     0.258 C 
ATOM      8  O   UNL     1     -95.815 -61.071 -66.971  1.00  0.00    -0.300 OA
ENDBRANCH   6   7
BRANCH   6   9
ATOM      9  O   UNL     1     -98.113 -59.147 -67.805  1.00  0.00    -0.383 OA
ATOM     10  H   UNL     1     -98.793 -59.004 -68.515  1.00  0.00     0.211 HD
ENDBRANCH   6   9
ENDBRANCH   5   6
BRANCH   5  11
ATOM     11  O   UNL     1     -97.865 -59.887 -65.240  1.00  0.00    -0.387 OA
ATOM     12  H   UNL     1     -98.469 -59.099 -65.229  1.00  0.00     0.211 HD
ENDBRANCH   5  11
ENDBRANCH   1   5
BRANCH   1  13
ATOM     13  O   UNL     1    -100.533 -59.664 -65.961  1.00  0.00    -0.388 OA
ATOM     14  H   UNL     1    -101.018 -59.606 -66.826  1.00  0.00     0.211 HD
ENDBRANCH   1  13
TORSDOF 8
ENDMDL
MODEL 8
REMARK VINA RESULT:    -3.810      1.579      2.520
REMARK INTER + INTRA:          -6.110
REMARK INTER:                  -5.159
REMARK INTRA:                  -0.950
REMARK UNBOUND:                -0.964
REMARK SMILES O=C[C@H](O)[C@@H](O)[C@H](O)CO
REMARK SMILES IDX 7 1 9 2 10 3 5 5 3 6 2 7 1 8 4 9 6 11 8 13
REMARK H PARENT 10 4 4 10 6 12 8 14
REMARK Flexibility Score: inf
ROOT
ATOM      1  C   UNL     1    -100.075 -60.076 -66.505  1.00  0.00     0.171 C 
ENDROOT
BRANCH   1   2
ATOM      2  C   UNL     1    -101.150 -60.927 -67.199  1.00  0.00     0.190 C 
BRANCH   2   3
ATOM      3  O   UNL     1    -100.805 -62.284 -67.143  1.00  0.00    -0.394 OA
ATOM      4  H   UNL     1    -101.242 -62.712 -67.924  1.00  0.00     0.210 HD
ENDBRANCH   2   3
ENDBRANCH   1   2
BRANCH   1   5
ATOM      5  C   UNL     1     -98.724 -60.122 -67.270  1.00  0.00     0.181 C 
BRANCH   5   6
ATOM      6  C   UNL     1     -97.739 -59.016 -66.812  1.00  0.00     0.209 C 
BRANCH   6   7
ATOM      7  C   UNL     1     -96.664 -59.588 -65.933  1.00  0.00     0.258 C 
ATOM      8  O   UNL     1     -96.935 -60.026 -64.826  1.00  0.00    -0.300 OA
ENDBRANCH   6   7
BRANCH   6   9
ATOM      9  O   UNL     1     -98.429 -58.040 -66.075  1.00  0.00    -0.383 OA
ATOM     10  H   UNL     1     -97.759 -57.370 -65.779  1.00  0.00     0.211 HD
ENDBRANCH   6   9
ENDBRANCH   5   6
BRANCH   5  11
ATOM     11  O   UNL     1     -98.128 -61.392 -67.152  1.00  0.00    -0.387 OA
ATOM     12  H   UNL     1     -98.790 -62.066 -67.457  1.00  0.00     0.211 HD
ENDBRANCH   5  11
ENDBRANCH   1   5
BRANCH   1  13
ATOM     13  O   UNL     1     -99.893 -60.535 -65.189  1.00  0.00    -0.388 OA
ATOM     14  H   UNL     1    -100.789 -60.786 -64.844  1.00  0.00     0.211 HD
ENDBRANCH   1  13
TORSDOF 8
ENDMDL
MODEL 9
REMARK VINA RESULT:    -3.803      2.237      3.587
REMARK INTER + INTRA:          -6.100
REMARK INTER:                  -5.109
REMARK INTRA:                  -0.991
REMARK UNBOUND:                -0.964
REMARK SMILES O=C[C@H](O)[C@@H](O)[C@H](O)CO
REMARK SMILES IDX 7 1 9 2 10 3 5 5 3 6 2 7 1 8 4 9 6 11 8 13
REMARK H PARENT 10 4 4 10 6 12 8 14
REMARK Flexibility Score: inf
ROOT
ATOM      1  C   UNL     1     -98.581 -58.760 -67.126  1.00  0.00     0.171 C 
ENDROOT
BRANCH   1   2
ATOM      2  C   UNL     1     -99.985 -59.329 -66.866  1.00  0.00     0.190 C 
BRANCH   2   3
ATOM      3  O   UNL     1    -100.006 -60.028 -65.650  1.00  0.00    -0.394 OA
ATOM      4  H   UNL     1     -99.299 -59.620 -65.086  1.00  0.00     0.210 HD
ENDBRANCH   2   3
ENDBRANCH   1   2
BRANCH   1   5
ATOM      5  C   UNL     1     -97.557 -59.880 -67.447  1.00  0.00     0.181 C 
BRANCH   5   6
ATOM      6  C   UNL     1     -96.527 -60.095 -66.308  1.00  0.00     0.209 C 
BRANCH   6   7
ATOM      7  C   UNL     1     -95.363 -60.915 -66.785  1.00  0.00     0.258 C 
ATOM      8  O   UNL     1     -95.316 -61.312 -67.939  1.00  0.00    -0.300 OA
ENDBRANCH   6   7
BRANCH   6   9
ATOM      9  O   UNL     1     -97.133 -60.779 -65.242  1.00  0.00    -0.383 OA
ATOM     10  H   UNL     1     -98.093 -60.887 -65.472  1.00  0.00     0.211 HD
ENDBRANCH   6   9
ENDBRANCH   5   6
BRANCH   5  11
ATOM     11  O   UNL     1     -98.217 -61.087 -67.747  1.00  0.00    -0.387 OA
ATOM     12  H   UNL     1     -97.528 -61.752 -68.011  1.00  0.00     0.211 HD
ENDBRANCH   5  11
ENDBRANCH   1   5
BRANCH   1  13
ATOM     13  O   UNL     1     -98.155 -58.032 -66.001  1.00  0.00    -0.388 OA
ATOM     14  H   UNL     1     -97.981 -58.692 -65.279  1.00  0.00     0.211 HD
ENDBRANCH   1  13
TORSDOF 8
ENDMDL
