MODEL 1
REMARK VINA RESULT:    -7.579      0.000      0.000
REMARK INTER + INTRA:         -10.221
REMARK INTER:                  -9.572
REMARK INTRA:                  -0.649
REMARK UNBOUND:                -0.649
REMARK SMILES O=C(C=Cc1ccc(O)cc1)c1ccc(O)cc1O
REMARK SMILES IDX 4 1 3 2 5 3 6 4 7 5 8 6 11 7 10 8 9 9 2 11 1 12 12 13 18 14
REMARK SMILES IDX 13 15 17 16 14 17 15 18 19 19 16 21
REMARK H PARENT 9 10 19 20 16 22
REMARK Flexibility Score: inf
ROOT
ATOM      1  C   UNL     1      22.891   0.304  21.745  1.00  0.00     0.012 C 
ATOM      2  C   UNL     1      23.657  -0.787  21.593  1.00  0.00     0.053 C 
ENDROOT
BRANCH   1   3
ATOM      3  C   UNL     1      22.979   1.221  22.908  1.00  0.00    -0.025 A 
ATOM      4  C   UNL     1      22.119   1.121  24.021  1.00  0.00     0.012 A 
ATOM      5  C   UNL     1      22.251   2.005  25.098  1.00  0.00     0.047 A 
ATOM      6  C   UNL     1      23.242   2.990  25.084  1.00  0.00     0.115 A 
ATOM      7  C   UNL     1      23.981   2.205  22.912  1.00  0.00     0.012 A 
ATOM      8  C   UNL     1      24.109   3.087  23.989  1.00  0.00     0.047 A 
BRANCH   6   9
ATOM      9  O   UNL     1      23.360   3.863  26.163  1.00  0.00    -0.508 OA
ATOM     10  H   UNL     1      23.064   4.829  26.098  1.00  0.00     0.293 HD
ENDBRANCH   6   9
ENDBRANCH   1   3
BRANCH   2  11
ATOM     11  C   UNL     1      23.550  -1.684  20.422  1.00  0.00     0.189 C 
ATOM     12  O   UNL     1      24.421  -1.589  19.516  1.00  0.00    -0.289 OA
BRANCH  11  13
ATOM     13  C   UNL     1      22.463  -2.679  20.265  1.00  0.00     0.064 A 
ATOM     14  C   UNL     1      21.948  -3.011  18.995  1.00  0.00     0.130 A 
ATOM     15  C   UNL     1      21.905  -3.271  21.409  1.00  0.00     0.020 A 
ATOM     16  C   UNL     1      20.920  -3.960  18.885  1.00  0.00     0.093 A 
ATOM     17  C   UNL     1      20.878  -4.211  21.292  1.00  0.00     0.047 A 
ATOM     18  C   UNL     1      20.387  -4.560  20.028  1.00  0.00     0.119 A 
BRANCH  14  19
ATOM     19  O   UNL     1      22.443  -2.389  17.848  1.00  0.00    -0.507 OA
ATOM     20  H   UNL     1      22.767  -2.924  17.051  1.00  0.00     0.293 HD
ENDBRANCH  14  19
BRANCH  18  21
ATOM     21  O   UNL     1      19.365  -5.499  19.899  1.00  0.00    -0.508 OA
ATOM     22  H   UNL     1      19.231  -6.023  19.043  1.00  0.00     0.293 HD
ENDBRANCH  18  21
ENDBRANCH  11  13
ENDBRANCH   2  11
TORSDOF 6
ENDMDL
MODEL 2
REMARK VINA RESULT:    -7.393      1.595      2.235
REMARK INTER + INTRA:          -9.986
REMARK INTER:                  -9.534
REMARK INTRA:                  -0.452
REMARK UNBOUND:                -0.649
REMARK SMILES O=C(C=Cc1ccc(O)cc1)c1ccc(O)cc1O
REMARK SMILES IDX 4 1 3 2 5 3 6 4 7 5 8 6 11 7 10 8 9 9 2 11 1 12 12 13 18 14
REMARK SMILES IDX 13 15 17 16 14 17 15 18 19 19 16 21
REMARK H PARENT 9 10 19 20 16 22
REMARK Flexibility Score: inf
ROOT
ATOM      1  C   UNL     1      22.644   0.059  22.528  1.00  0.00     0.012 C 
ATOM      2  C   UNL     1      23.605  -0.797  22.148  1.00  0.00     0.053 C 
ENDROOT
BRANCH   1   3
ATOM      3  C   UNL     1      22.868   1.191  23.460  1.00  0.00    -0.025 A 
ATOM      4  C   UNL     1      22.213   1.294  24.704  1.00  0.00     0.012 A 
ATOM      5  C   UNL     1      22.467   2.378  25.550  1.00  0.00     0.047 A 
ATOM      6  C   UNL     1      23.381   3.366  25.175  1.00  0.00     0.115 A 
ATOM      7  C   UNL     1      23.795   2.183  23.099  1.00  0.00     0.012 A 
ATOM      8  C   UNL     1      24.046   3.266  23.948  1.00  0.00     0.047 A 
BRANCH   6   9
ATOM      9  O   UNL     1      23.623   4.440  26.029  1.00  0.00    -0.508 OA
ATOM     10  H   UNL     1      23.676   4.318  27.033  1.00  0.00     0.293 HD
ENDBRANCH   6   9
ENDBRANCH   1   3
BRANCH   2  11
ATOM     11  C   UNL     1      23.355  -1.918  21.216  1.00  0.00     0.189 C 
ATOM     12  O   UNL     1      23.702  -1.782  20.012  1.00  0.00    -0.289 OA
BRANCH  11  13
ATOM     13  C   UNL     1      22.711  -3.186  21.633  1.00  0.00     0.064 A 
ATOM     14  C   UNL     1      23.389  -4.127  22.434  1.00  0.00     0.130 A 
ATOM     15  C   UNL     1      21.412  -3.474  21.183  1.00  0.00     0.020 A 
ATOM     16  C   UNL     1      22.745  -5.317  22.810  1.00  0.00     0.093 A 
ATOM     17  C   UNL     1      20.780  -4.663  21.557  1.00  0.00     0.047 A 
ATOM     18  C   UNL     1      21.445  -5.584  22.376  1.00  0.00     0.119 A 
BRANCH  14  19
ATOM     19  O   UNL     1      24.702  -3.892  22.841  1.00  0.00    -0.507 OA
ATOM     20  H   UNL     1      25.463  -3.835  22.175  1.00  0.00     0.293 HD
ENDBRANCH  14  19
BRANCH  18  21
ATOM     21  O   UNL     1      20.822  -6.771  22.758  1.00  0.00    -0.508 OA
ATOM     22  H   UNL     1      20.405  -7.394  22.076  1.00  0.00     0.293 HD
ENDBRANCH  18  21
ENDBRANCH  11  13
ENDBRANCH   2  11
TORSDOF 6
ENDMDL
MODEL 3
REMARK VINA RESULT:    -6.960      6.918      8.086
REMARK INTER + INTRA:          -9.440
REMARK INTER:                  -8.828
REMARK INTRA:                  -0.612
REMARK UNBOUND:                -0.649
REMARK SMILES O=C(C=Cc1ccc(O)cc1)c1ccc(O)cc1O
REMARK SMILES IDX 4 1 3 2 5 3 6 4 7 5 8 6 11 7 10 8 9 9 2 11 1 12 12 13 18 14
REMARK SMILES IDX 13 15 17 16 14 17 15 18 19 19 16 21
REMARK H PARENT 9 10 19 20 16 22
REMARK Flexibility Score: inf
ROOT
ATOM      1  C   UNL     1      23.970   5.125  25.309  1.00  0.00     0.012 C 
ATOM      2  C   UNL     1      22.847   5.543  24.706  1.00  0.00     0.053 C 
ENDROOT
BRANCH   1   3
ATOM      3  C   UNL     1      24.816   5.989  26.169  1.00  0.00    -0.025 A 
ATOM      4  C   UNL     1      25.143   5.652  27.498  1.00  0.00     0.012 A 
ATOM      5  C   UNL     1      25.954   6.497  28.263  1.00  0.00     0.047 A 
ATOM      6  C   UNL     1      26.454   7.681  27.714  1.00  0.00     0.115 A 
ATOM      7  C   UNL     1      25.337   7.174  25.622  1.00  0.00     0.012 A 
ATOM      8  C   UNL     1      26.146   8.017  26.391  1.00  0.00     0.047 A 
BRANCH   6   9
ATOM      9  O   UNL     1      27.259   8.513  28.489  1.00  0.00    -0.508 OA
ATOM     10  H   UNL     1      26.918   8.932  29.346  1.00  0.00     0.293 HD
ENDBRANCH   6   9
ENDBRANCH   1   3
BRANCH   2  11
ATOM     11  C   UNL     1      22.020   4.660  23.854  1.00  0.00     0.189 C 
ATOM     12  O   UNL     1      21.830   3.473  24.232  1.00  0.00    -0.289 OA
BRANCH  11  13
ATOM     13  C   UNL     1      21.416   5.106  22.577  1.00  0.00     0.064 A 
ATOM     14  C   UNL     1      20.018   5.201  22.419  1.00  0.00     0.130 A 
ATOM     15  C   UNL     1      22.252   5.400  21.488  1.00  0.00     0.020 A 
ATOM     16  C   UNL     1      19.481   5.629  21.194  1.00  0.00     0.093 A 
ATOM     17  C   UNL     1      21.711   5.820  20.271  1.00  0.00     0.047 A 
ATOM     18  C   UNL     1      20.323   5.940  20.124  1.00  0.00     0.119 A 
BRANCH  14  19
ATOM     19  O   UNL     1      19.164   4.855  23.466  1.00  0.00    -0.507 OA
ATOM     20  H   UNL     1      19.519   4.510  24.350  1.00  0.00     0.293 HD
ENDBRANCH  14  19
BRANCH  18  21
ATOM     21  O   UNL     1      19.772   6.362  18.915  1.00  0.00    -0.508 OA
ATOM     22  H   UNL     1      18.773   6.338  18.751  1.00  0.00     0.293 HD
ENDBRANCH  18  21
ENDBRANCH  11  13
ENDBRANCH   2  11
TORSDOF 6
ENDMDL
MODEL 4
REMARK VINA RESULT:    -6.930      4.783      6.226
REMARK INTER + INTRA:          -9.401
REMARK INTER:                  -8.761
REMARK INTRA:                  -0.640
REMARK UNBOUND:                -0.649
REMARK SMILES O=C(C=Cc1ccc(O)cc1)c1ccc(O)cc1O
REMARK SMILES IDX 4 1 3 2 5 3 6 4 7 5 8 6 11 7 10 8 9 9 2 11 1 12 12 13 18 14
REMARK SMILES IDX 13 15 17 16 14 17 15 18 19 19 16 21
REMARK H PARENT 9 10 19 20 16 22
REMARK Flexibility Score: inf
ROOT
ATOM      1  C   UNL     1      23.455  -6.110  23.714  1.00  0.00     0.012 C 
ATOM      2  C   UNL     1      22.286  -5.600  23.296  1.00  0.00     0.053 C 
ENDROOT
BRANCH   1   3
ATOM      3  C   UNL     1      24.048  -5.833  25.046  1.00  0.00    -0.025 A 
ATOM      4  C   UNL     1      24.092  -4.540  25.604  1.00  0.00     0.012 A 
ATOM      5  C   UNL     1      24.654  -4.334  26.868  1.00  0.00     0.047 A 
ATOM      6  C   UNL     1      25.170  -5.411  27.594  1.00  0.00     0.115 A 
ATOM      7  C   UNL     1      24.556  -6.911  25.790  1.00  0.00     0.012 A 
ATOM      8  C   UNL     1      25.117  -6.701  27.053  1.00  0.00     0.047 A 
BRANCH   6   9
ATOM      9  O   UNL     1      25.727  -5.190  28.852  1.00  0.00    -0.508 OA
ATOM     10  H   UNL     1      25.926  -4.255  29.187  1.00  0.00     0.293 HD
ENDBRANCH   6   9
ENDBRANCH   1   3
BRANCH   2  11
ATOM     11  C   UNL     1      21.716  -5.893  21.963  1.00  0.00     0.189 C 
ATOM     12  O   UNL     1      21.085  -6.973  21.808  1.00  0.00    -0.289 OA
BRANCH  11  13
ATOM     13  C   UNL     1      21.861  -4.981  20.805  1.00  0.00     0.064 A 
ATOM     14  C   UNL     1      20.767  -4.674  19.969  1.00  0.00     0.130 A 
ATOM     15  C   UNL     1      23.124  -4.443  20.509  1.00  0.00     0.020 A 
ATOM     16  C   UNL     1      20.942  -3.804  18.882  1.00  0.00     0.093 A 
ATOM     17  C   UNL     1      23.291  -3.582  19.422  1.00  0.00     0.047 A 
ATOM     18  C   UNL     1      22.198  -3.257  18.609  1.00  0.00     0.119 A 
BRANCH  14  19
ATOM     19  O   UNL     1      19.517  -5.245  20.205  1.00  0.00    -0.507 OA
ATOM     20  H   UNL     1      19.362  -6.242  20.116  1.00  0.00     0.293 HD
ENDBRANCH  14  19
BRANCH  18  21
ATOM     21  O   UNL     1      22.353  -2.396  17.524  1.00  0.00    -0.508 OA
ATOM     22  H   UNL     1      21.715  -1.626  17.363  1.00  0.00     0.293 HD
ENDBRANCH  18  21
ENDBRANCH  11  13
ENDBRANCH   2  11
TORSDOF 6
ENDMDL
MODEL 5
REMARK VINA RESULT:    -6.888      4.104      6.368
REMARK INTER + INTRA:          -9.349
REMARK INTER:                  -8.676
REMARK INTRA:                  -0.673
REMARK UNBOUND:                -0.649
REMARK SMILES O=C(C=Cc1ccc(O)cc1)c1ccc(O)cc1O
REMARK SMILES IDX 4 1 3 2 5 3 6 4 7 5 8 6 11 7 10 8 9 9 2 11 1 12 12 13 18 14
REMARK SMILES IDX 13 15 17 16 14 17 15 18 19 19 16 21
REMARK H PARENT 9 10 19 20 16 22
REMARK Flexibility Score: inf
ROOT
ATOM      1  C   UNL     1      23.730   4.750  25.030  1.00  0.00     0.012 C 
ATOM      2  C   UNL     1      23.369   3.567  25.549  1.00  0.00     0.053 C 
ENDROOT
BRANCH   1   3
ATOM      3  C   UNL     1      24.556   5.750  25.750  1.00  0.00    -0.025 A 
ATOM      4  C   UNL     1      24.902   5.615  27.109  1.00  0.00     0.012 A 
ATOM      5  C   UNL     1      25.693   6.582  27.738  1.00  0.00     0.047 A 
ATOM      6  C   UNL     1      26.155   7.689  27.021  1.00  0.00     0.115 A 
ATOM      7  C   UNL     1      25.039   6.860  25.035  1.00  0.00     0.012 A 
ATOM      8  C   UNL     1      25.828   7.825  25.668  1.00  0.00     0.047 A 
BRANCH   6   9
ATOM      9  O   UNL     1      26.941   8.645  27.662  1.00  0.00    -0.508 OA
ATOM     10  H   UNL     1      26.707   8.992  28.584  1.00  0.00     0.293 HD
ENDBRANCH   6   9
ENDBRANCH   1   3
BRANCH   2  11
ATOM     11  C   UNL     1      22.545   2.586  24.810  1.00  0.00     0.189 C 
ATOM     12  O   UNL     1      21.674   1.936  25.449  1.00  0.00    -0.289 OA
BRANCH  11  13
ATOM     13  C   UNL     1      22.702   2.331  23.359  1.00  0.00     0.064 A 
ATOM     14  C   UNL     1      21.835   2.913  22.411  1.00  0.00     0.130 A 
ATOM     15  C   UNL     1      23.709   1.456  22.922  1.00  0.00     0.020 A 
ATOM     16  C   UNL     1      22.015   2.649  21.045  1.00  0.00     0.093 A 
ATOM     17  C   UNL     1      23.879   1.194  21.561  1.00  0.00     0.047 A 
ATOM     18  C   UNL     1      23.035   1.794  20.619  1.00  0.00     0.119 A 
BRANCH  14  19
ATOM     19  O   UNL     1      20.787   3.736  22.825  1.00  0.00    -0.507 OA
ATOM     20  H   UNL     1      20.946   4.695  23.113  1.00  0.00     0.293 HD
ENDBRANCH  14  19
BRANCH  18  21
ATOM     21  O   UNL     1      23.198   1.543  19.258  1.00  0.00    -0.508 OA
ATOM     22  H   UNL     1      22.775   0.737  18.813  1.00  0.00     0.293 HD
ENDBRANCH  18  21
ENDBRANCH  11  13
ENDBRANCH   2  11
TORSDOF 6
ENDMDL
MODEL 6
REMARK VINA RESULT:    -6.771      2.310      8.030
REMARK INTER + INTRA:          -9.201
REMARK INTER:                  -8.667
REMARK INTRA:                  -0.534
REMARK UNBOUND:                -0.649
REMARK SMILES O=C(C=Cc1ccc(O)cc1)c1ccc(O)cc1O
REMARK SMILES IDX 4 1 3 2 5 3 6 4 7 5 8 6 11 7 10 8 9 9 2 11 1 12 12 13 18 14
REMARK SMILES IDX 13 15 17 16 14 17 15 18 19 19 16 21
REMARK H PARENT 9 10 19 20 16 22
REMARK Flexibility Score: inf
ROOT
ATOM      1  C   UNL     1      23.188   0.745  22.916  1.00  0.00     0.012 C 
ATOM      2  C   UNL     1      22.013   1.121  23.444  1.00  0.00     0.053 C 
ENDROOT
BRANCH   1   3
ATOM      3  C   UNL     1      23.318  -0.183  21.766  1.00  0.00    -0.025 A 
ATOM      4  C   UNL     1      23.675  -1.538  21.919  1.00  0.00     0.012 A 
ATOM      5  C   UNL     1      23.775  -2.374  20.803  1.00  0.00     0.047 A 
ATOM      6  C   UNL     1      23.512  -1.876  19.524  1.00  0.00     0.115 A 
ATOM      7  C   UNL     1      23.043   0.303  20.477  1.00  0.00     0.012 A 
ATOM      8  C   UNL     1      23.144  -0.535  19.363  1.00  0.00     0.047 A 
BRANCH   6   9
ATOM      9  O   UNL     1      23.617  -2.721  18.421  1.00  0.00    -0.508 OA
ATOM     10  H   UNL     1      24.070  -3.625  18.487  1.00  0.00     0.293 HD
ENDBRANCH   6   9
ENDBRANCH   1   3
BRANCH   2  11
ATOM     11  C   UNL     1      21.911   2.049  24.590  1.00  0.00     0.189 C 
ATOM     12  O   UNL     1      21.295   1.662  25.619  1.00  0.00    -0.289 OA
BRANCH  11  13
ATOM     13  C   UNL     1      22.493   3.412  24.580  1.00  0.00     0.064 A 
ATOM     14  C   UNL     1      21.850   4.482  23.924  1.00  0.00     0.130 A 
ATOM     15  C   UNL     1      23.733   3.632  25.201  1.00  0.00     0.020 A 
ATOM     16  C   UNL     1      22.430   5.759  23.937  1.00  0.00     0.093 A 
ATOM     17  C   UNL     1      24.307   4.906  25.205  1.00  0.00     0.047 A 
ATOM     18  C   UNL     1      23.654   5.973  24.577  1.00  0.00     0.119 A 
BRANCH  14  19
ATOM     19  O   UNL     1      20.648   4.274  23.247  1.00  0.00    -0.507 OA
ATOM     20  H   UNL     1      19.858   3.821  23.692  1.00  0.00     0.293 HD
ENDBRANCH  14  19
BRANCH  18  21
ATOM     21  O   UNL     1      24.216   7.248  24.578  1.00  0.00    -0.508 OA
ATOM     22  H   UNL     1      24.579   7.668  23.731  1.00  0.00     0.293 HD
ENDBRANCH  18  21
ENDBRANCH  11  13
ENDBRANCH   2  11
TORSDOF 6
ENDMDL
MODEL 7
REMARK VINA RESULT:    -6.766      5.703      7.340
REMARK INTER + INTRA:          -9.194
REMARK INTER:                  -8.492
REMARK INTRA:                  -0.702
REMARK UNBOUND:                -0.649
REMARK SMILES O=C(C=Cc1ccc(O)cc1)c1ccc(O)cc1O
REMARK SMILES IDX 4 1 3 2 5 3 6 4 7 5 8 6 11 7 10 8 9 9 2 11 1 12 12 13 18 14
REMARK SMILES IDX 13 15 17 16 14 17 15 18 19 19 16 21
REMARK H PARENT 9 10 19 20 16 22
REMARK Flexibility Score: inf
ROOT
ATOM      1  C   UNL     1      24.330   5.288  24.925  1.00  0.00     0.012 C 
ATOM      2  C   UNL     1      23.818   4.057  25.071  1.00  0.00     0.053 C 
ENDROOT
BRANCH   1   3
ATOM      3  C   UNL     1      24.956   6.059  26.027  1.00  0.00    -0.025 A 
ATOM      4  C   UNL     1      25.573   7.310  25.826  1.00  0.00     0.012 A 
ATOM      5  C   UNL     1      26.140   8.001  26.901  1.00  0.00     0.047 A 
ATOM      6  C   UNL     1      26.092   7.461  28.189  1.00  0.00     0.115 A 
ATOM      7  C   UNL     1      24.901   5.533  27.329  1.00  0.00     0.012 A 
ATOM      8  C   UNL     1      25.470   6.226  28.402  1.00  0.00     0.047 A 
BRANCH   6   9
ATOM      9  O   UNL     1      26.663   8.161  29.251  1.00  0.00    -0.508 OA
ATOM     10  H   UNL     1      27.318   7.720  29.885  1.00  0.00     0.293 HD
ENDBRANCH   6   9
ENDBRANCH   1   3
BRANCH   2  11
ATOM     11  C   UNL     1      23.200   3.309  23.955  1.00  0.00     0.189 C 
ATOM     12  O   UNL     1      23.566   2.119  23.758  1.00  0.00    -0.289 OA
BRANCH  11  13
ATOM     13  C   UNL     1      22.178   3.897  23.057  1.00  0.00     0.064 A 
ATOM     14  C   UNL     1      22.293   3.810  21.655  1.00  0.00     0.130 A 
ATOM     15  C   UNL     1      21.094   4.594  23.616  1.00  0.00     0.020 A 
ATOM     16  C   UNL     1      21.304   4.378  20.837  1.00  0.00     0.093 A 
ATOM     17  C   UNL     1      20.117   5.161  22.795  1.00  0.00     0.047 A 
ATOM     18  C   UNL     1      20.218   5.050  21.403  1.00  0.00     0.119 A 
BRANCH  14  19
ATOM     19  O   UNL     1      23.393   3.178  21.075  1.00  0.00    -0.507 OA
ATOM     20  H   UNL     1      23.284   2.487  20.342  1.00  0.00     0.293 HD
ENDBRANCH  14  19
BRANCH  18  21
ATOM     21  O   UNL     1      19.247   5.609  20.575  1.00  0.00    -0.508 OA
ATOM     22  H   UNL     1      19.427   6.449  20.038  1.00  0.00     0.293 HD
ENDBRANCH  18  21
ENDBRANCH  11  13
ENDBRANCH   2  11
TORSDOF 6
ENDMDL
MODEL 8
REMARK VINA RESULT:    -6.743      5.360      6.489
REMARK INTER + INTRA:          -9.166
REMARK INTER:                  -8.591
REMARK INTRA:                  -0.574
REMARK UNBOUND:                -0.649
REMARK SMILES O=C(C=Cc1ccc(O)cc1)c1ccc(O)cc1O
REMARK SMILES IDX 4 1 3 2 5 3 6 4 7 5 8 6 11 7 10 8 9 9 2 11 1 12 12 13 18 14
REMARK SMILES IDX 13 15 17 16 14 17 15 18 19 19 16 21
REMARK H PARENT 9 10 19 20 16 22
REMARK Flexibility Score: inf
ROOT
ATOM      1  C   UNL     1      24.498  -4.373  25.247  1.00  0.00     0.012 C 
ATOM      2  C   UNL     1      24.441  -4.700  23.947  1.00  0.00     0.053 C 
ENDROOT
BRANCH   1   3
ATOM      3  C   UNL     1      24.888  -5.320  26.320  1.00  0.00    -0.025 A 
ATOM      4  C   UNL     1      25.220  -4.897  27.623  1.00  0.00     0.012 A 
ATOM      5  C   UNL     1      25.571  -5.832  28.602  1.00  0.00     0.047 A 
ATOM      6  C   UNL     1      25.588  -7.196  28.300  1.00  0.00     0.115 A 
ATOM      7  C   UNL     1      24.894  -6.694  26.032  1.00  0.00     0.012 A 
ATOM      8  C   UNL     1      25.247  -7.626  27.013  1.00  0.00     0.047 A 
BRANCH   6   9
ATOM      9  O   UNL     1      25.942  -8.115  29.286  1.00  0.00    -0.508 OA
ATOM     10  H   UNL     1      26.267  -9.045  29.051  1.00  0.00     0.293 HD
ENDBRANCH   6   9
ENDBRANCH   1   3
BRANCH   2  11
ATOM     11  C   UNL     1      24.049  -3.736  22.896  1.00  0.00     0.189 C 
ATOM     12  O   UNL     1      24.721  -2.676  22.778  1.00  0.00    -0.289 OA
BRANCH  11  13
ATOM     13  C   UNL     1      22.903  -3.957  21.983  1.00  0.00     0.064 A 
ATOM     14  C   UNL     1      22.871  -3.395  20.691  1.00  0.00     0.130 A 
ATOM     15  C   UNL     1      21.805  -4.709  22.433  1.00  0.00     0.020 A 
ATOM     16  C   UNL     1      21.769  -3.628  19.854  1.00  0.00     0.093 A 
ATOM     17  C   UNL     1      20.709  -4.932  21.596  1.00  0.00     0.047 A 
ATOM     18  C   UNL     1      20.691  -4.395  20.303  1.00  0.00     0.119 A 
BRANCH  14  19
ATOM     19  O   UNL     1      23.922  -2.592  20.245  1.00  0.00    -0.507 OA
ATOM     20  H   UNL     1      24.776  -2.992  19.875  1.00  0.00     0.293 HD
ENDBRANCH  14  19
BRANCH  18  21
ATOM     21  O   UNL     1      19.604  -4.615  19.459  1.00  0.00    -0.508 OA
ATOM     22  H   UNL     1      19.282  -3.904  18.813  1.00  0.00     0.293 HD
ENDBRANCH  18  21
ENDBRANCH  11  13
ENDBRANCH   2  11
TORSDOF 6
ENDMDL
MODEL 9
REMARK VINA RESULT:    -6.735      4.328      7.240
REMARK INTER + INTRA:          -9.156
REMARK INTER:                  -8.428
REMARK INTRA:                  -0.728
REMARK UNBOUND:                -0.649
REMARK SMILES O=C(C=Cc1ccc(O)cc1)c1ccc(O)cc1O
REMARK SMILES IDX 4 1 3 2 5 3 6 4 7 5 8 6 11 7 10 8 9 9 2 11 1 12 12 13 18 14
REMARK SMILES IDX 13 15 17 16 14 17 15 18 19 19 16 21
REMARK H PARENT 9 10 19 20 16 22
REMARK Flexibility Score: inf
ROOT
ATOM      1  C   UNL     1      24.395   5.852  25.309  1.00  0.00     0.012 C 
ATOM      2  C   UNL     1      23.067   5.897  25.120  1.00  0.00     0.053 C 
ENDROOT
BRANCH   1   3
ATOM      3  C   UNL     1      25.099   6.572  26.399  1.00  0.00    -0.025 A 
ATOM      4  C   UNL     1      25.955   7.666  26.159  1.00  0.00     0.012 A 
ATOM      5  C   UNL     1      26.587   8.316  27.224  1.00  0.00     0.047 A 
ATOM      6  C   UNL     1      26.369   7.892  28.537  1.00  0.00     0.115 A 
ATOM      7  C   UNL     1      24.876   6.164  27.725  1.00  0.00     0.012 A 
ATOM      8  C   UNL     1      25.510   6.816  28.786  1.00  0.00     0.047 A 
BRANCH   6   9
ATOM      9  O   UNL     1      27.007   8.550  29.588  1.00  0.00    -0.508 OA
ATOM     10  H   UNL     1      26.668   9.436  29.942  1.00  0.00     0.293 HD
ENDBRANCH   6   9
ENDBRANCH   1   3
BRANCH   2  11
ATOM     11  C   UNL     1      22.390   5.169  24.025  1.00  0.00     0.189 C 
ATOM     12  O   UNL     1      21.507   5.776  23.361  1.00  0.00    -0.289 OA
BRANCH  11  13
ATOM     13  C   UNL     1      22.697   3.761  23.681  1.00  0.00     0.064 A 
ATOM     14  C   UNL     1      23.050   3.385  22.369  1.00  0.00     0.130 A 
ATOM     15  C   UNL     1      22.591   2.774  24.674  1.00  0.00     0.020 A 
ATOM     16  C   UNL     1      23.336   2.041  22.081  1.00  0.00     0.093 A 
ATOM     17  C   UNL     1      22.872   1.438  24.379  1.00  0.00     0.047 A 
ATOM     18  C   UNL     1      23.249   1.070  23.081  1.00  0.00     0.119 A 
BRANCH  14  19
ATOM     19  O   UNL     1      23.101   4.338  21.351  1.00  0.00    -0.507 OA
ATOM     20  H   UNL     1      23.338   5.304  21.539  1.00  0.00     0.293 HD
ENDBRANCH  14  19
BRANCH  18  21
ATOM     21  O   UNL     1      23.535  -0.259  22.776  1.00  0.00    -0.508 OA
ATOM     22  H   UNL     1      24.469  -0.639  22.880  1.00  0.00     0.293 HD
ENDBRANCH  18  21
ENDBRANCH  11  13
ENDBRANCH   2  11
TORSDOF 6
ENDMDL
