MODEL 1
REMARK VINA RESULT:    -3.371      0.000      0.000
REMARK INTER + INTRA:          -4.397
REMARK INTER:                  -4.159
REMARK INTRA:                  -0.238
REMARK UNBOUND:                -0.238
REMARK SMILES C=CC[C@@H](C)C(=O)CC
REMARK SMILES IDX 4 1 5 2 6 3 7 4 8 5 9 6 3 7 2 8 1 9
REMARK H PARENT
REMARK Flexibility Score: inf
ROOT
ATOM      1  C   UNL     1     -13.359  28.567  18.635  1.00  0.00     0.057 C 
ATOM      2  C   UNL     1     -13.251  30.093  18.764  1.00  0.00     0.016 C 
ENDROOT
BRANCH   1   3
ATOM      3  C   UNL     1     -14.317  27.997  19.663  1.00  0.00     0.135 C 
ATOM      4  O   UNL     1     -14.327  28.445  20.801  1.00  0.00    -0.299 OA
BRANCH   3   5
ATOM      5  C   UNL     1     -15.257  26.874  19.312  1.00  0.00     0.072 C 
ATOM      6  C   UNL     1     -14.871  25.596  20.051  1.00  0.00     0.012 C 
ENDBRANCH   3   5
ENDBRANCH   1   3
BRANCH   1   7
ATOM      7  C   UNL     1     -13.732  28.125  17.204  1.00  0.00     0.038 C 
BRANCH   7   8
ATOM      8  C   UNL     1     -14.010  29.278  16.273  1.00  0.00    -0.034 C 
ATOM      9  C   UNL     1     -13.848  29.170  14.950  1.00  0.00     0.004 C 
ENDBRANCH   7   8
ENDBRANCH   1   7
TORSDOF 4
ENDMDL
MODEL 2
REMARK VINA RESULT:    -3.364      1.717      3.700
REMARK INTER + INTRA:          -4.388
REMARK INTER:                  -4.011
REMARK INTRA:                  -0.376
REMARK UNBOUND:                -0.238
REMARK SMILES C=CC[C@@H](C)C(=O)CC
REMARK SMILES IDX 4 1 5 2 6 3 7 4 8 5 9 6 3 7 2 8 1 9
REMARK H PARENT
REMARK Flexibility Score: inf
ROOT
ATOM      1  C   UNL     1     -13.146  28.757  18.802  1.00  0.00     0.057 C 
ATOM      2  C   UNL     1     -13.712  28.085  20.061  1.00  0.00     0.016 C 
ENDROOT
BRANCH   1   3
ATOM      3  C   UNL     1     -13.896  28.317  17.561  1.00  0.00     0.135 C 
ATOM      4  O   UNL     1     -14.544  27.280  17.575  1.00  0.00    -0.299 OA
BRANCH   3   5
ATOM      5  C   UNL     1     -13.852  29.132  16.295  1.00  0.00     0.072 C 
ATOM      6  C   UNL     1     -15.230  29.705  15.974  1.00  0.00     0.012 C 
ENDBRANCH   3   5
ENDBRANCH   1   3
BRANCH   1   7
ATOM      7  C   UNL     1     -13.106  30.295  18.927  1.00  0.00     0.038 C 
BRANCH   7   8
ATOM      8  C   UNL     1     -14.382  30.887  19.471  1.00  0.00    -0.034 C 
ATOM      9  C   UNL     1     -14.624  32.201  19.428  1.00  0.00     0.004 C 
ENDBRANCH   7   8
ENDBRANCH   1   7
TORSDOF 4
ENDMDL
MODEL 3
REMARK VINA RESULT:    -3.330      1.193      1.674
REMARK INTER + INTRA:          -4.347
REMARK INTER:                  -3.999
REMARK INTRA:                  -0.348
REMARK UNBOUND:                -0.238
REMARK SMILES C=CC[C@@H](C)C(=O)CC
REMARK SMILES IDX 4 1 5 2 6 3 7 4 8 5 9 6 3 7 2 8 1 9
REMARK H PARENT
REMARK Flexibility Score: inf
ROOT
ATOM      1  C   UNL     1     -13.379  28.568  18.698  1.00  0.00     0.057 C 
ATOM      2  C   UNL     1     -13.130  30.079  18.806  1.00  0.00     0.016 C 
ENDROOT
BRANCH   1   3
ATOM      3  C   UNL     1     -14.443  28.116  19.680  1.00  0.00     0.135 C 
ATOM      4  O   UNL     1     -14.499  26.943  20.021  1.00  0.00    -0.299 OA
BRANCH   3   5
ATOM      5  C   UNL     1     -15.447  29.089  20.242  1.00  0.00     0.072 C 
ATOM      6  C   UNL     1     -16.686  29.156  19.355  1.00  0.00     0.012 C 
ENDBRANCH   3   5
ENDBRANCH   1   3
BRANCH   1   7
ATOM      7  C   UNL     1     -13.714  28.130  17.257  1.00  0.00     0.038 C 
BRANCH   7   8
ATOM      8  C   UNL     1     -14.046  29.282  16.341  1.00  0.00    -0.034 C 
ATOM      9  C   UNL     1     -13.836  29.217  15.023  1.00  0.00     0.004 C 
ENDBRANCH   7   8
ENDBRANCH   1   7
TORSDOF 4
ENDMDL
MODEL 4
REMARK VINA RESULT:    -3.280      1.868      2.453
REMARK INTER + INTRA:          -4.285
REMARK INTER:                  -4.044
REMARK INTRA:                  -0.241
REMARK UNBOUND:                -0.238
REMARK SMILES C=CC[C@@H](C)C(=O)CC
REMARK SMILES IDX 4 1 5 2 6 3 7 4 8 5 9 6 3 7 2 8 1 9
REMARK H PARENT
REMARK Flexibility Score: inf
ROOT
ATOM      1  C   UNL     1     -13.829  29.116  17.179  1.00  0.00     0.057 C 
ATOM      2  C   UNL     1     -15.086  29.935  16.855  1.00  0.00     0.016 C 
ENDROOT
BRANCH   1   3
ATOM      3  C   UNL     1     -13.352  29.380  18.594  1.00  0.00     0.135 C 
ATOM      4  O   UNL     1     -12.905  30.479  18.892  1.00  0.00    -0.299 OA
BRANCH   3   5
ATOM      5  C   UNL     1     -13.409  28.305  19.648  1.00  0.00     0.072 C 
ATOM      6  C   UNL     1     -14.584  28.540  20.594  1.00  0.00     0.012 C 
ENDBRANCH   3   5
ENDBRANCH   1   3
BRANCH   1   7
ATOM      7  C   UNL     1     -14.028  27.608  16.919  1.00  0.00     0.038 C 
BRANCH   7   8
ATOM      8  C   UNL     1     -13.701  27.193  15.507  1.00  0.00    -0.034 C 
ATOM      9  C   UNL     1     -13.193  25.989  15.225  1.00  0.00     0.004 C 
ENDBRANCH   7   8
ENDBRANCH   1   7
TORSDOF 4
ENDMDL
MODEL 5
REMARK VINA RESULT:    -3.262      1.013      2.749
REMARK INTER + INTRA:          -4.262
REMARK INTER:                  -4.014
REMARK INTRA:                  -0.249
REMARK UNBOUND:                -0.238
REMARK SMILES C=CC[C@@H](C)C(=O)CC
REMARK SMILES IDX 4 1 5 2 6 3 7 4 8 5 9 6 3 7 2 8 1 9
REMARK H PARENT
REMARK Flexibility Score: inf
ROOT
ATOM      1  C   UNL     1     -14.488  28.207  18.075  1.00  0.00     0.057 C 
ATOM      2  C   UNL     1     -15.141  26.903  18.553  1.00  0.00     0.016 C 
ENDROOT
BRANCH   1   3
ATOM      3  C   UNL     1     -13.557  28.773  19.129  1.00  0.00     0.135 C 
ATOM      4  O   UNL     1     -13.225  28.084  20.083  1.00  0.00    -0.299 OA
BRANCH   3   5
ATOM      5  C   UNL     1     -13.035  30.183  19.031  1.00  0.00     0.072 C 
ATOM      6  C   UNL     1     -14.149  31.190  19.299  1.00  0.00     0.012 C 
ENDBRANCH   3   5
ENDBRANCH   1   3
BRANCH   1   7
ATOM      7  C   UNL     1     -13.775  28.043  16.716  1.00  0.00     0.038 C 
BRANCH   7   8
ATOM      8  C   UNL     1     -14.097  29.140  15.733  1.00  0.00    -0.034 C 
ATOM      9  C   UNL     1     -13.792  29.035  14.435  1.00  0.00     0.004 C 
ENDBRANCH   7   8
ENDBRANCH   1   7
TORSDOF 4
ENDMDL
MODEL 6
REMARK VINA RESULT:    -3.223      1.453      3.311
REMARK INTER + INTRA:          -4.214
REMARK INTER:                  -3.714
REMARK INTRA:                  -0.500
REMARK UNBOUND:                -0.238
REMARK SMILES C=CC[C@@H](C)C(=O)CC
REMARK SMILES IDX 4 1 5 2 6 3 7 4 8 5 9 6 3 7 2 8 1 9
REMARK H PARENT
REMARK Flexibility Score: inf
ROOT
ATOM      1  C   UNL     1     -13.789  28.119  17.528  1.00  0.00     0.057 C 
ATOM      2  C   UNL     1     -13.832  29.094  16.343  1.00  0.00     0.016 C 
ENDROOT
BRANCH   1   3
ATOM      3  C   UNL     1     -13.353  28.821  18.800  1.00  0.00     0.135 C 
ATOM      4  O   UNL     1     -13.289  28.197  19.850  1.00  0.00    -0.299 OA
BRANCH   3   5
ATOM      5  C   UNL     1     -13.004  30.286  18.799  1.00  0.00     0.072 C 
ATOM      6  C   UNL     1     -14.135  31.110  19.405  1.00  0.00     0.012 C 
ENDBRANCH   3   5
ENDBRANCH   1   3
BRANCH   1   7
ATOM      7  C   UNL     1     -15.125  27.371  17.722  1.00  0.00     0.038 C 
BRANCH   7   8
ATOM      8  C   UNL     1     -16.326  28.283  17.741  1.00  0.00    -0.034 C 
ATOM      9  C   UNL     1     -17.023  28.508  18.860  1.00  0.00     0.004 C 
ENDBRANCH   7   8
ENDBRANCH   1   7
TORSDOF 4
ENDMDL
MODEL 7
REMARK VINA RESULT:    -3.177      1.777      3.819
REMARK INTER + INTRA:          -4.157
REMARK INTER:                  -3.685
REMARK INTRA:                  -0.473
REMARK UNBOUND:                -0.238
REMARK SMILES C=CC[C@@H](C)C(=O)CC
REMARK SMILES IDX 4 1 5 2 6 3 7 4 8 5 9 6 3 7 2 8 1 9
REMARK H PARENT
REMARK Flexibility Score: inf
ROOT
ATOM      1  C   UNL     1     -15.310  29.396  19.613  1.00  0.00     0.057 C 
ATOM      2  C   UNL     1     -16.488  30.129  20.269  1.00  0.00     0.016 C 
ENDROOT
BRANCH   1   3
ATOM      3  C   UNL     1     -14.275  30.375  19.095  1.00  0.00     0.135 C 
ATOM      4  O   UNL     1     -14.319  31.548  19.438  1.00  0.00    -0.299 OA
BRANCH   3   5
ATOM      5  C   UNL     1     -13.188  29.933  18.150  1.00  0.00     0.072 C 
ATOM      6  C   UNL     1     -13.774  29.130  16.993  1.00  0.00     0.012 C 
ENDBRANCH   3   5
ENDBRANCH   1   3
BRANCH   1   7
ATOM      7  C   UNL     1     -14.678  28.344  20.549  1.00  0.00     0.038 C 
BRANCH   7   8
ATOM      8  C   UNL     1     -14.598  26.968  19.939  1.00  0.00    -0.034 C 
ATOM      9  C   UNL     1     -15.490  26.543  19.038  1.00  0.00     0.004 C 
ENDBRANCH   7   8
ENDBRANCH   1   7
TORSDOF 4
ENDMDL
MODEL 8
REMARK VINA RESULT:    -3.176      1.730      3.134
REMARK INTER + INTRA:          -4.156
REMARK INTER:                  -3.909
REMARK INTRA:                  -0.248
REMARK UNBOUND:                -0.238
REMARK SMILES C=CC[C@@H](C)C(=O)CC
REMARK SMILES IDX 4 1 5 2 6 3 7 4 8 5 9 6 3 7 2 8 1 9
REMARK H PARENT
REMARK Flexibility Score: inf
ROOT
ATOM      1  C   UNL     1     -14.311  28.669  18.788  1.00  0.00     0.057 C 
ATOM      2  C   UNL     1     -13.791  27.863  19.987  1.00  0.00     0.016 C 
ENDROOT
BRANCH   1   3
ATOM      3  C   UNL     1     -14.116  30.157  19.001  1.00  0.00     0.135 C 
ATOM      4  O   UNL     1     -12.990  30.633  18.988  1.00  0.00    -0.299 OA
BRANCH   3   5
ATOM      5  C   UNL     1     -15.291  31.069  19.242  1.00  0.00     0.072 C 
ATOM      6  C   UNL     1     -14.818  32.465  19.637  1.00  0.00     0.012 C 
ENDBRANCH   3   5
ENDBRANCH   1   3
BRANCH   1   7
ATOM      7  C   UNL     1     -13.691  28.200  17.454  1.00  0.00     0.038 C 
BRANCH   7   8
ATOM      8  C   UNL     1     -14.455  28.667  16.241  1.00  0.00    -0.034 C 
ATOM      9  C   UNL     1     -13.852  29.297  15.228  1.00  0.00     0.004 C 
ENDBRANCH   7   8
ENDBRANCH   1   7
TORSDOF 4
ENDMDL
MODEL 9
REMARK VINA RESULT:    -3.139      1.994      3.658
REMARK INTER + INTRA:          -4.111
REMARK INTER:                  -3.754
REMARK INTRA:                  -0.357
REMARK UNBOUND:                -0.238
REMARK SMILES C=CC[C@@H](C)C(=O)CC
REMARK SMILES IDX 4 1 5 2 6 3 7 4 8 5 9 6 3 7 2 8 1 9
REMARK H PARENT
REMARK Flexibility Score: inf
ROOT
ATOM      1  C   UNL     1     -13.493  29.687  18.175  1.00  0.00     0.057 C 
ATOM      2  C   UNL     1     -14.089  29.028  16.923  1.00  0.00     0.016 C 
ENDROOT
BRANCH   1   3
ATOM      3  C   UNL     1     -14.471  30.663  18.799  1.00  0.00     0.135 C 
ATOM      4  O   UNL     1     -14.069  31.513  19.581  1.00  0.00    -0.299 OA
BRANCH   3   5
ATOM      5  C   UNL     1     -15.942  30.600  18.482  1.00  0.00     0.072 C 
ATOM      6  C   UNL     1     -16.771  30.628  19.762  1.00  0.00     0.012 C 
ENDBRANCH   3   5
ENDBRANCH   1   3
BRANCH   1   7
ATOM      7  C   UNL     1     -12.992  28.649  19.201  1.00  0.00     0.038 C 
BRANCH   7   8
ATOM      8  C   UNL     1     -14.080  28.122  20.102  1.00  0.00    -0.034 C 
ATOM      9  C   UNL     1     -14.666  26.941  19.882  1.00  0.00     0.004 C 
ENDBRANCH   7   8
ENDBRANCH   1   7
TORSDOF 4
ENDMDL
