MODEL 1
REMARK VINA RESULT:    -5.080      0.000      0.000
REMARK INTER + INTRA:         -10.344
REMARK INTER:                  -9.238
REMARK INTRA:                  -1.107
REMARK UNBOUND:                -1.107
REMARK SMILES CCCCCCCCCCCCCC[C@@H](C)C(=O)[O-]
REMARK SMILES IDX 9 1 10 2 11 3 12 4 13 5 14 6 15 7 16 8 17 9 18 10 19 11 8 12
REMARK SMILES IDX 7 13 6 14 5 15 4 16 3 17 2 18 1 19
REMARK H PARENT
REMARK Flexibility Score: inf
ROOT
ATOM      1  C   UNL     1      21.150 117.361 296.609  1.00  0.00     0.000 C 
ENDROOT
BRANCH   1   2
ATOM      2  C   UNL     1      22.240 117.791 297.603  1.00  0.00     0.000 C 
BRANCH   2   3
ATOM      3  C   UNL     1      22.238 119.312 297.798  1.00  0.00     0.000 C 
BRANCH   3   4
ATOM      4  C   UNL     1      20.999 119.948 297.148  1.00  0.00     0.000 C 
BRANCH   4   5
ATOM      5  C   UNL     1      20.188 120.807 298.131  1.00  0.00     0.001 C 
BRANCH   5   6
ATOM      6  C   UNL     1      20.651 120.635 299.589  1.00  0.00     0.009 C 
BRANCH   6   7
ATOM      7  C   UNL     1      21.008 121.978 300.263  1.00  0.00     0.032 C 
ATOM      8  C   UNL     1      19.836 122.562 301.065  1.00  0.00     0.014 C 
BRANCH   7   9
ATOM      9  C   UNL     1      22.199 121.798 301.166  1.00  0.00     0.044 C 
ATOM     10  O   UNL     1      22.046 121.428 302.360  1.00  0.00    -0.550 OA
ATOM     11  O   UNL     1      23.478 122.042 300.682  1.00  0.00    -0.550 OA
ENDBRANCH   7   9
ENDBRANCH   6   7
ENDBRANCH   5   6
ENDBRANCH   4   5
ENDBRANCH   3   4
ENDBRANCH   2   3
ENDBRANCH   1   2
BRANCH   1  12
ATOM     12  C   UNL     1      20.150 116.369 297.222  1.00  0.00     0.000 C 
BRANCH  12  13
ATOM     13  C   UNL     1      18.715 116.582 296.710  1.00  0.00    -0.000 C 
BRANCH  13  14
ATOM     14  C   UNL     1      18.640 117.567 295.531  1.00  0.00    -0.000 C 
BRANCH  14  15
ATOM     15  C   UNL     1      17.417 117.398 294.603  1.00  0.00    -0.000 C 
BRANCH  15  16
ATOM     16  C   UNL     1      17.736 117.382 293.095  1.00  0.00    -0.000 C 
BRANCH  16  17
ATOM     17  C   UNL     1      17.383 116.050 292.396  1.00  0.00    -0.000 C 
BRANCH  17  18
ATOM     18  C   UNL     1      18.218 115.781 291.132  1.00  0.00    -0.003 C 
ATOM     19  C   UNL     1      17.460 114.973 290.081  1.00  0.00     0.004 C 
ENDBRANCH  17  18
ENDBRANCH  16  17
ENDBRANCH  15  16
ENDBRANCH  14  15
ENDBRANCH  13  14
ENDBRANCH  12  13
ENDBRANCH   1  12
TORSDOF 14
ENDMDL
MODEL 2
REMARK VINA RESULT:    -5.059      2.819      4.301
REMARK INTER + INTRA:         -10.306
REMARK INTER:                  -8.243
REMARK INTRA:                  -2.063
REMARK UNBOUND:                -1.107
REMARK SMILES CCCCCCCCCCCCCC[C@@H](C)C(=O)[O-]
REMARK SMILES IDX 9 1 10 2 11 3 12 4 13 5 14 6 15 7 16 8 17 9 18 10 19 11 8 12
REMARK SMILES IDX 7 13 6 14 5 15 4 16 3 17 2 18 1 19
REMARK H PARENT
REMARK Flexibility Score: inf
ROOT
ATOM      1  C   UNL     1      16.410 120.315 294.264  1.00  0.00     0.000 C 
ENDROOT
BRANCH   1   2
ATOM      2  C   UNL     1      17.565 120.921 295.077  1.00  0.00     0.000 C 
BRANCH   2   3
ATOM      3  C   UNL     1      18.922 120.456 294.536  1.00  0.00     0.000 C 
BRANCH   3   4
ATOM      4  C   UNL     1      19.729 119.733 295.626  1.00  0.00     0.000 C 
BRANCH   4   5
ATOM      5  C   UNL     1      20.939 118.970 295.061  1.00  0.00     0.001 C 
BRANCH   5   6
ATOM      6  C   UNL     1      21.403 117.830 295.986  1.00  0.00     0.009 C 
BRANCH   6   7
ATOM      7  C   UNL     1      20.451 117.610 297.182  1.00  0.00     0.032 C 
ATOM      8  C   UNL     1      19.913 116.173 297.246  1.00  0.00     0.014 C 
BRANCH   7   9
ATOM      9  C   UNL     1      21.159 117.942 298.468  1.00  0.00     0.044 C 
ATOM     10  O   UNL     1      20.503 118.278 299.491  1.00  0.00    -0.550 OA
ATOM     11  O   UNL     1      22.544 117.880 298.533  1.00  0.00    -0.550 OA
ENDBRANCH   7   9
ENDBRANCH   6   7
ENDBRANCH   5   6
ENDBRANCH   4   5
ENDBRANCH   3   4
ENDBRANCH   2   3
ENDBRANCH   1   2
BRANCH   1  12
ATOM     12  C   UNL     1      15.267 119.804 295.153  1.00  0.00     0.000 C 
BRANCH  12  13
ATOM     13  C   UNL     1      15.224 118.268 295.239  1.00  0.00    -0.000 C 
BRANCH  13  14
ATOM     14  C   UNL     1      16.558 117.657 295.703  1.00  0.00    -0.000 C 
BRANCH  14  15
ATOM     15  C   UNL     1      17.137 116.557 294.786  1.00  0.00    -0.000 C 
BRANCH  15  16
ATOM     16  C   UNL     1      17.996 117.068 293.613  1.00  0.00    -0.000 C 
BRANCH  16  17
ATOM     17  C   UNL     1      17.350 116.851 292.225  1.00  0.00    -0.000 C 
BRANCH  17  18
ATOM     18  C   UNL     1      18.144 115.892 291.323  1.00  0.00    -0.003 C 
ATOM     19  C   UNL     1      17.325 114.683 290.876  1.00  0.00     0.004 C 
ENDBRANCH  17  18
ENDBRANCH  16  17
ENDBRANCH  15  16
ENDBRANCH  14  15
ENDBRANCH  13  14
ENDBRANCH  12  13
ENDBRANCH   1  12
TORSDOF 14
ENDMDL
MODEL 3
REMARK VINA RESULT:    -4.979      1.607      2.538
REMARK INTER + INTRA:         -10.161
REMARK INTER:                  -8.485
REMARK INTRA:                  -1.675
REMARK UNBOUND:                -1.107
REMARK SMILES CCCCCCCCCCCCCC[C@@H](C)C(=O)[O-]
REMARK SMILES IDX 9 1 10 2 11 3 12 4 13 5 14 6 15 7 16 8 17 9 18 10 19 11 8 12
REMARK SMILES IDX 7 13 6 14 5 15 4 16 3 17 2 18 1 19
REMARK H PARENT
REMARK Flexibility Score: inf
ROOT
ATOM      1  C   UNL     1      20.863 118.227 294.619  1.00  0.00     0.000 C 
ENDROOT
BRANCH   1   2
ATOM      2  C   UNL     1      22.281 118.231 295.210  1.00  0.00     0.000 C 
BRANCH   2   3
ATOM      3  C   UNL     1      22.369 117.314 296.435  1.00  0.00     0.000 C 
BRANCH   3   4
ATOM      4  C   UNL     1      20.968 116.977 296.971  1.00  0.00     0.000 C 
BRANCH   4   5
ATOM      5  C   UNL     1      20.686 117.616 298.340  1.00  0.00     0.001 C 
BRANCH   5   6
ATOM      6  C   UNL     1      21.516 118.890 298.581  1.00  0.00     0.009 C 
BRANCH   6   7
ATOM      7  C   UNL     1      20.644 120.104 298.970  1.00  0.00     0.032 C 
ATOM      8  C   UNL     1      19.263 120.073 298.300  1.00  0.00     0.014 C 
BRANCH   7   9
ATOM      9  C   UNL     1      20.480 120.160 300.465  1.00  0.00     0.044 C 
ATOM     10  O   UNL     1      19.385 120.516 300.975  1.00  0.00    -0.550 OA
ATOM     11  O   UNL     1      21.542 119.817 301.292  1.00  0.00    -0.550 OA
ENDBRANCH   7   9
ENDBRANCH   6   7
ENDBRANCH   5   6
ENDBRANCH   4   5
ENDBRANCH   3   4
ENDBRANCH   2   3
ENDBRANCH   1   2
BRANCH   1  12
ATOM     12  C   UNL     1      20.196 119.610 294.678  1.00  0.00     0.000 C 
BRANCH  12  13
ATOM     13  C   UNL     1      18.660 119.526 294.692  1.00  0.00    -0.000 C 
BRANCH  13  14
ATOM     14  C   UNL     1      18.137 118.085 294.554  1.00  0.00    -0.000 C 
BRANCH  14  15
ATOM     15  C   UNL     1      17.171 117.840 293.375  1.00  0.00    -0.000 C 
BRANCH  15  16
ATOM     16  C   UNL     1      17.282 116.452 292.714  1.00  0.00    -0.000 C 
BRANCH  16  17
ATOM     17  C   UNL     1      18.408 116.349 291.661  1.00  0.00    -0.000 C 
BRANCH  17  18
ATOM     18  C   UNL     1      17.950 115.725 290.332  1.00  0.00    -0.003 C 
ATOM     19  C   UNL     1      17.211 114.402 290.522  1.00  0.00     0.004 C 
ENDBRANCH  17  18
ENDBRANCH  16  17
ENDBRANCH  15  16
ENDBRANCH  14  15
ENDBRANCH  13  14
ENDBRANCH  12  13
ENDBRANCH   1  12
TORSDOF 14
ENDMDL
MODEL 4
REMARK VINA RESULT:    -4.969      2.212      2.659
REMARK INTER + INTRA:         -10.143
REMARK INTER:                  -9.042
REMARK INTRA:                  -1.101
REMARK UNBOUND:                -1.107
REMARK SMILES CCCCCCCCCCCCCC[C@@H](C)C(=O)[O-]
REMARK SMILES IDX 9 1 10 2 11 3 12 4 13 5 14 6 15 7 16 8 17 9 18 10 19 11 8 12
REMARK SMILES IDX 7 13 6 14 5 15 4 16 3 17 2 18 1 19
REMARK H PARENT
REMARK Flexibility Score: inf
ROOT
ATOM      1  C   UNL     1      21.049 117.603 297.355  1.00  0.00     0.000 C 
ENDROOT
BRANCH   1   2
ATOM      2  C   UNL     1      22.359 117.031 296.792  1.00  0.00     0.000 C 
BRANCH   2   3
ATOM      3  C   UNL     1      22.738 117.720 295.475  1.00  0.00     0.000 C 
BRANCH   3   4
ATOM      4  C   UNL     1      23.989 118.594 295.654  1.00  0.00     0.000 C 
BRANCH   4   5
ATOM      5  C   UNL     1      23.749 119.793 296.585  1.00  0.00     0.001 C 
BRANCH   5   6
ATOM      6  C   UNL     1      24.587 119.718 297.874  1.00  0.00     0.009 C 
BRANCH   6   7
ATOM      7  C   UNL     1      23.753 120.002 299.143  1.00  0.00     0.032 C 
ATOM      8  C   UNL     1      23.401 118.720 299.912  1.00  0.00     0.014 C 
BRANCH   7   9
ATOM      9  C   UNL     1      24.500 120.945 300.047  1.00  0.00     0.044 C 
ATOM     10  O   UNL     1      25.685 120.695 300.394  1.00  0.00    -0.550 OA
ATOM     11  O   UNL     1      23.882 122.102 300.505  1.00  0.00    -0.550 OA
ENDBRANCH   7   9
ENDBRANCH   6   7
ENDBRANCH   5   6
ENDBRANCH   4   5
ENDBRANCH   3   4
ENDBRANCH   2   3
ENDBRANCH   1   2
BRANCH   1  12
ATOM     12  C   UNL     1      19.805 116.984 296.702  1.00  0.00     0.000 C 
BRANCH  12  13
ATOM     13  C   UNL     1      18.914 118.031 296.011  1.00  0.00    -0.000 C 
BRANCH  13  14
ATOM     14  C   UNL     1      19.042 118.009 294.478  1.00  0.00    -0.000 C 
BRANCH  14  15
ATOM     15  C   UNL     1      17.709 118.059 293.702  1.00  0.00    -0.000 C 
BRANCH  15  16
ATOM     16  C   UNL     1      17.284 116.732 293.042  1.00  0.00    -0.000 C 
BRANCH  16  17
ATOM     17  C   UNL     1      18.197 116.295 291.874  1.00  0.00    -0.000 C 
BRANCH  17  18
ATOM     18  C   UNL     1      17.421 115.845 290.625  1.00  0.00    -0.003 C 
ATOM     19  C   UNL     1      17.410 114.328 290.448  1.00  0.00     0.004 C 
ENDBRANCH  17  18
ENDBRANCH  16  17
ENDBRANCH  15  16
ENDBRANCH  14  15
ENDBRANCH  13  14
ENDBRANCH  12  13
ENDBRANCH   1  12
TORSDOF 14
ENDMDL
MODEL 5
REMARK VINA RESULT:    -4.959      5.194      6.967
REMARK INTER + INTRA:         -10.124
REMARK INTER:                  -9.302
REMARK INTRA:                  -0.822
REMARK UNBOUND:                -1.107
REMARK SMILES CCCCCCCCCCCCCC[C@@H](C)C(=O)[O-]
REMARK SMILES IDX 9 1 10 2 11 3 12 4 13 5 14 6 15 7 16 8 17 9 18 10 19 11 8 12
REMARK SMILES IDX 7 13 6 14 5 15 4 16 3 17 2 18 1 19
REMARK H PARENT
REMARK Flexibility Score: inf
ROOT
ATOM      1  C   UNL     1      20.700 118.882 295.657  1.00  0.00     0.000 C 
ENDROOT
BRANCH   1   2
ATOM      2  C   UNL     1      21.946 118.069 296.042  1.00  0.00     0.000 C 
BRANCH   2   3
ATOM      3  C   UNL     1      23.229 118.851 295.735  1.00  0.00     0.000 C 
BRANCH   3   4
ATOM      4  C   UNL     1      24.166 118.037 294.829  1.00  0.00     0.000 C 
BRANCH   4   5
ATOM      5  C   UNL     1      24.677 118.844 293.625  1.00  0.00     0.001 C 
BRANCH   5   6
ATOM      6  C   UNL     1      24.026 118.407 292.301  1.00  0.00     0.009 C 
BRANCH   6   7
ATOM      7  C   UNL     1      25.066 118.018 291.226  1.00  0.00     0.032 C 
ATOM      8  C   UNL     1      25.878 116.776 291.618  1.00  0.00     0.014 C 
BRANCH   7   9
ATOM      9  C   UNL     1      24.377 117.778 289.909  1.00  0.00     0.044 C 
ATOM     10  O   UNL     1      23.403 116.982 289.833  1.00  0.00    -0.550 OA
ATOM     11  O   UNL     1      24.816 118.435 288.768  1.00  0.00    -0.550 OA
ENDBRANCH   7   9
ENDBRANCH   6   7
ENDBRANCH   5   6
ENDBRANCH   4   5
ENDBRANCH   3   4
ENDBRANCH   2   3
ENDBRANCH   1   2
BRANCH   1  12
ATOM     12  C   UNL     1      19.616 118.020 294.993  1.00  0.00     0.000 C 
BRANCH  12  13
ATOM     13  C   UNL     1      18.229 118.219 295.629  1.00  0.00    -0.000 C 
BRANCH  13  14
ATOM     14  C   UNL     1      17.101 117.550 294.825  1.00  0.00    -0.000 C 
BRANCH  14  15
ATOM     15  C   UNL     1      17.243 117.632 293.290  1.00  0.00    -0.000 C 
BRANCH  15  16
ATOM     16  C   UNL     1      17.355 116.274 292.569  1.00  0.00    -0.000 C 
BRANCH  16  17
ATOM     17  C   UNL     1      18.415 116.249 291.445  1.00  0.00    -0.000 C 
BRANCH  17  18
ATOM     18  C   UNL     1      17.890 115.673 290.119  1.00  0.00    -0.003 C 
ATOM     19  C   UNL     1      17.077 114.394 290.309  1.00  0.00     0.004 C 
ENDBRANCH  17  18
ENDBRANCH  16  17
ENDBRANCH  15  16
ENDBRANCH  14  15
ENDBRANCH  13  14
ENDBRANCH  12  13
ENDBRANCH   1  12
TORSDOF 14
ENDMDL
MODEL 6
REMARK VINA RESULT:    -4.897      4.244      5.280
REMARK INTER + INTRA:         -10.013
REMARK INTER:                  -8.372
REMARK INTRA:                  -1.641
REMARK UNBOUND:                -1.107
REMARK SMILES CCCCCCCCCCCCCC[C@@H](C)C(=O)[O-]
REMARK SMILES IDX 9 1 10 2 11 3 12 4 13 5 14 6 15 7 16 8 17 9 18 10 19 11 8 12
REMARK SMILES IDX 7 13 6 14 5 15 4 16 3 17 2 18 1 19
REMARK H PARENT
REMARK Flexibility Score: inf
ROOT
ATOM      1  C   UNL     1      20.416 118.680 296.154  1.00  0.00     0.000 C 
ENDROOT
BRANCH   1   2
ATOM      2  C   UNL     1      20.262 119.254 294.737  1.00  0.00     0.000 C 
BRANCH   2   3
ATOM      3  C   UNL     1      20.746 120.708 294.678  1.00  0.00     0.000 C 
BRANCH   3   4
ATOM      4  C   UNL     1      19.603 121.652 294.274  1.00  0.00     0.000 C 
BRANCH   4   5
ATOM      5  C   UNL     1      18.344 121.463 295.135  1.00  0.00     0.001 C 
BRANCH   5   6
ATOM      6  C   UNL     1      17.051 121.463 294.301  1.00  0.00     0.009 C 
BRANCH   6   7
ATOM      7  C   UNL     1      16.927 122.708 293.395  1.00  0.00     0.032 C 
ATOM      8  C   UNL     1      15.789 122.578 292.372  1.00  0.00     0.014 C 
BRANCH   7   9
ATOM      9  C   UNL     1      16.712 123.936 294.238  1.00  0.00     0.044 C 
ATOM     10  O   UNL     1      15.711 124.023 294.998  1.00  0.00    -0.550 OA
ATOM     11  O   UNL     1      17.621 124.984 294.180  1.00  0.00    -0.550 OA
ENDBRANCH   7   9
ENDBRANCH   6   7
ENDBRANCH   5   6
ENDBRANCH   4   5
ENDBRANCH   3   4
ENDBRANCH   2   3
ENDBRANCH   1   2
BRANCH   1  12
ATOM     12  C   UNL     1      19.717 117.322 296.320  1.00  0.00     0.000 C 
BRANCH  12  13
ATOM     13  C   UNL     1      18.213 117.463 296.614  1.00  0.00    -0.000 C 
BRANCH  13  14
ATOM     14  C   UNL     1      17.329 116.814 295.534  1.00  0.00    -0.000 C 
BRANCH  14  15
ATOM     15  C   UNL     1      16.775 117.780 294.464  1.00  0.00    -0.000 C 
BRANCH  15  16
ATOM     16  C   UNL     1      17.343 117.581 293.045  1.00  0.00    -0.000 C 
BRANCH  16  17
ATOM     17  C   UNL     1      17.364 116.106 292.582  1.00  0.00    -0.000 C 
BRANCH  17  18
ATOM     18  C   UNL     1      18.054 115.900 291.223  1.00  0.00    -0.003 C 
ATOM     19  C   UNL     1      17.477 114.725 290.436  1.00  0.00     0.004 C 
ENDBRANCH  17  18
ENDBRANCH  16  17
ENDBRANCH  15  16
ENDBRANCH  14  15
ENDBRANCH  13  14
ENDBRANCH  12  13
ENDBRANCH   1  12
TORSDOF 14
ENDMDL
MODEL 7
REMARK VINA RESULT:    -4.841      2.665      4.011
REMARK INTER + INTRA:          -9.909
REMARK INTER:                  -8.171
REMARK INTRA:                  -1.738
REMARK UNBOUND:                -1.107
REMARK SMILES CCCCCCCCCCCCCC[C@@H](C)C(=O)[O-]
REMARK SMILES IDX 9 1 10 2 11 3 12 4 13 5 14 6 15 7 16 8 17 9 18 10 19 11 8 12
REMARK SMILES IDX 7 13 6 14 5 15 4 16 3 17 2 18 1 19
REMARK H PARENT
REMARK Flexibility Score: inf
ROOT
ATOM      1  C   UNL     1      16.513 118.739 297.691  1.00  0.00     0.000 C 
ENDROOT
BRANCH   1   2
ATOM      2  C   UNL     1      17.327 119.966 297.249  1.00  0.00     0.000 C 
BRANCH   2   3
ATOM      3  C   UNL     1      18.829 119.658 297.249  1.00  0.00     0.000 C 
BRANCH   3   4
ATOM      4  C   UNL     1      19.297 119.204 295.857  1.00  0.00     0.000 C 
BRANCH   4   5
ATOM      5  C   UNL     1      19.826 117.760 295.849  1.00  0.00     0.001 C 
BRANCH   5   6
ATOM      6  C   UNL     1      20.313 117.301 297.235  1.00  0.00     0.009 C 
BRANCH   6   7
ATOM      7  C   UNL     1      21.846 117.125 297.299  1.00  0.00     0.032 C 
ATOM      8  C   UNL     1      22.526 117.416 295.954  1.00  0.00     0.014 C 
BRANCH   7   9
ATOM      9  C   UNL     1      22.422 118.022 298.362  1.00  0.00     0.044 C 
ATOM     10  O   UNL     1      21.872 118.108 299.492  1.00  0.00    -0.550 OA
ATOM     11  O   UNL     1      23.567 118.762 298.099  1.00  0.00    -0.550 OA
ENDBRANCH   7   9
ENDBRANCH   6   7
ENDBRANCH   5   6
ENDBRANCH   4   5
ENDBRANCH   3   4
ENDBRANCH   2   3
ENDBRANCH   1   2
BRANCH   1  12
ATOM     12  C   UNL     1      15.437 118.346 296.668  1.00  0.00     0.000 C 
BRANCH  12  13
ATOM     13  C   UNL     1      16.007 117.533 295.493  1.00  0.00    -0.000 C 
BRANCH  13  14
ATOM     14  C   UNL     1      15.978 118.305 294.162  1.00  0.00    -0.000 C 
BRANCH  14  15
ATOM     15  C   UNL     1      17.156 118.017 293.205  1.00  0.00    -0.000 C 
BRANCH  15  16
ATOM     16  C   UNL     1      17.545 116.532 293.074  1.00  0.00    -0.000 C 
BRANCH  16  17
ATOM     17  C   UNL     1      18.163 116.167 291.705  1.00  0.00    -0.000 C 
BRANCH  17  18
ATOM     18  C   UNL     1      17.124 115.721 290.663  1.00  0.00    -0.003 C 
ATOM     19  C   UNL     1      17.343 114.288 290.182  1.00  0.00     0.004 C 
ENDBRANCH  17  18
ENDBRANCH  16  17
ENDBRANCH  15  16
ENDBRANCH  14  15
ENDBRANCH  13  14
ENDBRANCH  12  13
ENDBRANCH   1  12
TORSDOF 14
ENDMDL
MODEL 8
REMARK VINA RESULT:    -4.839      2.163      3.239
REMARK INTER + INTRA:          -9.906
REMARK INTER:                  -7.916
REMARK INTRA:                  -1.990
REMARK UNBOUND:                -1.107
REMARK SMILES CCCCCCCCCCCCCC[C@@H](C)C(=O)[O-]
REMARK SMILES IDX 9 1 10 2 11 3 12 4 13 5 14 6 15 7 16 8 17 9 18 10 19 11 8 12
REMARK SMILES IDX 7 13 6 14 5 15 4 16 3 17 2 18 1 19
REMARK H PARENT
REMARK Flexibility Score: inf
ROOT
ATOM      1  C   UNL     1      20.096 120.611 295.808  1.00  0.00     0.000 C 
ENDROOT
BRANCH   1   2
ATOM      2  C   UNL     1      21.553 120.294 295.439  1.00  0.00     0.000 C 
BRANCH   2   3
ATOM      3  C   UNL     1      21.649 118.976 294.661  1.00  0.00     0.000 C 
BRANCH   3   4
ATOM      4  C   UNL     1      22.515 117.955 295.415  1.00  0.00     0.000 C 
BRANCH   4   5
ATOM      5  C   UNL     1      21.779 117.313 296.602  1.00  0.00     0.001 C 
BRANCH   5   6
ATOM      6  C   UNL     1      22.514 117.524 297.938  1.00  0.00     0.009 C 
BRANCH   6   7
ATOM      7  C   UNL     1      21.947 118.711 298.748  1.00  0.00     0.032 C 
ATOM      8  C   UNL     1      20.434 118.590 298.983  1.00  0.00     0.014 C 
BRANCH   7   9
ATOM      9  C   UNL     1      22.657 118.815 300.071  1.00  0.00     0.044 C 
ATOM     10  O   UNL     1      23.793 119.356 300.146  1.00  0.00    -0.550 OA
ATOM     11  O   UNL     1      22.060 118.313 301.220  1.00  0.00    -0.550 OA
ENDBRANCH   7   9
ENDBRANCH   6   7
ENDBRANCH   5   6
ENDBRANCH   4   5
ENDBRANCH   3   4
ENDBRANCH   2   3
ENDBRANCH   1   2
BRANCH   1  12
ATOM     12  C   UNL     1      19.215 120.855 294.573  1.00  0.00     0.000 C 
BRANCH  12  13
ATOM     13  C   UNL     1      17.944 119.988 294.571  1.00  0.00    -0.000 C 
BRANCH  13  14
ATOM     14  C   UNL     1      18.010 118.828 295.580  1.00  0.00    -0.000 C 
BRANCH  14  15
ATOM     15  C   UNL     1      18.220 117.427 294.966  1.00  0.00    -0.000 C 
BRANCH  15  16
ATOM     16  C   UNL     1      18.466 117.409 293.444  1.00  0.00    -0.000 C 
BRANCH  16  17
ATOM     17  C   UNL     1      17.357 116.693 292.640  1.00  0.00    -0.000 C 
BRANCH  17  18
ATOM     18  C   UNL     1      17.843 116.128 291.295  1.00  0.00    -0.003 C 
ATOM     19  C   UNL     1      17.348 114.707 291.035  1.00  0.00     0.004 C 
ENDBRANCH  17  18
ENDBRANCH  16  17
ENDBRANCH  15  16
ENDBRANCH  14  15
ENDBRANCH  13  14
ENDBRANCH  12  13
ENDBRANCH   1  12
TORSDOF 14
ENDMDL
MODEL 9
REMARK VINA RESULT:    -4.799      1.518      2.168
REMARK INTER + INTRA:          -9.834
REMARK INTER:                  -9.130
REMARK INTRA:                  -0.704
REMARK UNBOUND:                -1.107
REMARK SMILES CCCCCCCCCCCCCC[C@@H](C)C(=O)[O-]
REMARK SMILES IDX 9 1 10 2 11 3 12 4 13 5 14 6 15 7 16 8 17 9 18 10 19 11 8 12
REMARK SMILES IDX 7 13 6 14 5 15 4 16 3 17 2 18 1 19
REMARK H PARENT
REMARK Flexibility Score: inf
ROOT
ATOM      1  C   UNL     1      21.761 117.096 296.509  1.00  0.00     0.000 C 
ENDROOT
BRANCH   1   2
ATOM      2  C   UNL     1      22.300 118.505 296.800  1.00  0.00     0.000 C 
BRANCH   2   3
ATOM      3  C   UNL     1      21.977 118.931 298.238  1.00  0.00     0.000 C 
BRANCH   3   4
ATOM      4  C   UNL     1      23.114 118.541 299.195  1.00  0.00     0.000 C 
BRANCH   4   5
ATOM      5  C   UNL     1      22.983 119.205 300.575  1.00  0.00     0.001 C 
BRANCH   5   6
ATOM      6  C   UNL     1      24.168 120.133 300.899  1.00  0.00     0.009 C 
BRANCH   6   7
ATOM      7  C   UNL     1      23.719 121.483 301.503  1.00  0.00     0.032 C 
ATOM      8  C   UNL     1      22.297 121.872 301.077  1.00  0.00     0.014 C 
BRANCH   7   9
ATOM      9  C   UNL     1      23.799 121.424 303.005  1.00  0.00     0.044 C 
ATOM     10  O   UNL     1      24.502 122.255 303.640  1.00  0.00    -0.550 OA
ATOM     11  O   UNL     1      23.094 120.450 303.699  1.00  0.00    -0.550 OA
ENDBRANCH   7   9
ENDBRANCH   6   7
ENDBRANCH   5   6
ENDBRANCH   4   5
ENDBRANCH   3   4
ENDBRANCH   2   3
ENDBRANCH   1   2
BRANCH   1  12
ATOM     12  C   UNL     1      20.312 116.908 296.984  1.00  0.00     0.000 C 
BRANCH  12  13
ATOM     13  C   UNL     1      19.290 117.571 296.044  1.00  0.00    -0.000 C 
BRANCH  13  14
ATOM     14  C   UNL     1      17.915 116.880 296.072  1.00  0.00    -0.000 C 
BRANCH  14  15
ATOM     15  C   UNL     1      17.034 117.109 294.825  1.00  0.00    -0.000 C 
BRANCH  15  16
ATOM     16  C   UNL     1      17.794 117.153 293.485  1.00  0.00    -0.000 C 
BRANCH  16  17
ATOM     17  C   UNL     1      17.257 116.159 292.429  1.00  0.00    -0.000 C 
BRANCH  17  18
ATOM     18  C   UNL     1      18.247 115.886 291.285  1.00  0.00    -0.003 C 
ATOM     19  C   UNL     1      17.701 114.904 290.250  1.00  0.00     0.004 C 
ENDBRANCH  17  18
ENDBRANCH  16  17
ENDBRANCH  15  16
ENDBRANCH  14  15
ENDBRANCH  13  14
ENDBRANCH  12  13
ENDBRANCH   1  12
TORSDOF 14
ENDMDL
