MODEL 1
REMARK VINA RESULT:    -1.990      0.000      0.000
REMARK INTER + INTRA:          -3.975
REMARK INTER:                  -2.979
REMARK INTRA:                  -0.997
REMARK UNBOUND:                -0.997
REMARK SMILES COC(=O)C1=CO[C@@H](O[C@@H]2O[C@H](CO)[C@H](O)[C@@H](O)[C@@H]2O)[C@@H]2C(CO)=CC[C@H]12
REMARK SMILES IDX 9 1 8 2 5 3 6 4 27 5 7 6 21 7 26 8 22 9 25 10 3 11 4 12 2 13
REMARK SMILES IDX 1 14 23 15 24 16 10 18 19 19 11 20 17 21 12 22 15 23 20 24
REMARK SMILES IDX 18 26 13 28 14 29 16 31
REMARK H PARENT 24 17 20 25 18 27 14 30 16 32
REMARK Flexibility Score: inf
ROOT
ATOM      1  O   UNL     1       0.235  23.797  21.526  1.00  0.00    -0.310 OA
ENDROOT
BRANCH   1   2
ATOM      2  C   UNL     1       0.856  22.697  20.884  1.00  0.00     0.316 C 
ATOM      3  C   UNL     1       1.057  24.117  18.423  1.00  0.00     0.076 C 
ATOM      4  C   UNL     1       2.108  24.027  19.253  1.00  0.00     0.202 C 
ATOM      5  C   UNL     1      -0.094  23.118  18.514  1.00  0.00     0.047 C 
ATOM      6  O   UNL     1       2.088  23.146  20.335  1.00  0.00    -0.471 OA
ATOM      7  C   UNL     1      -0.041  22.169  19.743  1.00  0.00     0.094 C 
ATOM      8  C   UNL     1      -0.070  22.170  17.298  1.00  0.00     0.037 C 
ATOM      9  C   UNL     1       0.439  20.869  19.171  1.00  0.00    -0.039 C 
ATOM     10  C   UNL     1       0.400  20.871  17.846  1.00  0.00    -0.024 C 
BRANCH   3  11
ATOM     11  C   UNL     1       1.024  25.154  17.365  1.00  0.00     0.337 C 
ATOM     12  O   UNL     1       2.097  25.606  16.875  1.00  0.00    -0.246 OA
BRANCH  11  13
ATOM     13  O   UNL     1      -0.208  25.641  16.917  1.00  0.00    -0.466 OA
ATOM     14  C   UNL     1      -0.887  26.717  17.553  1.00  0.00     0.282 C 
ENDBRANCH  11  13
ENDBRANCH   3  11
BRANCH   9  15
ATOM     15  C   UNL     1       0.741  19.635  19.981  1.00  0.00     0.187 C 
BRANCH  15  16
ATOM     16  O   UNL     1       0.315  18.489  19.298  1.00  0.00    -0.392 OA
ATOM     17  H   UNL     1       0.464  17.721  19.910  1.00  0.00     0.211 HD
ENDBRANCH  15  16
ENDBRANCH   9  15
ENDBRANCH   1   2
BRANCH   1  18
ATOM     18  C   UNL     1       1.129  24.527  22.357  1.00  0.00     0.286 C 
ATOM     19  C   UNL     1       0.817  26.035  22.288  1.00  0.00     0.202 C 
ATOM     20  O   UNL     1       1.083  24.031  23.689  1.00  0.00    -0.341 OA
ATOM     21  C   UNL     1      -0.545  26.328  22.928  1.00  0.00     0.179 C 
ATOM     22  C   UNL     1      -0.153  24.260  24.359  1.00  0.00     0.178 C 
ATOM     23  C   UNL     1      -0.567  25.756  24.347  1.00  0.00     0.177 C 
BRANCH  19  24
ATOM     24  O   UNL     1       0.810  26.466  20.952  1.00  0.00    -0.385 OA
ATOM     25  H   UNL     1       0.633  27.444  20.967  1.00  0.00     0.211 HD
ENDBRANCH  19  24
BRANCH  21  26
ATOM     26  O   UNL     1      -0.756  27.717  22.990  1.00  0.00    -0.387 OA
ATOM     27  H   UNL     1      -0.717  28.057  22.058  1.00  0.00     0.211 HD
ENDBRANCH  21  26
BRANCH  22  28
ATOM     28  C   UNL     1      -1.261  23.282  23.896  1.00  0.00     0.191 C 
BRANCH  28  29
ATOM     29  O   UNL     1      -0.730  22.007  23.647  1.00  0.00    -0.394 OA
ATOM     30  H   UNL     1       0.248  22.124  23.523  1.00  0.00     0.210 HD
ENDBRANCH  28  29
ENDBRANCH  22  28
BRANCH  23  31
ATOM     31  O   UNL     1      -1.845  25.931  24.904  1.00  0.00    -0.387 OA
ATOM     32  H   UNL     1      -1.833  25.487  25.792  1.00  0.00     0.211 HD
ENDBRANCH  23  31
ENDBRANCH   1  18
TORSDOF 11
ENDMDL
MODEL 2
REMARK VINA RESULT:    -1.666      2.340      7.326
REMARK INTER + INTRA:          -3.490
REMARK INTER:                  -2.436
REMARK INTRA:                  -1.054
REMARK UNBOUND:                -0.997
REMARK SMILES COC(=O)C1=CO[C@@H](O[C@@H]2O[C@H](CO)[C@H](O)[C@@H](O)[C@@H]2O)[C@@H]2C(CO)=CC[C@H]12
REMARK SMILES IDX 9 1 8 2 5 3 6 4 27 5 7 6 21 7 26 8 22 9 25 10 3 11 4 12 2 13
REMARK SMILES IDX 1 14 23 15 24 16 10 18 19 19 11 20 17 21 12 22 15 23 20 24
REMARK SMILES IDX 18 26 13 28 14 29 16 31
REMARK H PARENT 24 17 20 25 18 27 14 30 16 32
REMARK Flexibility Score: inf
ROOT
ATOM      1  O   UNL     1       0.046  24.812  22.827  1.00  0.00    -0.310 OA
ENDROOT
BRANCH   1   2
ATOM      2  C   UNL     1       0.344  25.484  24.039  1.00  0.00     0.316 C 
ATOM      3  C   UNL     1      -2.317  25.144  24.998  1.00  0.00     0.076 C 
ATOM      4  C   UNL     1      -1.333  24.320  25.393  1.00  0.00     0.202 C 
ATOM      5  C   UNL     1      -1.995  26.522  24.425  1.00  0.00     0.047 C 
ATOM      6  O   UNL     1       0.001  24.621  25.116  1.00  0.00    -0.471 OA
ATOM      7  C   UNL     1      -0.488  26.780  24.150  1.00  0.00     0.094 C 
ATOM      8  C   UNL     1      -2.394  27.620  25.432  1.00  0.00     0.037 C 
ATOM      9  C   UNL     1      -0.062  27.658  25.288  1.00  0.00    -0.039 C 
ATOM     10  C   UNL     1      -1.102  28.125  25.963  1.00  0.00    -0.024 C 
BRANCH   3  11
ATOM     11  C   UNL     1      -3.736  24.750  25.166  1.00  0.00     0.337 C 
ATOM     12  O   UNL     1      -4.659  25.437  24.645  1.00  0.00    -0.246 OA
BRANCH  11  13
ATOM     13  O   UNL     1      -4.050  23.614  25.918  1.00  0.00    -0.466 OA
ATOM     14  C   UNL     1      -5.389  23.244  26.229  1.00  0.00     0.282 C 
ENDBRANCH  11  13
ENDBRANCH   3  11
BRANCH   9  15
ATOM     15  C   UNL     1       1.351  28.124  25.529  1.00  0.00     0.187 C 
BRANCH  15  16
ATOM     16  O   UNL     1       2.057  27.169  26.271  1.00  0.00    -0.392 OA
ATOM     17  H   UNL     1       1.735  27.243  27.208  1.00  0.00     0.211 HD
ENDBRANCH  15  16
ENDBRANCH   9  15
ENDBRANCH   1   2
BRANCH   1  18
ATOM     18  C   UNL     1       1.100  23.960  22.397  1.00  0.00     0.286 C 
ATOM     19  C   UNL     1       0.533  22.754  21.621  1.00  0.00     0.202 C 
ATOM     20  O   UNL     1       2.046  24.693  21.628  1.00  0.00    -0.341 OA
ATOM     21  C   UNL     1      -0.086  23.213  20.296  1.00  0.00     0.179 C 
ATOM     22  C   UNL     1       1.551  25.161  20.377  1.00  0.00     0.178 C 
ATOM     23  C   UNL     1       0.950  24.021  19.512  1.00  0.00     0.177 C 
BRANCH  19  24
ATOM     24  O   UNL     1      -0.442  22.100  22.392  1.00  0.00    -0.385 OA
ATOM     25  H   UNL     1      -0.139  22.147  23.337  1.00  0.00     0.211 HD
ENDBRANCH  19  24
BRANCH  21  26
ATOM     26  O   UNL     1      -0.470  22.096  19.534  1.00  0.00    -0.387 OA
ATOM     27  H   UNL     1       0.133  21.351  19.791  1.00  0.00     0.211 HD
ENDBRANCH  21  26
BRANCH  22  28
ATOM     28  C   UNL     1       0.636  26.399  20.535  1.00  0.00     0.191 C 
BRANCH  28  29
ATOM     29  O   UNL     1       0.546  27.113  19.331  1.00  0.00    -0.394 OA
ATOM     30  H   UNL     1       0.750  26.471  18.602  1.00  0.00     0.210 HD
ENDBRANCH  28  29
ENDBRANCH  22  28
BRANCH  23  31
ATOM     31  O   UNL     1       0.361  24.532  18.343  1.00  0.00    -0.387 OA
ATOM     32  H   UNL     1      -0.021  23.757  17.853  1.00  0.00     0.211 HD
ENDBRANCH  23  31
ENDBRANCH   1  18
TORSDOF 11
ENDMDL
MODEL 3
REMARK VINA RESULT:    -0.891      1.871      6.341
REMARK INTER + INTRA:          -2.331
REMARK INTER:                  -1.245
REMARK INTRA:                  -1.085
REMARK UNBOUND:                -0.997
REMARK SMILES COC(=O)C1=CO[C@@H](O[C@@H]2O[C@H](CO)[C@H](O)[C@@H](O)[C@@H]2O)[C@@H]2C(CO)=CC[C@H]12
REMARK SMILES IDX 9 1 8 2 5 3 6 4 27 5 7 6 21 7 26 8 22 9 25 10 3 11 4 12 2 13
REMARK SMILES IDX 1 14 23 15 24 16 10 18 19 19 11 20 17 21 12 22 15 23 20 24
REMARK SMILES IDX 18 26 13 28 14 29 16 31
REMARK H PARENT 24 17 20 25 18 27 14 30 16 32
REMARK Flexibility Score: inf
ROOT
ATOM      1  O   UNL     1       0.777  23.639  18.983  1.00  0.00    -0.310 OA
ENDROOT
BRANCH   1   2
ATOM      2  C   UNL     1       0.966  25.002  18.641  1.00  0.00     0.316 C 
ATOM      3  C   UNL     1       0.974  25.793  21.378  1.00  0.00     0.076 C 
ATOM      4  C   UNL     1       2.125  25.625  20.707  1.00  0.00     0.202 C 
ATOM      5  C   UNL     1      -0.336  26.026  20.629  1.00  0.00     0.047 C 
ATOM      6  O   UNL     1       2.125  25.470  19.321  1.00  0.00    -0.471 OA
ATOM      7  C   UNL     1      -0.252  25.839  19.089  1.00  0.00     0.094 C 
ATOM      8  C   UNL     1      -0.797  27.486  20.812  1.00  0.00     0.037 C 
ATOM      9  C   UNL     1      -0.229  27.241  18.560  1.00  0.00    -0.039 C 
ATOM     10  C   UNL     1      -0.547  28.125  19.495  1.00  0.00    -0.024 C 
BRANCH   3  11
ATOM     11  C   UNL     1       0.966  25.811  22.860  1.00  0.00     0.337 C 
ATOM     12  O   UNL     1       1.892  26.385  23.499  1.00  0.00    -0.246 OA
BRANCH  11  13
ATOM     13  O   UNL     1      -0.071  25.177  23.551  1.00  0.00    -0.466 OA
ATOM     14  C   UNL     1      -1.065  25.895  24.273  1.00  0.00     0.282 C 
ENDBRANCH  11  13
ENDBRANCH   3  11
BRANCH   9  15
ATOM     15  C   UNL     1      -0.066  27.607  17.107  1.00  0.00     0.187 C 
BRANCH  15  16
ATOM     16  O   UNL     1       1.219  28.115  16.875  1.00  0.00    -0.392 OA
ATOM     17  H   UNL     1       1.475  28.620  17.691  1.00  0.00     0.211 HD
ENDBRANCH  15  16
ENDBRANCH   9  15
ENDBRANCH   1   2
BRANCH   1  18
ATOM     18  C   UNL     1       1.931  22.845  18.737  1.00  0.00     0.286 C 
ATOM     19  C   UNL     1       1.998  21.672  19.735  1.00  0.00     0.202 C 
ATOM     20  O   UNL     1       1.945  22.399  17.386  1.00  0.00    -0.341 OA
ATOM     21  C   UNL     1       0.853  20.685  19.479  1.00  0.00     0.179 C 
ATOM     22  C   UNL     1       0.909  21.477  17.061  1.00  0.00     0.178 C 
ATOM     23  C   UNL     1       0.884  20.252  18.012  1.00  0.00     0.177 C 
BRANCH  19  24
ATOM     24  O   UNL     1       1.916  22.154  21.052  1.00  0.00    -0.385 OA
ATOM     25  H   UNL     1       2.810  22.524  21.278  1.00  0.00     0.211 HD
ENDBRANCH  19  24
BRANCH  21  26
ATOM     26  O   UNL     1       1.006  19.552  20.296  1.00  0.00    -0.387 OA
ATOM     27  H   UNL     1       1.651  18.952  19.840  1.00  0.00     0.211 HD
ENDBRANCH  21  26
BRANCH  22  28
ATOM     28  C   UNL     1      -0.460  22.176  16.875  1.00  0.00     0.191 C 
BRANCH  28  29
ATOM     29  O   UNL     1      -1.251  22.041  18.026  1.00  0.00    -0.394 OA
ATOM     30  H   UNL     1      -1.816  22.855  18.082  1.00  0.00     0.210 HD
ENDBRANCH  28  29
ENDBRANCH  22  28
BRANCH  23  31
ATOM     31  O   UNL     1      -0.222  19.427  17.743  1.00  0.00    -0.387 OA
ATOM     32  H   UNL     1      -0.543  19.085  18.618  1.00  0.00     0.211 HD
ENDBRANCH  23  31
ENDBRANCH   1  18
TORSDOF 11
ENDMDL
MODEL 4
REMARK VINA RESULT:    -0.519      1.481      1.706
REMARK INTER + INTRA:          -1.774
REMARK INTER:                  -0.633
REMARK INTRA:                  -1.141
REMARK UNBOUND:                -0.997
REMARK SMILES COC(=O)C1=CO[C@@H](O[C@@H]2O[C@H](CO)[C@H](O)[C@@H](O)[C@@H]2O)[C@@H]2C(CO)=CC[C@H]12
REMARK SMILES IDX 9 1 8 2 5 3 6 4 27 5 7 6 21 7 26 8 22 9 25 10 3 11 4 12 2 13
REMARK SMILES IDX 1 14 23 15 24 16 10 18 19 19 11 20 17 21 12 22 15 23 20 24
REMARK SMILES IDX 18 26 13 28 14 29 16 31
REMARK H PARENT 24 17 20 25 18 27 14 30 16 32
REMARK Flexibility Score: inf
ROOT
ATOM      1  O   UNL     1       0.407  24.700  21.388  1.00  0.00    -0.310 OA
ENDROOT
BRANCH   1   2
ATOM      2  C   UNL     1       1.263  24.125  20.415  1.00  0.00     0.316 C 
ATOM      3  C   UNL     1       0.486  26.041  18.455  1.00  0.00     0.076 C 
ATOM      4  C   UNL     1       1.627  26.188  19.146  1.00  0.00     0.202 C 
ATOM      5  C   UNL     1      -0.183  24.673  18.339  1.00  0.00     0.047 C 
ATOM      6  O   UNL     1       2.125  25.146  19.929  1.00  0.00    -0.471 OA
ATOM      7  C   UNL     1       0.433  23.566  19.238  1.00  0.00     0.094 C 
ATOM      8  C   UNL     1      -0.030  24.129  16.904  1.00  0.00     0.037 C 
ATOM      9  C   UNL     1       1.245  22.742  18.285  1.00  0.00    -0.039 C 
ATOM     10  C   UNL     1       0.971  23.039  17.022  1.00  0.00    -0.024 C 
BRANCH   3  11
ATOM     11  C   UNL     1      -0.113  27.195  17.743  1.00  0.00     0.337 C 
ATOM     12  O   UNL     1       0.550  27.829  16.875  1.00  0.00    -0.246 OA
BRANCH  11  13
ATOM     13  O   UNL     1      -1.420  27.587  18.047  1.00  0.00    -0.466 OA
ATOM     14  C   UNL     1      -2.457  27.628  17.073  1.00  0.00     0.282 C 
ENDBRANCH  11  13
ENDBRANCH   3  11
BRANCH   9  15
ATOM     15  C   UNL     1       2.119  21.580  18.684  1.00  0.00     0.187 C 
BRANCH  15  16
ATOM     16  O   UNL     1       1.338  20.437  18.898  1.00  0.00    -0.392 OA
ATOM     17  H   UNL     1       1.215  20.007  18.011  1.00  0.00     0.211 HD
ENDBRANCH  15  16
ENDBRANCH   9  15
ENDBRANCH   1   2
BRANCH   1  18
ATOM     18  C   UNL     1       1.121  25.314  22.453  1.00  0.00     0.286 C 
ATOM     19  C   UNL     1       0.474  26.664  22.824  1.00  0.00     0.202 C 
ATOM     20  O   UNL     1       1.199  24.435  23.568  1.00  0.00    -0.341 OA
ATOM     21  C   UNL     1      -0.913  26.442  23.437  1.00  0.00     0.179 C 
ATOM     22  C   UNL     1      -0.051  24.172  24.199  1.00  0.00     0.178 C 
ATOM     23  C   UNL     1      -0.793  25.470  24.612  1.00  0.00     0.177 C 
BRANCH  19  24
ATOM     24  O   UNL     1       0.359  27.474  21.682  1.00  0.00    -0.385 OA
ATOM     25  H   UNL     1       1.251  27.483  21.246  1.00  0.00     0.211 HD
ENDBRANCH  19  24
BRANCH  21  26
ATOM     26  O   UNL     1      -1.432  27.663  23.901  1.00  0.00    -0.387 OA
ATOM     27  H   UNL     1      -2.413  27.636  23.750  1.00  0.00     0.211 HD
ENDBRANCH  21  26
BRANCH  22  28
ATOM     28  C   UNL     1      -0.912  23.167  23.395  1.00  0.00     0.191 C 
BRANCH  28  29
ATOM     29  O   UNL     1      -0.128  22.107  22.915  1.00  0.00    -0.394 OA
ATOM     30  H   UNL     1       0.394  21.766  23.688  1.00  0.00     0.210 HD
ENDBRANCH  28  29
ENDBRANCH  22  28
BRANCH  23  31
ATOM     31  O   UNL     1      -2.073  25.182  25.116  1.00  0.00    -0.387 OA
ATOM     32  H   UNL     1      -2.423  24.418  24.587  1.00  0.00     0.211 HD
ENDBRANCH  23  31
ENDBRANCH   1  18
TORSDOF 11
ENDMDL
MODEL 5
REMARK VINA RESULT:    -0.148      1.423      3.878
REMARK INTER + INTRA:          -1.218
REMARK INTER:                  -1.668
REMARK INTRA:                   0.450
REMARK UNBOUND:                -0.997
REMARK SMILES COC(=O)C1=CO[C@@H](O[C@@H]2O[C@H](CO)[C@H](O)[C@@H](O)[C@@H]2O)[C@@H]2C(CO)=CC[C@H]12
REMARK SMILES IDX 9 1 8 2 5 3 6 4 27 5 7 6 21 7 26 8 22 9 25 10 3 11 4 12 2 13
REMARK SMILES IDX 1 14 23 15 24 16 10 18 19 19 11 20 17 21 12 22 15 23 20 24
REMARK SMILES IDX 18 26 13 28 14 29 16 31
REMARK H PARENT 24 17 20 25 18 27 14 30 16 32
REMARK Flexibility Score: inf
ROOT
ATOM      1  O   UNL     1       1.193  24.331  21.338  1.00  0.00    -0.310 OA
ENDROOT
BRANCH   1   2
ATOM      2  C   UNL     1       0.825  24.452  19.975  1.00  0.00     0.316 C 
ATOM      3  C   UNL     1       0.587  21.629  19.682  1.00  0.00     0.076 C 
ATOM      4  C   UNL     1      -0.498  22.394  19.883  1.00  0.00     0.202 C 
ATOM      5  C   UNL     1       1.881  22.239  19.149  1.00  0.00     0.047 C 
ATOM      6  O   UNL     1      -0.416  23.783  19.792  1.00  0.00    -0.471 OA
ATOM      7  C   UNL     1       1.890  23.791  19.073  1.00  0.00     0.094 C 
ATOM      8  C   UNL     1       2.120  21.784  17.695  1.00  0.00     0.037 C 
ATOM      9  C   UNL     1       1.690  24.079  17.616  1.00  0.00    -0.039 C 
ATOM     10  C   UNL     1       1.837  22.990  16.875  1.00  0.00    -0.024 C 
BRANCH   3  11
ATOM     11  C   UNL     1       0.528  20.167  19.922  1.00  0.00     0.337 C 
ATOM     12  O   UNL     1       0.776  19.694  21.066  1.00  0.00    -0.246 OA
BRANCH  11  13
ATOM     13  O   UNL     1       0.206  19.309  18.866  1.00  0.00    -0.466 OA
ATOM     14  C   UNL     1       0.372  17.899  18.943  1.00  0.00     0.282 C 
ENDBRANCH  11  13
ENDBRANCH   3  11
BRANCH   9  15
ATOM     15  C   UNL     1       1.538  25.458  17.027  1.00  0.00     0.187 C 
BRANCH  15  16
ATOM     16  O   UNL     1       0.183  25.801  16.938  1.00  0.00    -0.392 OA
ATOM     17  H   UNL     1      -0.032  26.323  17.755  1.00  0.00     0.211 HD
ENDBRANCH  15  16
ENDBRANCH   9  15
ENDBRANCH   1   2
BRANCH   1  18
ATOM     18  C   UNL     1       1.819  25.502  21.846  1.00  0.00     0.286 C 
ATOM     19  C   UNL     1       1.075  26.762  21.360  1.00  0.00     0.202 C 
ATOM     20  O   UNL     1       1.901  25.443  23.265  1.00  0.00    -0.341 OA
ATOM     21  C   UNL     1      -0.322  26.833  21.987  1.00  0.00     0.179 C 
ATOM     22  C   UNL     1       0.642  25.501  23.930  1.00  0.00     0.178 C 
ATOM     23  C   UNL     1      -0.195  26.738  23.509  1.00  0.00     0.177 C 
BRANCH  19  24
ATOM     24  O   UNL     1       0.961  26.746  19.961  1.00  0.00    -0.385 OA
ATOM     25  H   UNL     1       1.350  27.599  19.632  1.00  0.00     0.211 HD
ENDBRANCH  19  24
BRANCH  21  26
ATOM     26  O   UNL     1      -0.936  28.053  21.653  1.00  0.00    -0.387 OA
ATOM     27  H   UNL     1      -0.379  28.773  22.047  1.00  0.00     0.211 HD
ENDBRANCH  21  26
BRANCH  22  28
ATOM     28  C   UNL     1      -0.118  24.155  23.861  1.00  0.00     0.191 C 
BRANCH  28  29
ATOM     29  O   UNL     1      -1.175  24.130  24.784  1.00  0.00    -0.394 OA
ATOM     30  H   UNL     1      -0.766  24.075  25.686  1.00  0.00     0.210 HD
ENDBRANCH  28  29
ENDBRANCH  22  28
BRANCH  23  31
ATOM     31  O   UNL     1      -1.476  26.700  24.086  1.00  0.00    -0.387 OA
ATOM     32  H   UNL     1      -1.597  27.558  24.570  1.00  0.00     0.211 HD
ENDBRANCH  23  31
ENDBRANCH   1  18
TORSDOF 11
ENDMDL
MODEL 6
REMARK VINA RESULT:     0.010      1.777      5.897
REMARK INTER + INTRA:          -0.983
REMARK INTER:                   0.350
REMARK INTRA:                  -1.332
REMARK UNBOUND:                -0.997
REMARK SMILES COC(=O)C1=CO[C@@H](O[C@@H]2O[C@H](CO)[C@H](O)[C@@H](O)[C@@H]2O)[C@@H]2C(CO)=CC[C@H]12
REMARK SMILES IDX 9 1 8 2 5 3 6 4 27 5 7 6 21 7 26 8 22 9 25 10 3 11 4 12 2 13
REMARK SMILES IDX 1 14 23 15 24 16 10 18 19 19 11 20 17 21 12 22 15 23 20 24
REMARK SMILES IDX 18 26 13 28 14 29 16 31
REMARK H PARENT 24 17 20 25 18 27 14 30 16 32
REMARK Flexibility Score: inf
ROOT
ATOM      1  O   UNL     1       1.003  23.808  19.780  1.00  0.00    -0.310 OA
ENDROOT
BRANCH   1   2
ATOM      2  C   UNL     1       1.051  25.100  19.201  1.00  0.00     0.316 C 
ATOM      3  C   UNL     1       0.865  26.360  21.749  1.00  0.00     0.076 C 
ATOM      4  C   UNL     1       2.052  26.212  21.140  1.00  0.00     0.202 C 
ATOM      5  C   UNL     1      -0.434  26.301  20.948  1.00  0.00     0.047 C 
ATOM      6  O   UNL     1       2.122  25.814  19.804  1.00  0.00    -0.471 OA
ATOM      7  C   UNL     1      -0.270  25.854  19.469  1.00  0.00     0.094 C 
ATOM      8  C   UNL     1      -1.063  27.705  20.856  1.00  0.00     0.037 C 
ATOM      9  C   UNL     1      -0.385  27.133  18.695  1.00  0.00    -0.039 C 
ATOM     10  C   UNL     1      -0.836  28.125  19.449  1.00  0.00    -0.024 C 
BRANCH   3  11
ATOM     11  C   UNL     1       0.798  26.641  23.203  1.00  0.00     0.337 C 
ATOM     12  O   UNL     1       1.526  27.536  23.718  1.00  0.00    -0.246 OA
BRANCH  11  13
ATOM     13  O   UNL     1      -0.071  25.898  24.008  1.00  0.00    -0.466 OA
ATOM     14  C   UNL     1      -1.157  26.487  24.713  1.00  0.00     0.282 C 
ENDBRANCH  11  13
ENDBRANCH   3  11
BRANCH   9  15
ATOM     15  C   UNL     1      -0.209  27.251  17.202  1.00  0.00     0.187 C 
BRANCH  15  16
ATOM     16  O   UNL     1       1.124  27.553  16.894  1.00  0.00    -0.392 OA
ATOM     17  H   UNL     1       1.156  28.526  16.699  1.00  0.00     0.211 HD
ENDBRANCH  15  16
ENDBRANCH   9  15
ENDBRANCH   1   2
BRANCH   1  18
ATOM     18  C   UNL     1       0.048  22.960  19.157  1.00  0.00     0.286 C 
ATOM     19  C   UNL     1       0.753  21.925  18.258  1.00  0.00     0.202 C 
ATOM     20  O   UNL     1      -0.779  22.342  20.136  1.00  0.00    -0.341 OA
ATOM     21  C   UNL     1       1.564  20.942  19.110  1.00  0.00     0.179 C 
ATOM     22  C   UNL     1      -0.102  21.412  20.976  1.00  0.00     0.178 C 
ATOM     23  C   UNL     1       0.650  20.321  20.168  1.00  0.00     0.177 C 
BRANCH  19  24
ATOM     24  O   UNL     1       1.606  22.574  17.351  1.00  0.00    -0.385 OA
ATOM     25  H   UNL     1       2.084  21.864  16.848  1.00  0.00     0.211 HD
ENDBRANCH  19  24
BRANCH  21  26
ATOM     26  O   UNL     1       2.086  19.920  18.297  1.00  0.00    -0.387 OA
ATOM     27  H   UNL     1       2.024  20.238  17.359  1.00  0.00     0.211 HD
ENDBRANCH  21  26
BRANCH  22  28
ATOM     28  C   UNL     1       0.753  22.115  22.058  1.00  0.00     0.191 C 
BRANCH  28  29
ATOM     29  O   UNL     1      -0.030  22.996  22.820  1.00  0.00    -0.394 OA
ATOM     30  H   UNL     1       0.010  23.878  22.368  1.00  0.00     0.210 HD
ENDBRANCH  28  29
ENDBRANCH  22  28
BRANCH  23  31
ATOM     31  O   UNL     1       1.407  19.496  21.017  1.00  0.00    -0.387 OA
ATOM     32  H   UNL     1       1.853  20.093  21.673  1.00  0.00     0.211 HD
ENDBRANCH  23  31
ENDBRANCH   1  18
TORSDOF 11
ENDMDL
