MODEL 1
REMARK VINA RESULT:    -3.104      0.000      0.000
REMARK INTER + INTRA:          -8.111
REMARK INTER:                  -5.644
REMARK INTRA:                  -2.467
REMARK UNBOUND:                -2.467
REMARK SMILES CCCCCCCCCCCCCCCC(=O)[O-]
REMARK SMILES IDX 9 1 10 2 11 3 12 4 13 5 14 6 15 7 16 8 17 9 18 10 8 11 7 12
REMARK SMILES IDX 6 13 5 14 4 15 3 16 2 17 1 18
REMARK H PARENT
REMARK Flexibility Score: inf
ROOT
ATOM      1  C   UNL     1      57.342  27.644  52.468  1.00  0.00     0.000 C 
ENDROOT
BRANCH   1   2
ATOM      2  C   UNL     1      57.217  29.167  52.652  1.00  0.00     0.000 C 
BRANCH   2   3
ATOM      3  C   UNL     1      57.716  29.961  51.431  1.00  0.00     0.000 C 
BRANCH   3   4
ATOM      4  C   UNL     1      57.709  29.186  50.100  1.00  0.00     0.000 C 
BRANCH   4   5
ATOM      5  C   UNL     1      58.946  29.468  49.234  1.00  0.00     0.000 C 
BRANCH   5   6
ATOM      6  C   UNL     1      59.931  28.291  49.283  1.00  0.00     0.006 C 
BRANCH   6   7
ATOM      7  C   UNL     1      59.214  26.934  49.291  1.00  0.00     0.053 C 
BRANCH   7   8
ATOM      8  C   UNL     1      59.970  25.912  50.082  1.00  0.00     0.041 C 
ATOM      9  O   UNL     1      61.221  25.997  50.200  1.00  0.00    -0.550 OA
ATOM     10  O   UNL     1      59.287  24.881  50.716  1.00  0.00    -0.550 OA
ENDBRANCH   7   8
ENDBRANCH   6   7
ENDBRANCH   5   6
ENDBRANCH   4   5
ENDBRANCH   3   4
ENDBRANCH   2   3
ENDBRANCH   1   2
BRANCH   1  11
ATOM     11  C   UNL     1      56.107  26.885  52.980  1.00  0.00     0.000 C 
BRANCH  11  12
ATOM     12  C   UNL     1      55.668  25.759  52.026  1.00  0.00    -0.000 C 
BRANCH  12  13
ATOM     13  C   UNL     1      55.889  26.121  50.548  1.00  0.00    -0.000 C 
BRANCH  13  14
ATOM     14  C   UNL     1      54.573  26.208  49.757  1.00  0.00    -0.000 C 
BRANCH  14  15
ATOM     15  C   UNL     1      54.015  27.641  49.675  1.00  0.00    -0.000 C 
BRANCH  15  16
ATOM     16  C   UNL     1      53.065  28.038  50.818  1.00  0.00    -0.000 C 
BRANCH  16  17
ATOM     17  C   UNL     1      53.590  29.215  51.653  1.00  0.00    -0.003 C 
ATOM     18  C   UNL     1      54.125  30.329  50.758  1.00  0.00     0.004 C 
ENDBRANCH  16  17
ENDBRANCH  15  16
ENDBRANCH  14  15
ENDBRANCH  13  14
ENDBRANCH  12  13
ENDBRANCH  11  12
ENDBRANCH   1  11
TORSDOF 14
ENDMDL
MODEL 2
REMARK VINA RESULT:    -2.924      2.533      5.403
REMARK INTER + INTRA:          -7.783
REMARK INTER:                  -5.588
REMARK INTRA:                  -2.195
REMARK UNBOUND:                -2.467
REMARK SMILES CCCCCCCCCCCCCCCC(=O)[O-]
REMARK SMILES IDX 9 1 10 2 11 3 12 4 13 5 14 6 15 7 16 8 17 9 18 10 8 11 7 12
REMARK SMILES IDX 6 13 5 14 4 15 3 16 2 17 1 18
REMARK H PARENT
REMARK Flexibility Score: inf
ROOT
ATOM      1  C   UNL     1      59.218  25.114  51.138  1.00  0.00     0.000 C 
ENDROOT
BRANCH   1   2
ATOM      2  C   UNL     1      58.259  26.114  51.809  1.00  0.00     0.000 C 
BRANCH   2   3
ATOM      3  C   UNL     1      56.782  25.853  51.462  1.00  0.00     0.000 C 
BRANCH   3   4
ATOM      4  C   UNL     1      56.355  26.292  50.048  1.00  0.00     0.000 C 
BRANCH   4   5
ATOM      5  C   UNL     1      54.831  26.377  49.881  1.00  0.00     0.000 C 
BRANCH   5   6
ATOM      6  C   UNL     1      54.359  27.839  49.877  1.00  0.00     0.006 C 
BRANCH   6   7
ATOM      7  C   UNL     1      53.237  28.090  50.892  1.00  0.00     0.053 C 
BRANCH   7   8
ATOM      8  C   UNL     1      53.682  27.803  52.294  1.00  0.00     0.041 C 
ATOM      9  O   UNL     1      53.111  26.908  52.970  1.00  0.00    -0.550 OA
ATOM     10  O   UNL     1      54.750  28.504  52.840  1.00  0.00    -0.550 OA
ENDBRANCH   7   8
ENDBRANCH   6   7
ENDBRANCH   5   6
ENDBRANCH   4   5
ENDBRANCH   3   4
ENDBRANCH   2   3
ENDBRANCH   1   2
BRANCH   1  11
ATOM     11  C   UNL     1      59.931  25.709  49.913  1.00  0.00     0.000 C 
BRANCH  11  12
ATOM     12  C   UNL     1      61.047  26.695  50.303  1.00  0.00    -0.000 C 
BRANCH  12  13
ATOM     13  C   UNL     1      60.874  28.072  49.640  1.00  0.00    -0.000 C 
BRANCH  13  14
ATOM     14  C   UNL     1      59.468  28.272  49.050  1.00  0.00    -0.000 C 
BRANCH  14  15
ATOM     15  C   UNL     1      58.852  29.635  49.415  1.00  0.00    -0.000 C 
BRANCH  15  16
ATOM     16  C   UNL     1      57.645  29.571  50.368  1.00  0.00    -0.000 C 
BRANCH  16  17
ATOM     17  C   UNL     1      58.036  29.739  51.844  1.00  0.00    -0.003 C 
ATOM     18  C   UNL     1      59.316  30.558  51.984  1.00  0.00     0.004 C 
ENDBRANCH  16  17
ENDBRANCH  15  16
ENDBRANCH  14  15
ENDBRANCH  13  14
ENDBRANCH  12  13
ENDBRANCH  11  12
ENDBRANCH   1  11
TORSDOF 14
ENDMDL
MODEL 3
REMARK VINA RESULT:    -2.901      2.920      4.277
REMARK INTER + INTRA:          -7.743
REMARK INTER:                  -5.701
REMARK INTRA:                  -2.042
REMARK UNBOUND:                -2.467
REMARK SMILES CCCCCCCCCCCCCCCC(=O)[O-]
REMARK SMILES IDX 9 1 10 2 11 3 12 4 13 5 14 6 15 7 16 8 17 9 18 10 8 11 7 12
REMARK SMILES IDX 6 13 5 14 4 15 3 16 2 17 1 18
REMARK H PARENT
REMARK Flexibility Score: inf
ROOT
ATOM      1  C   UNL     1      60.024  27.213  50.962  1.00  0.00     0.000 C 
ENDROOT
BRANCH   1   2
ATOM      2  C   UNL     1      59.699  27.288  49.459  1.00  0.00     0.000 C 
BRANCH   2   3
ATOM      3  C   UNL     1      59.038  28.619  49.055  1.00  0.00     0.000 C 
BRANCH   3   4
ATOM      4  C   UNL     1      58.575  29.502  50.228  1.00  0.00     0.000 C 
BRANCH   4   5
ATOM      5  C   UNL     1      57.069  29.392  50.505  1.00  0.00     0.000 C 
BRANCH   5   6
ATOM      6  C   UNL     1      56.770  29.578  52.000  1.00  0.00     0.006 C 
BRANCH   6   7
ATOM      7  C   UNL     1      57.933  30.244  52.747  1.00  0.00     0.053 C 
BRANCH   7   8
ATOM      8  C   UNL     1      57.589  31.634  53.185  1.00  0.00     0.041 C 
ATOM      9  O   UNL     1      56.397  32.037  53.141  1.00  0.00    -0.550 OA
ATOM     10  O   UNL     1      58.583  32.475  53.672  1.00  0.00    -0.550 OA
ENDBRANCH   7   8
ENDBRANCH   6   7
ENDBRANCH   5   6
ENDBRANCH   4   5
ENDBRANCH   3   4
ENDBRANCH   2   3
ENDBRANCH   1   2
BRANCH   1  11
ATOM     11  C   UNL     1      59.418  25.971  51.636  1.00  0.00     0.000 C 
BRANCH  11  12
ATOM     12  C   UNL     1      58.025  25.620  51.081  1.00  0.00    -0.000 C 
BRANCH  12  13
ATOM     13  C   UNL     1      56.916  25.772  52.137  1.00  0.00    -0.000 C 
BRANCH  13  14
ATOM     14  C   UNL     1      55.517  25.897  51.511  1.00  0.00    -0.000 C 
BRANCH  14  15
ATOM     15  C   UNL     1      55.552  26.409  50.059  1.00  0.00    -0.000 C 
BRANCH  15  16
ATOM     16  C   UNL     1      54.370  25.960  49.180  1.00  0.00    -0.000 C 
BRANCH  16  17
ATOM     17  C   UNL     1      53.088  26.764  49.444  1.00  0.00    -0.003 C 
ATOM     18  C   UNL     1      53.411  28.209  49.811  1.00  0.00     0.004 C 
ENDBRANCH  16  17
ENDBRANCH  15  16
ENDBRANCH  14  15
ENDBRANCH  13  14
ENDBRANCH  12  13
ENDBRANCH  11  12
ENDBRANCH   1  11
TORSDOF 14
ENDMDL
MODEL 4
REMARK VINA RESULT:    -2.887      2.205      3.577
REMARK INTER + INTRA:          -7.717
REMARK INTER:                  -5.889
REMARK INTRA:                  -1.827
REMARK UNBOUND:                -2.467
REMARK SMILES CCCCCCCCCCCCCCCC(=O)[O-]
REMARK SMILES IDX 9 1 10 2 11 3 12 4 13 5 14 6 15 7 16 8 17 9 18 10 8 11 7 12
REMARK SMILES IDX 6 13 5 14 4 15 3 16 2 17 1 18
REMARK H PARENT
REMARK Flexibility Score: inf
ROOT
ATOM      1  C   UNL     1      58.594  25.886  51.058  1.00  0.00     0.000 C 
ENDROOT
BRANCH   1   2
ATOM      2  C   UNL     1      59.023  26.208  49.615  1.00  0.00     0.000 C 
BRANCH   2   3
ATOM      3  C   UNL     1      59.931  27.447  49.522  1.00  0.00     0.000 C 
BRANCH   3   4
ATOM      4  C   UNL     1      59.255  28.713  48.962  1.00  0.00     0.000 C 
BRANCH   4   5
ATOM      5  C   UNL     1      59.093  29.822  50.012  1.00  0.00     0.000 C 
BRANCH   5   6
ATOM      6  C   UNL     1      60.350  29.937  50.888  1.00  0.00     0.006 C 
BRANCH   6   7
ATOM      7  C   UNL     1      61.414  30.846  50.261  1.00  0.00     0.053 C 
BRANCH   7   8
ATOM      8  C   UNL     1      62.671  30.094  49.945  1.00  0.00     0.041 C 
ATOM      9  O   UNL     1      63.471  30.531  49.077  1.00  0.00    -0.550 OA
ATOM     10  O   UNL     1      62.973  28.927  50.636  1.00  0.00    -0.550 OA
ENDBRANCH   7   8
ENDBRANCH   6   7
ENDBRANCH   5   6
ENDBRANCH   4   5
ENDBRANCH   3   4
ENDBRANCH   2   3
ENDBRANCH   1   2
BRANCH   1  11
ATOM     11  C   UNL     1      57.068  25.917  51.241  1.00  0.00     0.000 C 
BRANCH  11  12
ATOM     12  C   UNL     1      56.529  27.342  51.462  1.00  0.00    -0.000 C 
BRANCH  12  13
ATOM     13  C   UNL     1      55.882  27.930  50.197  1.00  0.00    -0.000 C 
BRANCH  13  14
ATOM     14  C   UNL     1      54.466  28.473  50.454  1.00  0.00    -0.000 C 
BRANCH  14  15
ATOM     15  C   UNL     1      53.360  27.508  49.990  1.00  0.00    -0.000 C 
BRANCH  15  16
ATOM     16  C   UNL     1      53.839  26.346  49.101  1.00  0.00    -0.000 C 
BRANCH  16  17
ATOM     17  C   UNL     1      53.564  24.967  49.717  1.00  0.00    -0.003 C 
ATOM     18  C   UNL     1      53.231  25.084  51.202  1.00  0.00     0.004 C 
ENDBRANCH  16  17
ENDBRANCH  15  16
ENDBRANCH  14  15
ENDBRANCH  13  14
ENDBRANCH  12  13
ENDBRANCH  11  12
ENDBRANCH   1  11
TORSDOF 14
ENDMDL
MODEL 5
REMARK VINA RESULT:    -2.872      2.746      4.950
REMARK INTER + INTRA:          -7.689
REMARK INTER:                  -6.159
REMARK INTRA:                  -1.529
REMARK UNBOUND:                -2.467
REMARK SMILES CCCCCCCCCCCCCCCC(=O)[O-]
REMARK SMILES IDX 9 1 10 2 11 3 12 4 13 5 14 6 15 7 16 8 17 9 18 10 8 11 7 12
REMARK SMILES IDX 6 13 5 14 4 15 3 16 2 17 1 18
REMARK H PARENT
REMARK Flexibility Score: inf
ROOT
ATOM      1  C   UNL     1      60.550  27.139  49.852  1.00  0.00     0.000 C 
ENDROOT
BRANCH   1   2
ATOM      2  C   UNL     1      59.241  26.348  49.679  1.00  0.00     0.000 C 
BRANCH   2   3
ATOM      3  C   UNL     1      59.273  24.978  50.381  1.00  0.00     0.000 C 
BRANCH   3   4
ATOM      4  C   UNL     1      60.501  24.729  51.276  1.00  0.00     0.000 C 
BRANCH   4   5
ATOM      5  C   UNL     1      61.277  23.461  50.892  1.00  0.00     0.000 C 
BRANCH   5   6
ATOM      6  C   UNL     1      60.908  22.999  49.474  1.00  0.00     0.006 C 
BRANCH   6   7
ATOM      7  C   UNL     1      61.448  21.598  49.160  1.00  0.00     0.053 C 
BRANCH   7   8
ATOM      8  C   UNL     1      60.394  20.547  49.326  1.00  0.00     0.041 C 
ATOM      9  O   UNL     1      59.661  20.223  48.355  1.00  0.00    -0.550 OA
ATOM     10  O   UNL     1      60.243  19.901  50.548  1.00  0.00    -0.550 OA
ENDBRANCH   7   8
ENDBRANCH   6   7
ENDBRANCH   5   6
ENDBRANCH   4   5
ENDBRANCH   3   4
ENDBRANCH   2   3
ENDBRANCH   1   2
BRANCH   1  11
ATOM     11  C   UNL     1      60.394  28.625  49.490  1.00  0.00     0.000 C 
BRANCH  11  12
ATOM     12  C   UNL     1      58.938  29.001  49.158  1.00  0.00    -0.000 C 
BRANCH  12  13
ATOM     13  C   UNL     1      58.234  29.714  50.325  1.00  0.00    -0.000 C 
BRANCH  13  14
ATOM     14  C   UNL     1      56.803  29.198  50.556  1.00  0.00    -0.000 C 
BRANCH  14  15
ATOM     15  C   UNL     1      56.703  28.221  51.742  1.00  0.00    -0.000 C 
BRANCH  15  16
ATOM     16  C   UNL     1      55.972  26.900  51.440  1.00  0.00    -0.000 C 
BRANCH  16  17
ATOM     17  C   UNL     1      55.605  26.744  49.957  1.00  0.00    -0.003 C 
ATOM     18  C   UNL     1      54.097  26.854  49.749  1.00  0.00     0.004 C 
ENDBRANCH  16  17
ENDBRANCH  15  16
ENDBRANCH  14  15
ENDBRANCH  13  14
ENDBRANCH  12  13
ENDBRANCH  11  12
ENDBRANCH   1  11
TORSDOF 14
ENDMDL
MODEL 6
REMARK VINA RESULT:    -2.868      2.977      5.477
REMARK INTER + INTRA:          -7.682
REMARK INTER:                  -5.456
REMARK INTRA:                  -2.226
REMARK UNBOUND:                -2.467
REMARK SMILES CCCCCCCCCCCCCCCC(=O)[O-]
REMARK SMILES IDX 9 1 10 2 11 3 12 4 13 5 14 6 15 7 16 8 17 9 18 10 8 11 7 12
REMARK SMILES IDX 6 13 5 14 4 15 3 16 2 17 1 18
REMARK H PARENT
REMARK Flexibility Score: inf
ROOT
ATOM      1  C   UNL     1      57.997  26.417  51.992  1.00  0.00     0.000 C 
ENDROOT
BRANCH   1   2
ATOM      2  C   UNL     1      56.504  26.243  52.321  1.00  0.00     0.000 C 
BRANCH   2   3
ATOM      3  C   UNL     1      55.656  25.888  51.085  1.00  0.00     0.000 C 
BRANCH   3   4
ATOM      4  C   UNL     1      55.559  26.994  50.018  1.00  0.00     0.000 C 
BRANCH   4   5
ATOM      5  C   UNL     1      54.201  27.712  50.019  1.00  0.00     0.000 C 
BRANCH   5   6
ATOM      6  C   UNL     1      54.363  29.194  50.389  1.00  0.00     0.006 C 
BRANCH   6   7
ATOM      7  C   UNL     1      54.635  29.393  51.885  1.00  0.00     0.053 C 
BRANCH   7   8
ATOM      8  C   UNL     1      54.672  30.844  52.254  1.00  0.00     0.041 C 
ATOM      9  O   UNL     1      55.646  31.310  52.902  1.00  0.00    -0.550 OA
ATOM     10  O   UNL     1      53.644  31.689  51.854  1.00  0.00    -0.550 OA
ENDBRANCH   7   8
ENDBRANCH   6   7
ENDBRANCH   5   6
ENDBRANCH   4   5
ENDBRANCH   3   4
ENDBRANCH   2   3
ENDBRANCH   1   2
BRANCH   1  11
ATOM     11  C   UNL     1      58.700  25.078  51.715  1.00  0.00     0.000 C 
BRANCH  11  12
ATOM     12  C   UNL     1      59.494  25.090  50.396  1.00  0.00    -0.000 C 
BRANCH  12  13
ATOM     13  C   UNL     1      59.344  26.415  49.630  1.00  0.00    -0.000 C 
BRANCH  13  14
ATOM     14  C   UNL     1      60.602  27.295  49.716  1.00  0.00    -0.000 C 
BRANCH  14  15
ATOM     15  C   UNL     1      60.286  28.801  49.679  1.00  0.00    -0.000 C 
BRANCH  15  16
ATOM     16  C   UNL     1      58.866  29.157  49.201  1.00  0.00    -0.000 C 
BRANCH  16  17
ATOM     17  C   UNL     1      57.992  29.754  50.313  1.00  0.00    -0.003 C 
ATOM     18  C   UNL     1      58.808  30.012  51.577  1.00  0.00     0.004 C 
ENDBRANCH  16  17
ENDBRANCH  15  16
ENDBRANCH  14  15
ENDBRANCH  13  14
ENDBRANCH  12  13
ENDBRANCH  11  12
ENDBRANCH   1  11
TORSDOF 14
ENDMDL
MODEL 7
REMARK VINA RESULT:    -2.865      1.879      3.315
REMARK INTER + INTRA:          -7.676
REMARK INTER:                  -5.513
REMARK INTRA:                  -2.163
REMARK UNBOUND:                -2.467
REMARK SMILES CCCCCCCCCCCCCCCC(=O)[O-]
REMARK SMILES IDX 9 1 10 2 11 3 12 4 13 5 14 6 15 7 16 8 17 9 18 10 8 11 7 12
REMARK SMILES IDX 6 13 5 14 4 15 3 16 2 17 1 18
REMARK H PARENT
REMARK Flexibility Score: inf
ROOT
ATOM      1  C   UNL     1      56.009  26.107  51.539  1.00  0.00     0.000 C 
ENDROOT
BRANCH   1   2
ATOM      2  C   UNL     1      57.453  25.760  51.946  1.00  0.00     0.000 C 
BRANCH   2   3
ATOM      3  C   UNL     1      58.363  25.471  50.737  1.00  0.00     0.000 C 
BRANCH   3   4
ATOM      4  C   UNL     1      59.572  26.414  50.589  1.00  0.00     0.000 C 
BRANCH   4   5
ATOM      5  C   UNL     1      59.477  27.322  49.355  1.00  0.00     0.000 C 
BRANCH   5   6
ATOM      6  C   UNL     1      58.470  28.460  49.585  1.00  0.00     0.006 C 
BRANCH   6   7
ATOM      7  C   UNL     1      59.117  29.844  49.449  1.00  0.00     0.053 C 
BRANCH   7   8
ATOM      8  C   UNL     1      60.232  30.035  50.431  1.00  0.00     0.041 C 
ATOM      9  O   UNL     1      61.395  30.296  50.028  1.00  0.00    -0.550 OA
ATOM     10  O   UNL     1      59.977  29.955  51.795  1.00  0.00    -0.550 OA
ENDBRANCH   7   8
ENDBRANCH   6   7
ENDBRANCH   5   6
ENDBRANCH   4   5
ENDBRANCH   3   4
ENDBRANCH   2   3
ENDBRANCH   1   2
BRANCH   1  11
ATOM     11  C   UNL     1      55.839  26.231  50.016  1.00  0.00     0.000 C 
BRANCH  11  12
ATOM     12  C   UNL     1      54.395  26.577  49.610  1.00  0.00    -0.000 C 
BRANCH  12  13
ATOM     13  C   UNL     1      53.686  27.459  50.651  1.00  0.00    -0.000 C 
BRANCH  13  14
ATOM     14  C   UNL     1      53.289  28.835  50.089  1.00  0.00    -0.000 C 
BRANCH  14  15
ATOM     15  C   UNL     1      54.271  29.952  50.489  1.00  0.00    -0.000 C 
BRANCH  15  16
ATOM     16  C   UNL     1      54.795  29.874  51.934  1.00  0.00    -0.000 C 
BRANCH  16  17
ATOM     17  C   UNL     1      56.327  29.904  52.019  1.00  0.00    -0.003 C 
ATOM     18  C   UNL     1      56.821  29.229  53.296  1.00  0.00     0.004 C 
ENDBRANCH  16  17
ENDBRANCH  15  16
ENDBRANCH  14  15
ENDBRANCH  13  14
ENDBRANCH  12  13
ENDBRANCH  11  12
ENDBRANCH   1  11
TORSDOF 14
ENDMDL
MODEL 8
REMARK VINA RESULT:    -2.847      2.366      4.480
REMARK INTER + INTRA:          -7.643
REMARK INTER:                  -5.079
REMARK INTRA:                  -2.564
REMARK UNBOUND:                -2.467
REMARK SMILES CCCCCCCCCCCCCCCC(=O)[O-]
REMARK SMILES IDX 9 1 10 2 11 3 12 4 13 5 14 6 15 7 16 8 17 9 18 10 8 11 7 12
REMARK SMILES IDX 6 13 5 14 4 15 3 16 2 17 1 18
REMARK H PARENT
REMARK Flexibility Score: inf
ROOT
ATOM      1  C   UNL     1      59.446  28.454  48.999  1.00  0.00     0.000 C 
ENDROOT
BRANCH   1   2
ATOM      2  C   UNL     1      59.199  26.986  49.389  1.00  0.00     0.000 C 
BRANCH   2   3
ATOM      3  C   UNL     1      60.441  26.312  50.002  1.00  0.00     0.000 C 
BRANCH   3   4
ATOM      4  C   UNL     1      60.601  26.497  51.522  1.00  0.00     0.000 C 
BRANCH   4   5
ATOM      5  C   UNL     1      62.010  26.958  51.926  1.00  0.00     0.000 C 
BRANCH   5   6
ATOM      6  C   UNL     1      62.621  27.864  50.846  1.00  0.00     0.006 C 
BRANCH   6   7
ATOM      7  C   UNL     1      62.453  29.353  51.173  1.00  0.00     0.053 C 
BRANCH   7   8
ATOM      8  C   UNL     1      62.627  30.211  49.958  1.00  0.00     0.041 C 
ATOM      9  O   UNL     1      61.918  31.240  49.800  1.00  0.00    -0.550 OA
ATOM     10  O   UNL     1      63.595  29.891  49.014  1.00  0.00    -0.550 OA
ENDBRANCH   7   8
ENDBRANCH   6   7
ENDBRANCH   5   6
ENDBRANCH   4   5
ENDBRANCH   3   4
ENDBRANCH   2   3
ENDBRANCH   1   2
BRANCH   1  11
ATOM     11  C   UNL     1      58.423  29.412  49.632  1.00  0.00     0.000 C 
BRANCH  11  12
ATOM     12  C   UNL     1      58.800  29.810  51.071  1.00  0.00    -0.000 C 
BRANCH  12  13
ATOM     13  C   UNL     1      57.645  29.594  52.063  1.00  0.00    -0.000 C 
BRANCH  13  14
ATOM     14  C   UNL     1      57.579  28.151  52.590  1.00  0.00    -0.000 C 
BRANCH  14  15
ATOM     15  C   UNL     1      56.213  27.485  52.347  1.00  0.00    -0.000 C 
BRANCH  15  16
ATOM     16  C   UNL     1      56.211  26.367  51.289  1.00  0.00    -0.000 C 
BRANCH  16  17
ATOM     17  C   UNL     1      55.487  26.767  49.995  1.00  0.00    -0.003 C 
ATOM     18  C   UNL     1      54.668  28.040  50.193  1.00  0.00     0.004 C 
ENDBRANCH  16  17
ENDBRANCH  15  16
ENDBRANCH  14  15
ENDBRANCH  13  14
ENDBRANCH  12  13
ENDBRANCH  11  12
ENDBRANCH   1  11
TORSDOF 14
ENDMDL
MODEL 9
REMARK VINA RESULT:    -2.804      1.434      3.129
REMARK INTER + INTRA:          -7.565
REMARK INTER:                  -5.612
REMARK INTRA:                  -1.953
REMARK UNBOUND:                -2.467
REMARK SMILES CCCCCCCCCCCCCCCC(=O)[O-]
REMARK SMILES IDX 9 1 10 2 11 3 12 4 13 5 14 6 15 7 16 8 17 9 18 10 8 11 7 12
REMARK SMILES IDX 6 13 5 14 4 15 3 16 2 17 1 18
REMARK H PARENT
REMARK Flexibility Score: inf
ROOT
ATOM      1  C   UNL     1      59.367  29.670  51.742  1.00  0.00     0.000 C 
ENDROOT
BRANCH   1   2
ATOM      2  C   UNL     1      59.907  29.942  50.327  1.00  0.00     0.000 C 
BRANCH   2   3
ATOM      3  C   UNL     1      59.209  29.097  49.246  1.00  0.00     0.000 C 
BRANCH   3   4
ATOM      4  C   UNL     1      59.535  27.592  49.281  1.00  0.00     0.000 C 
BRANCH   4   5
ATOM      5  C   UNL     1      58.345  26.730  49.727  1.00  0.00     0.000 C 
BRANCH   5   6
ATOM      6  C   UNL     1      58.748  25.785  50.869  1.00  0.00     0.006 C 
BRANCH   6   7
ATOM      7  C   UNL     1      59.776  24.738  50.420  1.00  0.00     0.053 C 
BRANCH   7   8
ATOM      8  C   UNL     1      61.086  24.909  51.125  1.00  0.00     0.041 C 
ATOM      9  O   UNL     1      62.139  25.115  50.467  1.00  0.00    -0.550 OA
ATOM     10  O   UNL     1      61.137  24.872  52.514  1.00  0.00    -0.550 OA
ENDBRANCH   7   8
ENDBRANCH   6   7
ENDBRANCH   5   6
ENDBRANCH   4   5
ENDBRANCH   3   4
ENDBRANCH   2   3
ENDBRANCH   1   2
BRANCH   1  11
ATOM     11  C   UNL     1      58.011  30.349  51.996  1.00  0.00     0.000 C 
BRANCH  11  12
ATOM     12  C   UNL     1      56.847  29.343  52.043  1.00  0.00    -0.000 C 
BRANCH  12  13
ATOM     13  C   UNL     1      55.949  29.423  50.797  1.00  0.00    -0.000 C 
BRANCH  13  14
ATOM     14  C   UNL     1      54.758  28.451  50.863  1.00  0.00    -0.000 C 
BRANCH  14  15
ATOM     15  C   UNL     1      55.079  27.160  51.637  1.00  0.00    -0.000 C 
BRANCH  15  16
ATOM     16  C   UNL     1      54.932  25.860  50.826  1.00  0.00    -0.000 C 
BRANCH  16  17
ATOM     17  C   UNL     1      54.690  26.110  49.330  1.00  0.00    -0.003 C 
ATOM     18  C   UNL     1      53.286  25.674  48.919  1.00  0.00     0.004 C 
ENDBRANCH  16  17
ENDBRANCH  15  16
ENDBRANCH  14  15
ENDBRANCH  13  14
ENDBRANCH  12  13
ENDBRANCH  11  12
ENDBRANCH   1  11
TORSDOF 14
ENDMDL
