MODEL 1
REMARK VINA RESULT:    -4.123      0.000      0.000
REMARK INTER + INTRA:          -9.179
REMARK INTER:                  -7.738
REMARK INTRA:                  -1.441
REMARK UNBOUND:                -1.441
REMARK SMILES CCCCCCCCC=CCCCCCCCC(=O)[O-]
REMARK SMILES IDX 10 1 9 2 11 3 12 4 13 5 14 6 15 7 16 8 17 9 18 10 19 11
REMARK SMILES IDX 20 12 8 13 7 14 6 15 5 16 4 17 3 18 2 19 1 20
REMARK H PARENT
REMARK Flexibility Score: inf
ROOT
ATOM      1  C   UNL     1       2.405  13.349  14.867  1.00  0.00    -0.031 C 
ATOM      2  C   UNL     1       2.037  14.004  15.985  1.00  0.00    -0.031 C 
ENDROOT
BRANCH   1   3
ATOM      3  C   UNL     1       3.347  12.173  14.837  1.00  0.00     0.027 C 
BRANCH   3   4
ATOM      4  C   UNL     1       4.740  12.605  14.365  1.00  0.00     0.004 C 
BRANCH   4   5
ATOM      5  C   UNL     1       5.687  12.802  15.556  1.00  0.00     0.000 C 
BRANCH   5   6
ATOM      6  C   UNL     1       5.686  11.608  16.525  1.00  0.00     0.000 C 
BRANCH   6   7
ATOM      7  C   UNL     1       6.886  11.599  17.497  1.00  0.00     0.000 C 
BRANCH   7   8
ATOM      8  C   UNL     1       6.477  11.182  18.921  1.00  0.00     0.006 C 
BRANCH   8   9
ATOM      9  C   UNL     1       5.106  11.742  19.320  1.00  0.00     0.053 C 
BRANCH   9  10
ATOM     10  C   UNL     1       4.136  10.652  19.658  1.00  0.00     0.041 C 
ATOM     11  O   UNL     1       4.395   9.838  20.584  1.00  0.00    -0.550 OA
ATOM     12  O   UNL     1       2.962  10.513  18.929  1.00  0.00    -0.550 OA
ENDBRANCH   9  10
ENDBRANCH   8   9
ENDBRANCH   7   8
ENDBRANCH   6   7
ENDBRANCH   5   6
ENDBRANCH   4   5
ENDBRANCH   3   4
ENDBRANCH   1   3
BRANCH   2  13
ATOM     13  C   UNL     1       2.579  13.713  17.362  1.00  0.00     0.027 C 
BRANCH  13  14
ATOM     14  C   UNL     1       1.789  14.484  18.431  1.00  0.00     0.004 C 
BRANCH  14  15
ATOM     15  C   UNL     1       0.884  15.572  17.832  1.00  0.00     0.000 C 
BRANCH  15  16
ATOM     16  C   UNL     1      -0.463  15.690  18.566  1.00  0.00     0.000 C 
BRANCH  16  17
ATOM     17  C   UNL     1      -0.788  17.133  18.991  1.00  0.00    -0.000 C 
BRANCH  17  18
ATOM     18  C   UNL     1       0.335  18.158  18.746  1.00  0.00    -0.000 C 
BRANCH  18  19
ATOM     19  C   UNL     1       0.089  19.497  19.456  1.00  0.00    -0.003 C 
ATOM     20  C   UNL     1      -1.239  19.484  20.208  1.00  0.00     0.004 C 
ENDBRANCH  18  19
ENDBRANCH  17  18
ENDBRANCH  16  17
ENDBRANCH  15  16
ENDBRANCH  14  15
ENDBRANCH  13  14
ENDBRANCH   2  13
TORSDOF 15
ENDMDL
MODEL 2
REMARK VINA RESULT:    -4.106      1.096      2.072
REMARK INTER + INTRA:          -9.147
REMARK INTER:                  -7.747
REMARK INTRA:                  -1.400
REMARK UNBOUND:                -1.441
REMARK SMILES CCCCCCCCC=CCCCCCCCC(=O)[O-]
REMARK SMILES IDX 10 1 9 2 11 3 12 4 13 5 14 6 15 7 16 8 17 9 18 10 19 11
REMARK SMILES IDX 20 12 8 13 7 14 6 15 5 16 4 17 3 18 2 19 1 20
REMARK H PARENT
REMARK Flexibility Score: inf
ROOT
ATOM      1  C   UNL     1       2.619  13.677  17.062  1.00  0.00    -0.031 C 
ATOM      2  C   UNL     1       1.974  14.413  17.987  1.00  0.00    -0.031 C 
ENDROOT
BRANCH   1   3
ATOM      3  C   UNL     1       2.410  13.799  15.574  1.00  0.00     0.027 C 
BRANCH   3   4
ATOM      4  C   UNL     1       3.245  12.757  14.821  1.00  0.00     0.004 C 
BRANCH   4   5
ATOM      5  C   UNL     1       3.557  11.551  15.715  1.00  0.00     0.000 C 
BRANCH   5   6
ATOM      6  C   UNL     1       5.055  11.203  15.750  1.00  0.00     0.000 C 
BRANCH   6   7
ATOM      7  C   UNL     1       5.896  12.177  16.602  1.00  0.00     0.000 C 
BRANCH   7   8
ATOM      8  C   UNL     1       6.419  11.518  17.891  1.00  0.00     0.006 C 
BRANCH   8   9
ATOM      9  C   UNL     1       5.362  11.497  19.003  1.00  0.00     0.053 C 
BRANCH   9  10
ATOM     10  C   UNL     1       5.770  10.612  20.142  1.00  0.00     0.041 C 
ATOM     11  O   UNL     1       6.989  10.434  20.400  1.00  0.00    -0.550 OA
ATOM     12  O   UNL     1       4.804   9.958  20.895  1.00  0.00    -0.550 OA
ENDBRANCH   9  10
ENDBRANCH   8   9
ENDBRANCH   7   8
ENDBRANCH   6   7
ENDBRANCH   5   6
ENDBRANCH   4   5
ENDBRANCH   3   4
ENDBRANCH   1   3
BRANCH   2  13
ATOM     13  C   UNL     1       0.886  15.409  17.677  1.00  0.00     0.027 C 
BRANCH  13  14
ATOM     14  C   UNL     1      -0.205  15.376  18.759  1.00  0.00     0.004 C 
BRANCH  14  15
ATOM     15  C   UNL     1      -1.265  16.472  18.567  1.00  0.00     0.000 C 
BRANCH  15  16
ATOM     16  C   UNL     1      -1.672  17.140  19.891  1.00  0.00     0.000 C 
BRANCH  16  17
ATOM     17  C   UNL     1      -1.288  18.629  19.954  1.00  0.00    -0.000 C 
BRANCH  17  18
ATOM     18  C   UNL     1      -1.220  19.346  18.594  1.00  0.00    -0.000 C 
BRANCH  18  19
ATOM     19  C   UNL     1       0.106  20.088  18.373  1.00  0.00    -0.003 C 
ATOM     20  C   UNL     1       1.232  19.112  18.039  1.00  0.00     0.004 C 
ENDBRANCH  18  19
ENDBRANCH  17  18
ENDBRANCH  16  17
ENDBRANCH  15  16
ENDBRANCH  14  15
ENDBRANCH  13  14
ENDBRANCH   2  13
TORSDOF 15
ENDMDL
MODEL 3
REMARK VINA RESULT:    -4.081      3.362      8.429
REMARK INTER + INTRA:          -9.101
REMARK INTER:                  -7.866
REMARK INTRA:                  -1.236
REMARK UNBOUND:                -1.441
REMARK SMILES CCCCCCCCC=CCCCCCCCC(=O)[O-]
REMARK SMILES IDX 10 1 9 2 11 3 12 4 13 5 14 6 15 7 16 8 17 9 18 10 19 11
REMARK SMILES IDX 20 12 8 13 7 14 6 15 5 16 4 17 3 18 2 19 1 20
REMARK H PARENT
REMARK Flexibility Score: inf
ROOT
ATOM      1  C   UNL     1       1.625  14.503  18.419  1.00  0.00    -0.031 C 
ATOM      2  C   UNL     1       2.425  13.768  17.624  1.00  0.00    -0.031 C 
ENDROOT
BRANCH   1   3
ATOM      3  C   UNL     1       0.636  15.528  17.923  1.00  0.00     0.027 C 
BRANCH   3   4
ATOM      4  C   UNL     1      -0.644  15.499  18.766  1.00  0.00     0.004 C 
BRANCH   4   5
ATOM      5  C   UNL     1      -1.452  16.790  18.581  1.00  0.00     0.000 C 
BRANCH   5   6
ATOM      6  C   UNL     1      -1.877  17.426  19.915  1.00  0.00     0.000 C 
BRANCH   6   7
ATOM      7  C   UNL     1      -1.282  18.832  20.147  1.00  0.00     0.000 C 
BRANCH   7   8
ATOM      8  C   UNL     1      -0.816  19.489  18.835  1.00  0.00     0.006 C 
BRANCH   8   9
ATOM      9  C   UNL     1       0.708  19.657  18.778  1.00  0.00     0.053 C 
BRANCH   9  10
ATOM     10  C   UNL     1       1.192  19.866  17.376  1.00  0.00     0.041 C 
ATOM     11  O   UNL     1       2.425  19.838  17.121  1.00  0.00    -0.550 OA
ATOM     12  O   UNL     1       0.284  20.125  16.357  1.00  0.00    -0.550 OA
ENDBRANCH   9  10
ENDBRANCH   8   9
ENDBRANCH   7   8
ENDBRANCH   6   7
ENDBRANCH   5   6
ENDBRANCH   4   5
ENDBRANCH   3   4
ENDBRANCH   1   3
BRANCH   2  13
ATOM     13  C   UNL     1       2.514  13.920  16.126  1.00  0.00     0.027 C 
BRANCH  13  14
ATOM     14  C   UNL     1       3.515  12.915  15.536  1.00  0.00     0.004 C 
BRANCH  14  15
ATOM     15  C   UNL     1       3.762  11.712  16.458  1.00  0.00     0.000 C 
BRANCH  15  16
ATOM     16  C   UNL     1       5.252  11.517  16.789  1.00  0.00     0.000 C 
BRANCH  16  17
ATOM     17  C   UNL     1       5.575  11.781  18.271  1.00  0.00    -0.000 C 
BRANCH  17  18
ATOM     18  C   UNL     1       4.612  11.127  19.278  1.00  0.00    -0.000 C 
BRANCH  18  19
ATOM     19  C   UNL     1       5.342  10.406  20.422  1.00  0.00    -0.003 C 
ATOM     20  C   UNL     1       6.856  10.495  20.249  1.00  0.00     0.004 C 
ENDBRANCH  18  19
ENDBRANCH  17  18
ENDBRANCH  16  17
ENDBRANCH  15  16
ENDBRANCH  14  15
ENDBRANCH  13  14
ENDBRANCH   2  13
TORSDOF 15
ENDMDL
MODEL 4
REMARK VINA RESULT:    -4.000      3.254      8.012
REMARK INTER + INTRA:          -8.949
REMARK INTER:                  -7.880
REMARK INTRA:                  -1.069
REMARK UNBOUND:                -1.441
REMARK SMILES CCCCCCCCC=CCCCCCCCC(=O)[O-]
REMARK SMILES IDX 10 1 9 2 11 3 12 4 13 5 14 6 15 7 16 8 17 9 18 10 19 11
REMARK SMILES IDX 20 12 8 13 7 14 6 15 5 16 4 17 3 18 2 19 1 20
REMARK H PARENT
REMARK Flexibility Score: inf
ROOT
ATOM      1  C   UNL     1       1.989  13.714  15.511  1.00  0.00    -0.031 C 
ATOM      2  C   UNL     1       2.711  13.018  14.612  1.00  0.00    -0.031 C 
ENDROOT
BRANCH   1   3
ATOM      3  C   UNL     1       2.572  14.443  16.695  1.00  0.00     0.027 C 
BRANCH   3   4
ATOM      4  C   UNL     1       1.602  14.418  17.881  1.00  0.00     0.004 C 
BRANCH   4   5
ATOM      5  C   UNL     1       0.888  15.766  18.036  1.00  0.00     0.000 C 
BRANCH   5   6
ATOM      6  C   UNL     1      -0.595  15.619  18.417  1.00  0.00     0.000 C 
BRANCH   6   7
ATOM      7  C   UNL     1      -1.326  16.969  18.585  1.00  0.00     0.000 C 
BRANCH   7   8
ATOM      8  C   UNL     1      -0.856  17.732  19.837  1.00  0.00     0.006 C 
BRANCH   8   9
ATOM      9  C   UNL     1      -0.772  19.245  19.598  1.00  0.00     0.053 C 
BRANCH   9  10
ATOM     10  C   UNL     1      -0.176  19.565  18.261  1.00  0.00     0.041 C 
ATOM     11  O   UNL     1      -0.904  19.997  17.329  1.00  0.00    -0.550 OA
ATOM     12  O   UNL     1       1.178  19.354  18.035  1.00  0.00    -0.550 OA
ENDBRANCH   9  10
ENDBRANCH   8   9
ENDBRANCH   7   8
ENDBRANCH   6   7
ENDBRANCH   5   6
ENDBRANCH   4   5
ENDBRANCH   3   4
ENDBRANCH   1   3
BRANCH   2  13
ATOM     13  C   UNL     1       4.199  12.794  14.702  1.00  0.00     0.027 C 
BRANCH  13  14
ATOM     14  C   UNL     1       4.506  11.408  15.290  1.00  0.00     0.004 C 
BRANCH  14  15
ATOM     15  C   UNL     1       5.023  11.477  16.736  1.00  0.00     0.000 C 
BRANCH  15  16
ATOM     16  C   UNL     1       3.884  11.527  17.768  1.00  0.00     0.000 C 
BRANCH  16  17
ATOM     17  C   UNL     1       4.316  11.030  19.160  1.00  0.00    -0.000 C 
BRANCH  17  18
ATOM     18  C   UNL     1       5.758  11.385  19.564  1.00  0.00    -0.000 C 
BRANCH  18  19
ATOM     19  C   UNL     1       6.360  10.392  20.569  1.00  0.00    -0.003 C 
ATOM     20  C   UNL     1       7.883  10.370  20.475  1.00  0.00     0.004 C 
ENDBRANCH  18  19
ENDBRANCH  17  18
ENDBRANCH  16  17
ENDBRANCH  15  16
ENDBRANCH  14  15
ENDBRANCH  13  14
ENDBRANCH   2  13
TORSDOF 15
ENDMDL
MODEL 5
REMARK VINA RESULT:    -3.929      3.256      7.713
REMARK INTER + INTRA:          -8.816
REMARK INTER:                  -7.764
REMARK INTRA:                  -1.052
REMARK UNBOUND:                -1.441
REMARK SMILES CCCCCCCCC=CCCCCCCCC(=O)[O-]
REMARK SMILES IDX 10 1 9 2 11 3 12 4 13 5 14 6 15 7 16 8 17 9 18 10 19 11
REMARK SMILES IDX 20 12 8 13 7 14 6 15 5 16 4 17 3 18 2 19 1 20
REMARK H PARENT
REMARK Flexibility Score: inf
ROOT
ATOM      1  C   UNL     1       3.061  11.301  18.825  1.00  0.00    -0.031 C 
ATOM      2  C   UNL     1       4.135  10.847  19.499  1.00  0.00    -0.031 C 
ENDROOT
BRANCH   1   3
ATOM      3  C   UNL     1       3.033  12.577  18.022  1.00  0.00     0.027 C 
BRANCH   3   4
ATOM      4  C   UNL     1       2.122  13.617  18.685  1.00  0.00     0.004 C 
BRANCH   4   5
ATOM      5  C   UNL     1       1.571  14.604  17.648  1.00  0.00     0.000 C 
BRANCH   5   6
ATOM      6  C   UNL     1       0.884  15.822  18.288  1.00  0.00     0.000 C 
BRANCH   6   7
ATOM      7  C   UNL     1      -0.605  15.587  18.623  1.00  0.00     0.000 C 
BRANCH   7   8
ATOM      8  C   UNL     1      -1.425  16.889  18.569  1.00  0.00     0.006 C 
BRANCH   8   9
ATOM      9  C   UNL     1      -0.852  17.976  19.487  1.00  0.00     0.053 C 
BRANCH   9  10
ATOM     10  C   UNL     1      -0.415  19.183  18.715  1.00  0.00     0.041 C 
ATOM     11  O   UNL     1      -1.213  19.753  17.925  1.00  0.00    -0.550 OA
ATOM     12  O   UNL     1       0.884  19.658  18.843  1.00  0.00    -0.550 OA
ENDBRANCH   9  10
ENDBRANCH   8   9
ENDBRANCH   7   8
ENDBRANCH   6   7
ENDBRANCH   5   6
ENDBRANCH   4   5
ENDBRANCH   3   4
ENDBRANCH   1   3
BRANCH   2  13
ATOM     13  C   UNL     1       5.443  11.588  19.620  1.00  0.00     0.027 C 
BRANCH  13  14
ATOM     14  C   UNL     1       6.521  10.935  18.741  1.00  0.00     0.004 C 
BRANCH  14  15
ATOM     15  C   UNL     1       6.806  11.732  17.459  1.00  0.00     0.000 C 
BRANCH  15  16
ATOM     16  C   UNL     1       5.705  11.558  16.399  1.00  0.00     0.000 C 
BRANCH  16  17
ATOM     17  C   UNL     1       5.479  12.827  15.557  1.00  0.00    -0.000 C 
BRANCH  17  18
ATOM     18  C   UNL     1       4.744  12.606  14.223  1.00  0.00    -0.000 C 
BRANCH  18  19
ATOM     19  C   UNL     1       3.295  12.130  14.409  1.00  0.00    -0.003 C 
ATOM     20  C   UNL     1       2.347  13.313  14.589  1.00  0.00     0.004 C 
ENDBRANCH  18  19
ENDBRANCH  17  18
ENDBRANCH  16  17
ENDBRANCH  15  16
ENDBRANCH  14  15
ENDBRANCH  13  14
ENDBRANCH   2  13
TORSDOF 15
ENDMDL
MODEL 6
REMARK VINA RESULT:    -3.871      0.704      0.974
REMARK INTER + INTRA:          -8.707
REMARK INTER:                  -7.472
REMARK INTRA:                  -1.235
REMARK UNBOUND:                -1.441
REMARK SMILES CCCCCCCCC=CCCCCCCCC(=O)[O-]
REMARK SMILES IDX 10 1 9 2 11 3 12 4 13 5 14 6 15 7 16 8 17 9 18 10 19 11
REMARK SMILES IDX 20 12 8 13 7 14 6 15 5 16 4 17 3 18 2 19 1 20
REMARK H PARENT
REMARK Flexibility Score: inf
ROOT
ATOM      1  C   UNL     1       2.335  13.361  14.866  1.00  0.00    -0.031 C 
ATOM      2  C   UNL     1       2.022  14.075  15.964  1.00  0.00    -0.031 C 
ENDROOT
BRANCH   1   3
ATOM      3  C   UNL     1       3.261  12.172  14.855  1.00  0.00     0.027 C 
BRANCH   3   4
ATOM      4  C   UNL     1       4.661  12.578  14.378  1.00  0.00     0.004 C 
BRANCH   4   5
ATOM      5  C   UNL     1       5.575  12.897  15.567  1.00  0.00     0.000 C 
BRANCH   5   6
ATOM      6  C   UNL     1       5.685  11.734  16.567  1.00  0.00     0.000 C 
BRANCH   6   7
ATOM      7  C   UNL     1       6.831  11.903  17.589  1.00  0.00     0.000 C 
BRANCH   7   8
ATOM      8  C   UNL     1       6.846  10.775  18.636  1.00  0.00     0.006 C 
BRANCH   8   9
ATOM      9  C   UNL     1       6.152  11.184  19.942  1.00  0.00     0.053 C 
BRANCH   9  10
ATOM     10  C   UNL     1       4.818  10.519  20.095  1.00  0.00     0.041 C 
ATOM     11  O   UNL     1       4.573   9.819  21.113  1.00  0.00    -0.550 OA
ATOM     12  O   UNL     1       3.859  10.645  19.099  1.00  0.00    -0.550 OA
ENDBRANCH   9  10
ENDBRANCH   8   9
ENDBRANCH   7   8
ENDBRANCH   6   7
ENDBRANCH   5   6
ENDBRANCH   4   5
ENDBRANCH   3   4
ENDBRANCH   1   3
BRANCH   2  13
ATOM     13  C   UNL     1       2.617  13.845  17.330  1.00  0.00     0.027 C 
BRANCH  13  14
ATOM     14  C   UNL     1       1.720  14.447  18.423  1.00  0.00     0.004 C 
BRANCH  14  15
ATOM     15  C   UNL     1       0.907  15.653  17.926  1.00  0.00     0.000 C 
BRANCH  15  16
ATOM     16  C   UNL     1      -0.524  15.673  18.490  1.00  0.00     0.000 C 
BRANCH  16  17
ATOM     17  C   UNL     1      -1.073  17.099  18.677  1.00  0.00    -0.000 C 
BRANCH  17  18
ATOM     18  C   UNL     1      -0.088  18.104  19.301  1.00  0.00    -0.000 C 
BRANCH  18  19
ATOM     19  C   UNL     1       0.055  19.392  18.477  1.00  0.00    -0.003 C 
ATOM     20  C   UNL     1       1.366  19.401  17.696  1.00  0.00     0.004 C 
ENDBRANCH  18  19
ENDBRANCH  17  18
ENDBRANCH  16  17
ENDBRANCH  15  16
ENDBRANCH  14  15
ENDBRANCH  13  14
ENDBRANCH   2  13
TORSDOF 15
ENDMDL
MODEL 7
REMARK VINA RESULT:    -3.844      1.614      2.197
REMARK INTER + INTRA:          -8.656
REMARK INTER:                  -7.439
REMARK INTRA:                  -1.216
REMARK UNBOUND:                -1.441
REMARK SMILES CCCCCCCCC=CCCCCCCCC(=O)[O-]
REMARK SMILES IDX 10 1 9 2 11 3 12 4 13 5 14 6 15 7 16 8 17 9 18 10 19 11
REMARK SMILES IDX 20 12 8 13 7 14 6 15 5 16 4 17 3 18 2 19 1 20
REMARK H PARENT
REMARK Flexibility Score: inf
ROOT
ATOM      1  C   UNL     1       2.712  12.800  14.535  1.00  0.00    -0.031 C 
ATOM      2  C   UNL     1       2.004  13.539  15.410  1.00  0.00    -0.031 C 
ENDROOT
BRANCH   1   3
ATOM      3  C   UNL     1       4.213  12.664  14.550  1.00  0.00     0.027 C 
BRANCH   3   4
ATOM      4  C   UNL     1       4.634  11.363  15.243  1.00  0.00     0.004 C 
BRANCH   4   5
ATOM      5  C   UNL     1       4.996  11.614  16.712  1.00  0.00     0.000 C 
BRANCH   5   6
ATOM      6  C   UNL     1       3.867  11.228  17.682  1.00  0.00     0.000 C 
BRANCH   6   7
ATOM      7  C   UNL     1       4.170  11.580  19.154  1.00  0.00     0.000 C 
BRANCH   7   8
ATOM      8  C   UNL     1       4.707  10.372  19.942  1.00  0.00     0.006 C 
BRANCH   8   9
ATOM      9  C   UNL     1       5.881  10.748  20.855  1.00  0.00     0.053 C 
BRANCH   9  10
ATOM     10  C   UNL     1       7.200  10.568  20.168  1.00  0.00     0.041 C 
ATOM     11  O   UNL     1       7.318  10.836  18.944  1.00  0.00    -0.550 OA
ATOM     12  O   UNL     1       8.289  10.072  20.873  1.00  0.00    -0.550 OA
ENDBRANCH   9  10
ENDBRANCH   8   9
ENDBRANCH   7   8
ENDBRANCH   6   7
ENDBRANCH   5   6
ENDBRANCH   4   5
ENDBRANCH   3   4
ENDBRANCH   1   3
BRANCH   2  13
ATOM     13  C   UNL     1       2.611  14.408  16.482  1.00  0.00     0.027 C 
BRANCH  13  14
ATOM     14  C   UNL     1       1.735  14.408  17.744  1.00  0.00     0.004 C 
BRANCH  14  15
ATOM     15  C   UNL     1       1.012  15.746  17.965  1.00  0.00     0.000 C 
BRANCH  15  16
ATOM     16  C   UNL     1      -0.360  15.572  18.638  1.00  0.00     0.000 C 
BRANCH  16  17
ATOM     17  C   UNL     1      -1.241  16.830  18.534  1.00  0.00    -0.000 C 
BRANCH  17  18
ATOM     18  C   UNL     1      -1.031  17.870  19.650  1.00  0.00    -0.000 C 
BRANCH  18  19
ATOM     19  C   UNL     1      -0.945  19.308  19.118  1.00  0.00    -0.003 C 
ATOM     20  C   UNL     1       0.507  19.763  18.999  1.00  0.00     0.004 C 
ENDBRANCH  18  19
ENDBRANCH  17  18
ENDBRANCH  16  17
ENDBRANCH  15  16
ENDBRANCH  14  15
ENDBRANCH  13  14
ENDBRANCH   2  13
TORSDOF 15
ENDMDL
MODEL 8
REMARK VINA RESULT:    -3.776      2.176      3.562
REMARK INTER + INTRA:          -8.528
REMARK INTER:                  -6.964
REMARK INTRA:                  -1.564
REMARK UNBOUND:                -1.441
REMARK SMILES CCCCCCCCC=CCCCCCCCC(=O)[O-]
REMARK SMILES IDX 10 1 9 2 11 3 12 4 13 5 14 6 15 7 16 8 17 9 18 10 19 11
REMARK SMILES IDX 20 12 8 13 7 14 6 15 5 16 4 17 3 18 2 19 1 20
REMARK H PARENT
REMARK Flexibility Score: inf
ROOT
ATOM      1  C   UNL     1       2.389  13.739  17.413  1.00  0.00    -0.031 C 
ATOM      2  C   UNL     1       1.644  14.848  17.247  1.00  0.00    -0.031 C 
ENDROOT
BRANCH   1   3
ATOM      3  C   UNL     1       2.674  13.094  18.745  1.00  0.00     0.027 C 
BRANCH   3   4
ATOM      4  C   UNL     1       2.772  11.571  18.602  1.00  0.00     0.004 C 
BRANCH   4   5
ATOM      5  C   UNL     1       4.011  11.029  19.326  1.00  0.00     0.000 C 
BRANCH   5   6
ATOM      6  C   UNL     1       5.281  11.845  19.032  1.00  0.00     0.000 C 
BRANCH   6   7
ATOM      7  C   UNL     1       6.079  11.330  17.815  1.00  0.00     0.000 C 
BRANCH   7   8
ATOM      8  C   UNL     1       5.751  12.115  16.532  1.00  0.00     0.006 C 
BRANCH   8   9
ATOM      9  C   UNL     1       4.673  11.424  15.687  1.00  0.00     0.053 C 
BRANCH   9  10
ATOM     10  C   UNL     1       4.249  12.270  14.526  1.00  0.00     0.041 C 
ATOM     11  O   UNL     1       5.111  12.867  13.828  1.00  0.00    -0.550 OA
ATOM     12  O   UNL     1       2.899  12.427  14.236  1.00  0.00    -0.550 OA
ENDBRANCH   9  10
ENDBRANCH   8   9
ENDBRANCH   7   8
ENDBRANCH   6   7
ENDBRANCH   5   6
ENDBRANCH   4   5
ENDBRANCH   3   4
ENDBRANCH   1   3
BRANCH   2  13
ATOM     13  C   UNL     1       1.055  15.658  18.374  1.00  0.00     0.027 C 
BRANCH  13  14
ATOM     14  C   UNL     1      -0.445  15.362  18.531  1.00  0.00     0.004 C 
BRANCH  14  15
ATOM     15  C   UNL     1      -1.313  16.626  18.427  1.00  0.00     0.000 C 
BRANCH  15  16
ATOM     16  C   UNL     1      -1.641  17.232  19.802  1.00  0.00     0.000 C 
BRANCH  16  17
ATOM     17  C   UNL     1      -1.021  18.627  20.004  1.00  0.00    -0.000 C 
BRANCH  17  18
ATOM     18  C   UNL     1      -0.640  19.368  18.710  1.00  0.00    -0.000 C 
BRANCH  18  19
ATOM     19  C   UNL     1       0.838  19.786  18.673  1.00  0.00    -0.003 C 
ATOM     20  C   UNL     1       1.383  19.751  17.248  1.00  0.00     0.004 C 
ENDBRANCH  18  19
ENDBRANCH  17  18
ENDBRANCH  16  17
ENDBRANCH  15  16
ENDBRANCH  14  15
ENDBRANCH  13  14
ENDBRANCH   2  13
TORSDOF 15
ENDMDL
MODEL 9
REMARK VINA RESULT:    -3.644      2.078      3.694
REMARK INTER + INTRA:          -8.280
REMARK INTER:                  -6.662
REMARK INTRA:                  -1.618
REMARK UNBOUND:                -1.441
REMARK SMILES CCCCCCCCC=CCCCCCCCC(=O)[O-]
REMARK SMILES IDX 10 1 9 2 11 3 12 4 13 5 14 6 15 7 16 8 17 9 18 10 19 11
REMARK SMILES IDX 20 12 8 13 7 14 6 15 5 16 4 17 3 18 2 19 1 20
REMARK H PARENT
REMARK Flexibility Score: inf
ROOT
ATOM      1  C   UNL     1       3.547  10.747  19.013  1.00  0.00    -0.031 C 
ATOM      2  C   UNL     1       2.755  11.629  18.375  1.00  0.00    -0.031 C 
ENDROOT
BRANCH   1   3
ATOM      3  C   UNL     1       4.388  11.074  20.222  1.00  0.00     0.027 C 
BRANCH   3   4
ATOM      4  C   UNL     1       5.654  10.209  20.253  1.00  0.00     0.004 C 
BRANCH   4   5
ATOM      5  C   UNL     1       6.896  11.039  19.908  1.00  0.00     0.000 C 
BRANCH   5   6
ATOM      6  C   UNL     1       7.290  10.940  18.425  1.00  0.00     0.000 C 
BRANCH   6   7
ATOM      7  C   UNL     1       6.687  12.058  17.548  1.00  0.00     0.000 C 
BRANCH   7   8
ATOM      8  C   UNL     1       5.837  11.497  16.394  1.00  0.00     0.006 C 
BRANCH   8   9
ATOM      9  C   UNL     1       5.102  12.601  15.623  1.00  0.00     0.053 C 
BRANCH   9  10
ATOM     10  C   UNL     1       4.120  12.035  14.642  1.00  0.00     0.041 C 
ATOM     11  O   UNL     1       3.128  12.718  14.274  1.00  0.00    -0.550 OA
ATOM     12  O   UNL     1       4.283  10.742  14.162  1.00  0.00    -0.550 OA
ENDBRANCH   9  10
ENDBRANCH   8   9
ENDBRANCH   7   8
ENDBRANCH   6   7
ENDBRANCH   5   6
ENDBRANCH   4   5
ENDBRANCH   3   4
ENDBRANCH   1   3
BRANCH   2  13
ATOM     13  C   UNL     1       2.655  13.093  18.720  1.00  0.00     0.027 C 
BRANCH  13  14
ATOM     14  C   UNL     1       2.216  13.911  17.496  1.00  0.00     0.004 C 
BRANCH  14  15
ATOM     15  C   UNL     1       1.632  15.281  17.875  1.00  0.00     0.000 C 
BRANCH  15  16
ATOM     16  C   UNL     1       0.160  15.195  18.312  1.00  0.00     0.000 C 
BRANCH  16  17
ATOM     17  C   UNL     1      -0.486  16.578  18.514  1.00  0.00    -0.000 C 
BRANCH  17  18
ATOM     18  C   UNL     1       0.502  17.736  18.741  1.00  0.00    -0.000 C 
BRANCH  18  19
ATOM     19  C   UNL     1      -0.134  19.117  18.522  1.00  0.00    -0.003 C 
ATOM     20  C   UNL     1       0.375  20.125  19.550  1.00  0.00     0.004 C 
ENDBRANCH  18  19
ENDBRANCH  17  18
ENDBRANCH  16  17
ENDBRANCH  15  16
ENDBRANCH  14  15
ENDBRANCH  13  14
ENDBRANCH   2  13
TORSDOF 15
ENDMDL
