MODEL 1
REMARK VINA RESULT:    -5.300      0.000      0.000
REMARK INTER + INTRA:         -10.250
REMARK INTER:                  -8.089
REMARK INTRA:                  -2.160
REMARK UNBOUND:                -2.160
REMARK SMILES CC(=O)CCC=C(C)CCC=C(C)CCC=C(C)C
REMARK SMILES IDX 10 1 11 2 12 3 13 4 14 5 15 6 16 7 18 8 17 9 19 10 9 11 7 12
REMARK SMILES IDX 6 13 8 14 5 15 4 16 2 17 3 18 1 19
REMARK H PARENT
REMARK Flexibility Score: inf
ROOT
ATOM      1  C   UNL     1     -15.156  11.241 -27.254  1.00  0.00     0.032 C 
ENDROOT
BRANCH   1   2
ATOM      2  C   UNL     1     -14.223  12.322 -27.740  1.00  0.00    -0.028 C 
ATOM      3  C   UNL     1     -13.491  12.209 -28.870  1.00  0.00    -0.077 C 
ATOM      4  C   UNL     1     -13.569  10.976 -29.739  1.00  0.00     0.039 C 
BRANCH   3   5
ATOM      5  C   UNL     1     -12.569  13.343 -29.272  1.00  0.00     0.034 C 
BRANCH   5   6
ATOM      6  C   UNL     1     -11.746  12.996 -30.521  1.00  0.00     0.032 C 
BRANCH   6   7
ATOM      7  C   UNL     1     -11.136  14.226 -31.151  1.00  0.00    -0.028 C 
ATOM      8  C   UNL     1     -11.320  13.331 -33.483  1.00  0.00     0.039 C 
ATOM      9  C   UNL     1     -10.896  14.369 -32.474  1.00  0.00    -0.080 C 
ATOM     10  C   UNL     1     -10.262  15.638 -32.983  1.00  0.00     0.039 C 
ENDBRANCH   6   7
ENDBRANCH   5   6
ENDBRANCH   3   5
ENDBRANCH   1   2
BRANCH   1  11
ATOM     11  C   UNL     1     -16.622  11.641 -27.456  1.00  0.00     0.034 C 
BRANCH  11  12
ATOM     12  C   UNL     1     -17.052  11.390 -28.888  1.00  0.00    -0.077 C 
ATOM     13  C   UNL     1     -17.273  12.385 -29.776  1.00  0.00    -0.028 C 
ATOM     14  C   UNL     1     -17.309   9.971 -29.327  1.00  0.00     0.039 C 
BRANCH  13  15
ATOM     15  C   UNL     1     -17.037  13.853 -29.507  1.00  0.00     0.035 C 
BRANCH  15  16
ATOM     16  C   UNL     1     -15.938  14.423 -30.413  1.00  0.00     0.079 C 
BRANCH  16  17
ATOM     17  C   UNL     1     -16.108  13.972 -31.842  1.00  0.00     0.130 C 
ATOM     18  O   UNL     1     -17.081  14.346 -32.479  1.00  0.00    -0.300 OA
ATOM     19  C   UNL     1     -15.104  13.072 -32.500  1.00  0.00     0.087 C 
ENDBRANCH  16  17
ENDBRANCH  15  16
ENDBRANCH  13  15
ENDBRANCH  11  12
ENDBRANCH   1  11
TORSDOF 9
ENDMDL
MODEL 2
REMARK VINA RESULT:    -5.244      1.215      5.307
REMARK INTER + INTRA:         -10.163
REMARK INTER:                  -8.198
REMARK INTRA:                  -1.966
REMARK UNBOUND:                -2.160
REMARK SMILES CC(=O)CCC=C(C)CCC=C(C)CCC=C(C)C
REMARK SMILES IDX 10 1 11 2 12 3 13 4 14 5 15 6 16 7 18 8 17 9 19 10 9 11 7 12
REMARK SMILES IDX 6 13 8 14 5 15 4 16 2 17 3 18 1 19
REMARK H PARENT
REMARK Flexibility Score: inf
ROOT
ATOM      1  C   UNL     1     -11.875  12.466 -29.744  1.00  0.00     0.032 C 
ENDROOT
BRANCH   1   2
ATOM      2  C   UNL     1     -13.039  11.652 -30.252  1.00  0.00    -0.028 C 
ATOM      3  C   UNL     1     -13.949  11.076 -29.435  1.00  0.00    -0.077 C 
ATOM      4  C   UNL     1     -13.861  11.223 -27.933  1.00  0.00     0.039 C 
BRANCH   3   5
ATOM      5  C   UNL     1     -15.078  10.265 -30.036  1.00  0.00     0.034 C 
BRANCH   5   6
ATOM      6  C   UNL     1     -16.258  10.118 -29.064  1.00  0.00     0.032 C 
BRANCH   6   7
ATOM      7  C   UNL     1     -17.516  10.752 -29.609  1.00  0.00    -0.028 C 
ATOM      8  C   UNL     1     -17.361  12.754 -28.113  1.00  0.00     0.039 C 
ATOM      9  C   UNL     1     -18.048  11.910 -29.158  1.00  0.00    -0.080 C 
ATOM     10  C   UNL     1     -19.323  12.433 -29.768  1.00  0.00     0.039 C 
ENDBRANCH   6   7
ENDBRANCH   5   6
ENDBRANCH   3   5
ENDBRANCH   1   2
BRANCH   1  11
ATOM     11  C   UNL     1     -12.234  13.953 -29.656  1.00  0.00     0.034 C 
BRANCH  11  12
ATOM     12  C   UNL     1     -12.365  14.555 -31.041  1.00  0.00    -0.077 C 
ATOM     13  C   UNL     1     -13.484  15.181 -31.470  1.00  0.00    -0.028 C 
ATOM     14  C   UNL     1     -11.222  14.391 -32.011  1.00  0.00     0.039 C 
BRANCH  13  15
ATOM     15  C   UNL     1     -14.703  15.452 -30.620  1.00  0.00     0.035 C 
BRANCH  15  16
ATOM     16  C   UNL     1     -15.677  14.267 -30.634  1.00  0.00     0.079 C 
BRANCH  16  17
ATOM     17  C   UNL     1     -16.103  13.915 -32.036  1.00  0.00     0.130 C 
ATOM     18  O   UNL     1     -17.149  14.367 -32.479  1.00  0.00    -0.300 OA
ATOM     19  C   UNL     1     -15.267  13.022 -32.904  1.00  0.00     0.087 C 
ENDBRANCH  16  17
ENDBRANCH  15  16
ENDBRANCH  13  15
ENDBRANCH  11  12
ENDBRANCH   1  11
TORSDOF 9
ENDMDL
MODEL 3
REMARK VINA RESULT:    -5.167      2.112      3.855
REMARK INTER + INTRA:         -10.045
REMARK INTER:                  -8.375
REMARK INTRA:                  -1.670
REMARK UNBOUND:                -2.160
REMARK SMILES CC(=O)CCC=C(C)CCC=C(C)CCC=C(C)C
REMARK SMILES IDX 10 1 11 2 12 3 13 4 14 5 15 6 16 7 18 8 17 9 19 10 9 11 7 12
REMARK SMILES IDX 6 13 8 14 5 15 4 16 2 17 3 18 1 19
REMARK H PARENT
REMARK Flexibility Score: inf
ROOT
ATOM      1  C   UNL     1     -17.339  13.115 -29.898  1.00  0.00     0.032 C 
ENDROOT
BRANCH   1   2
ATOM      2  C   UNL     1     -16.210  14.107 -30.020  1.00  0.00    -0.028 C 
ATOM      3  C   UNL     1     -15.357  14.127 -31.069  1.00  0.00    -0.077 C 
ATOM      4  C   UNL     1     -15.490  13.145 -32.210  1.00  0.00     0.039 C 
BRANCH   3   5
ATOM      5  C   UNL     1     -14.243  15.153 -31.100  1.00  0.00     0.034 C 
BRANCH   5   6
ATOM      6  C   UNL     1     -13.108  14.796 -30.129  1.00  0.00     0.032 C 
BRANCH   6   7
ATOM      7  C   UNL     1     -12.316  13.602 -30.606  1.00  0.00    -0.028 C 
ATOM      8  C   UNL     1     -10.527  14.995 -31.668  1.00  0.00     0.039 C 
ATOM      9  C   UNL     1     -11.183  13.678 -31.339  1.00  0.00    -0.080 C 
ATOM     10  C   UNL     1     -10.491  12.411 -31.776  1.00  0.00     0.039 C 
ENDBRANCH   6   7
ENDBRANCH   5   6
ENDBRANCH   3   5
ENDBRANCH   1   2
BRANCH   1  11
ATOM     11  C   UNL     1     -17.409  12.525 -28.485  1.00  0.00     0.034 C 
BRANCH  11  12
ATOM     12  C   UNL     1     -16.901  11.096 -28.477  1.00  0.00    -0.077 C 
ATOM     13  C   UNL     1     -15.796  10.711 -27.798  1.00  0.00    -0.028 C 
ATOM     14  C   UNL     1     -17.619  10.070 -29.315  1.00  0.00     0.039 C 
BRANCH  13  15
ATOM     15  C   UNL     1     -14.982  11.605 -26.892  1.00  0.00     0.035 C 
BRANCH  15  16
ATOM     16  C   UNL     1     -13.900  12.363 -27.672  1.00  0.00     0.079 C 
BRANCH  16  17
ATOM     17  C   UNL     1     -12.757  12.774 -26.778  1.00  0.00     0.130 C 
ATOM     18  O   UNL     1     -12.446  13.953 -26.703  1.00  0.00    -0.300 OA
ATOM     19  C   UNL     1     -11.993  11.763 -25.975  1.00  0.00     0.087 C 
ENDBRANCH  16  17
ENDBRANCH  15  16
ENDBRANCH  13  15
ENDBRANCH  11  12
ENDBRANCH   1  11
TORSDOF 9
ENDMDL
MODEL 4
REMARK VINA RESULT:    -5.137      1.716      5.325
REMARK INTER + INTRA:         -10.000
REMARK INTER:                  -7.743
REMARK INTRA:                  -2.257
REMARK UNBOUND:                -2.160
REMARK SMILES CC(=O)CCC=C(C)CCC=C(C)CCC=C(C)C
REMARK SMILES IDX 10 1 11 2 12 3 13 4 14 5 15 6 16 7 18 8 17 9 19 10 9 11 7 12
REMARK SMILES IDX 6 13 8 14 5 15 4 16 2 17 3 18 1 19
REMARK H PARENT
REMARK Flexibility Score: inf
ROOT
ATOM      1  C   UNL     1     -16.011  13.075 -31.190  1.00  0.00     0.032 C 
ENDROOT
BRANCH   1   2
ATOM      2  C   UNL     1     -16.259  12.017 -30.144  1.00  0.00    -0.028 C 
ATOM      3  C   UNL     1     -16.884  12.271 -28.973  1.00  0.00    -0.077 C 
ATOM      4  C   UNL     1     -17.393  13.653 -28.635  1.00  0.00     0.039 C 
BRANCH   3   5
ATOM      5  C   UNL     1     -17.077  11.146 -27.976  1.00  0.00     0.034 C 
BRANCH   5   6
ATOM      6  C   UNL     1     -15.738  10.607 -27.454  1.00  0.00     0.032 C 
BRANCH   6   7
ATOM      7  C   UNL     1     -14.810  11.723 -27.033  1.00  0.00    -0.028 C 
ATOM      8  C   UNL     1     -13.025  11.088 -28.671  1.00  0.00     0.039 C 
ATOM      9  C   UNL     1     -13.572  11.919 -27.537  1.00  0.00    -0.080 C 
ATOM     10  C   UNL     1     -12.729  13.057 -27.021  1.00  0.00     0.039 C 
ENDBRANCH   6   7
ENDBRANCH   5   6
ENDBRANCH   3   5
ENDBRANCH   1   2
BRANCH   1  11
ATOM     11  C   UNL     1     -14.519  13.189 -31.521  1.00  0.00     0.034 C 
BRANCH  11  12
ATOM     12  C   UNL     1     -13.922  14.426 -30.879  1.00  0.00    -0.077 C 
ATOM     13  C   UNL     1     -12.606  14.543 -30.592  1.00  0.00    -0.028 C 
ATOM     14  C   UNL     1     -14.843  15.549 -30.480  1.00  0.00     0.039 C 
BRANCH  13  15
ATOM     15  C   UNL     1     -11.548  13.526 -30.949  1.00  0.00     0.035 C 
BRANCH  15  16
ATOM     16  C   UNL     1     -10.756  13.948 -32.193  1.00  0.00     0.079 C 
BRANCH  16  17
ATOM     17  C   UNL     1     -10.977  12.995 -33.341  1.00  0.00     0.130 C 
ATOM     18  O   UNL     1     -12.073  12.943 -33.878  1.00  0.00    -0.300 OA
ATOM     19  C   UNL     1      -9.875  12.107 -33.840  1.00  0.00     0.087 C 
ENDBRANCH  16  17
ENDBRANCH  15  16
ENDBRANCH  13  15
ENDBRANCH  11  12
ENDBRANCH   1  11
TORSDOF 9
ENDMDL
MODEL 5
REMARK VINA RESULT:    -5.055     10.064     13.378
REMARK INTER + INTRA:          -9.875
REMARK INTER:                  -9.059
REMARK INTRA:                  -0.816
REMARK UNBOUND:                -2.160
REMARK SMILES CC(=O)CCC=C(C)CCC=C(C)CCC=C(C)C
REMARK SMILES IDX 10 1 11 2 12 3 13 4 14 5 15 6 16 7 18 8 17 9 19 10 9 11 7 12
REMARK SMILES IDX 6 13 8 14 5 15 4 16 2 17 3 18 1 19
REMARK H PARENT
REMARK Flexibility Score: inf
ROOT
ATOM      1  C   UNL     1     -23.589  17.156 -31.605  1.00  0.00     0.032 C 
ENDROOT
BRANCH   1   2
ATOM      2  C   UNL     1     -24.327  15.917 -31.163  1.00  0.00    -0.028 C 
ATOM      3  C   UNL     1     -23.711  14.853 -30.601  1.00  0.00    -0.077 C 
ATOM      4  C   UNL     1     -22.219  14.842 -30.366  1.00  0.00     0.039 C 
BRANCH   3   5
ATOM      5  C   UNL     1     -24.534  13.646 -30.201  1.00  0.00     0.034 C 
BRANCH   5   6
ATOM      6  C   UNL     1     -26.041  13.926 -30.284  1.00  0.00     0.032 C 
BRANCH   6   7
ATOM      7  C   UNL     1     -26.821  13.104 -29.285  1.00  0.00    -0.028 C 
ATOM      8  C   UNL     1     -28.941  13.185 -30.616  1.00  0.00     0.039 C 
ATOM      9  C   UNL     1     -28.135  12.806 -29.399  1.00  0.00    -0.080 C 
ATOM     10  C   UNL     1     -28.811  11.994 -28.324  1.00  0.00     0.039 C 
ENDBRANCH   6   7
ENDBRANCH   5   6
ENDBRANCH   3   5
ENDBRANCH   1   2
BRANCH   1  11
ATOM     11  C   UNL     1     -24.557  18.314 -31.872  1.00  0.00     0.034 C 
BRANCH  11  12
ATOM     12  C   UNL     1     -23.808  19.533 -32.373  1.00  0.00    -0.077 C 
ATOM     13  C   UNL     1     -24.136  20.182 -33.512  1.00  0.00    -0.028 C 
ATOM     14  C   UNL     1     -22.601  20.005 -31.604  1.00  0.00     0.039 C 
BRANCH  13  15
ATOM     15  C   UNL     1     -25.329  19.857 -34.381  1.00  0.00     0.035 C 
BRANCH  15  16
ATOM     16  C   UNL     1     -26.589  20.593 -33.909  1.00  0.00     0.079 C 
BRANCH  16  17
ATOM     17  C   UNL     1     -27.675  19.629 -33.502  1.00  0.00     0.130 C 
ATOM     18  O   UNL     1     -27.427  18.434 -33.442  1.00  0.00    -0.300 OA
ATOM     19  C   UNL     1     -29.057  20.107 -33.167  1.00  0.00     0.087 C 
ENDBRANCH  16  17
ENDBRANCH  15  16
ENDBRANCH  13  15
ENDBRANCH  11  12
ENDBRANCH   1  11
TORSDOF 9
ENDMDL
MODEL 6
REMARK VINA RESULT:    -5.027      1.997      6.320
REMARK INTER + INTRA:          -9.832
REMARK INTER:                  -7.762
REMARK INTRA:                  -2.071
REMARK UNBOUND:                -2.160
REMARK SMILES CC(=O)CCC=C(C)CCC=C(C)CCC=C(C)C
REMARK SMILES IDX 10 1 11 2 12 3 13 4 14 5 15 6 16 7 18 8 17 9 19 10 9 11 7 12
REMARK SMILES IDX 6 13 8 14 5 15 4 16 2 17 3 18 1 19
REMARK H PARENT
REMARK Flexibility Score: inf
ROOT
ATOM      1  C   UNL     1     -14.055  15.305 -30.737  1.00  0.00     0.032 C 
ENDROOT
BRANCH   1   2
ATOM      2  C   UNL     1     -15.353  14.591 -30.456  1.00  0.00    -0.028 C 
ATOM      3  C   UNL     1     -15.858  13.633 -31.265  1.00  0.00    -0.077 C 
ATOM      4  C   UNL     1     -15.135  13.202 -32.520  1.00  0.00     0.039 C 
BRANCH   3   5
ATOM      5  C   UNL     1     -17.177  12.979 -30.908  1.00  0.00     0.034 C 
BRANCH   5   6
ATOM      6  C   UNL     1     -17.463  13.052 -29.401  1.00  0.00     0.032 C 
BRANCH   6   7
ATOM      7  C   UNL     1     -16.654  12.038 -28.627  1.00  0.00    -0.028 C 
ATOM      8  C   UNL     1     -18.391  10.245 -28.825  1.00  0.00     0.039 C 
ATOM      9  C   UNL     1     -17.079  10.792 -28.321  1.00  0.00    -0.080 C 
ATOM     10  C   UNL     1     -16.188   9.875 -27.522  1.00  0.00     0.039 C 
ENDBRANCH   6   7
ENDBRANCH   5   6
ENDBRANCH   3   5
ENDBRANCH   1   2
BRANCH   1  11
ATOM     11  C   UNL     1     -12.929  14.785 -29.837  1.00  0.00     0.034 C 
BRANCH  11  12
ATOM     12  C   UNL     1     -12.026  13.839 -30.604  1.00  0.00    -0.077 C 
ATOM     13  C   UNL     1     -12.058  12.497 -30.442  1.00  0.00    -0.028 C 
ATOM     14  C   UNL     1     -10.998  14.421 -31.540  1.00  0.00     0.039 C 
BRANCH  13  15
ATOM     15  C   UNL     1     -13.041  11.754 -29.567  1.00  0.00     0.035 C 
BRANCH  15  16
ATOM     16  C   UNL     1     -12.375  11.226 -28.290  1.00  0.00     0.079 C 
BRANCH  16  17
ATOM     17  C   UNL     1     -12.661  12.116 -27.107  1.00  0.00     0.130 C 
ATOM     18  O   UNL     1     -13.630  12.859 -27.134  1.00  0.00    -0.300 OA
ATOM     19  C   UNL     1     -11.779  12.107 -25.894  1.00  0.00     0.087 C 
ENDBRANCH  16  17
ENDBRANCH  15  16
ENDBRANCH  13  15
ENDBRANCH  11  12
ENDBRANCH   1  11
TORSDOF 9
ENDMDL
MODEL 7
REMARK VINA RESULT:    -4.955      1.266      5.628
REMARK INTER + INTRA:          -9.723
REMARK INTER:                  -8.207
REMARK INTRA:                  -1.516
REMARK UNBOUND:                -2.160
REMARK SMILES CC(=O)CCC=C(C)CCC=C(C)CCC=C(C)C
REMARK SMILES IDX 10 1 11 2 12 3 13 4 14 5 15 6 16 7 18 8 17 9 19 10 9 11 7 12
REMARK SMILES IDX 6 13 8 14 5 15 4 16 2 17 3 18 1 19
REMARK H PARENT
REMARK Flexibility Score: inf
ROOT
ATOM      1  C   UNL     1     -12.544  13.198 -29.178  1.00  0.00     0.032 C 
ENDROOT
BRANCH   1   2
ATOM      2  C   UNL     1     -13.072  11.909 -28.601  1.00  0.00    -0.028 C 
ATOM      3  C   UNL     1     -12.923  11.567 -27.302  1.00  0.00    -0.077 C 
ATOM      4  C   UNL     1     -12.215  12.476 -26.326  1.00  0.00     0.039 C 
BRANCH   3   5
ATOM      5  C   UNL     1     -13.477  10.243 -26.815  1.00  0.00     0.034 C 
BRANCH   5   6
ATOM      6  C   UNL     1     -14.829  10.413 -26.109  1.00  0.00     0.032 C 
BRANCH   6   7
ATOM      7  C   UNL     1     -15.977   9.951 -26.977  1.00  0.00    -0.028 C 
ATOM      8  C   UNL     1     -16.735  12.277 -27.512  1.00  0.00     0.039 C 
ATOM      9  C   UNL     1     -16.867  10.776 -27.572  1.00  0.00    -0.080 C 
ATOM     10  C   UNL     1     -17.985  10.194 -28.398  1.00  0.00     0.039 C 
ENDBRANCH   6   7
ENDBRANCH   5   6
ENDBRANCH   3   5
ENDBRANCH   1   2
BRANCH   1  11
ATOM     11  C   UNL     1     -11.799  12.954 -30.495  1.00  0.00     0.034 C 
BRANCH  11  12
ATOM     12  C   UNL     1     -11.814  14.200 -31.358  1.00  0.00    -0.077 C 
ATOM     13  C   UNL     1     -12.845  14.520 -32.172  1.00  0.00    -0.028 C 
ATOM     14  C   UNL     1     -10.599  15.092 -31.360  1.00  0.00     0.039 C 
BRANCH  13  15
ATOM     15  C   UNL     1     -14.143  13.752 -32.267  1.00  0.00     0.035 C 
BRANCH  15  16
ATOM     16  C   UNL     1     -15.223  14.354 -31.358  1.00  0.00     0.079 C 
BRANCH  16  17
ATOM     17  C   UNL     1     -16.606  13.941 -31.792  1.00  0.00     0.130 C 
ATOM     18  O   UNL     1     -17.115  14.473 -32.767  1.00  0.00    -0.300 OA
ATOM     19  C   UNL     1     -17.374  12.887 -31.050  1.00  0.00     0.087 C 
ENDBRANCH  16  17
ENDBRANCH  15  16
ENDBRANCH  13  15
ENDBRANCH  11  12
ENDBRANCH   1  11
TORSDOF 9
ENDMDL
MODEL 8
REMARK VINA RESULT:    -4.952      1.558      5.083
REMARK INTER + INTRA:          -9.717
REMARK INTER:                  -7.615
REMARK INTRA:                  -2.102
REMARK UNBOUND:                -2.160
REMARK SMILES CC(=O)CCC=C(C)CCC=C(C)CCC=C(C)C
REMARK SMILES IDX 10 1 11 2 12 3 13 4 14 5 15 6 16 7 18 8 17 9 19 10 9 11 7 12
REMARK SMILES IDX 6 13 8 14 5 15 4 16 2 17 3 18 1 19
REMARK H PARENT
REMARK Flexibility Score: inf
ROOT
ATOM      1  C   UNL     1     -14.157  10.589 -28.073  1.00  0.00     0.032 C 
ENDROOT
BRANCH   1   2
ATOM      2  C   UNL     1     -15.530  10.515 -28.693  1.00  0.00    -0.028 C 
ATOM      3  C   UNL     1     -16.616  11.109 -28.151  1.00  0.00    -0.077 C 
ATOM      4  C   UNL     1     -16.521  11.909 -26.873  1.00  0.00     0.039 C 
BRANCH   3   5
ATOM      5  C   UNL     1     -17.959  10.969 -28.839  1.00  0.00     0.034 C 
BRANCH   5   6
ATOM      6  C   UNL     1     -18.368  12.258 -29.565  1.00  0.00     0.032 C 
BRANCH   6   7
ATOM      7  C   UNL     1     -17.546  12.485 -30.812  1.00  0.00    -0.028 C 
ATOM      8  C   UNL     1     -16.193  14.329 -29.793  1.00  0.00     0.039 C 
ATOM      9  C   UNL     1     -16.601  13.442 -30.943  1.00  0.00    -0.080 C 
ATOM     10  C   UNL     1     -15.860  13.585 -32.247  1.00  0.00     0.039 C 
ENDBRANCH   6   7
ENDBRANCH   5   6
ENDBRANCH   3   5
ENDBRANCH   1   2
BRANCH   1  11
ATOM     11  C   UNL     1     -13.203  11.422 -28.936  1.00  0.00     0.034 C 
BRANCH  11  12
ATOM     12  C   UNL     1     -12.898  12.749 -28.268  1.00  0.00    -0.077 C 
ATOM     13  C   UNL     1     -12.577  13.865 -28.960  1.00  0.00    -0.028 C 
ATOM     14  C   UNL     1     -12.885  12.813 -26.762  1.00  0.00     0.039 C 
BRANCH  13  15
ATOM     15  C   UNL     1     -12.572  13.978 -30.467  1.00  0.00     0.035 C 
BRANCH  15  16
ATOM     16  C   UNL     1     -11.335  14.732 -30.972  1.00  0.00     0.079 C 
BRANCH  16  17
ATOM     17  C   UNL     1     -11.114  14.510 -32.447  1.00  0.00     0.130 C 
ATOM     18  O   UNL     1     -11.954  13.905 -33.097  1.00  0.00    -0.300 OA
ATOM     19  C   UNL     1      -9.883  15.019 -33.136  1.00  0.00     0.087 C 
ENDBRANCH  16  17
ENDBRANCH  15  16
ENDBRANCH  13  15
ENDBRANCH  11  12
ENDBRANCH   1  11
TORSDOF 9
ENDMDL
MODEL 9
REMARK VINA RESULT:    -4.862      2.469      5.236
REMARK INTER + INTRA:          -9.581
REMARK INTER:                  -7.487
REMARK INTRA:                  -2.094
REMARK UNBOUND:                -2.160
REMARK SMILES CC(=O)CCC=C(C)CCC=C(C)CCC=C(C)C
REMARK SMILES IDX 10 1 11 2 12 3 13 4 14 5 15 6 16 7 18 8 17 9 19 10 9 11 7 12
REMARK SMILES IDX 6 13 8 14 5 15 4 16 2 17 3 18 1 19
REMARK H PARENT
REMARK Flexibility Score: inf
ROOT
ATOM      1  C   UNL     1     -12.590  14.504 -29.702  1.00  0.00     0.032 C 
ENDROOT
BRANCH   1   2
ATOM      2  C   UNL     1     -12.982  13.318 -28.856  1.00  0.00    -0.028 C 
ATOM      3  C   UNL     1     -12.462  12.083 -29.032  1.00  0.00    -0.077 C 
ATOM      4  C   UNL     1     -11.429  11.809 -30.100  1.00  0.00     0.039 C 
BRANCH   3   5
ATOM      5  C   UNL     1     -12.926  10.949 -28.141  1.00  0.00     0.034 C 
BRANCH   5   6
ATOM      6  C   UNL     1     -11.753  10.276 -27.413  1.00  0.00     0.032 C 
BRANCH   6   7
ATOM      7  C   UNL     1     -11.193  11.154 -26.319  1.00  0.00    -0.028 C 
ATOM      8  C   UNL     1     -12.372   9.919 -24.487  1.00  0.00     0.039 C 
ATOM      9  C   UNL     1     -11.501  11.035 -25.009  1.00  0.00    -0.080 C 
ATOM     10  C   UNL     1     -10.893  11.987 -24.010  1.00  0.00     0.039 C 
ENDBRANCH   6   7
ENDBRANCH   5   6
ENDBRANCH   3   5
ENDBRANCH   1   2
BRANCH   1  11
ATOM     11  C   UNL     1     -13.764  14.984 -30.563  1.00  0.00     0.034 C 
BRANCH  11  12
ATOM     12  C   UNL     1     -13.872  14.157 -31.829  1.00  0.00    -0.077 C 
ATOM     13  C   UNL     1     -14.977  13.450 -32.156  1.00  0.00    -0.028 C 
ATOM     14  C   UNL     1     -12.670  14.063 -32.734  1.00  0.00     0.039 C 
BRANCH  13  15
ATOM     15  C   UNL     1     -16.271  13.458 -31.376  1.00  0.00     0.035 C 
BRANCH  15  16
ATOM     16  C   UNL     1     -16.300  12.346 -30.320  1.00  0.00     0.079 C 
BRANCH  16  17
ATOM     17  C   UNL     1     -16.559  12.897 -28.941  1.00  0.00     0.130 C 
ATOM     18  O   UNL     1     -16.854  14.075 -28.809  1.00  0.00    -0.300 OA
ATOM     19  C   UNL     1     -16.464  12.026 -27.722  1.00  0.00     0.087 C 
ENDBRANCH  16  17
ENDBRANCH  15  16
ENDBRANCH  13  15
ENDBRANCH  11  12
ENDBRANCH   1  11
TORSDOF 9
ENDMDL
