MODEL 1
REMARK VINA RESULT:    23.810      0.000      0.000
REMARK INTER + INTRA:          48.237
REMARK INTER:                  39.121
REMARK INTRA:                   9.116
REMARK UNBOUND:                 9.116
REMARK SMILES COc1ccc([C@H]2CC(=O)c3c(O)cc(O[C@H]4O[C@@H](CO[C@H]5O[C@H](C)[C@@H](O)[C@H](O)[C@@H]5O)[C@@H](O)[C@H](O)[C@H]4O)cc3O2)cc1O
REMARK SMILES IDX 19 1 32 2 34 3 36 4 17 5 18 6 20 7 21 8 22 9 25 10 24 11
REMARK SMILES IDX 26 12 23 13 28 14 30 15 27 16 29 18 31 20 33 22 35 24 16 26
REMARK SMILES IDX 15 27 14 28 38 29 12 30 39 31 11 32 40 33 9 34 7 35 10 36
REMARK SMILES IDX 8 37 13 38 6 40 41 41 5 42 42 43 4 44 3 45 43 46 2 48 1 49
REMARK SMILES IDX 37 50
REMARK H PARENT 27 17 29 19 31 21 33 23 35 25 13 39 43 47 37 51
REMARK Flexibility Score: inf
ROOT
ATOM      1  C   UNL     1      26.316  38.651  27.714  1.00  0.00     0.180 C 
ATOM      2  C   UNL     1      26.964  39.182  26.393  1.00  0.00     0.177 C 
ATOM      3  C   UNL     1      27.608  38.017  25.602  1.00  0.00     0.180 C 
ATOM      4  C   UNL     1      26.574  36.905  25.415  1.00  0.00     0.214 C 
ATOM      5  C   UNL     1      25.960  36.469  26.760  1.00  0.00     0.339 C 
ATOM      6  O   UNL     1      25.413  37.560  27.497  1.00  0.00    -0.332 OA
ENDROOT
BRANCH   1   7
ATOM      7  C   UNL     1      27.341  38.407  28.859  1.00  0.00     0.198 C 
BRANCH   7   8
ATOM      8  O   UNL     1      28.565  39.070  28.585  1.00  0.00    -0.347 OA
BRANCH   8   9
ATOM      9  C   UNL     1      29.686  38.228  28.871  1.00  0.00     0.281 C 
ATOM     10  C   UNL     1      32.214  40.098  26.949  1.00  0.00     0.041 C 
ATOM     11  C   UNL     1      31.118  39.873  27.975  1.00  0.00     0.150 C 
ATOM     12  C   UNL     1      31.543  40.394  29.386  1.00  0.00     0.174 C 
ATOM     13  O   UNL     1      30.790  38.481  27.987  1.00  0.00    -0.344 OA
ATOM     14  C   UNL     1      30.482  39.999  30.442  1.00  0.00     0.179 C 
ATOM     15  C   UNL     1      30.159  38.479  30.322  1.00  0.00     0.202 C 
BRANCH  12  16
ATOM     16  O   UNL     1      31.649  41.801  29.346  1.00  0.00    -0.388 OA
ATOM     17  H   UNL     1      31.436  42.123  30.252  1.00  0.00     0.211 HD
ENDBRANCH  12  16
BRANCH  14  18
ATOM     18  O   UNL     1      30.912  40.333  31.736  1.00  0.00    -0.387 OA
ATOM     19  H   UNL     1      31.563  39.629  31.996  1.00  0.00     0.211 HD
ENDBRANCH  14  18
BRANCH  15  20
ATOM     20  O   UNL     1      31.276  37.656  30.611  1.00  0.00    -0.385 OA
ATOM     21  H   UNL     1      30.961  36.706  30.666  1.00  0.00     0.211 HD
ENDBRANCH  15  20
ENDBRANCH   8   9
ENDBRANCH   7   8
ENDBRANCH   1   7
BRANCH   2  22
ATOM     22  O   UNL     1      27.855  40.237  26.685  1.00  0.00    -0.387 OA
ATOM     23  H   UNL     1      28.134  40.183  27.649  1.00  0.00     0.211 HD
ENDBRANCH   2  22
BRANCH   3  24
ATOM     24  O   UNL     1      28.101  38.448  24.349  1.00  0.00    -0.387 OA
ATOM     25  H   UNL     1      28.427  37.662  23.857  1.00  0.00     0.211 HD
ENDBRANCH   3  24
BRANCH   5  26
ATOM     26  O   UNL     1      26.937  35.779  27.530  1.00  0.00    -0.462 OA
BRANCH  26  27
ATOM     27  C   UNL     1      28.335  35.882  27.380  1.00  0.00     0.130 A 
ATOM     28  C   UNL     1      29.205  35.518  28.415  1.00  0.00     0.093 A 
ATOM     29  C   UNL     1      28.878  36.375  26.168  1.00  0.00     0.094 A 
ATOM     30  C   UNL     1      30.584  35.558  28.238  1.00  0.00     0.133 A 
ATOM     31  C   UNL     1      30.280  36.418  25.991  1.00  0.00     0.138 A 
ATOM     32  C   UNL     1      31.135  36.057  27.054  1.00  0.00     0.102 A 
ATOM     33  O   UNL     1      30.842  36.746  24.746  1.00  0.00    -0.484 OA
ATOM     34  C   UNL     1      32.592  36.264  26.887  1.00  0.00     0.174 C 
ATOM     35  C   UNL     1      32.147  36.270  24.408  1.00  0.00     0.211 C 
ATOM     36  O   UNL     1      33.351  36.293  27.896  1.00  0.00    -0.294 OA
ATOM     37  C   UNL     1      33.149  36.612  25.537  1.00  0.00     0.131 C 
BRANCH  30  38
ATOM     38  O   UNL     1      31.396  35.051  29.257  1.00  0.00    -0.507 OA
ATOM     39  H   UNL     1      32.396  35.239  29.276  1.00  0.00     0.293 HD
ENDBRANCH  30  38
BRANCH  35  40
ATOM     40  C   UNL     1      32.591  36.845  23.066  1.00  0.00    -0.003 A 
ATOM     41  C   UNL     1      33.899  37.353  22.927  1.00  0.00     0.057 A 
ATOM     42  C   UNL     1      31.728  36.902  21.976  1.00  0.00     0.011 A 
ATOM     43  C   UNL     1      34.313  37.926  21.718  1.00  0.00     0.158 A 
ATOM     44  C   UNL     1      32.142  37.452  20.763  1.00  0.00     0.051 A 
ATOM     45  C   UNL     1      33.442  37.987  20.627  1.00  0.00     0.160 A 
BRANCH  43  46
ATOM     46  O   UNL     1      35.613  38.450  21.593  1.00  0.00    -0.504 OA
ATOM     47  H   UNL     1      36.306  38.027  20.988  1.00  0.00     0.293 HD
ENDBRANCH  43  46
BRANCH  45  48
ATOM     48  O   UNL     1      33.896  38.568  19.436  1.00  0.00    -0.493 OA
ATOM     49  C   UNL     1      33.113  38.692  18.239  1.00  0.00     0.278 C 
ENDBRANCH  45  48
ENDBRANCH  35  40
ENDBRANCH  26  27
ENDBRANCH   5  26
BRANCH   4  50
ATOM     50  O   UNL     1      27.168  35.799  24.759  1.00  0.00    -0.384 OA
ATOM     51  H   UNL     1      27.678  36.169  23.975  1.00  0.00     0.211 HD
ENDBRANCH   4  50
TORSDOF 15
ENDMDL
MODEL 2
REMARK VINA RESULT:    24.066      2.773      5.983
REMARK INTER + INTRA:          48.659
REMARK INTER:                  42.864
REMARK INTRA:                   5.795
REMARK UNBOUND:                 9.116
REMARK SMILES COc1ccc([C@H]2CC(=O)c3c(O)cc(O[C@H]4O[C@@H](CO[C@H]5O[C@H](C)[C@@H](O)[C@H](O)[C@@H]5O)[C@@H](O)[C@H](O)[C@H]4O)cc3O2)cc1O
REMARK SMILES IDX 19 1 32 2 34 3 36 4 17 5 18 6 20 7 21 8 22 9 25 10 24 11
REMARK SMILES IDX 26 12 23 13 28 14 30 15 27 16 29 18 31 20 33 22 35 24 16 26
REMARK SMILES IDX 15 27 14 28 38 29 12 30 39 31 11 32 40 33 9 34 7 35 10 36
REMARK SMILES IDX 8 37 13 38 6 40 41 41 5 42 42 43 4 44 3 45 43 46 2 48 1 49
REMARK SMILES IDX 37 50
REMARK H PARENT 27 17 29 19 31 21 33 23 35 25 13 39 43 47 37 51
REMARK Flexibility Score: inf
ROOT
ATOM      1  C   UNL     1      27.445  36.255  28.832  1.00  0.00     0.180 C 
ATOM      2  C   UNL     1      27.497  37.716  29.385  1.00  0.00     0.177 C 
ATOM      3  C   UNL     1      27.136  38.728  28.270  1.00  0.00     0.180 C 
ATOM      4  C   UNL     1      25.805  38.323  27.634  1.00  0.00     0.214 C 
ATOM      5  C   UNL     1      25.829  36.859  27.152  1.00  0.00     0.339 C 
ATOM      6  O   UNL     1      26.207  35.945  28.179  1.00  0.00    -0.332 OA
ENDROOT
BRANCH   1   7
ATOM      7  C   UNL     1      28.709  35.847  28.019  1.00  0.00     0.198 C 
BRANCH   7   8
ATOM      8  O   UNL     1      29.857  36.520  28.511  1.00  0.00    -0.347 OA
BRANCH   8   9
ATOM      9  C   UNL     1      30.996  35.653  28.533  1.00  0.00     0.281 C 
ATOM     10  C   UNL     1      30.213  33.731  25.489  1.00  0.00     0.041 C 
ATOM     11  C   UNL     1      30.477  34.958  26.341  1.00  0.00     0.150 C 
ATOM     12  C   UNL     1      31.572  35.871  25.701  1.00  0.00     0.174 C 
ATOM     13  O   UNL     1      30.832  34.527  27.657  1.00  0.00    -0.344 OA
ATOM     14  C   UNL     1      31.942  37.021  26.671  1.00  0.00     0.179 C 
ATOM     15  C   UNL     1      32.248  36.440  28.084  1.00  0.00     0.202 C 
BRANCH  12  16
ATOM     16  O   UNL     1      31.071  36.425  24.504  1.00  0.00    -0.388 OA
ATOM     17  H   UNL     1      31.803  36.381  23.846  1.00  0.00     0.211 HD
ENDBRANCH  12  16
BRANCH  14  18
ATOM     18  O   UNL     1      33.023  37.768  26.176  1.00  0.00    -0.387 OA
ATOM     19  H   UNL     1      33.147  37.476  25.235  1.00  0.00     0.211 HD
ENDBRANCH  14  18
BRANCH  15  20
ATOM     20  O   UNL     1      33.379  35.586  28.094  1.00  0.00    -0.385 OA
ATOM     21  H   UNL     1      33.581  35.319  27.149  1.00  0.00     0.211 HD
ENDBRANCH  15  20
ENDBRANCH   8   9
ENDBRANCH   7   8
ENDBRANCH   1   7
BRANCH   2  22
ATOM     22  O   UNL     1      28.749  37.956  29.993  1.00  0.00    -0.387 OA
ATOM     23  H   UNL     1      28.702  38.803  30.531  1.00  0.00     0.211 HD
ENDBRANCH   2  22
BRANCH   3  24
ATOM     24  O   UNL     1      27.064  40.049  28.768  1.00  0.00    -0.387 OA
ATOM     25  H   UNL     1      26.375  40.079  29.469  1.00  0.00     0.211 HD
ENDBRANCH   3  24
BRANCH   5  26
ATOM     26  O   UNL     1      26.691  36.740  26.027  1.00  0.00    -0.462 OA
BRANCH  26  27
ATOM     27  C   UNL     1      27.611  37.712  25.581  1.00  0.00     0.130 A 
ATOM     28  C   UNL     1      27.441  38.363  24.353  1.00  0.00     0.093 A 
ATOM     29  C   UNL     1      28.738  38.032  26.378  1.00  0.00     0.094 A 
ATOM     30  C   UNL     1      28.313  39.367  23.948  1.00  0.00     0.133 A 
ATOM     31  C   UNL     1      29.626  39.052  25.963  1.00  0.00     0.138 A 
ATOM     32  C   UNL     1      29.439  39.683  24.715  1.00  0.00     0.102 A 
ATOM     33  O   UNL     1      30.655  39.502  26.807  1.00  0.00    -0.484 OA
ATOM     34  C   UNL     1      30.473  40.633  24.244  1.00  0.00     0.174 C 
ATOM     35  C   UNL     1      31.167  40.828  26.657  1.00  0.00     0.211 C 
ATOM     36  O   UNL     1      30.540  40.948  23.023  1.00  0.00    -0.294 OA
ATOM     37  C   UNL     1      31.555  41.087  25.182  1.00  0.00     0.131 C 
BRANCH  30  38
ATOM     38  O   UNL     1      28.011  40.074  22.781  1.00  0.00    -0.507 OA
ATOM     39  H   UNL     1      28.524  40.916  22.527  1.00  0.00     0.293 HD
ENDBRANCH  30  38
BRANCH  35  40
ATOM     40  C   UNL     1      32.348  41.049  27.598  1.00  0.00    -0.003 A 
ATOM     41  C   UNL     1      32.240  41.997  28.637  1.00  0.00     0.057 A 
ATOM     42  C   UNL     1      33.543  40.353  27.445  1.00  0.00     0.011 A 
ATOM     43  C   UNL     1      33.326  42.249  29.484  1.00  0.00     0.158 A 
ATOM     44  C   UNL     1      34.621  40.585  28.300  1.00  0.00     0.051 A 
ATOM     45  C   UNL     1      34.527  41.553  29.324  1.00  0.00     0.160 A 
BRANCH  43  46
ATOM     46  O   UNL     1      33.218  43.211  30.505  1.00  0.00    -0.504 OA
ATOM     47  H   UNL     1      32.331  43.440  30.935  1.00  0.00     0.293 HD
ENDBRANCH  43  46
BRANCH  45  48
ATOM     48  O   UNL     1      35.589  41.835  30.193  1.00  0.00    -0.493 OA
ATOM     49  C   UNL     1      35.497  42.691  31.342  1.00  0.00     0.278 C 
ENDBRANCH  45  48
ENDBRANCH  35  40
ENDBRANCH  26  27
ENDBRANCH   5  26
BRANCH   4  50
ATOM     50  O   UNL     1      25.497  39.194  26.561  1.00  0.00    -0.384 OA
ATOM     51  H   UNL     1      24.746  38.764  26.048  1.00  0.00     0.211 HD
ENDBRANCH   4  50
TORSDOF 15
ENDMDL
MODEL 3
REMARK VINA RESULT:    24.104      2.633      6.110
REMARK INTER + INTRA:          48.721
REMARK INTER:                  39.373
REMARK INTRA:                   9.348
REMARK UNBOUND:                 9.116
REMARK SMILES COc1ccc([C@H]2CC(=O)c3c(O)cc(O[C@H]4O[C@@H](CO[C@H]5O[C@H](C)[C@@H](O)[C@H](O)[C@@H]5O)[C@@H](O)[C@H](O)[C@H]4O)cc3O2)cc1O
REMARK SMILES IDX 19 1 32 2 34 3 36 4 17 5 18 6 20 7 21 8 22 9 25 10 24 11
REMARK SMILES IDX 26 12 23 13 28 14 30 15 27 16 29 18 31 20 33 22 35 24 16 26
REMARK SMILES IDX 15 27 14 28 38 29 12 30 39 31 11 32 40 33 9 34 7 35 10 36
REMARK SMILES IDX 8 37 13 38 6 40 41 41 5 42 42 43 4 44 3 45 43 46 2 48 1 49
REMARK SMILES IDX 37 50
REMARK H PARENT 27 17 29 19 31 21 33 23 35 25 13 39 43 47 37 51
REMARK Flexibility Score: inf
ROOT
ATOM      1  C   UNL     1      26.126  36.589  27.301  1.00  0.00     0.180 C 
ATOM      2  C   UNL     1      26.888  37.383  28.412  1.00  0.00     0.177 C 
ATOM      3  C   UNL     1      27.566  38.638  27.809  1.00  0.00     0.180 C 
ATOM      4  C   UNL     1      26.526  39.447  27.032  1.00  0.00     0.214 C 
ATOM      5  C   UNL     1      25.798  38.579  25.986  1.00  0.00     0.339 C 
ATOM      6  O   UNL     1      25.219  37.404  26.550  1.00  0.00    -0.332 OA
ENDROOT
BRANCH   1   7
ATOM      7  C   UNL     1      27.052  35.697  26.423  1.00  0.00     0.198 C 
BRANCH   7   8
ATOM      8  O   UNL     1      28.289  35.463  27.079  1.00  0.00    -0.347 OA
BRANCH   8   9
ATOM      9  C   UNL     1      29.386  35.570  26.167  1.00  0.00     0.281 C 
ATOM     10  C   UNL     1      31.996  36.412  28.628  1.00  0.00     0.041 C 
ATOM     11  C   UNL     1      30.870  35.612  27.998  1.00  0.00     0.150 C 
ATOM     12  C   UNL     1      31.270  34.112  27.819  1.00  0.00     0.174 C 
ATOM     13  O   UNL     1      30.516  36.231  26.759  1.00  0.00    -0.344 OA
ATOM     14  C   UNL     1      30.175  33.361  27.021  1.00  0.00     0.179 C 
ATOM     15  C   UNL     1      29.827  34.155  25.727  1.00  0.00     0.202 C 
BRANCH  12  16
ATOM     16  O   UNL     1      31.403  33.514  29.090  1.00  0.00    -0.388 OA
ATOM     17  H   UNL     1      30.673  33.871  29.646  1.00  0.00     0.211 HD
ENDBRANCH  12  16
BRANCH  14  18
ATOM     18  O   UNL     1      30.580  32.048  26.727  1.00  0.00    -0.387 OA
ATOM     19  H   UNL     1      31.558  32.021  26.896  1.00  0.00     0.211 HD
ENDBRANCH  14  18
BRANCH  15  20
ATOM     20  O   UNL     1      30.921  34.251  24.830  1.00  0.00    -0.385 OA
ATOM     21  H   UNL     1      31.337  33.343  24.742  1.00  0.00     0.211 HD
ENDBRANCH  15  20
ENDBRANCH   8   9
ENDBRANCH   7   8
ENDBRANCH   1   7
BRANCH   2  22
ATOM     22  O   UNL     1      27.777  36.524  29.094  1.00  0.00    -0.387 OA
ATOM     23  H   UNL     1      28.429  37.072  29.627  1.00  0.00     0.211 HD
ENDBRANCH   2  22
BRANCH   3  24
ATOM     24  O   UNL     1      28.167  39.437  28.809  1.00  0.00    -0.387 OA
ATOM     25  H   UNL     1      28.839  40.014  28.382  1.00  0.00     0.211 HD
ENDBRANCH   3  24
BRANCH   5  26
ATOM     26  O   UNL     1      26.695  38.244  24.934  1.00  0.00    -0.462 OA
BRANCH  26  27
ATOM     27  C   UNL     1      28.102  38.206  25.025  1.00  0.00     0.130 A 
ATOM     28  C   UNL     1      28.867  37.460  24.121  1.00  0.00     0.093 A 
ATOM     29  C   UNL     1      28.760  38.919  26.057  1.00  0.00     0.094 A 
ATOM     30  C   UNL     1      30.257  37.477  24.174  1.00  0.00     0.133 A 
ATOM     31  C   UNL     1      30.173  38.934  26.111  1.00  0.00     0.138 A 
ATOM     32  C   UNL     1      30.920  38.164  25.195  1.00  0.00     0.102 A 
ATOM     33  O   UNL     1      30.853  39.763  27.019  1.00  0.00    -0.484 OA
ATOM     34  C   UNL     1      32.388  38.079  25.379  1.00  0.00     0.174 C 
ATOM     35  C   UNL     1      32.182  40.198  26.725  1.00  0.00     0.211 C 
ATOM     36  O   UNL     1      33.046  37.154  24.827  1.00  0.00    -0.294 OA
ATOM     37  C   UNL     1      33.073  38.986  26.361  1.00  0.00     0.131 C 
BRANCH  30  38
ATOM     38  O   UNL     1      30.966  36.827  23.160  1.00  0.00    -0.507 OA
ATOM     39  H   UNL     1      30.496  36.484  22.325  1.00  0.00     0.293 HD
ENDBRANCH  30  38
BRANCH  35  40
ATOM     40  C   UNL     1      32.755  40.986  27.900  1.00  0.00    -0.003 A 
ATOM     41  C   UNL     1      34.083  40.750  28.313  1.00  0.00     0.057 A 
ATOM     42  C   UNL     1      31.991  41.920  28.593  1.00  0.00     0.011 A 
ATOM     43  C   UNL     1      34.614  41.428  29.417  1.00  0.00     0.158 A 
ATOM     44  C   UNL     1      32.523  42.615  29.680  1.00  0.00     0.051 A 
ATOM     45  C   UNL     1      33.843  42.361  30.114  1.00  0.00     0.160 A 
BRANCH  43  46
ATOM     46  O   UNL     1      35.932  41.172  29.837  1.00  0.00    -0.504 OA
ATOM     47  H   UNL     1      36.272  40.233  29.996  1.00  0.00     0.293 HD
ENDBRANCH  43  46
BRANCH  45  48
ATOM     48  O   UNL     1      34.412  43.019  31.213  1.00  0.00    -0.493 OA
ATOM     49  C   UNL     1      33.675  43.791  32.173  1.00  0.00     0.278 C 
ENDBRANCH  45  48
ENDBRANCH  35  40
ENDBRANCH  26  27
ENDBRANCH   5  26
BRANCH   4  50
ATOM     50  O   UNL     1      27.145  40.558  26.410  1.00  0.00    -0.384 OA
ATOM     51  H   UNL     1      26.547  41.350  26.575  1.00  0.00     0.211 HD
ENDBRANCH   4  50
TORSDOF 15
ENDMDL
MODEL 4
REMARK VINA RESULT:    24.160      2.443      5.754
REMARK INTER + INTRA:          48.813
REMARK INTER:                  43.491
REMARK INTRA:                   5.322
REMARK UNBOUND:                 9.116
REMARK SMILES COc1ccc([C@H]2CC(=O)c3c(O)cc(O[C@H]4O[C@@H](CO[C@H]5O[C@H](C)[C@@H](O)[C@H](O)[C@@H]5O)[C@@H](O)[C@H](O)[C@H]4O)cc3O2)cc1O
REMARK SMILES IDX 19 1 32 2 34 3 36 4 17 5 18 6 20 7 21 8 22 9 25 10 24 11
REMARK SMILES IDX 26 12 23 13 28 14 30 15 27 16 29 18 31 20 33 22 35 24 16 26
REMARK SMILES IDX 15 27 14 28 38 29 12 30 39 31 11 32 40 33 9 34 7 35 10 36
REMARK SMILES IDX 8 37 13 38 6 40 41 41 5 42 42 43 4 44 3 45 43 46 2 48 1 49
REMARK SMILES IDX 37 50
REMARK H PARENT 27 17 29 19 31 21 33 23 35 25 13 39 43 47 37 51
REMARK Flexibility Score: inf
ROOT
ATOM      1  C   UNL     1      27.109  36.772  24.795  1.00  0.00     0.180 C 
ATOM      2  C   UNL     1      27.236  35.533  25.741  1.00  0.00     0.177 C 
ATOM      3  C   UNL     1      27.081  35.965  27.220  1.00  0.00     0.180 C 
ATOM      4  C   UNL     1      25.790  36.769  27.376  1.00  0.00     0.214 C 
ATOM      5  C   UNL     1      25.731  37.946  26.382  1.00  0.00     0.339 C 
ATOM      6  O   UNL     1      25.921  37.538  25.029  1.00  0.00    -0.332 OA
ENDROOT
BRANCH   1   7
ATOM      7  C   UNL     1      28.407  37.627  24.707  1.00  0.00     0.198 C 
BRANCH   7   8
ATOM      8  O   UNL     1      29.544  36.847  25.044  1.00  0.00    -0.347 OA
BRANCH   8   9
ATOM      9  C   UNL     1      30.649  37.143  24.184  1.00  0.00     0.281 C 
ATOM     10  C   UNL     1      30.185  40.795  24.021  1.00  0.00     0.041 C 
ATOM     11  C   UNL     1      30.377  39.435  24.666  1.00  0.00     0.150 C 
ATOM     12  C   UNL     1      31.564  39.450  25.683  1.00  0.00     0.174 C 
ATOM     13  O   UNL     1      30.562  38.466  23.631  1.00  0.00    -0.344 OA
ATOM     14  C   UNL     1      31.844  38.015  26.195  1.00  0.00     0.179 C 
ATOM     15  C   UNL     1      31.966  37.038  24.987  1.00  0.00     0.202 C 
BRANCH  12  16
ATOM     16  O   UNL     1      31.223  40.270  26.780  1.00  0.00    -0.388 OA
ATOM     17  H   UNL     1      31.296  39.706  27.584  1.00  0.00     0.211 HD
ENDBRANCH  12  16
BRANCH  14  18
ATOM     18  O   UNL     1      32.996  37.985  26.999  1.00  0.00    -0.387 OA
ATOM     19  H   UNL     1      33.745  38.262  26.410  1.00  0.00     0.211 HD
ENDBRANCH  14  18
BRANCH  15  20
ATOM     20  O   UNL     1      33.065  37.340  24.145  1.00  0.00    -0.385 OA
ATOM     21  H   UNL     1      33.872  36.860  24.497  1.00  0.00     0.211 HD
ENDBRANCH  15  20
ENDBRANCH   8   9
ENDBRANCH   7   8
ENDBRANCH   1   7
BRANCH   2  22
ATOM     22  O   UNL     1      28.437  34.842  25.469  1.00  0.00    -0.387 OA
ATOM     23  H   UNL     1      28.223  33.930  25.105  1.00  0.00     0.211 HD
ENDBRANCH   2  22
BRANCH   3  24
ATOM     24  O   UNL     1      27.078  34.851  28.090  1.00  0.00    -0.387 OA
ATOM     25  H   UNL     1      26.637  34.101  27.632  1.00  0.00     0.211 HD
ENDBRANCH   3  24
BRANCH   5  26
ATOM     26  O   UNL     1      26.688  38.932  26.751  1.00  0.00    -0.462 OA
BRANCH  26  27
ATOM     27  C   UNL     1      27.677  38.795  27.746  1.00  0.00     0.130 A 
ATOM     28  C   UNL     1      27.603  39.510  28.947  1.00  0.00     0.093 A 
ATOM     29  C   UNL     1      28.779  37.930  27.528  1.00  0.00     0.094 A 
ATOM     30  C   UNL     1      28.546  39.322  29.952  1.00  0.00     0.133 A 
ATOM     31  C   UNL     1      29.738  37.742  28.551  1.00  0.00     0.138 A 
ATOM     32  C   UNL     1      29.646  38.485  29.747  1.00  0.00     0.102 A 
ATOM     33  O   UNL     1      30.746  36.771  28.426  1.00  0.00    -0.484 OA
ATOM     34  C   UNL     1      30.751  38.379  30.727  1.00  0.00     0.174 C 
ATOM     35  C   UNL     1      31.333  36.203  29.599  1.00  0.00     0.211 C 
ATOM     36  O   UNL     1      30.895  39.258  31.622  1.00  0.00    -0.294 OA
ATOM     37  C   UNL     1      31.807  37.324  30.556  1.00  0.00     0.131 C 
BRANCH  30  38
ATOM     38  O   UNL     1      28.340  39.958  31.180  1.00  0.00    -0.507 OA
ATOM     39  H   UNL     1      27.944  40.895  31.228  1.00  0.00     0.293 HD
ENDBRANCH  30  38
BRANCH  35  40
ATOM     40  C   UNL     1      32.475  35.265  29.219  1.00  0.00    -0.003 A 
ATOM     41  C   UNL     1      32.363  33.887  29.498  1.00  0.00     0.057 A 
ATOM     42  C   UNL     1      33.639  35.738  28.622  1.00  0.00     0.011 A 
ATOM     43  C   UNL     1      33.418  33.015  29.199  1.00  0.00     0.158 A 
ATOM     44  C   UNL     1      34.684  34.870  28.303  1.00  0.00     0.051 A 
ATOM     45  C   UNL     1      34.588  33.494  28.605  1.00  0.00     0.160 A 
BRANCH  43  46
ATOM     46  O   UNL     1      33.308  31.645  29.499  1.00  0.00    -0.504 OA
ATOM     47  H   UNL     1      33.457  31.285  30.433  1.00  0.00     0.293 HD
ENDBRANCH  43  46
BRANCH  45  48
ATOM     48  O   UNL     1      35.618  32.588  28.322  1.00  0.00    -0.493 OA
ATOM     49  C   UNL     1      35.670  31.236  28.802  1.00  0.00     0.278 C 
ENDBRANCH  45  48
ENDBRANCH  35  40
ENDBRANCH  26  27
ENDBRANCH   5  26
BRANCH   4  50
ATOM     50  O   UNL     1      25.670  37.237  28.707  1.00  0.00    -0.384 OA
ATOM     51  H   UNL     1      26.189  36.598  29.285  1.00  0.00     0.211 HD
ENDBRANCH   4  50
TORSDOF 15
ENDMDL
MODEL 5
REMARK VINA RESULT:    24.186      2.590      5.943
REMARK INTER + INTRA:          48.856
REMARK INTER:                  38.801
REMARK INTRA:                  10.055
REMARK UNBOUND:                 9.116
REMARK SMILES COc1ccc([C@H]2CC(=O)c3c(O)cc(O[C@H]4O[C@@H](CO[C@H]5O[C@H](C)[C@@H](O)[C@H](O)[C@@H]5O)[C@@H](O)[C@H](O)[C@H]4O)cc3O2)cc1O
REMARK SMILES IDX 19 1 32 2 34 3 36 4 17 5 18 6 20 7 21 8 22 9 25 10 24 11
REMARK SMILES IDX 26 12 23 13 28 14 30 15 27 16 29 18 31 20 33 22 35 24 16 26
REMARK SMILES IDX 15 27 14 28 38 29 12 30 39 31 11 32 40 33 9 34 7 35 10 36
REMARK SMILES IDX 8 37 13 38 6 40 41 41 5 42 42 43 4 44 3 45 43 46 2 48 1 49
REMARK SMILES IDX 37 50
REMARK H PARENT 27 17 29 19 31 21 33 23 35 25 13 39 43 47 37 51
REMARK Flexibility Score: inf
ROOT
ATOM      1  C   UNL     1      26.055  37.841  25.903  1.00  0.00     0.180 C 
ATOM      2  C   UNL     1      26.799  36.467  25.951  1.00  0.00     0.177 C 
ATOM      3  C   UNL     1      27.600  36.333  27.269  1.00  0.00     0.180 C 
ATOM      4  C   UNL     1      26.671  36.608  28.452  1.00  0.00     0.214 C 
ATOM      5  C   UNL     1      25.951  37.963  28.305  1.00  0.00     0.339 C 
ATOM      6  O   UNL     1      25.256  38.088  27.067  1.00  0.00    -0.332 OA
ENDROOT
BRANCH   1   7
ATOM      7  C   UNL     1      26.968  39.034  25.497  1.00  0.00     0.198 C 
BRANCH   7   8
ATOM      8  O   UNL     1      28.168  38.565  24.901  1.00  0.00    -0.347 OA
BRANCH   8   9
ATOM      9  C   UNL     1      29.310  39.248  25.428  1.00  0.00     0.281 C 
ATOM     10  C   UNL     1      31.780  36.565  24.900  1.00  0.00     0.041 C 
ATOM     11  C   UNL     1      30.697  37.564  24.535  1.00  0.00     0.150 C 
ATOM     12  C   UNL     1      31.122  38.443  23.314  1.00  0.00     0.174 C 
ATOM     13  O   UNL     1      30.400  38.351  25.691  1.00  0.00    -0.344 OA
ATOM     14  C   UNL     1      30.078  39.561  23.074  1.00  0.00     0.179 C 
ATOM     15  C   UNL     1      29.788  40.308  24.410  1.00  0.00     0.202 C 
BRANCH  12  16
ATOM     16  O   UNL     1      31.196  37.630  22.163  1.00  0.00    -0.388 OA
ATOM     17  H   UNL     1      30.829  38.161  21.420  1.00  0.00     0.211 HD
ENDBRANCH  12  16
BRANCH  14  18
ATOM     18  O   UNL     1      30.512  40.446  22.073  1.00  0.00    -0.387 OA
ATOM     19  H   UNL     1      31.502  40.467  22.140  1.00  0.00     0.211 HD
ENDBRANCH  14  18
BRANCH  15  20
ATOM     20  O   UNL     1      30.925  40.983  24.920  1.00  0.00    -0.385 OA
ATOM     21  H   UNL     1      30.617  41.822  25.373  1.00  0.00     0.211 HD
ENDBRANCH  15  20
ENDBRANCH   8   9
ENDBRANCH   7   8
ENDBRANCH   1   7
BRANCH   2  22
ATOM     22  O   UNL     1      27.581  36.303  24.786  1.00  0.00    -0.387 OA
ATOM     23  H   UNL     1      27.022  36.508  23.976  1.00  0.00     0.211 HD
ENDBRANCH   2  22
BRANCH   3  24
ATOM     24  O   UNL     1      28.192  35.054  27.391  1.00  0.00    -0.387 OA
ATOM     25  H   UNL     1      28.019  34.719  28.299  1.00  0.00     0.211 HD
ENDBRANCH   3  24
BRANCH   5  26
ATOM     26  O   UNL     1      26.886  39.022  28.468  1.00  0.00    -0.462 OA
BRANCH  26  27
ATOM     27  C   UNL     1      28.287  38.916  28.347  1.00  0.00     0.130 A 
ATOM     28  C   UNL     1      29.088  40.050  28.163  1.00  0.00     0.093 A 
ATOM     29  C   UNL     1      28.903  37.641  28.394  1.00  0.00     0.094 A 
ATOM     30  C   UNL     1      30.474  39.947  28.110  1.00  0.00     0.133 A 
ATOM     31  C   UNL     1      30.313  37.539  28.338  1.00  0.00     0.138 A 
ATOM     32  C   UNL     1      31.095  38.695  28.140  1.00  0.00     0.102 A 
ATOM     33  O   UNL     1      30.957  36.307  28.547  1.00  0.00    -0.484 OA
ATOM     34  C   UNL     1      32.552  38.532  27.929  1.00  0.00     0.174 C 
ATOM     35  C   UNL     1      32.301  36.283  29.033  1.00  0.00     0.211 C 
ATOM     36  O   UNL     1      33.229  39.464  27.411  1.00  0.00    -0.294 OA
ATOM     37  C   UNL     1      33.199  37.198  28.166  1.00  0.00     0.131 C 
BRANCH  30  38
ATOM     38  O   UNL     1      31.223  41.127  28.066  1.00  0.00    -0.507 OA
ATOM     39  H   UNL     1      31.374  41.623  27.191  1.00  0.00     0.293 HD
ENDBRANCH  30  38
BRANCH  35  40
ATOM     40  C   UNL     1      32.825  34.850  29.071  1.00  0.00    -0.003 A 
ATOM     41  C   UNL     1      34.117  34.570  28.577  1.00  0.00     0.057 A 
ATOM     42  C   UNL     1      32.052  33.803  29.563  1.00  0.00     0.011 A 
ATOM     43  C   UNL     1      34.600  33.256  28.560  1.00  0.00     0.158 A 
ATOM     44  C   UNL     1      32.538  32.496  29.569  1.00  0.00     0.051 A 
ATOM     45  C   UNL     1      33.819  32.206  29.050  1.00  0.00     0.160 A 
BRANCH  43  46
ATOM     46  O   UNL     1      35.881  32.981  28.047  1.00  0.00    -0.504 OA
ATOM     47  H   UNL     1      36.406  33.666  27.519  1.00  0.00     0.293 HD
ENDBRANCH  43  46
BRANCH  45  48
ATOM     48  O   UNL     1      34.341  30.907  29.016  1.00  0.00    -0.493 OA
ATOM     49  C   UNL     1      35.633  30.560  28.494  1.00  0.00     0.278 C 
ENDBRANCH  45  48
ENDBRANCH  35  40
ENDBRANCH  26  27
ENDBRANCH   5  26
BRANCH   4  50
ATOM     50  O   UNL     1      27.404  36.564  29.663  1.00  0.00    -0.384 OA
ATOM     51  H   UNL     1      27.116  35.729  30.144  1.00  0.00     0.211 HD
ENDBRANCH   4  50
TORSDOF 15
ENDMDL
MODEL 6
REMARK VINA RESULT:    24.852      2.825      6.856
REMARK INTER + INTRA:          49.949
REMARK INTER:                  39.765
REMARK INTRA:                  10.185
REMARK UNBOUND:                 9.116
REMARK SMILES COc1ccc([C@H]2CC(=O)c3c(O)cc(O[C@H]4O[C@@H](CO[C@H]5O[C@H](C)[C@@H](O)[C@H](O)[C@@H]5O)[C@@H](O)[C@H](O)[C@H]4O)cc3O2)cc1O
REMARK SMILES IDX 19 1 32 2 34 3 36 4 17 5 18 6 20 7 21 8 22 9 25 10 24 11
REMARK SMILES IDX 26 12 23 13 28 14 30 15 27 16 29 18 31 20 33 22 35 24 16 26
REMARK SMILES IDX 15 27 14 28 38 29 12 30 39 31 11 32 40 33 9 34 7 35 10 36
REMARK SMILES IDX 8 37 13 38 6 40 41 41 5 42 42 43 4 44 3 45 43 46 2 48 1 49
REMARK SMILES IDX 37 50
REMARK H PARENT 27 17 29 19 31 21 33 23 35 25 13 39 43 47 37 51
REMARK Flexibility Score: inf
ROOT
ATOM      1  C   UNL     1      30.929  36.558  25.507  1.00  0.00     0.180 C 
ATOM      2  C   UNL     1      31.993  36.608  26.651  1.00  0.00     0.177 C 
ATOM      3  C   UNL     1      31.520  35.769  27.865  1.00  0.00     0.180 C 
ATOM      4  C   UNL     1      31.145  34.365  27.389  1.00  0.00     0.214 C 
ATOM      5  C   UNL     1      30.122  34.411  26.236  1.00  0.00     0.339 C 
ATOM      6  O   UNL     1      30.552  35.224  25.147  1.00  0.00    -0.332 OA
ENDROOT
BRANCH   1   7
ATOM      7  C   UNL     1      29.724  37.518  25.731  1.00  0.00     0.198 C 
BRANCH   7   8
ATOM      8  O   UNL     1      29.860  38.686  24.937  1.00  0.00    -0.347 OA
BRANCH   8   9
ATOM      9  C   UNL     1      28.833  38.760  23.943  1.00  0.00     0.281 C 
ATOM     10  C   UNL     1      26.358  36.611  25.627  1.00  0.00     0.041 C 
ATOM     11  C   UNL     1      27.328  37.767  25.462  1.00  0.00     0.150 C 
ATOM     12  C   UNL     1      26.652  39.131  25.816  1.00  0.00     0.174 C 
ATOM     13  O   UNL     1      27.834  37.744  24.125  1.00  0.00    -0.344 OA
ATOM     14  C   UNL     1      27.606  40.303  25.475  1.00  0.00     0.179 C 
ATOM     15  C   UNL     1      28.142  40.140  24.021  1.00  0.00     0.202 C 
BRANCH  12  16
ATOM     16  O   UNL     1      26.366  39.161  27.198  1.00  0.00    -0.388 OA
ATOM     17  H   UNL     1      26.557  38.258  27.543  1.00  0.00     0.211 HD
ENDBRANCH  12  16
BRANCH  14  18
ATOM     18  O   UNL     1      26.966  41.540  25.653  1.00  0.00    -0.387 OA
ATOM     19  H   UNL     1      26.279  41.393  26.354  1.00  0.00     0.211 HD
ENDBRANCH  14  18
BRANCH  15  20
ATOM     20  O   UNL     1      27.117  40.219  23.046  1.00  0.00    -0.385 OA
ATOM     21  H   UNL     1      26.365  39.620  23.330  1.00  0.00     0.211 HD
ENDBRANCH  15  20
ENDBRANCH   8   9
ENDBRANCH   7   8
ENDBRANCH   1   7
BRANCH   2  22
ATOM     22  O   UNL     1      32.298  37.950  26.967  1.00  0.00    -0.387 OA
ATOM     23  H   UNL     1      32.353  38.055  27.965  1.00  0.00     0.211 HD
ENDBRANCH   2  22
BRANCH   3  24
ATOM     24  O   UNL     1      32.512  35.702  28.870  1.00  0.00    -0.387 OA
ATOM     25  H   UNL     1      33.078  36.502  28.800  1.00  0.00     0.211 HD
ENDBRANCH   3  24
BRANCH   5  26
ATOM     26  O   UNL     1      28.864  34.854  26.730  1.00  0.00    -0.462 OA
BRANCH  26  27
ATOM     27  C   UNL     1      28.658  35.896  27.658  1.00  0.00     0.130 A 
ATOM     28  C   UNL     1      27.560  35.889  28.526  1.00  0.00     0.093 A 
ATOM     29  C   UNL     1      29.567  36.982  27.709  1.00  0.00     0.094 A 
ATOM     30  C   UNL     1      27.397  36.885  29.483  1.00  0.00     0.133 A 
ATOM     31  C   UNL     1      29.399  37.995  28.681  1.00  0.00     0.138 A 
ATOM     32  C   UNL     1      28.277  37.971  29.535  1.00  0.00     0.102 A 
ATOM     33  O   UNL     1      30.372  38.992  28.862  1.00  0.00    -0.484 OA
ATOM     34  C   UNL     1      28.050  39.128  30.432  1.00  0.00     0.174 C 
ATOM     35  C   UNL     1      30.497  39.641  30.129  1.00  0.00     0.211 C 
ATOM     36  O   UNL     1      26.912  39.322  30.945  1.00  0.00    -0.294 OA
ATOM     37  C   UNL     1      29.119  40.170  30.596  1.00  0.00     0.131 C 
BRANCH  30  38
ATOM     38  O   UNL     1      26.360  36.748  30.410  1.00  0.00    -0.507 OA
ATOM     39  H   UNL     1      26.548  36.723  31.410  1.00  0.00     0.293 HD
ENDBRANCH  30  38
BRANCH  35  40
ATOM     40  C   UNL     1      31.533  40.759  30.053  1.00  0.00    -0.003 A 
ATOM     41  C   UNL     1      32.079  41.282  31.244  1.00  0.00     0.057 A 
ATOM     42  C   UNL     1      31.941  41.294  28.835  1.00  0.00     0.011 A 
ATOM     43  C   UNL     1      32.997  42.338  31.200  1.00  0.00     0.158 A 
ATOM     44  C   UNL     1      32.872  42.331  28.785  1.00  0.00     0.051 A 
ATOM     45  C   UNL     1      33.401  42.877  29.976  1.00  0.00     0.160 A 
BRANCH  43  46
ATOM     46  O   UNL     1      33.522  42.868  32.393  1.00  0.00    -0.504 OA
ATOM     47  H   UNL     1      33.607  43.865  32.545  1.00  0.00     0.293 HD
ENDBRANCH  43  46
BRANCH  45  48
ATOM     48  O   UNL     1      34.322  43.932  29.976  1.00  0.00    -0.493 OA
ATOM     49  C   UNL     1      34.010  45.287  29.620  1.00  0.00     0.278 C 
ENDBRANCH  45  48
ENDBRANCH  35  40
ENDBRANCH  26  27
ENDBRANCH   5  26
BRANCH   4  50
ATOM     50  O   UNL     1      30.638  33.607  28.472  1.00  0.00    -0.384 OA
ATOM     51  H   UNL     1      29.980  32.953  28.083  1.00  0.00     0.211 HD
ENDBRANCH   4  50
TORSDOF 15
ENDMDL
MODEL 7
REMARK VINA RESULT:    24.985      2.879      5.931
REMARK INTER + INTRA:          50.169
REMARK INTER:                  36.882
REMARK INTRA:                  13.286
REMARK UNBOUND:                 9.116
REMARK SMILES COc1ccc([C@H]2CC(=O)c3c(O)cc(O[C@H]4O[C@@H](CO[C@H]5O[C@H](C)[C@@H](O)[C@H](O)[C@@H]5O)[C@@H](O)[C@H](O)[C@H]4O)cc3O2)cc1O
REMARK SMILES IDX 19 1 32 2 34 3 36 4 17 5 18 6 20 7 21 8 22 9 25 10 24 11
REMARK SMILES IDX 26 12 23 13 28 14 30 15 27 16 29 18 31 20 33 22 35 24 16 26
REMARK SMILES IDX 15 27 14 28 38 29 12 30 39 31 11 32 40 33 9 34 7 35 10 36
REMARK SMILES IDX 8 37 13 38 6 40 41 41 5 42 42 43 4 44 3 45 43 46 2 48 1 49
REMARK SMILES IDX 37 50
REMARK H PARENT 27 17 29 19 31 21 33 23 35 25 13 39 43 47 37 51
REMARK Flexibility Score: inf
ROOT
ATOM      1  C   UNL     1      27.969  35.379  27.327  1.00  0.00     0.180 C 
ATOM      2  C   UNL     1      26.974  35.336  26.122  1.00  0.00     0.177 C 
ATOM      3  C   UNL     1      27.677  34.776  24.861  1.00  0.00     0.180 C 
ATOM      4  C   UNL     1      28.336  33.440  25.204  1.00  0.00     0.214 C 
ATOM      5  C   UNL     1      29.270  33.565  26.424  1.00  0.00     0.339 C 
ATOM      6  O   UNL     1      28.620  34.124  27.563  1.00  0.00    -0.332 OA
ENDROOT
BRANCH   1   7
ATOM      7  C   UNL     1      28.937  36.597  27.296  1.00  0.00     0.198 C 
BRANCH   7   8
ATOM      8  O   UNL     1      29.533  36.795  28.568  1.00  0.00    -0.347 OA
BRANCH   8   9
ATOM      9  C   UNL     1      29.431  38.161  28.982  1.00  0.00     0.281 C 
ATOM     10  C   UNL     1      26.991  39.264  26.451  1.00  0.00     0.041 C 
ATOM     11  C   UNL     1      27.554  38.419  27.579  1.00  0.00     0.150 C 
ATOM     12  C   UNL     1      26.544  38.307  28.766  1.00  0.00     0.174 C 
ATOM     13  O   UNL     1      28.805  38.981  27.982  1.00  0.00    -0.344 OA
ATOM     14  C   UNL     1      27.209  37.588  29.965  1.00  0.00     0.179 C 
ATOM     15  C   UNL     1      28.588  38.244  30.275  1.00  0.00     0.202 C 
BRANCH  12  16
ATOM     16  O   UNL     1      25.421  37.561  28.349  1.00  0.00    -0.388 OA
ATOM     17  H   UNL     1      24.867  37.417  29.150  1.00  0.00     0.211 HD
ENDBRANCH  12  16
BRANCH  14  18
ATOM     18  O   UNL     1      26.368  37.604  31.090  1.00  0.00    -0.387 OA
ATOM     19  H   UNL     1      25.519  38.021  30.789  1.00  0.00     0.211 HD
ENDBRANCH  14  18
BRANCH  15  20
ATOM     20  O   UNL     1      28.474  39.595  30.687  1.00  0.00    -0.385 OA
ATOM     21  H   UNL     1      28.936  39.696  31.570  1.00  0.00     0.211 HD
ENDBRANCH  15  20
ENDBRANCH   8   9
ENDBRANCH   7   8
ENDBRANCH   1   7
BRANCH   2  22
ATOM     22  O   UNL     1      26.390  36.608  25.935  1.00  0.00    -0.387 OA
ATOM     23  H   UNL     1      26.011  36.934  26.807  1.00  0.00     0.211 HD
ENDBRANCH   2  22
BRANCH   3  24
ATOM     24  O   UNL     1      26.772  34.619  23.786  1.00  0.00    -0.387 OA
ATOM     25  H   UNL     1      27.236  34.854  22.952  1.00  0.00     0.211 HD
ENDBRANCH   3  24
BRANCH   5  26
ATOM     26  O   UNL     1      30.417  34.328  26.073  1.00  0.00    -0.462 OA
BRANCH  26  27
ATOM     27  C   UNL     1      30.443  35.715  25.817  1.00  0.00     0.130 A 
ATOM     28  C   UNL     1      29.654  36.282  24.808  1.00  0.00     0.093 A 
ATOM     29  C   UNL     1      31.291  36.556  26.580  1.00  0.00     0.094 A 
ATOM     30  C   UNL     1      29.634  37.657  24.603  1.00  0.00     0.133 A 
ATOM     31  C   UNL     1      31.270  37.954  26.368  1.00  0.00     0.138 A 
ATOM     32  C   UNL     1      30.476  38.498  25.337  1.00  0.00     0.102 A 
ATOM     33  O   UNL     1      31.974  38.824  27.217  1.00  0.00    -0.484 OA
ATOM     34  C   UNL     1      30.598  39.944  25.042  1.00  0.00     0.174 C 
ATOM     35  C   UNL     1      31.538  40.177  27.367  1.00  0.00     0.211 C 
ATOM     36  O   UNL     1      30.195  40.406  23.938  1.00  0.00    -0.294 OA
ATOM     37  C   UNL     1      31.360  40.838  25.979  1.00  0.00     0.131 C 
BRANCH  30  38
ATOM     38  O   UNL     1      28.723  38.174  23.677  1.00  0.00    -0.507 OA
ATOM     39  H   UNL     1      28.964  38.258  22.692  1.00  0.00     0.293 HD
ENDBRANCH  30  38
BRANCH  35  40
ATOM     40  C   UNL     1      32.518  40.956  28.241  1.00  0.00    -0.003 A 
ATOM     41  C   UNL     1      32.067  42.091  28.947  1.00  0.00     0.057 A 
ATOM     42  C   UNL     1      33.855  40.587  28.345  1.00  0.00     0.011 A 
ATOM     43  C   UNL     1      32.958  42.847  29.718  1.00  0.00     0.158 A 
ATOM     44  C   UNL     1      34.742  41.324  29.130  1.00  0.00     0.051 A 
ATOM     45  C   UNL     1      34.302  42.477  29.816  1.00  0.00     0.160 A 
BRANCH  43  46
ATOM     46  O   UNL     1      32.506  43.990  30.403  1.00  0.00    -0.504 OA
ATOM     47  H   UNL     1      32.428  44.892  29.949  1.00  0.00     0.293 HD
ENDBRANCH  43  46
BRANCH  45  48
ATOM     48  O   UNL     1      35.160  43.260  30.599  1.00  0.00    -0.493 OA
ATOM     49  C   UNL     1      36.125  42.736  31.524  1.00  0.00     0.278 C 
ENDBRANCH  45  48
ENDBRANCH  35  40
ENDBRANCH  26  27
ENDBRANCH   5  26
BRANCH   4  50
ATOM     50  O   UNL     1      29.049  32.950  24.083  1.00  0.00    -0.384 OA
ATOM     51  H   UNL     1      29.482  32.089  24.371  1.00  0.00     0.211 HD
ENDBRANCH   4  50
TORSDOF 15
ENDMDL
MODEL 8
REMARK VINA RESULT:    25.220      1.648      2.822
REMARK INTER + INTRA:          50.554
REMARK INTER:                  45.433
REMARK INTRA:                   5.121
REMARK UNBOUND:                 9.116
REMARK SMILES COc1ccc([C@H]2CC(=O)c3c(O)cc(O[C@H]4O[C@@H](CO[C@H]5O[C@H](C)[C@@H](O)[C@H](O)[C@@H]5O)[C@@H](O)[C@H](O)[C@H]4O)cc3O2)cc1O
REMARK SMILES IDX 19 1 32 2 34 3 36 4 17 5 18 6 20 7 21 8 22 9 25 10 24 11
REMARK SMILES IDX 26 12 23 13 28 14 30 15 27 16 29 18 31 20 33 22 35 24 16 26
REMARK SMILES IDX 15 27 14 28 38 29 12 30 39 31 11 32 40 33 9 34 7 35 10 36
REMARK SMILES IDX 8 37 13 38 6 40 41 41 5 42 42 43 4 44 3 45 43 46 2 48 1 49
REMARK SMILES IDX 37 50
REMARK H PARENT 27 17 29 19 31 21 33 23 35 25 13 39 43 47 37 51
REMARK Flexibility Score: inf
ROOT
ATOM      1  C   UNL     1      27.488  39.965  27.297  1.00  0.00     0.180 C 
ATOM      2  C   UNL     1      27.366  39.718  25.758  1.00  0.00     0.177 C 
ATOM      3  C   UNL     1      27.025  38.234  25.474  1.00  0.00     0.180 C 
ATOM      4  C   UNL     1      25.797  37.835  26.294  1.00  0.00     0.214 C 
ATOM      5  C   UNL     1      25.989  38.147  27.791  1.00  0.00     0.339 C 
ATOM      6  O   UNL     1      26.346  39.506  28.032  1.00  0.00    -0.332 OA
ENDROOT
BRANCH   1   7
ATOM      7  C   UNL     1      28.851  39.512  27.897  1.00  0.00     0.198 C 
BRANCH   7   8
ATOM      8  O   UNL     1      29.901  39.721  26.966  1.00  0.00    -0.347 OA
BRANCH   8   9
ATOM      9  C   UNL     1      31.074  40.226  27.613  1.00  0.00     0.281 C 
ATOM     10  C   UNL     1      30.532  38.668  30.908  1.00  0.00     0.041 C 
ATOM     11  C   UNL     1      30.698  38.736  29.401  1.00  0.00     0.150 C 
ATOM     12  C   UNL     1      31.784  37.729  28.902  1.00  0.00     0.174 C 
ATOM     13  O   UNL     1      31.004  40.085  29.040  1.00  0.00    -0.344 OA
ATOM     14  C   UNL     1      32.053  37.940  27.391  1.00  0.00     0.179 C 
ATOM     15  C   UNL     1      32.312  39.450  27.108  1.00  0.00     0.202 C 
BRANCH  12  16
ATOM     16  O   UNL     1      31.321  36.411  29.105  1.00  0.00    -0.388 OA
ATOM     17  H   UNL     1      32.003  35.955  29.649  1.00  0.00     0.211 HD
ENDBRANCH  12  16
BRANCH  14  18
ATOM     18  O   UNL     1      33.125  37.144  26.956  1.00  0.00    -0.387 OA
ATOM     19  H   UNL     1      33.446  37.557  26.113  1.00  0.00     0.211 HD
ENDBRANCH  14  18
BRANCH  15  20
ATOM     20  O   UNL     1      33.478  39.938  27.751  1.00  0.00    -0.385 OA
ATOM     21  H   UNL     1      33.485  40.937  27.676  1.00  0.00     0.211 HD
ENDBRANCH  15  20
ENDBRANCH   8   9
ENDBRANCH   7   8
ENDBRANCH   1   7
BRANCH   2  22
ATOM     22  O   UNL     1      28.532  40.173  25.104  1.00  0.00    -0.387 OA
ATOM     23  H   UNL     1      29.209  39.431  25.073  1.00  0.00     0.211 HD
ENDBRANCH   2  22
BRANCH   3  24
ATOM     24  O   UNL     1      26.796  38.005  24.098  1.00  0.00    -0.387 OA
ATOM     25  H   UNL     1      25.918  37.576  23.997  1.00  0.00     0.211 HD
ENDBRANCH   3  24
BRANCH   5  26
ATOM     26  O   UNL     1      26.957  37.265  28.344  1.00  0.00    -0.462 OA
BRANCH  26  27
ATOM     27  C   UNL     1      27.794  36.393  27.617  1.00  0.00     0.130 A 
ATOM     28  C   UNL     1      27.579  35.009  27.621  1.00  0.00     0.093 A 
ATOM     29  C   UNL     1      28.884  36.917  26.879  1.00  0.00     0.094 A 
ATOM     30  C   UNL     1      28.367  34.161  26.850  1.00  0.00     0.133 A 
ATOM     31  C   UNL     1      29.685  36.052  26.098  1.00  0.00     0.138 A 
ATOM     32  C   UNL     1      29.455  34.660  26.129  1.00  0.00     0.102 A 
ATOM     33  O   UNL     1      30.666  36.562  25.230  1.00  0.00    -0.484 OA
ATOM     34  C   UNL     1      30.409  33.773  25.424  1.00  0.00     0.174 C 
ATOM     35  C   UNL     1      31.065  35.804  24.086  1.00  0.00     0.211 C 
ATOM     36  O   UNL     1      30.458  32.542  25.702  1.00  0.00    -0.294 OA
ATOM     37  C   UNL     1      31.441  34.362  24.505  1.00  0.00     0.131 C 
BRANCH  30  38
ATOM     38  O   UNL     1      28.015  32.809  26.786  1.00  0.00    -0.507 OA
ATOM     39  H   UNL     1      27.494  32.437  25.996  1.00  0.00     0.293 HD
ENDBRANCH  30  38
BRANCH  35  40
ATOM     40  C   UNL     1      32.215  36.499  23.363  1.00  0.00    -0.003 A 
ATOM     41  C   UNL     1      32.056  36.886  22.016  1.00  0.00     0.057 A 
ATOM     42  C   UNL     1      33.430  36.745  23.994  1.00  0.00     0.011 A 
ATOM     43  C   UNL     1      33.113  37.484  21.320  1.00  0.00     0.158 A 
ATOM     44  C   UNL     1      34.480  37.361  23.312  1.00  0.00     0.051 A 
ATOM     45  C   UNL     1      34.335  37.724  21.955  1.00  0.00     0.160 A 
BRANCH  43  46
ATOM     46  O   UNL     1      32.955  37.849  19.971  1.00  0.00    -0.504 OA
ATOM     47  H   UNL     1      32.214  38.468  19.665  1.00  0.00     0.293 HD
ENDBRANCH  43  46
BRANCH  45  48
ATOM     48  O   UNL     1      35.367  38.326  21.223  1.00  0.00    -0.493 OA
ATOM     49  C   UNL     1      35.177  39.086  20.019  1.00  0.00     0.278 C 
ENDBRANCH  45  48
ENDBRANCH  35  40
ENDBRANCH  26  27
ENDBRANCH   5  26
BRANCH   4  50
ATOM     50  O   UNL     1      25.516  36.460  26.106  1.00  0.00    -0.384 OA
ATOM     51  H   UNL     1      26.325  36.060  25.660  1.00  0.00     0.211 HD
ENDBRANCH   4  50
TORSDOF 15
ENDMDL
MODEL 9
REMARK VINA RESULT:    25.385      2.373      5.862
REMARK INTER + INTRA:          50.825
REMARK INTER:                  42.756
REMARK INTRA:                   8.070
REMARK UNBOUND:                 9.116
REMARK SMILES COc1ccc([C@H]2CC(=O)c3c(O)cc(O[C@H]4O[C@@H](CO[C@H]5O[C@H](C)[C@@H](O)[C@H](O)[C@@H]5O)[C@@H](O)[C@H](O)[C@H]4O)cc3O2)cc1O
REMARK SMILES IDX 19 1 32 2 34 3 36 4 17 5 18 6 20 7 21 8 22 9 25 10 24 11
REMARK SMILES IDX 26 12 23 13 28 14 30 15 27 16 29 18 31 20 33 22 35 24 16 26
REMARK SMILES IDX 15 27 14 28 38 29 12 30 39 31 11 32 40 33 9 34 7 35 10 36
REMARK SMILES IDX 8 37 13 38 6 40 41 41 5 42 42 43 4 44 3 45 43 46 2 48 1 49
REMARK SMILES IDX 37 50
REMARK H PARENT 27 17 29 19 31 21 33 23 35 25 13 39 43 47 37 51
REMARK Flexibility Score: inf
ROOT
ATOM      1  C   UNL     1      31.597  37.066  29.586  1.00  0.00     0.180 C 
ATOM      2  C   UNL     1      31.665  38.367  28.722  1.00  0.00     0.177 C 
ATOM      3  C   UNL     1      30.634  39.406  29.228  1.00  0.00     0.180 C 
ATOM      4  C   UNL     1      30.827  39.614  30.730  1.00  0.00     0.214 C 
ATOM      5  C   UNL     1      30.783  38.279  31.499  1.00  0.00     0.339 C 
ATOM      6  O   UNL     1      31.706  37.318  30.992  1.00  0.00    -0.332 OA
ENDROOT
BRANCH   1   7
ATOM      7  C   UNL     1      30.421  36.121  29.202  1.00  0.00     0.198 C 
BRANCH   7   8
ATOM      8  O   UNL     1      30.635  35.551  27.920  1.00  0.00    -0.347 OA
BRANCH   8   9
ATOM      9  C   UNL     1      29.489  35.719  27.080  1.00  0.00     0.281 C 
ATOM     10  C   UNL     1      31.236  37.037  24.115  1.00  0.00     0.041 C 
ATOM     11  C   UNL     1      30.921  36.068  25.239  1.00  0.00     0.150 C 
ATOM     12  C   UNL     1      30.719  34.615  24.698  1.00  0.00     0.174 C 
ATOM     13  O   UNL     1      29.772  36.549  25.942  1.00  0.00    -0.344 OA
ATOM     14  C   UNL     1      30.232  33.685  25.837  1.00  0.00     0.179 C 
ATOM     15  C   UNL     1      29.021  34.338  26.568  1.00  0.00     0.202 C 
BRANCH  12  16
ATOM     16  O   UNL     1      31.949  34.130  24.205  1.00  0.00    -0.388 OA
ATOM     17  H   UNL     1      31.889  33.148  24.219  1.00  0.00     0.211 HD
ENDBRANCH  12  16
BRANCH  14  18
ATOM     18  O   UNL     1      29.909  32.412  25.341  1.00  0.00    -0.387 OA
ATOM     19  H   UNL     1      30.386  31.764  25.922  1.00  0.00     0.211 HD
ENDBRANCH  14  18
BRANCH  15  20
ATOM     20  O   UNL     1      27.891  34.496  25.727  1.00  0.00    -0.385 OA
ATOM     21  H   UNL     1      28.179  34.340  24.780  1.00  0.00     0.211 HD
ENDBRANCH  15  20
ENDBRANCH   8   9
ENDBRANCH   7   8
ENDBRANCH   1   7
BRANCH   2  22
ATOM     22  O   UNL     1      31.529  38.044  27.354  1.00  0.00    -0.387 OA
ATOM     23  H   UNL     1      32.104  37.249  27.139  1.00  0.00     0.211 HD
ENDBRANCH   2  22
BRANCH   3  24
ATOM     24  O   UNL     1      30.752  40.635  28.539  1.00  0.00    -0.387 OA
ATOM     25  H   UNL     1      30.837  40.445  27.578  1.00  0.00     0.211 HD
ENDBRANCH   3  24
BRANCH   5  26
ATOM     26  O   UNL     1      29.458  37.762  31.485  1.00  0.00    -0.462 OA
BRANCH  26  27
ATOM     27  C   UNL     1      28.563  37.806  30.396  1.00  0.00     0.130 A 
ATOM     28  C   UNL     1      27.226  37.417  30.539  1.00  0.00     0.093 A 
ATOM     29  C   UNL     1      29.021  38.236  29.126  1.00  0.00     0.094 A 
ATOM     30  C   UNL     1      26.332  37.524  29.479  1.00  0.00     0.133 A 
ATOM     31  C   UNL     1      28.111  38.341  28.049  1.00  0.00     0.138 A 
ATOM     32  C   UNL     1      26.772  37.931  28.216  1.00  0.00     0.102 A 
ATOM     33  O   UNL     1      28.500  38.918  26.827  1.00  0.00    -0.484 OA
ATOM     34  C   UNL     1      25.889  37.908  27.027  1.00  0.00     0.174 C 
ATOM     35  C   UNL     1      27.517  39.520  25.982  1.00  0.00     0.211 C 
ATOM     36  O   UNL     1      24.819  37.237  27.041  1.00  0.00    -0.294 OA
ATOM     37  C   UNL     1      26.345  38.538  25.742  1.00  0.00     0.131 C 
BRANCH  30  38
ATOM     38  O   UNL     1      24.982  37.253  29.722  1.00  0.00    -0.507 OA
ATOM     39  H   UNL     1      24.514  36.466  29.279  1.00  0.00     0.293 HD
ENDBRANCH  30  38
BRANCH  35  40
ATOM     40  C   UNL     1      28.152  39.972  24.670  1.00  0.00    -0.003 A 
ATOM     41  C   UNL     1      29.538  40.231  24.622  1.00  0.00     0.057 A 
ATOM     42  C   UNL     1      27.393  40.157  23.518  1.00  0.00     0.011 A 
ATOM     43  C   UNL     1      30.134  40.690  23.440  1.00  0.00     0.158 A 
ATOM     44  C   UNL     1      27.986  40.593  22.333  1.00  0.00     0.051 A 
ATOM     45  C   UNL     1      29.368  40.880  22.288  1.00  0.00     0.160 A 
BRANCH  43  46
ATOM     46  O   UNL     1      31.513  40.966  23.405  1.00  0.00    -0.504 OA
ATOM     47  H   UNL     1      31.954  41.584  24.074  1.00  0.00     0.293 HD
ENDBRANCH  43  46
BRANCH  45  48
ATOM     48  O   UNL     1      30.003  41.340  21.126  1.00  0.00    -0.493 OA
ATOM     49  C   UNL     1      29.624  40.975  19.791  1.00  0.00     0.278 C 
ENDBRANCH  45  48
ENDBRANCH  35  40
ENDBRANCH  26  27
ENDBRANCH   5  26
BRANCH   4  50
ATOM     50  O   UNL     1      29.843  40.504  31.225  1.00  0.00    -0.384 OA
ATOM     51  H   UNL     1      29.214  39.955  31.786  1.00  0.00     0.211 HD
ENDBRANCH   4  50
TORSDOF 15
ENDMDL
