MODEL 1
REMARK VINA RESULT:    -5.557      0.000      0.000
REMARK INTER + INTRA:         -10.336
REMARK INTER:                  -8.480
REMARK INTRA:                  -1.856
REMARK UNBOUND:                -1.856
REMARK SMILES CC(=O)CCC=C(C)CCC=C(C)CCC=C(C)C
REMARK SMILES IDX 10 1 11 2 12 3 13 4 14 5 15 6 16 7 18 8 17 9 19 10 9 11 7 12
REMARK SMILES IDX 6 13 8 14 5 15 4 16 2 17 3 18 1 19
REMARK H PARENT
REMARK Flexibility Score: inf
ROOT
ATOM      1  C   UNL     1      11.351 -36.206 -30.686  1.00  0.00     0.032 C 
ENDROOT
BRANCH   1   2
ATOM      2  C   UNL     1      12.446 -36.928 -29.941  1.00  0.00    -0.028 C 
ATOM      3  C   UNL     1      13.309 -36.354 -29.072  1.00  0.00    -0.077 C 
ATOM      4  C   UNL     1      14.369 -37.223 -28.444  1.00  0.00     0.039 C 
BRANCH   3   5
ATOM      5  C   UNL     1      13.241 -34.889 -28.680  1.00  0.00     0.034 C 
BRANCH   5   6
ATOM      6  C   UNL     1      12.145 -34.615 -27.642  1.00  0.00     0.032 C 
BRANCH   6   7
ATOM      7  C   UNL     1      11.001 -33.835 -28.246  1.00  0.00    -0.028 C 
ATOM      8  C   UNL     1       9.898 -32.035 -29.502  1.00  0.00     0.039 C 
ATOM      9  C   UNL     1      11.130 -32.658 -28.898  1.00  0.00    -0.080 C 
ATOM     10  C   UNL     1      12.461 -31.957 -29.036  1.00  0.00     0.039 C 
ENDBRANCH   6   7
ENDBRANCH   5   6
ENDBRANCH   3   5
ENDBRANCH   1   2
BRANCH   1  11
ATOM     11  C   UNL     1      11.828 -35.762 -32.073  1.00  0.00     0.034 C 
BRANCH  11  12
ATOM     12  C   UNL     1      11.679 -34.262 -32.244  1.00  0.00    -0.077 C 
ATOM     13  C   UNL     1      12.717 -33.401 -32.153  1.00  0.00    -0.028 C 
ATOM     14  C   UNL     1      10.301 -33.696 -32.476  1.00  0.00     0.039 C 
BRANCH  13  15
ATOM     15  C   UNL     1      14.155 -33.799 -31.932  1.00  0.00     0.035 C 
BRANCH  15  16
ATOM     16  C   UNL     1      15.090 -33.024 -32.865  1.00  0.00     0.079 C 
BRANCH  16  17
ATOM     17  C   UNL     1      14.895 -31.540 -32.699  1.00  0.00     0.130 C 
ATOM     18  O   UNL     1      14.543 -30.868 -33.657  1.00  0.00    -0.300 OA
ATOM     19  C   UNL     1      15.115 -30.867 -31.377  1.00  0.00     0.087 C 
ENDBRANCH  16  17
ENDBRANCH  15  16
ENDBRANCH  13  15
ENDBRANCH  11  12
ENDBRANCH   1  11
TORSDOF 9
ENDMDL
MODEL 2
REMARK VINA RESULT:    -5.475      2.086      4.415
REMARK INTER + INTRA:         -10.211
REMARK INTER:                  -7.668
REMARK INTRA:                  -2.543
REMARK UNBOUND:                -1.856
REMARK SMILES CC(=O)CCC=C(C)CCC=C(C)CCC=C(C)C
REMARK SMILES IDX 10 1 11 2 12 3 13 4 14 5 15 6 16 7 18 8 17 9 19 10 9 11 7 12
REMARK SMILES IDX 6 13 8 14 5 15 4 16 2 17 3 18 1 19
REMARK H PARENT
REMARK Flexibility Score: inf
ROOT
ATOM      1  C   UNL     1       9.905 -33.417 -29.506  1.00  0.00     0.032 C 
ENDROOT
BRANCH   1   2
ATOM      2  C   UNL     1      10.834 -33.696 -28.350  1.00  0.00    -0.028 C 
ATOM      3  C   UNL     1      12.068 -33.165 -28.195  1.00  0.00    -0.077 C 
ATOM      4  C   UNL     1      12.877 -33.585 -26.993  1.00  0.00     0.039 C 
BRANCH   3   5
ATOM      5  C   UNL     1      12.661 -32.148 -29.153  1.00  0.00     0.034 C 
BRANCH   5   6
ATOM      6  C   UNL     1      13.595 -32.797 -30.184  1.00  0.00     0.032 C 
BRANCH   6   7
ATOM      7  C   UNL     1      13.904 -31.845 -31.317  1.00  0.00    -0.028 C 
ATOM      8  C   UNL     1      14.637 -31.147 -33.554  1.00  0.00     0.039 C 
ATOM      9  C   UNL     1      14.451 -32.206 -32.499  1.00  0.00    -0.080 C 
ATOM     10  C   UNL     1      14.873 -33.627 -32.789  1.00  0.00     0.039 C 
ENDBRANCH   6   7
ENDBRANCH   5   6
ENDBRANCH   3   5
ENDBRANCH   1   2
BRANCH   1  11
ATOM     11  C   UNL     1       9.890 -34.587 -30.495  1.00  0.00     0.034 C 
BRANCH  11  12
ATOM     12  C   UNL     1      10.727 -34.272 -31.720  1.00  0.00    -0.077 C 
ATOM     13  C   UNL     1      11.695 -35.094 -32.186  1.00  0.00    -0.028 C 
ATOM     14  C   UNL     1      10.508 -32.958 -32.426  1.00  0.00     0.039 C 
BRANCH  13  15
ATOM     15  C   UNL     1      12.038 -36.442 -31.606  1.00  0.00     0.035 C 
BRANCH  15  16
ATOM     16  C   UNL     1      13.415 -36.417 -30.932  1.00  0.00     0.079 C 
BRANCH  16  17
ATOM     17  C   UNL     1      13.278 -36.572 -29.441  1.00  0.00     0.130 C 
ATOM     18  O   UNL     1      12.181 -36.440 -28.920  1.00  0.00    -0.300 OA
ATOM     19  C   UNL     1      14.461 -36.895 -28.577  1.00  0.00     0.087 C 
ENDBRANCH  16  17
ENDBRANCH  15  16
ENDBRANCH  13  15
ENDBRANCH  11  12
ENDBRANCH   1  11
TORSDOF 9
ENDMDL
MODEL 3
REMARK VINA RESULT:    -5.370      1.737      4.688
REMARK INTER + INTRA:         -10.051
REMARK INTER:                  -8.034
REMARK INTRA:                  -2.018
REMARK UNBOUND:                -1.856
REMARK SMILES CC(=O)CCC=C(C)CCC=C(C)CCC=C(C)C
REMARK SMILES IDX 10 1 11 2 12 3 13 4 14 5 15 6 16 7 18 8 17 9 19 10 9 11 7 12
REMARK SMILES IDX 6 13 8 14 5 15 4 16 2 17 3 18 1 19
REMARK H PARENT
REMARK Flexibility Score: inf
ROOT
ATOM      1  C   UNL     1      10.268 -34.086 -29.848  1.00  0.00     0.032 C 
ENDROOT
BRANCH   1   2
ATOM      2  C   UNL     1       9.956 -33.590 -31.239  1.00  0.00    -0.028 C 
ATOM      3  C   UNL     1      10.863 -33.101 -32.115  1.00  0.00    -0.077 C 
ATOM      4  C   UNL     1      10.367 -32.613 -33.453  1.00  0.00     0.039 C 
BRANCH   3   5
ATOM      5  C   UNL     1      12.352 -33.047 -31.826  1.00  0.00     0.034 C 
BRANCH   5   6
ATOM      6  C   UNL     1      13.031 -34.409 -32.021  1.00  0.00     0.032 C 
BRANCH   6   7
ATOM      7  C   UNL     1      13.391 -35.036 -30.694  1.00  0.00    -0.028 C 
ATOM      8  C   UNL     1      13.648 -36.819 -29.024  1.00  0.00     0.039 C 
ATOM      9  C   UNL     1      13.170 -36.328 -30.366  1.00  0.00    -0.080 C 
ATOM     10  C   UNL     1      12.466 -37.285 -31.300  1.00  0.00     0.039 C 
ENDBRANCH   6   7
ENDBRANCH   5   6
ENDBRANCH   3   5
ENDBRANCH   1   2
BRANCH   1  11
ATOM     11  C   UNL     1      10.520 -32.916 -28.890  1.00  0.00     0.034 C 
BRANCH  11  12
ATOM     12  C   UNL     1      11.618 -33.255 -27.899  1.00  0.00    -0.077 C 
ATOM     13  C   UNL     1      12.863 -32.730 -27.967  1.00  0.00    -0.028 C 
ATOM     14  C   UNL     1      11.327 -34.261 -26.815  1.00  0.00     0.039 C 
BRANCH  13  15
ATOM     15  C   UNL     1      13.317 -31.709 -28.979  1.00  0.00     0.035 C 
BRANCH  15  16
ATOM     16  C   UNL     1      14.436 -30.829 -28.410  1.00  0.00     0.079 C 
BRANCH  16  17
ATOM     17  C   UNL     1      15.361 -30.373 -29.506  1.00  0.00     0.130 C 
ATOM     18  O   UNL     1      16.312 -29.657 -29.232  1.00  0.00    -0.300 OA
ATOM     19  C   UNL     1      15.148 -30.788 -30.932  1.00  0.00     0.087 C 
ENDBRANCH  16  17
ENDBRANCH  15  16
ENDBRANCH  13  15
ENDBRANCH  11  12
ENDBRANCH   1  11
TORSDOF 9
ENDMDL
MODEL 4
REMARK VINA RESULT:    -5.359      1.146      3.397
REMARK INTER + INTRA:         -10.034
REMARK INTER:                  -8.032
REMARK INTRA:                  -2.002
REMARK UNBOUND:                -1.856
REMARK SMILES CC(=O)CCC=C(C)CCC=C(C)CCC=C(C)C
REMARK SMILES IDX 10 1 11 2 12 3 13 4 14 5 15 6 16 7 18 8 17 9 19 10 9 11 7 12
REMARK SMILES IDX 6 13 8 14 5 15 4 16 2 17 3 18 1 19
REMARK H PARENT
REMARK Flexibility Score: inf
ROOT
ATOM      1  C   UNL     1      10.668 -35.739 -30.899  1.00  0.00     0.032 C 
ENDROOT
BRANCH   1   2
ATOM      2  C   UNL     1      10.493 -34.703 -31.982  1.00  0.00    -0.028 C 
ATOM      3  C   UNL     1      10.115 -33.420 -31.782  1.00  0.00    -0.077 C 
ATOM      4  C   UNL     1       9.953 -32.530 -32.989  1.00  0.00     0.039 C 
BRANCH   3   5
ATOM      5  C   UNL     1       9.875 -32.830 -30.404  1.00  0.00     0.034 C 
BRANCH   5   6
ATOM      6  C   UNL     1      11.147 -32.821 -29.547  1.00  0.00     0.032 C 
BRANCH   6   7
ATOM      7  C   UNL     1      10.868 -33.321 -28.148  1.00  0.00    -0.028 C 
ATOM      8  C   UNL     1      11.373 -34.037 -25.854  1.00  0.00     0.039 C 
ATOM      9  C   UNL     1      11.816 -33.611 -27.229  1.00  0.00    -0.080 C 
ATOM     10  C   UNL     1      13.292 -33.518 -27.540  1.00  0.00     0.039 C 
ENDBRANCH   6   7
ENDBRANCH   5   6
ENDBRANCH   3   5
ENDBRANCH   1   2
BRANCH   1  11
ATOM     11  C   UNL     1      11.939 -36.565 -31.127  1.00  0.00     0.034 C 
BRANCH  11  12
ATOM     12  C   UNL     1      13.086 -36.037 -30.288  1.00  0.00    -0.077 C 
ATOM     13  C   UNL     1      13.914 -35.051 -30.703  1.00  0.00    -0.028 C 
ATOM     14  C   UNL     1      13.352 -36.672 -28.947  1.00  0.00     0.039 C 
BRANCH  13  15
ATOM     15  C   UNL     1      13.786 -34.308 -32.009  1.00  0.00     0.035 C 
BRANCH  15  16
ATOM     16  C   UNL     1      13.892 -32.794 -31.793  1.00  0.00     0.079 C 
BRANCH  16  17
ATOM     17  C   UNL     1      15.012 -32.218 -32.619  1.00  0.00     0.130 C 
ATOM     18  O   UNL     1      15.110 -31.006 -32.738  1.00  0.00    -0.300 OA
ATOM     19  C   UNL     1      16.018 -33.101 -33.295  1.00  0.00     0.087 C 
ENDBRANCH  16  17
ENDBRANCH  15  16
ENDBRANCH  13  15
ENDBRANCH  11  12
ENDBRANCH   1  11
TORSDOF 9
ENDMDL
MODEL 5
REMARK VINA RESULT:    -5.304      2.122      4.295
REMARK INTER + INTRA:          -9.951
REMARK INTER:                  -7.638
REMARK INTRA:                  -2.312
REMARK UNBOUND:                -1.856
REMARK SMILES CC(=O)CCC=C(C)CCC=C(C)CCC=C(C)C
REMARK SMILES IDX 10 1 11 2 12 3 13 4 14 5 15 6 16 7 18 8 17 9 19 10 9 11 7 12
REMARK SMILES IDX 6 13 8 14 5 15 4 16 2 17 3 18 1 19
REMARK H PARENT
REMARK Flexibility Score: inf
ROOT
ATOM      1  C   UNL     1      10.854 -35.677 -31.434  1.00  0.00     0.032 C 
ENDROOT
BRANCH   1   2
ATOM      2  C   UNL     1      11.769 -36.208 -30.358  1.00  0.00    -0.028 C 
ATOM      3  C   UNL     1      13.118 -36.112 -30.363  1.00  0.00    -0.077 C 
ATOM      4  C   UNL     1      13.879 -36.735 -29.219  1.00  0.00     0.039 C 
BRANCH   3   5
ATOM      5  C   UNL     1      13.895 -35.385 -31.445  1.00  0.00     0.034 C 
BRANCH   5   6
ATOM      6  C   UNL     1      13.993 -33.878 -31.177  1.00  0.00     0.032 C 
BRANCH   6   7
ATOM      7  C   UNL     1      13.748 -33.080 -32.438  1.00  0.00    -0.028 C 
ATOM      8  C   UNL     1      13.967 -31.212 -34.017  1.00  0.00     0.039 C 
ATOM      9  C   UNL     1      14.250 -31.849 -32.681  1.00  0.00    -0.080 C 
ATOM     10  C   UNL     1      15.079 -31.103 -31.662  1.00  0.00     0.039 C 
ENDBRANCH   6   7
ENDBRANCH   5   6
ENDBRANCH   3   5
ENDBRANCH   1   2
BRANCH   1  11
ATOM     11  C   UNL     1       9.875 -34.644 -30.864  1.00  0.00     0.034 C 
BRANCH  11  12
ATOM     12  C   UNL     1      10.377 -33.232 -31.103  1.00  0.00    -0.077 C 
ATOM     13  C   UNL     1      10.887 -32.452 -30.123  1.00  0.00    -0.028 C 
ATOM     14  C   UNL     1      10.258 -32.649 -32.488  1.00  0.00     0.039 C 
BRANCH  13  15
ATOM     15  C   UNL     1      11.082 -32.881 -28.690  1.00  0.00     0.035 C 
BRANCH  15  16
ATOM     16  C   UNL     1      12.571 -32.977 -28.342  1.00  0.00     0.079 C 
BRANCH  16  17
ATOM     17  C   UNL     1      12.755 -33.418 -26.914  1.00  0.00     0.130 C 
ATOM     18  O   UNL     1      13.856 -33.328 -26.394  1.00  0.00    -0.300 OA
ATOM     19  C   UNL     1      11.609 -33.958 -26.111  1.00  0.00     0.087 C 
ENDBRANCH  16  17
ENDBRANCH  15  16
ENDBRANCH  13  15
ENDBRANCH  11  12
ENDBRANCH   1  11
TORSDOF 9
ENDMDL
MODEL 6
REMARK VINA RESULT:    -5.294      1.112      3.374
REMARK INTER + INTRA:          -9.935
REMARK INTER:                  -8.188
REMARK INTRA:                  -1.747
REMARK UNBOUND:                -1.856
REMARK SMILES CC(=O)CCC=C(C)CCC=C(C)CCC=C(C)C
REMARK SMILES IDX 10 1 11 2 12 3 13 4 14 5 15 6 16 7 18 8 17 9 19 10 9 11 7 12
REMARK SMILES IDX 6 13 8 14 5 15 4 16 2 17 3 18 1 19
REMARK H PARENT
REMARK Flexibility Score: inf
ROOT
ATOM      1  C   UNL     1       9.946 -32.859 -30.256  1.00  0.00     0.032 C 
ENDROOT
BRANCH   1   2
ATOM      2  C   UNL     1      11.211 -32.169 -29.808  1.00  0.00    -0.028 C 
ATOM      3  C   UNL     1      11.936 -32.501 -28.715  1.00  0.00    -0.077 C 
ATOM      4  C   UNL     1      13.157 -31.677 -28.396  1.00  0.00     0.039 C 
BRANCH   3   5
ATOM      5  C   UNL     1      11.594 -33.676 -27.818  1.00  0.00     0.034 C 
BRANCH   5   6
ATOM      6  C   UNL     1      12.606 -34.822 -27.949  1.00  0.00     0.032 C 
BRANCH   6   7
ATOM      7  C   UNL     1      12.450 -35.541 -29.269  1.00  0.00    -0.028 C 
ATOM      8  C   UNL     1      12.814 -37.291 -30.954  1.00  0.00     0.039 C 
ATOM      9  C   UNL     1      13.131 -36.652 -29.627  1.00  0.00    -0.080 C 
ATOM     10  C   UNL     1      14.190 -37.266 -28.741  1.00  0.00     0.039 C 
ENDBRANCH   6   7
ENDBRANCH   5   6
ENDBRANCH   3   5
ENDBRANCH   1   2
BRANCH   1  11
ATOM     11  C   UNL     1      10.200 -33.726 -31.494  1.00  0.00     0.034 C 
BRANCH  11  12
ATOM     12  C   UNL     1      10.796 -32.901 -32.620  1.00  0.00    -0.077 C 
ATOM     13  C   UNL     1      12.121 -32.857 -32.883  1.00  0.00    -0.028 C 
ATOM     14  C   UNL     1       9.875 -32.049 -33.456  1.00  0.00     0.039 C 
BRANCH  13  15
ATOM     15  C   UNL     1      13.175 -33.649 -32.150  1.00  0.00     0.035 C 
BRANCH  15  16
ATOM     16  C   UNL     1      14.287 -32.733 -31.628  1.00  0.00     0.079 C 
BRANCH  16  17
ATOM     17  C   UNL     1      15.081 -32.158 -32.770  1.00  0.00     0.130 C 
ATOM     18  O   UNL     1      14.788 -31.058 -33.213  1.00  0.00    -0.300 OA
ATOM     19  C   UNL     1      16.235 -32.903 -33.374  1.00  0.00     0.087 C 
ENDBRANCH  16  17
ENDBRANCH  15  16
ENDBRANCH  13  15
ENDBRANCH  11  12
ENDBRANCH   1  11
TORSDOF 9
ENDMDL
MODEL 7
REMARK VINA RESULT:    -5.128      3.091      4.663
REMARK INTER + INTRA:          -9.682
REMARK INTER:                  -8.285
REMARK INTRA:                  -1.397
REMARK UNBOUND:                -1.856
REMARK SMILES CC(=O)CCC=C(C)CCC=C(C)CCC=C(C)C
REMARK SMILES IDX 10 1 11 2 12 3 13 4 14 5 15 6 16 7 18 8 17 9 19 10 9 11 7 12
REMARK SMILES IDX 6 13 8 14 5 15 4 16 2 17 3 18 1 19
REMARK H PARENT
REMARK Flexibility Score: inf
ROOT
ATOM      1  C   UNL     1      12.660 -33.328 -32.131  1.00  0.00     0.032 C 
ENDROOT
BRANCH   1   2
ATOM      2  C   UNL     1      13.329 -32.650 -30.960  1.00  0.00    -0.028 C 
ATOM      3  C   UNL     1      12.750 -32.408 -29.762  1.00  0.00    -0.077 C 
ATOM      4  C   UNL     1      13.558 -31.685 -28.715  1.00  0.00     0.039 C 
BRANCH   3   5
ATOM      5  C   UNL     1      11.342 -32.856 -29.416  1.00  0.00     0.034 C 
BRANCH   5   6
ATOM      6  C   UNL     1      11.312 -34.263 -28.806  1.00  0.00     0.032 C 
BRANCH   6   7
ATOM      7  C   UNL     1      11.502 -35.324 -29.866  1.00  0.00    -0.028 C 
ATOM      8  C   UNL     1      12.533 -37.250 -30.987  1.00  0.00     0.039 C 
ATOM      9  C   UNL     1      12.521 -36.210 -29.897  1.00  0.00    -0.080 C 
ATOM     10  C   UNL     1      13.637 -36.188 -28.878  1.00  0.00     0.039 C 
ENDBRANCH   6   7
ENDBRANCH   5   6
ENDBRANCH   3   5
ENDBRANCH   1   2
BRANCH   1  11
ATOM     11  C   UNL     1      12.090 -32.296 -33.111  1.00  0.00     0.034 C 
BRANCH  11  12
ATOM     12  C   UNL     1      10.630 -32.583 -33.411  1.00  0.00    -0.077 C 
ATOM     13  C   UNL     1       9.875 -31.806 -34.220  1.00  0.00    -0.028 C 
ATOM     14  C   UNL     1       9.973 -33.762 -32.739  1.00  0.00     0.039 C 
BRANCH  13  15
ATOM     15  C   UNL     1      10.375 -30.598 -34.972  1.00  0.00     0.035 C 
BRANCH  15  16
ATOM     16  C   UNL     1      10.318 -30.831 -36.486  1.00  0.00     0.079 C 
BRANCH  16  17
ATOM     17  C   UNL     1      10.648 -29.564 -37.230  1.00  0.00     0.130 C 
ATOM     18  O   UNL     1       9.888 -28.610 -37.158  1.00  0.00    -0.300 OA
ATOM     19  C   UNL     1      11.896 -29.442 -38.052  1.00  0.00     0.087 C 
ENDBRANCH  16  17
ENDBRANCH  15  16
ENDBRANCH  13  15
ENDBRANCH  11  12
ENDBRANCH   1  11
TORSDOF 9
ENDMDL
MODEL 8
REMARK VINA RESULT:    -5.091      2.045      4.271
REMARK INTER + INTRA:          -9.626
REMARK INTER:                  -7.451
REMARK INTRA:                  -2.175
REMARK UNBOUND:                -1.856
REMARK SMILES CC(=O)CCC=C(C)CCC=C(C)CCC=C(C)C
REMARK SMILES IDX 10 1 11 2 12 3 13 4 14 5 15 6 16 7 18 8 17 9 19 10 9 11 7 12
REMARK SMILES IDX 6 13 8 14 5 15 4 16 2 17 3 18 1 19
REMARK H PARENT
REMARK Flexibility Score: inf
ROOT
ATOM      1  C   UNL     1      12.963 -32.032 -29.978  1.00  0.00     0.032 C 
ENDROOT
BRANCH   1   2
ATOM      2  C   UNL     1      12.832 -32.685 -28.624  1.00  0.00    -0.028 C 
ATOM      3  C   UNL     1      11.709 -33.265 -28.142  1.00  0.00    -0.077 C 
ATOM      4  C   UNL     1      11.747 -33.838 -26.748  1.00  0.00     0.039 C 
BRANCH   3   5
ATOM      5  C   UNL     1      10.429 -33.391 -28.948  1.00  0.00     0.034 C 
BRANCH   5   6
ATOM      6  C   UNL     1      10.085 -34.852 -29.267  1.00  0.00     0.032 C 
BRANCH   6   7
ATOM      7  C   UNL     1      10.716 -35.292 -30.568  1.00  0.00    -0.028 C 
ATOM      8  C   UNL     1      12.272 -36.494 -32.041  1.00  0.00     0.039 C 
ATOM      9  C   UNL     1      11.802 -36.091 -30.667  1.00  0.00    -0.080 C 
ATOM     10  C   UNL     1      12.547 -36.589 -29.451  1.00  0.00     0.039 C 
ENDBRANCH   6   7
ENDBRANCH   5   6
ENDBRANCH   3   5
ENDBRANCH   1   2
BRANCH   1  11
ATOM     11  C   UNL     1      13.423 -33.044 -31.034  1.00  0.00     0.034 C 
BRANCH  11  12
ATOM     12  C   UNL     1      13.442 -32.414 -32.414  1.00  0.00    -0.077 C 
ATOM     13  C   UNL     1      12.361 -32.383 -33.227  1.00  0.00    -0.028 C 
ATOM     14  C   UNL     1      14.737 -31.839 -32.928  1.00  0.00     0.039 C 
BRANCH  13  15
ATOM     15  C   UNL     1      10.993 -32.906 -32.869  1.00  0.00     0.035 C 
BRANCH  15  16
ATOM     16  C   UNL     1       9.902 -31.896 -33.244  1.00  0.00     0.079 C 
BRANCH  16  17
ATOM     17  C   UNL     1       9.983 -31.548 -34.706  1.00  0.00     0.130 C 
ATOM     18  O   UNL     1       9.878 -32.432 -35.542  1.00  0.00    -0.300 OA
ATOM     19  C   UNL     1      10.180 -30.133 -35.162  1.00  0.00     0.087 C 
ENDBRANCH  16  17
ENDBRANCH  15  16
ENDBRANCH  13  15
ENDBRANCH  11  12
ENDBRANCH   1  11
TORSDOF 9
ENDMDL
MODEL 9
REMARK VINA RESULT:    -5.064      2.239      4.118
REMARK INTER + INTRA:          -9.584
REMARK INTER:                  -7.719
REMARK INTRA:                  -1.865
REMARK UNBOUND:                -1.856
REMARK SMILES CC(=O)CCC=C(C)CCC=C(C)CCC=C(C)C
REMARK SMILES IDX 10 1 11 2 12 3 13 4 14 5 15 6 16 7 18 8 17 9 19 10 9 11 7 12
REMARK SMILES IDX 6 13 8 14 5 15 4 16 2 17 3 18 1 19
REMARK H PARENT
REMARK Flexibility Score: inf
ROOT
ATOM      1  C   UNL     1       9.875 -32.876 -30.418  1.00  0.00     0.032 C 
ENDROOT
BRANCH   1   2
ATOM      2  C   UNL     1      10.267 -33.484 -29.094  1.00  0.00    -0.028 C 
ATOM      3  C   UNL     1      11.375 -33.168 -28.387  1.00  0.00    -0.077 C 
ATOM      4  C   UNL     1      11.630 -33.905 -27.097  1.00  0.00     0.039 C 
BRANCH   3   5
ATOM      5  C   UNL     1      12.354 -32.089 -28.816  1.00  0.00     0.034 C 
BRANCH   5   6
ATOM      6  C   UNL     1      13.747 -32.293 -28.206  1.00  0.00     0.032 C 
BRANCH   6   7
ATOM      7  C   UNL     1      14.471 -30.976 -28.045  1.00  0.00    -0.028 C 
ATOM      8  C   UNL     1      15.678 -28.953 -28.740  1.00  0.00     0.039 C 
ATOM      9  C   UNL     1      15.050 -30.286 -29.053  1.00  0.00    -0.080 C 
ATOM     10  C   UNL     1      15.082 -30.809 -30.470  1.00  0.00     0.039 C 
ENDBRANCH   6   7
ENDBRANCH   5   6
ENDBRANCH   3   5
ENDBRANCH   1   2
BRANCH   1  11
ATOM     11  C   UNL     1      10.256 -33.798 -31.582  1.00  0.00     0.034 C 
BRANCH  11  12
ATOM     12  C   UNL     1      11.242 -33.117 -32.513  1.00  0.00    -0.077 C 
ATOM     13  C   UNL     1      12.583 -33.218 -32.370  1.00  0.00    -0.028 C 
ATOM     14  C   UNL     1      10.706 -32.246 -33.620  1.00  0.00     0.039 C 
BRANCH  13  15
ATOM     15  C   UNL     1      13.282 -34.049 -31.324  1.00  0.00     0.035 C 
BRANCH  15  16
ATOM     16  C   UNL     1      13.570 -35.461 -31.846  1.00  0.00     0.079 C 
BRANCH  16  17
ATOM     17  C   UNL     1      12.991 -36.497 -30.919  1.00  0.00     0.130 C 
ATOM     18  O   UNL     1      12.364 -37.437 -31.384  1.00  0.00    -0.300 OA
ATOM     19  C   UNL     1      13.175 -36.406 -29.433  1.00  0.00     0.087 C 
ENDBRANCH  16  17
ENDBRANCH  15  16
ENDBRANCH  13  15
ENDBRANCH  11  12
ENDBRANCH   1  11
TORSDOF 9
ENDMDL
