MODEL 1
REMARK VINA RESULT:    -6.403      0.000      0.000
REMARK INTER + INTRA:          -6.403
REMARK INTER:                  -6.403
REMARK INTRA:                   0.000
REMARK UNBOUND:                 0.000
REMARK SMILES O=c1ccc2ccc3occc3c2o1
REMARK SMILES IDX 6 1 7 2 8 3 12 4 11 5 10 6 9 7 13 8 5 9 4 10 3 11 2 12 1 13
REMARK SMILES IDX 14 14
REMARK H PARENT
REMARK Flexibility Score: inf
ROOT
ATOM      1  C   UNL     1      26.631  22.630  49.088  1.00  0.00     0.016 A 
ATOM      2  C   UNL     1      27.037  21.971  50.264  1.00  0.00     0.048 A 
ATOM      3  C   UNL     1      28.379  22.049  50.630  1.00  0.00     0.137 A 
ATOM      4  C   UNL     1      29.295  22.739  49.882  1.00  0.00     0.064 A 
ATOM      5  C   UNL     1      30.508  22.613  50.517  1.00  0.00     0.054 A 
ATOM      6  C   UNL     1      30.237  21.834  51.637  1.00  0.00     0.196 A 
ATOM      7  O   UNL     1      28.956  21.512  51.677  1.00  0.00    -0.464 OA
ATOM      8  C   UNL     1      28.933  23.403  48.711  1.00  0.00     0.149 A 
ATOM      9  C   UNL     1      27.573  23.346  48.310  1.00  0.00     0.018 A 
ATOM     10  C   UNL     1      27.205  24.010  47.137  1.00  0.00     0.019 A 
ATOM     11  C   UNL     1      28.174  24.701  46.407  1.00  0.00     0.094 A 
ATOM     12  C   UNL     1      29.496  24.713  46.868  1.00  0.00     0.336 A 
ATOM     13  O   UNL     1      30.382  25.331  46.221  1.00  0.00    -0.246 OA
ATOM     14  O   UNL     1      29.826  24.073  47.988  1.00  0.00    -0.422 OA
ENDROOT
TORSDOF 0
ENDMDL
MODEL 2
REMARK VINA RESULT:    -6.342      1.710      5.239
REMARK INTER + INTRA:          -6.342
REMARK INTER:                  -6.342
REMARK INTRA:                   0.000
REMARK UNBOUND:                 0.000
REMARK SMILES O=c1ccc2ccc3occc3c2o1
REMARK SMILES IDX 6 1 7 2 8 3 12 4 11 5 10 6 9 7 13 8 5 9 4 10 3 11 2 12 1 13
REMARK SMILES IDX 14 14
REMARK H PARENT
REMARK Flexibility Score: inf
ROOT
ATOM      1  C   UNL     1      30.182  24.369  47.609  1.00  0.00     0.016 A 
ATOM      2  C   UNL     1      29.937  24.934  46.343  1.00  0.00     0.048 A 
ATOM      3  C   UNL     1      28.658  24.807  45.803  1.00  0.00     0.137 A 
ATOM      4  C   UNL     1      27.654  24.154  46.467  1.00  0.00     0.064 A 
ATOM      5  C   UNL     1      26.539  24.211  45.663  1.00  0.00     0.054 A 
ATOM      6  C   UNL     1      26.956  24.913  44.538  1.00  0.00     0.196 A 
ATOM      7  O   UNL     1      28.227  25.256  44.651  1.00  0.00    -0.464 OA
ATOM      8  C   UNL     1      27.856  23.581  47.721  1.00  0.00     0.149 A 
ATOM      9  C   UNL     1      29.147  23.693  48.300  1.00  0.00     0.018 A 
ATOM     10  C   UNL     1      29.355  23.120  49.558  1.00  0.00     0.019 A 
ATOM     11  C   UNL     1      28.301  22.465  50.196  1.00  0.00     0.094 A 
ATOM     12  C   UNL     1      27.055  22.397  49.560  1.00  0.00     0.336 A 
ATOM     13  O   UNL     1      26.094  21.809  50.123  1.00  0.00    -0.246 OA
ATOM     14  O   UNL     1      26.877  22.949  48.363  1.00  0.00    -0.422 OA
ENDROOT
TORSDOF 0
ENDMDL
MODEL 3
REMARK VINA RESULT:    -5.975      1.650      2.788
REMARK INTER + INTRA:          -5.975
REMARK INTER:                  -5.975
REMARK INTRA:                   0.000
REMARK UNBOUND:                 0.000
REMARK SMILES O=c1ccc2ccc3occc3c2o1
REMARK SMILES IDX 6 1 7 2 8 3 12 4 11 5 10 6 9 7 13 8 5 9 4 10 3 11 2 12 1 13
REMARK SMILES IDX 14 14
REMARK H PARENT
REMARK Flexibility Score: inf
ROOT
ATOM      1  C   UNL     1      29.964  23.686  48.937  1.00  0.00     0.016 A 
ATOM      2  C   UNL     1      29.534  22.968  50.070  1.00  0.00     0.048 A 
ATOM      3  C   UNL     1      28.204  22.556  50.120  1.00  0.00     0.137 A 
ATOM      4  C   UNL     1      27.322  22.831  49.109  1.00  0.00     0.064 A 
ATOM      5  C   UNL     1      26.112  22.290  49.475  1.00  0.00     0.054 A 
ATOM      6  C   UNL     1      26.350  21.709  50.715  1.00  0.00     0.196 A 
ATOM      7  O   UNL     1      27.609  21.884  51.074  1.00  0.00    -0.464 OA
ATOM      8  C   UNL     1      27.708  23.539  47.972  1.00  0.00     0.149 A 
ATOM      9  C   UNL     1      29.057  23.973  47.888  1.00  0.00     0.018 A 
ATOM     10  C   UNL     1      29.449  24.683  46.750  1.00  0.00     0.019 A 
ATOM     11  C   UNL     1      28.515  24.940  45.746  1.00  0.00     0.094 A 
ATOM     12  C   UNL     1      27.202  24.478  45.901  1.00  0.00     0.336 A 
ATOM     13  O   UNL     1      26.347  24.701  45.004  1.00  0.00    -0.246 OA
ATOM     14  O   UNL     1      26.848  23.803  46.993  1.00  0.00    -0.422 OA
ENDROOT
TORSDOF 0
ENDMDL
MODEL 4
REMARK VINA RESULT:    -5.938      1.390      5.012
REMARK INTER + INTRA:          -5.938
REMARK INTER:                  -5.938
REMARK INTRA:                   0.000
REMARK UNBOUND:                 0.000
REMARK SMILES O=c1ccc2ccc3occc3c2o1
REMARK SMILES IDX 6 1 7 2 8 3 12 4 11 5 10 6 9 7 13 8 5 9 4 10 3 11 2 12 1 13
REMARK SMILES IDX 14 14
REMARK H PARENT
REMARK Flexibility Score: inf
ROOT
ATOM      1  C   UNL     1      30.899  22.628  49.202  1.00  0.00     0.016 A 
ATOM      2  C   UNL     1      30.431  23.269  48.039  1.00  0.00     0.048 A 
ATOM      3  C   UNL     1      29.134  23.779  48.048  1.00  0.00     0.137 A 
ATOM      4  C   UNL     1      28.321  23.671  49.145  1.00  0.00     0.064 A 
ATOM      5  C   UNL     1      27.127  24.271  48.819  1.00  0.00     0.054 A 
ATOM      6  C   UNL     1      27.303  24.712  47.512  1.00  0.00     0.196 A 
ATOM      7  O   UNL     1      28.513  24.404  47.079  1.00  0.00    -0.464 OA
ATOM      8  C   UNL     1      28.747  23.044  50.314  1.00  0.00     0.149 A 
ATOM      9  C   UNL     1      30.063  22.514  50.340  1.00  0.00     0.018 A 
ATOM     10  C   UNL     1      30.495  21.885  51.510  1.00  0.00     0.019 A 
ATOM     11  C   UNL     1      29.631  21.799  52.602  1.00  0.00     0.094 A 
ATOM     12  C   UNL     1      28.346  22.348  52.501  1.00  0.00     0.336 A 
ATOM     13  O   UNL     1      27.555  22.278  53.477  1.00  0.00    -0.246 OA
ATOM     14  O   UNL     1      27.954  22.943  51.377  1.00  0.00    -0.422 OA
ENDROOT
TORSDOF 0
ENDMDL
MODEL 5
REMARK VINA RESULT:    -5.920      1.237      4.308
REMARK INTER + INTRA:          -5.920
REMARK INTER:                  -5.920
REMARK INTRA:                   0.000
REMARK UNBOUND:                 0.000
REMARK SMILES O=c1ccc2ccc3occc3c2o1
REMARK SMILES IDX 6 1 7 2 8 3 12 4 11 5 10 6 9 7 13 8 5 9 4 10 3 11 2 12 1 13
REMARK SMILES IDX 14 14
REMARK H PARENT
REMARK Flexibility Score: inf
ROOT
ATOM      1  C   UNL     1      26.863  24.091  48.652  1.00  0.00     0.016 A 
ATOM      2  C   UNL     1      27.288  24.690  47.451  1.00  0.00     0.048 A 
ATOM      3  C   UNL     1      28.642  24.628  47.129  1.00  0.00     0.137 A 
ATOM      4  C   UNL     1      29.552  24.006  47.943  1.00  0.00     0.064 A 
ATOM      5  C   UNL     1      30.781  24.128  47.336  1.00  0.00     0.054 A 
ATOM      6  C   UNL     1      30.524  24.833  46.165  1.00  0.00     0.196 A 
ATOM      7  O   UNL     1      29.237  25.118  46.070  1.00  0.00    -0.464 OA
ATOM      8  C   UNL     1      29.172  23.401  49.139  1.00  0.00     0.149 A 
ATOM      9  C   UNL     1      27.800  23.446  49.497  1.00  0.00     0.018 A 
ATOM     10  C   UNL     1      27.413  22.841  50.696  1.00  0.00     0.019 A 
ATOM     11  C   UNL     1      28.376  22.219  51.492  1.00  0.00     0.094 A 
ATOM     12  C   UNL     1      29.712  22.216  51.070  1.00  0.00     0.336 A 
ATOM     13  O   UNL     1      30.592  21.660  51.778  1.00  0.00    -0.246 OA
ATOM     14  O   UNL     1      30.059  22.798  49.925  1.00  0.00    -0.422 OA
ENDROOT
TORSDOF 0
ENDMDL
MODEL 6
REMARK VINA RESULT:    -5.906      1.481      4.193
REMARK INTER + INTRA:          -5.906
REMARK INTER:                  -5.906
REMARK INTRA:                   0.000
REMARK UNBOUND:                 0.000
REMARK SMILES O=c1ccc2ccc3occc3c2o1
REMARK SMILES IDX 6 1 7 2 8 3 12 4 11 5 10 6 9 7 13 8 5 9 4 10 3 11 2 12 1 13
REMARK SMILES IDX 14 14
REMARK H PARENT
REMARK Flexibility Score: inf
ROOT
ATOM      1  C   UNL     1      26.880  22.053  50.294  1.00  0.00     0.016 A 
ATOM      2  C   UNL     1      26.398  22.626  49.102  1.00  0.00     0.048 A 
ATOM      3  C   UNL     1      27.293  23.341  48.309  1.00  0.00     0.137 A 
ATOM      4  C   UNL     1      28.608  23.496  48.660  1.00  0.00     0.064 A 
ATOM      5  C   UNL     1      29.202  24.245  47.671  1.00  0.00     0.054 A 
ATOM      6  C   UNL     1      28.179  24.500  46.764  1.00  0.00     0.196 A 
ATOM      7  O   UNL     1      27.050  23.947  47.173  1.00  0.00    -0.464 OA
ATOM      8  C   UNL     1      29.123  22.945  49.831  1.00  0.00     0.149 A 
ATOM      9  C   UNL     1      28.239  22.209  50.662  1.00  0.00     0.018 A 
ATOM     10  C   UNL     1      28.751  21.654  51.838  1.00  0.00     0.019 A 
ATOM     11  C   UNL     1      30.097  21.838  52.154  1.00  0.00     0.094 A 
ATOM     12  C   UNL     1      30.908  22.576  51.283  1.00  0.00     0.336 A 
ATOM     13  O   UNL     1      32.125  22.751  51.554  1.00  0.00    -0.246 OA
ATOM     14  O   UNL     1      30.401  23.096  50.168  1.00  0.00    -0.422 OA
ENDROOT
TORSDOF 0
ENDMDL
MODEL 7
REMARK VINA RESULT:    -5.834      2.064      4.673
REMARK INTER + INTRA:          -5.834
REMARK INTER:                  -5.834
REMARK INTRA:                   0.000
REMARK UNBOUND:                 0.000
REMARK SMILES O=c1ccc2ccc3occc3c2o1
REMARK SMILES IDX 6 1 7 2 8 3 12 4 11 5 10 6 9 7 13 8 5 9 4 10 3 11 2 12 1 13
REMARK SMILES IDX 14 14
REMARK H PARENT
REMARK Flexibility Score: inf
ROOT
ATOM      1  C   UNL     1      26.498  21.870  50.793  1.00  0.00     0.016 A 
ATOM      2  C   UNL     1      26.299  22.345  49.483  1.00  0.00     0.048 A 
ATOM      3  C   UNL     1      27.106  23.387  49.032  1.00  0.00     0.137 A 
ATOM      4  C   UNL     1      28.072  23.949  49.823  1.00  0.00     0.064 A 
ATOM      5  C   UNL     1      28.674  24.938  49.080  1.00  0.00     0.054 A 
ATOM      6  C   UNL     1      28.014  24.906  47.856  1.00  0.00     0.196 A 
ATOM      7  O   UNL     1      27.082  23.969  47.858  1.00  0.00    -0.464 OA
ATOM      8  C   UNL     1      28.301  23.509  51.125  1.00  0.00     0.149 A 
ATOM      9  C   UNL     1      27.496  22.448  51.616  1.00  0.00     0.018 A 
ATOM     10  C   UNL     1      27.721  22.001  52.921  1.00  0.00     0.019 A 
ATOM     11  C   UNL     1      28.717  22.605  53.690  1.00  0.00     0.094 A 
ATOM     12  C   UNL     1      29.471  23.647  53.135  1.00  0.00     0.336 A 
ATOM     13  O   UNL     1      30.373  24.202  53.816  1.00  0.00    -0.246 OA
ATOM     14  O   UNL     1      29.240  24.057  51.890  1.00  0.00    -0.422 OA
ENDROOT
TORSDOF 0
ENDMDL
MODEL 8
REMARK VINA RESULT:    -5.624      1.826      2.887
REMARK INTER + INTRA:          -5.624
REMARK INTER:                  -5.624
REMARK INTRA:                   0.000
REMARK UNBOUND:                 0.000
REMARK SMILES O=c1ccc2ccc3occc3c2o1
REMARK SMILES IDX 6 1 7 2 8 3 12 4 11 5 10 6 9 7 13 8 5 9 4 10 3 11 2 12 1 13
REMARK SMILES IDX 14 14
REMARK H PARENT
REMARK Flexibility Score: inf
ROOT
ATOM      1  C   UNL     1      31.067  22.259  50.099  1.00  0.00     0.016 A 
ATOM      2  C   UNL     1      30.937  21.743  51.402  1.00  0.00     0.048 A 
ATOM      3  C   UNL     1      29.741  21.968  52.081  1.00  0.00     0.137 A 
ATOM      4  C   UNL     1      28.709  22.669  51.516  1.00  0.00     0.064 A 
ATOM      5  C   UNL     1      27.694  22.706  52.445  1.00  0.00     0.054 A 
ATOM      6  C   UNL     1      28.195  22.006  53.538  1.00  0.00     0.196 A 
ATOM      7  O   UNL     1      29.420  21.578  53.290  1.00  0.00    -0.464 OA
ATOM      8  C   UNL     1      28.798  23.195  50.230  1.00  0.00     0.149 A 
ATOM      9  C   UNL     1      30.002  22.984  49.509  1.00  0.00     0.018 A 
ATOM     10  C   UNL     1      30.097  23.510  48.218  1.00  0.00     0.019 A 
ATOM     11  C   UNL     1      29.019  24.217  47.684  1.00  0.00     0.094 A 
ATOM     12  C   UNL     1      27.863  24.383  48.457  1.00  0.00     0.336 A 
ATOM     13  O   UNL     1      26.882  25.019  47.990  1.00  0.00    -0.246 OA
ATOM     14  O   UNL     1      27.793  23.875  49.685  1.00  0.00    -0.422 OA
ENDROOT
TORSDOF 0
ENDMDL
MODEL 9
REMARK VINA RESULT:    -5.425     11.879     12.645
REMARK INTER + INTRA:          -5.425
REMARK INTER:                  -5.425
REMARK INTRA:                   0.000
REMARK UNBOUND:                 0.000
REMARK SMILES O=c1ccc2ccc3occc3c2o1
REMARK SMILES IDX 6 1 7 2 8 3 12 4 11 5 10 6 9 7 13 8 5 9 4 10 3 11 2 12 1 13
REMARK SMILES IDX 14 14
REMARK H PARENT
REMARK Flexibility Score: inf
ROOT
ATOM      1  C   UNL     1      17.398  25.187  41.348  1.00  0.00     0.016 A 
ATOM      2  C   UNL     1      16.597  25.258  42.504  1.00  0.00     0.048 A 
ATOM      3  C   UNL     1      17.021  26.079  43.547  1.00  0.00     0.137 A 
ATOM      4  C   UNL     1      18.180  26.805  43.472  1.00  0.00     0.064 A 
ATOM      5  C   UNL     1      18.297  27.495  44.656  1.00  0.00     0.054 A 
ATOM      6  C   UNL     1      17.171  27.131  45.386  1.00  0.00     0.196 A 
ATOM      7  O   UNL     1      16.428  26.283  44.697  1.00  0.00    -0.464 OA
ATOM      8  C   UNL     1      19.000  26.762  42.346  1.00  0.00     0.149 A 
ATOM      9  C   UNL     1      18.598  25.936  41.265  1.00  0.00     0.018 A 
ATOM     10  C   UNL     1      19.417  25.890  40.133  1.00  0.00     0.019 A 
ATOM     11  C   UNL     1      20.588  26.647  40.103  1.00  0.00     0.094 A 
ATOM     12  C   UNL     1      20.918  27.439  41.210  1.00  0.00     0.336 A 
ATOM     13  O   UNL     1      21.971  28.128  41.198  1.00  0.00    -0.246 OA
ATOM     14  O   UNL     1      20.124  27.469  42.278  1.00  0.00    -0.422 OA
ENDROOT
TORSDOF 0
ENDMDL
