MODEL 1
REMARK VINA RESULT:    -4.150      0.000      0.000
REMARK INTER + INTRA:          -4.948
REMARK INTER:                  -4.756
REMARK INTRA:                  -0.192
REMARK UNBOUND:                -0.192
REMARK SMILES CC=Cc1ccc(O)c(OC)c1
REMARK SMILES IDX 4 1 12 2 9 3 7 4 6 5 5 6 3 7 1 8 2 9 10 10 11 11 8 12
REMARK H PARENT 8 13
REMARK Flexibility Score: inf
ROOT
ATOM      1  C   UNL     1     137.162 135.896 128.348  1.00  0.00    -0.022 A 
ATOM      2  C   UNL     1     138.246 136.788 128.212  1.00  0.00     0.058 A 
ATOM      3  C   UNL     1     139.535 136.428 128.657  1.00  0.00     0.161 A 
ATOM      4  C   UNL     1     139.729 135.169 129.251  1.00  0.00     0.157 A 
ATOM      5  C   UNL     1     138.652 134.291 129.401  1.00  0.00     0.051 A 
ATOM      6  C   UNL     1     137.379 134.653 128.959  1.00  0.00     0.012 A 
ENDROOT
BRANCH   1   7
ATOM      7  C   UNL     1     135.788 136.236 127.902  1.00  0.00     0.003 C 
ATOM      8  C   UNL     1     133.332 136.048 127.876  1.00  0.00     0.035 C 
ATOM      9  C   UNL     1     134.684 135.637 128.364  1.00  0.00    -0.030 C 
ENDBRANCH   1   7
BRANCH   3  10
ATOM     10  O   UNL     1     140.633 137.292 128.530  1.00  0.00    -0.493 OA
ATOM     11  C   UNL     1     140.858 138.441 129.340  1.00  0.00     0.278 C 
ENDBRANCH   3  10
BRANCH   4  12
ATOM     12  O   UNL     1     140.988 134.771 129.702  1.00  0.00    -0.504 OA
ATOM     13  H   UNL     1     141.713 134.455 129.070  1.00  0.00     0.293 HD
ENDBRANCH   4  12
TORSDOF 3
ENDMDL
MODEL 2
REMARK VINA RESULT:    -4.128      3.789      6.283
REMARK INTER + INTRA:          -4.923
REMARK INTER:                  -4.732
REMARK INTRA:                  -0.191
REMARK UNBOUND:                -0.192
REMARK SMILES CC=Cc1ccc(O)c(OC)c1
REMARK SMILES IDX 4 1 12 2 9 3 7 4 6 5 5 6 3 7 1 8 2 9 10 10 11 11 8 12
REMARK H PARENT 8 13
REMARK Flexibility Score: inf
ROOT
ATOM      1  C   UNL     1     138.040 139.344 128.343  1.00  0.00    -0.022 A 
ATOM      2  C   UNL     1     136.988 138.407 128.313  1.00  0.00     0.058 A 
ATOM      3  C   UNL     1     135.701 138.753 128.776  1.00  0.00     0.161 A 
ATOM      4  C   UNL     1     135.478 140.047 129.280  1.00  0.00     0.157 A 
ATOM      5  C   UNL     1     136.525 140.971 129.325  1.00  0.00     0.051 A 
ATOM      6  C   UNL     1     137.795 140.622 128.866  1.00  0.00     0.012 A 
ENDROOT
BRANCH   1   7
ATOM      7  C   UNL     1     139.410 139.021 127.875  1.00  0.00     0.003 C 
ATOM      8  C   UNL     1     141.872 139.083 127.943  1.00  0.00     0.035 C 
ATOM      9  C   UNL     1     140.525 139.467 128.465  1.00  0.00    -0.030 C 
ENDBRANCH   1   7
BRANCH   3  10
ATOM     10  O   UNL     1     134.633 137.843 128.753  1.00  0.00    -0.493 OA
ATOM     11  C   UNL     1     134.460 136.774 129.678  1.00  0.00     0.278 C 
ENDBRANCH   3  10
BRANCH   4  12
ATOM     12  O   UNL     1     134.221 140.432 129.745  1.00  0.00    -0.504 OA
ATOM     13  H   UNL     1     133.529 140.860 129.141  1.00  0.00     0.293 HD
ENDBRANCH   4  12
TORSDOF 3
ENDMDL
MODEL 3
REMARK VINA RESULT:    -4.108      3.243      4.451
REMARK INTER + INTRA:          -4.900
REMARK INTER:                  -4.719
REMARK INTRA:                  -0.182
REMARK UNBOUND:                -0.192
REMARK SMILES CC=Cc1ccc(O)c(OC)c1
REMARK SMILES IDX 4 1 12 2 9 3 7 4 6 5 5 6 3 7 1 8 2 9 10 10 11 11 8 12
REMARK H PARENT 8 13
REMARK Flexibility Score: inf
ROOT
ATOM      1  C   UNL     1     139.296 137.214 128.399  1.00  0.00    -0.022 A 
ATOM      2  C   UNL     1     138.373 138.277 128.474  1.00  0.00     0.058 A 
ATOM      3  C   UNL     1     138.777 139.552 128.921  1.00  0.00     0.161 A 
ATOM      4  C   UNL     1     140.116 139.753 129.304  1.00  0.00     0.157 A 
ATOM      5  C   UNL     1     141.027 138.695 129.246  1.00  0.00     0.051 A 
ATOM      6  C   UNL     1     140.621 137.436 128.803  1.00  0.00     0.012 A 
ENDROOT
BRANCH   1   7
ATOM      7  C   UNL     1     138.914 135.855 127.944  1.00  0.00     0.003 C 
ATOM      8  C   UNL     1     139.047 133.396 127.875  1.00  0.00     0.035 C 
ATOM      9  C   UNL     1     139.501 134.731 128.371  1.00  0.00    -0.030 C 
ENDBRANCH   1   7
BRANCH   3  10
ATOM     10  O   UNL     1     137.883 140.630 129.000  1.00  0.00    -0.493 OA
ATOM     11  C   UNL     1     136.615 140.585 129.648  1.00  0.00     0.278 C 
ENDBRANCH   3  10
BRANCH   4  12
ATOM     12  O   UNL     1     140.559 140.998 129.749  1.00  0.00    -0.504 OA
ATOM     13  H   UNL     1     140.496 141.278 130.721  1.00  0.00     0.293 HD
ENDBRANCH   4  12
TORSDOF 3
ENDMDL
MODEL 4
REMARK VINA RESULT:    -4.103      3.276      4.494
REMARK INTER + INTRA:          -4.894
REMARK INTER:                  -4.708
REMARK INTRA:                  -0.187
REMARK UNBOUND:                -0.192
REMARK SMILES CC=Cc1ccc(O)c(OC)c1
REMARK SMILES IDX 4 1 12 2 9 3 7 4 6 5 5 6 3 7 1 8 2 9 10 10 11 11 8 12
REMARK H PARENT 8 13
REMARK Flexibility Score: inf
ROOT
ATOM      1  C   UNL     1     135.763 138.054 128.326  1.00  0.00    -0.022 A 
ATOM      2  C   UNL     1     136.683 136.994 128.190  1.00  0.00     0.058 A 
ATOM      3  C   UNL     1     136.360 135.698 128.639  1.00  0.00     0.161 A 
ATOM      4  C   UNL     1     135.107 135.471 129.239  1.00  0.00     0.157 A 
ATOM      5  C   UNL     1     134.202 136.525 129.388  1.00  0.00     0.051 A 
ATOM      6  C   UNL     1     134.528 137.805 128.942  1.00  0.00     0.012 A 
ENDROOT
BRANCH   1   7
ATOM      7  C   UNL     1     136.065 139.435 127.876  1.00  0.00     0.003 C 
ATOM      8  C   UNL     1     136.047 141.894 128.028  1.00  0.00     0.035 C 
ATOM      9  C   UNL     1     135.691 140.535 128.540  1.00  0.00    -0.030 C 
ENDBRANCH   1   7
BRANCH   3  10
ATOM     10  O   UNL     1     137.252 134.622 128.512  1.00  0.00    -0.493 OA
ATOM     11  C   UNL     1     138.299 134.325 129.431  1.00  0.00     0.278 C 
ENDBRANCH   3  10
BRANCH   4  12
ATOM     12  O   UNL     1     134.745 134.203 129.694  1.00  0.00    -0.504 OA
ATOM     13  H   UNL     1     135.059 133.355 129.238  1.00  0.00     0.293 HD
ENDBRANCH   4  12
TORSDOF 3
ENDMDL
MODEL 5
REMARK VINA RESULT:    -4.074      3.386      5.159
REMARK INTER + INTRA:          -4.861
REMARK INTER:                  -4.700
REMARK INTRA:                  -0.161
REMARK UNBOUND:                -0.192
REMARK SMILES CC=Cc1ccc(O)c(OC)c1
REMARK SMILES IDX 4 1 12 2 9 3 7 4 6 5 5 6 3 7 1 8 2 9 10 10 11 11 8 12
REMARK H PARENT 8 13
REMARK Flexibility Score: inf
ROOT
ATOM      1  C   UNL     1     136.864 135.982 129.866  1.00  0.00    -0.022 A 
ATOM      2  C   UNL     1     136.375 137.304 129.901  1.00  0.00     0.058 A 
ATOM      3  C   UNL     1     135.056 137.596 129.497  1.00  0.00     0.161 A 
ATOM      4  C   UNL     1     134.229 136.552 129.045  1.00  0.00     0.157 A 
ATOM      5  C   UNL     1     134.719 135.244 128.994  1.00  0.00     0.051 A 
ATOM      6  C   UNL     1     136.025 134.961 129.395  1.00  0.00     0.012 A 
ENDROOT
BRANCH   1   7
ATOM      7  C   UNL     1     138.246 135.631 130.273  1.00  0.00     0.003 C 
ATOM      8  C   UNL     1     140.613 135.059 129.900  1.00  0.00     0.035 C 
ATOM      9  C   UNL     1     139.241 135.392 129.410  1.00  0.00    -0.030 C 
ENDBRANCH   1   7
BRANCH   3  10
ATOM     10  O   UNL     1     134.540 138.901 129.526  1.00  0.00    -0.493 OA
ATOM     11  C   UNL     1     135.236 140.057 129.072  1.00  0.00     0.278 C 
ENDBRANCH   3  10
BRANCH   4  12
ATOM     12  O   UNL     1     132.918 136.795 128.638  1.00  0.00    -0.504 OA
ATOM     13  H   UNL     1     132.700 137.263 127.767  1.00  0.00     0.293 HD
ENDBRANCH   4  12
TORSDOF 3
ENDMDL
MODEL 6
REMARK VINA RESULT:    -4.064      2.089      4.565
REMARK INTER + INTRA:          -4.850
REMARK INTER:                  -4.689
REMARK INTRA:                  -0.161
REMARK UNBOUND:                -0.192
REMARK SMILES CC=Cc1ccc(O)c(OC)c1
REMARK SMILES IDX 4 1 12 2 9 3 7 4 6 5 5 6 3 7 1 8 2 9 10 10 11 11 8 12
REMARK H PARENT 8 13
REMARK Flexibility Score: inf
ROOT
ATOM      1  C   UNL     1     139.211 136.879 129.956  1.00  0.00    -0.022 A 
ATOM      2  C   UNL     1     137.891 136.385 129.925  1.00  0.00     0.058 A 
ATOM      3  C   UNL     1     137.624 135.069 129.494  1.00  0.00     0.161 A 
ATOM      4  C   UNL     1     138.692 134.251 129.082  1.00  0.00     0.157 A 
ATOM      5  C   UNL     1     139.999 134.747 129.097  1.00  0.00     0.051 A 
ATOM      6  C   UNL     1     140.256 136.050 129.524  1.00  0.00     0.012 A 
ENDROOT
BRANCH   1   7
ATOM      7  C   UNL     1     139.536 138.259 130.393  1.00  0.00     0.003 C 
ATOM      8  C   UNL     1     140.162 140.620 130.073  1.00  0.00     0.035 C 
ATOM      9  C   UNL     1     139.862 139.250 129.555  1.00  0.00    -0.030 C 
ENDBRANCH   1   7
BRANCH   3  10
ATOM     10  O   UNL     1     136.322 134.547 129.458  1.00  0.00    -0.493 OA
ATOM     11  C   UNL     1     135.179 135.253 128.986  1.00  0.00     0.278 C 
ENDBRANCH   3  10
BRANCH   4  12
ATOM     12  O   UNL     1     138.474 132.943 128.651  1.00  0.00    -0.504 OA
ATOM     13  H   UNL     1     137.546 132.584 128.463  1.00  0.00     0.293 HD
ENDBRANCH   4  12
TORSDOF 3
ENDMDL
MODEL 7
REMARK VINA RESULT:    -4.055      3.544      4.699
REMARK INTER + INTRA:          -4.840
REMARK INTER:                  -4.679
REMARK INTRA:                  -0.161
REMARK UNBOUND:                -0.192
REMARK SMILES CC=Cc1ccc(O)c(OC)c1
REMARK SMILES IDX 4 1 12 2 9 3 7 4 6 5 5 6 3 7 1 8 2 9 10 10 11 11 8 12
REMARK H PARENT 8 13
REMARK Flexibility Score: inf
ROOT
ATOM      1  C   UNL     1     136.060 138.332 129.905  1.00  0.00    -0.022 A 
ATOM      2  C   UNL     1     137.381 138.823 129.891  1.00  0.00     0.058 A 
ATOM      3  C   UNL     1     137.655 140.142 129.473  1.00  0.00     0.161 A 
ATOM      4  C   UNL     1     136.594 140.964 129.055  1.00  0.00     0.157 A 
ATOM      5  C   UNL     1     135.286 140.472 129.052  1.00  0.00     0.051 A 
ATOM      6  C   UNL     1     135.021 139.166 129.467  1.00  0.00     0.012 A 
ENDROOT
BRANCH   1   7
ATOM      7  C   UNL     1     135.727 136.949 130.329  1.00  0.00     0.003 C 
ATOM      8  C   UNL     1     135.050 134.605 129.990  1.00  0.00     0.035 C 
ATOM      9  C   UNL     1     135.355 135.979 129.486  1.00  0.00    -0.030 C 
ENDBRANCH   1   7
BRANCH   3  10
ATOM     10  O   UNL     1     138.959 140.661 129.455  1.00  0.00    -0.493 OA
ATOM     11  C   UNL     1     140.114 139.936 129.041  1.00  0.00     0.278 C 
ENDBRANCH   3  10
BRANCH   4  12
ATOM     12  O   UNL     1     136.819 142.275 128.636  1.00  0.00    -0.504 OA
ATOM     13  H   UNL     1     137.051 142.503 127.676  1.00  0.00     0.293 HD
ENDBRANCH   4  12
TORSDOF 3
ENDMDL
MODEL 8
REMARK VINA RESULT:    -4.048      3.057      4.366
REMARK INTER + INTRA:          -4.832
REMARK INTER:                  -4.652
REMARK INTRA:                  -0.180
REMARK UNBOUND:                -0.192
REMARK SMILES CC=Cc1ccc(O)c(OC)c1
REMARK SMILES IDX 4 1 12 2 9 3 7 4 6 5 5 6 3 7 1 8 2 9 10 10 11 11 8 12
REMARK H PARENT 8 13
REMARK Flexibility Score: inf
ROOT
ATOM      1  C   UNL     1     138.522 139.179 130.522  1.00  0.00    -0.022 A 
ATOM      2  C   UNL     1     138.984 137.849 130.448  1.00  0.00     0.058 A 
ATOM      3  C   UNL     1     140.139 137.527 129.706  1.00  0.00     0.161 A 
ATOM      4  C   UNL     1     140.825 138.550 129.027  1.00  0.00     0.157 A 
ATOM      5  C   UNL     1     140.358 139.866 129.086  1.00  0.00     0.051 A 
ATOM      6  C   UNL     1     139.215 140.177 129.822  1.00  0.00     0.012 A 
ENDROOT
BRANCH   1   7
ATOM      7  C   UNL     1     137.307 139.561 131.283  1.00  0.00     0.003 C 
ATOM      8  C   UNL     1     135.073 140.554 131.583  1.00  0.00     0.035 C 
ATOM      9  C   UNL     1     136.270 140.219 130.753  1.00  0.00    -0.030 C 
ENDBRANCH   1   7
BRANCH   3  10
ATOM     10  O   UNL     1     140.626 136.214 129.619  1.00  0.00    -0.493 OA
ATOM     11  C   UNL     1     139.925 135.129 129.019  1.00  0.00     0.278 C 
ENDBRANCH   3  10
BRANCH   4  12
ATOM     12  O   UNL     1     141.974 138.277 128.284  1.00  0.00    -0.504 OA
ATOM     13  H   UNL     1     142.426 137.372 128.302  1.00  0.00     0.293 HD
ENDBRANCH   4  12
TORSDOF 3
ENDMDL
MODEL 9
REMARK VINA RESULT:    -3.962      4.938      6.473
REMARK INTER + INTRA:          -4.734
REMARK INTER:                  -4.560
REMARK INTRA:                  -0.173
REMARK UNBOUND:                -0.192
REMARK SMILES CC=Cc1ccc(O)c(OC)c1
REMARK SMILES IDX 4 1 12 2 9 3 7 4 6 5 5 6 3 7 1 8 2 9 10 10 11 11 8 12
REMARK H PARENT 8 13
REMARK Flexibility Score: inf
ROOT
ATOM      1  C   UNL     1     138.414 140.034 129.137  1.00  0.00    -0.022 A 
ATOM      2  C   UNL     1     137.774 140.016 130.393  1.00  0.00     0.058 A 
ATOM      3  C   UNL     1     136.378 140.193 130.493  1.00  0.00     0.161 A 
ATOM      4  C   UNL     1     135.626 140.400 129.322  1.00  0.00     0.157 A 
ATOM      5  C   UNL     1     136.263 140.434 128.079  1.00  0.00     0.051 A 
ATOM      6  C   UNL     1     137.644 140.258 127.987  1.00  0.00     0.012 A 
ENDROOT
BRANCH   1   7
ATOM      7  C   UNL     1     139.880 139.861 128.986  1.00  0.00     0.003 C 
ATOM      8  C   UNL     1     141.941 139.098 127.875  1.00  0.00     0.035 C 
ATOM      9  C   UNL     1     140.454 139.216 127.964  1.00  0.00    -0.030 C 
ENDBRANCH   1   7
BRANCH   3  10
ATOM     10  O   UNL     1     135.712 140.174 131.728  1.00  0.00    -0.493 OA
ATOM     11  C   UNL     1     136.055 139.327 132.821  1.00  0.00     0.278 C 
ENDBRANCH   3  10
BRANCH   4  12
ATOM     12  O   UNL     1     134.244 140.576 129.375  1.00  0.00    -0.504 OA
ATOM     13  H   UNL     1     133.791 141.076 130.130  1.00  0.00     0.293 HD
ENDBRANCH   4  12
TORSDOF 3
ENDMDL
