MODEL 1
REMARK VINA RESULT:    -6.960      0.000      0.000
REMARK INTER + INTRA:         -10.383
REMARK INTER:                  -9.808
REMARK INTRA:                  -0.576
REMARK UNBOUND:                -0.576
REMARK SMILES COc1ccc(-c2cc(=O)c3c(OC)c(OC)c(OC)c(OC)c3o2)cc1OC
REMARK SMILES IDX 7 1 8 2 9 3 10 4 11 5 24 6 25 7 21 8 18 9 15 10 12 11 6 12
REMARK SMILES IDX 3 13 27 14 4 15 26 16 5 17 2 18 1 19 28 20 29 21 22 22 23 23
REMARK SMILES IDX 13 24 14 25 19 26 20 27 16 28 17 29
REMARK H PARENT
REMARK Flexibility Score: inf
ROOT
ATOM      1  C   UNL     1     -23.094 -49.951 103.170  1.00  0.00     0.138 A 
ATOM      2  C   UNL     1     -23.033 -48.996 102.146  1.00  0.00     0.100 A 
ATOM      3  C   UNL     1     -22.216 -47.877 102.300  1.00  0.00     0.197 A 
ATOM      4  O   UNL     1     -22.175 -47.028 101.369  1.00  0.00    -0.289 OA
ATOM      5  C   UNL     1     -21.453 -47.720 103.482  1.00  0.00     0.115 A 
ATOM      6  C   UNL     1     -21.557 -48.735 104.457  1.00  0.00     0.188 A 
ATOM      7  O   UNL     1     -22.356 -49.780 104.264  1.00  0.00    -0.452 OA
ATOM      8  C   UNL     1     -20.834 -48.656 105.645  1.00  0.00     0.209 A 
ATOM      9  C   UNL     1     -19.941 -47.591 105.860  1.00  0.00     0.211 A 
ATOM     10  C   UNL     1     -19.868 -46.524 104.927  1.00  0.00     0.208 A 
ATOM     11  C   UNL     1     -20.620 -46.597 103.721  1.00  0.00     0.179 A 
ENDROOT
BRANCH   1  12
ATOM     12  C   UNL     1     -23.949 -51.161 103.068  1.00  0.00     0.021 A 
ATOM     13  C   UNL     1     -25.529 -53.490 102.837  1.00  0.00     0.160 A 
ATOM     14  C   UNL     1     -24.711 -53.090 101.770  1.00  0.00     0.161 A 
ATOM     15  C   UNL     1     -25.548 -52.729 104.019  1.00  0.00     0.051 A 
ATOM     16  C   UNL     1     -23.921 -51.929 101.893  1.00  0.00     0.062 A 
ATOM     17  C   UNL     1     -24.763 -51.579 104.134  1.00  0.00     0.016 A 
BRANCH  13  18
ATOM     18  O   UNL     1     -26.304 -54.651 102.684  1.00  0.00    -0.493 OA
ATOM     19  C   UNL     1     -27.565 -54.866 103.310  1.00  0.00     0.278 C 
ENDBRANCH  13  18
BRANCH  14  20
ATOM     20  O   UNL     1     -24.709 -53.871 100.603  1.00  0.00    -0.493 OA
ATOM     21  C   UNL     1     -23.920 -55.041 100.414  1.00  0.00     0.278 C 
ENDBRANCH  14  20
ENDBRANCH   1  12
BRANCH   8  22
ATOM     22  O   UNL     1     -21.028 -49.658 106.603  1.00  0.00    -0.490 OA
ATOM     23  C   UNL     1     -21.780 -49.447 107.795  1.00  0.00     0.278 C 
ENDBRANCH   8  22
BRANCH  11  24
ATOM     24  O   UNL     1     -20.578 -45.589 102.733  1.00  0.00    -0.492 OA
ATOM     25  C   UNL     1     -19.474 -45.220 101.913  1.00  0.00     0.278 C 
ENDBRANCH  11  24
BRANCH   9  26
ATOM     26  O   UNL     1     -19.107 -47.604 106.981  1.00  0.00    -0.490 OA
ATOM     27  C   UNL     1     -17.721 -47.914 106.895  1.00  0.00     0.279 C 
ENDBRANCH   9  26
BRANCH  10  28
ATOM     28  O   UNL     1     -19.060 -45.393 105.148  1.00  0.00    -0.490 OA
ATOM     29  C   UNL     1     -19.431 -44.183 105.799  1.00  0.00     0.278 C 
ENDBRANCH  10  28
TORSDOF 7
ENDMDL
MODEL 2
REMARK VINA RESULT:    -6.535      4.153      6.366
REMARK INTER + INTRA:          -9.785
REMARK INTER:                  -9.036
REMARK INTRA:                  -0.749
REMARK UNBOUND:                -0.576
REMARK SMILES COc1ccc(-c2cc(=O)c3c(OC)c(OC)c(OC)c(OC)c3o2)cc1OC
REMARK SMILES IDX 7 1 8 2 9 3 10 4 11 5 24 6 25 7 21 8 18 9 15 10 12 11 6 12
REMARK SMILES IDX 3 13 27 14 4 15 26 16 5 17 2 18 1 19 28 20 29 21 22 22 23 23
REMARK SMILES IDX 13 24 14 25 19 26 20 27 16 28 17 29
REMARK H PARENT
REMARK Flexibility Score: inf
ROOT
ATOM      1  C   UNL     1     -20.266 -47.521 105.266  1.00  0.00     0.138 A 
ATOM      2  C   UNL     1     -20.975 -48.031 104.170  1.00  0.00     0.100 A 
ATOM      3  C   UNL     1     -21.205 -47.215 103.063  1.00  0.00     0.197 A 
ATOM      4  O   UNL     1     -21.847 -47.691 102.088  1.00  0.00    -0.289 OA
ATOM      5  C   UNL     1     -20.716 -45.887 103.054  1.00  0.00     0.115 A 
ATOM      6  C   UNL     1     -19.996 -45.457 104.188  1.00  0.00     0.188 A 
ATOM      7  O   UNL     1     -19.809 -46.273 105.221  1.00  0.00    -0.452 OA
ATOM      8  C   UNL     1     -19.478 -44.165 104.253  1.00  0.00     0.209 A 
ATOM      9  C   UNL     1     -19.612 -43.294 103.157  1.00  0.00     0.211 A 
ATOM     10  C   UNL     1     -20.389 -43.678 102.033  1.00  0.00     0.208 A 
ATOM     11  C   UNL     1     -20.933 -44.992 101.975  1.00  0.00     0.179 A 
ENDROOT
BRANCH   1  12
ATOM     12  C   UNL     1     -19.993 -48.338 106.476  1.00  0.00     0.021 A 
ATOM     13  C   UNL     1     -19.479 -49.944 108.741  1.00  0.00     0.160 A 
ATOM     14  C   UNL     1     -20.345 -50.404 107.738  1.00  0.00     0.161 A 
ATOM     15  C   UNL     1     -18.866 -48.686 108.604  1.00  0.00     0.051 A 
ATOM     16  C   UNL     1     -20.594 -49.600 106.608  1.00  0.00     0.062 A 
ATOM     17  C   UNL     1     -19.117 -47.894 107.481  1.00  0.00     0.016 A 
BRANCH  13  18
ATOM     18  O   UNL     1     -19.250 -50.768 109.855  1.00  0.00    -0.493 OA
ATOM     19  C   UNL     1     -18.370 -50.447 110.927  1.00  0.00     0.278 C 
ENDBRANCH  13  18
BRANCH  14  20
ATOM     20  O   UNL     1     -20.941 -51.666 107.899  1.00  0.00    -0.493 OA
ATOM     21  C   UNL     1     -20.621 -52.816 107.125  1.00  0.00     0.278 C 
ENDBRANCH  14  20
ENDBRANCH   1  12
BRANCH   8  22
ATOM     22  O   UNL     1     -18.830 -43.772 105.430  1.00  0.00    -0.490 OA
ATOM     23  C   UNL     1     -19.480 -43.024 106.452  1.00  0.00     0.278 C 
ENDBRANCH   8  22
BRANCH  11  24
ATOM     24  O   UNL     1     -21.692 -45.456 100.879  1.00  0.00    -0.492 OA
ATOM     25  C   UNL     1     -21.236 -45.722  99.556  1.00  0.00     0.278 C 
ENDBRANCH  11  24
BRANCH   9  26
ATOM     26  O   UNL     1     -18.956 -42.060 103.171  1.00  0.00    -0.490 OA
ATOM     27  C   UNL     1     -17.671 -41.876 102.587  1.00  0.00     0.279 C 
ENDBRANCH   9  26
BRANCH  10  28
ATOM     28  O   UNL     1     -20.630 -42.802 100.958  1.00  0.00    -0.490 OA
ATOM     29  C   UNL     1     -21.714 -41.890 100.816  1.00  0.00     0.278 C 
ENDBRANCH  10  28
TORSDOF 7
ENDMDL
MODEL 3
REMARK VINA RESULT:    -6.228      1.821      2.402
REMARK INTER + INTRA:          -9.352
REMARK INTER:                  -8.758
REMARK INTRA:                  -0.593
REMARK UNBOUND:                -0.576
REMARK SMILES COc1ccc(-c2cc(=O)c3c(OC)c(OC)c(OC)c(OC)c3o2)cc1OC
REMARK SMILES IDX 7 1 8 2 9 3 10 4 11 5 24 6 25 7 21 8 18 9 15 10 12 11 6 12
REMARK SMILES IDX 3 13 27 14 4 15 26 16 5 17 2 18 1 19 28 20 29 21 22 22 23 23
REMARK SMILES IDX 13 24 14 25 19 26 20 27 16 28 17 29
REMARK H PARENT
REMARK Flexibility Score: inf
ROOT
ATOM      1  C   UNL     1     -22.134 -48.677 102.553  1.00  0.00     0.138 A 
ATOM      2  C   UNL     1     -22.385 -47.806 101.484  1.00  0.00     0.100 A 
ATOM      3  C   UNL     1     -21.498 -46.761 101.228  1.00  0.00     0.197 A 
ATOM      4  O   UNL     1     -21.742 -45.987 100.263  1.00  0.00    -0.289 OA
ATOM      5  C   UNL     1     -20.352 -46.595 102.043  1.00  0.00     0.115 A 
ATOM      6  C   UNL     1     -20.162 -47.526 103.086  1.00  0.00     0.188 A 
ATOM      7  O   UNL     1     -21.043 -48.501 103.293  1.00  0.00    -0.452 OA
ATOM      8  C   UNL     1     -19.057 -47.433 103.929  1.00  0.00     0.209 A 
ATOM      9  C   UNL     1     -18.080 -46.445 103.707  1.00  0.00     0.211 A 
ATOM     10  C   UNL     1     -18.280 -45.457 102.708  1.00  0.00     0.208 A 
ATOM     11  C   UNL     1     -19.419 -45.543 101.859  1.00  0.00     0.179 A 
ENDROOT
BRANCH   1  12
ATOM     12  C   UNL     1     -23.043 -49.804 102.880  1.00  0.00     0.021 A 
ATOM     13  C   UNL     1     -24.748 -51.982 103.450  1.00  0.00     0.160 A 
ATOM     14  C   UNL     1     -24.412 -51.686 102.121  1.00  0.00     0.161 A 
ATOM     15  C   UNL     1     -24.225 -51.193 104.490  1.00  0.00     0.051 A 
ATOM     16  C   UNL     1     -23.557 -50.601 101.843  1.00  0.00     0.062 A 
ATOM     17  C   UNL     1     -23.378 -50.119 104.208  1.00  0.00     0.016 A 
BRANCH  13  18
ATOM     18  O   UNL     1     -25.602 -53.070 103.696  1.00  0.00    -0.493 OA
ATOM     19  C   UNL     1     -26.397 -53.221 104.868  1.00  0.00     0.278 C 
ENDBRANCH  13  18
BRANCH  14  20
ATOM     20  O   UNL     1     -24.946 -52.492 101.103  1.00  0.00    -0.493 OA
ATOM     21  C   UNL     1     -24.460 -53.785 100.756  1.00  0.00     0.278 C 
ENDBRANCH  14  20
ENDBRANCH   1  12
BRANCH   8  22
ATOM     22  O   UNL     1     -18.955 -48.343 104.988  1.00  0.00    -0.490 OA
ATOM     23  C   UNL     1     -19.363 -48.026 106.315  1.00  0.00     0.278 C 
ENDBRANCH   8  22
BRANCH  11  24
ATOM     24  O   UNL     1     -19.672 -44.614 100.826  1.00  0.00    -0.492 OA
ATOM     25  C   UNL     1     -20.091 -43.260 100.956  1.00  0.00     0.278 C 
ENDBRANCH  11  24
BRANCH   9  26
ATOM     26  O   UNL     1     -16.901 -46.459 104.458  1.00  0.00    -0.490 OA
ATOM     27  C   UNL     1     -15.694 -47.031 103.966  1.00  0.00     0.279 C 
ENDBRANCH   9  26
BRANCH  10  28
ATOM     28  O   UNL     1     -17.377 -44.395 102.517  1.00  0.00    -0.490 OA
ATOM     29  C   UNL     1     -17.241 -43.225 103.316  1.00  0.00     0.278 C 
ENDBRANCH  10  28
TORSDOF 7
ENDMDL
MODEL 4
REMARK VINA RESULT:    -6.213      3.554      7.357
REMARK INTER + INTRA:          -9.332
REMARK INTER:                  -8.683
REMARK INTRA:                  -0.649
REMARK UNBOUND:                -0.576
REMARK SMILES COc1ccc(-c2cc(=O)c3c(OC)c(OC)c(OC)c(OC)c3o2)cc1OC
REMARK SMILES IDX 7 1 8 2 9 3 10 4 11 5 24 6 25 7 21 8 18 9 15 10 12 11 6 12
REMARK SMILES IDX 3 13 27 14 4 15 26 16 5 17 2 18 1 19 28 20 29 21 22 22 23 23
REMARK SMILES IDX 13 24 14 25 19 26 20 27 16 28 17 29
REMARK H PARENT
REMARK Flexibility Score: inf
ROOT
ATOM      1  C   UNL     1     -19.697 -46.144 104.422  1.00  0.00     0.138 A 
ATOM      2  C   UNL     1     -18.510 -45.891 105.121  1.00  0.00     0.100 A 
ATOM      3  C   UNL     1     -18.214 -46.635 106.262  1.00  0.00     0.197 A 
ATOM      4  O   UNL     1     -17.141 -46.392 106.879  1.00  0.00    -0.289 OA
ATOM      5  C   UNL     1     -19.110 -47.640 106.699  1.00  0.00     0.115 A 
ATOM      6  C   UNL     1     -20.274 -47.846 105.929  1.00  0.00     0.188 A 
ATOM      7  O   UNL     1     -20.513 -47.104 104.851  1.00  0.00    -0.452 OA
ATOM      8  C   UNL     1     -21.202 -48.820 106.289  1.00  0.00     0.209 A 
ATOM      9  C   UNL     1     -20.956 -49.656 107.393  1.00  0.00     0.211 A 
ATOM     10  C   UNL     1     -19.828 -49.427 108.223  1.00  0.00     0.208 A 
ATOM     11  C   UNL     1     -18.889 -48.420 107.863  1.00  0.00     0.179 A 
ENDROOT
BRANCH   1  12
ATOM     12  C   UNL     1     -20.071 -45.383 103.203  1.00  0.00     0.021 A 
ATOM     13  C   UNL     1     -20.816 -43.986 100.864  1.00  0.00     0.160 A 
ATOM     14  C   UNL     1     -20.646 -45.377 100.824  1.00  0.00     0.161 A 
ATOM     15  C   UNL     1     -20.621 -43.298 102.075  1.00  0.00     0.051 A 
ATOM     16  C   UNL     1     -20.279 -46.070 101.995  1.00  0.00     0.062 A 
ATOM     17  C   UNL     1     -20.256 -43.990 103.233  1.00  0.00     0.016 A 
BRANCH  13  18
ATOM     18  O   UNL     1     -21.183 -43.324  99.682  1.00  0.00    -0.493 OA
ATOM     19  C   UNL     1     -21.319 -41.912  99.557  1.00  0.00     0.278 C 
ENDBRANCH  13  18
BRANCH  14  20
ATOM     20  O   UNL     1     -20.851 -46.039  99.603  1.00  0.00    -0.493 OA
ATOM     21  C   UNL     1     -19.836 -46.716  98.869  1.00  0.00     0.278 C 
ENDBRANCH  14  20
ENDBRANCH   1  12
BRANCH   8  22
ATOM     22  O   UNL     1     -22.371 -48.933 105.527  1.00  0.00    -0.490 OA
ATOM     23  C   UNL     1     -22.450 -49.744 104.359  1.00  0.00     0.278 C 
ENDBRANCH   8  22
BRANCH  11  24
ATOM     24  O   UNL     1     -17.729 -48.152 108.622  1.00  0.00    -0.492 OA
ATOM     25  C   UNL     1     -17.653 -47.581 109.924  1.00  0.00     0.278 C 
ENDBRANCH  11  24
BRANCH   9  26
ATOM     26  O   UNL     1     -21.814 -50.729 107.651  1.00  0.00    -0.490 OA
ATOM     27  C   UNL     1     -21.615 -52.017 107.079  1.00  0.00     0.279 C 
ENDBRANCH   9  26
BRANCH  10  28
ATOM     28  O   UNL     1     -19.595 -50.177 109.390  1.00  0.00    -0.490 OA
ATOM     29  C   UNL     1     -19.055 -51.491 109.477  1.00  0.00     0.278 C 
ENDBRANCH  10  28
TORSDOF 7
ENDMDL
MODEL 5
REMARK VINA RESULT:    -6.165      3.602      8.438
REMARK INTER + INTRA:          -9.264
REMARK INTER:                  -8.465
REMARK INTRA:                  -0.798
REMARK UNBOUND:                -0.576
REMARK SMILES COc1ccc(-c2cc(=O)c3c(OC)c(OC)c(OC)c(OC)c3o2)cc1OC
REMARK SMILES IDX 7 1 8 2 9 3 10 4 11 5 24 6 25 7 21 8 18 9 15 10 12 11 6 12
REMARK SMILES IDX 3 13 27 14 4 15 26 16 5 17 2 18 1 19 28 20 29 21 22 22 23 23
REMARK SMILES IDX 13 24 14 25 19 26 20 27 16 28 17 29
REMARK H PARENT
REMARK Flexibility Score: inf
ROOT
ATOM      1  C   UNL     1     -18.422 -48.258 108.576  1.00  0.00     0.138 A 
ATOM      2  C   UNL     1     -17.661 -47.391 107.780  1.00  0.00     0.100 A 
ATOM      3  C   UNL     1     -18.059 -47.140 106.468  1.00  0.00     0.197 A 
ATOM      4  O   UNL     1     -17.361 -46.358 105.767  1.00  0.00    -0.289 OA
ATOM      5  C   UNL     1     -19.226 -47.755 105.956  1.00  0.00     0.115 A 
ATOM      6  C   UNL     1     -19.946 -48.599 106.828  1.00  0.00     0.188 A 
ATOM      7  O   UNL     1     -19.520 -48.811 108.070  1.00  0.00    -0.452 OA
ATOM      8  C   UNL     1     -21.108 -49.237 106.400  1.00  0.00     0.209 A 
ATOM      9  C   UNL     1     -21.614 -48.995 105.110  1.00  0.00     0.211 A 
ATOM     10  C   UNL     1     -20.875 -48.204 104.193  1.00  0.00     0.208 A 
ATOM     11  C   UNL     1     -19.679 -47.567 104.625  1.00  0.00     0.179 A 
ENDROOT
BRANCH   1  12
ATOM     12  C   UNL     1     -18.048 -48.570 109.979  1.00  0.00     0.021 A 
ATOM     13  C   UNL     1     -17.335 -49.226 112.632  1.00  0.00     0.160 A 
ATOM     14  C   UNL     1     -18.107 -50.118 111.874  1.00  0.00     0.161 A 
ATOM     15  C   UNL     1     -16.916 -48.013 112.059  1.00  0.00     0.051 A 
ATOM     16  C   UNL     1     -18.456 -49.788 110.549  1.00  0.00     0.062 A 
ATOM     17  C   UNL     1     -17.265 -47.690 110.746  1.00  0.00     0.016 A 
BRANCH  13  18
ATOM     18  O   UNL     1     -17.003 -49.584 113.949  1.00  0.00    -0.493 OA
ATOM     19  C   UNL     1     -15.731 -50.080 114.353  1.00  0.00     0.278 C 
ENDBRANCH  13  18
BRANCH  14  20
ATOM     20  O   UNL     1     -18.510 -51.325 112.470  1.00  0.00    -0.493 OA
ATOM     21  C   UNL     1     -18.528 -52.586 111.810  1.00  0.00     0.278 C 
ENDBRANCH  14  20
ENDBRANCH   1  12
BRANCH   8  22
ATOM     22  O   UNL     1     -21.743 -50.115 107.287  1.00  0.00    -0.490 OA
ATOM     23  C   UNL     1     -21.487 -51.516 107.296  1.00  0.00     0.278 C 
ENDBRANCH   8  22
BRANCH  11  24
ATOM     24  O   UNL     1     -18.904 -46.743 103.779  1.00  0.00    -0.492 OA
ATOM     25  C   UNL     1     -18.156 -47.132 102.632  1.00  0.00     0.278 C 
ENDBRANCH  11  24
BRANCH   9  26
ATOM     26  O   UNL     1     -22.860 -49.515 104.749  1.00  0.00    -0.490 OA
ATOM     27  C   UNL     1     -22.994 -50.715 103.995  1.00  0.00     0.279 C 
ENDBRANCH   9  26
BRANCH  10  28
ATOM     28  O   UNL     1     -21.296 -48.015 102.863  1.00  0.00    -0.490 OA
ATOM     29  C   UNL     1     -22.131 -46.976 102.363  1.00  0.00     0.278 C 
ENDBRANCH  10  28
TORSDOF 7
ENDMDL
MODEL 6
REMARK VINA RESULT:    -6.163      3.300      7.989
REMARK INTER + INTRA:          -9.260
REMARK INTER:                  -8.590
REMARK INTRA:                  -0.670
REMARK UNBOUND:                -0.576
REMARK SMILES COc1ccc(-c2cc(=O)c3c(OC)c(OC)c(OC)c(OC)c3o2)cc1OC
REMARK SMILES IDX 7 1 8 2 9 3 10 4 11 5 24 6 25 7 21 8 18 9 15 10 12 11 6 12
REMARK SMILES IDX 3 13 27 14 4 15 26 16 5 17 2 18 1 19 28 20 29 21 22 22 23 23
REMARK SMILES IDX 13 24 14 25 19 26 20 27 16 28 17 29
REMARK H PARENT
REMARK Flexibility Score: inf
ROOT
ATOM      1  C   UNL     1     -19.601 -48.720 107.616  1.00  0.00     0.138 A 
ATOM      2  C   UNL     1     -20.575 -49.629 107.182  1.00  0.00     0.100 A 
ATOM      3  C   UNL     1     -21.227 -49.408 105.970  1.00  0.00     0.197 A 
ATOM      4  O   UNL     1     -22.102 -50.236 105.597  1.00  0.00    -0.289 OA
ATOM      5  C   UNL     1     -20.896 -48.275 105.189  1.00  0.00     0.115 A 
ATOM      6  C   UNL     1     -19.891 -47.419 105.687  1.00  0.00     0.188 A 
ATOM      7  O   UNL     1     -19.304 -47.672 106.854  1.00  0.00    -0.452 OA
ATOM      8  C   UNL     1     -19.505 -46.287 104.975  1.00  0.00     0.209 A 
ATOM      9  C   UNL     1     -20.069 -46.018 103.714  1.00  0.00     0.211 A 
ATOM     10  C   UNL     1     -21.127 -46.825 103.221  1.00  0.00     0.208 A 
ATOM     11  C   UNL     1     -21.533 -47.972 103.958  1.00  0.00     0.179 A 
ENDROOT
BRANCH   1  12
ATOM     12  C   UNL     1     -18.875 -48.897 108.899  1.00  0.00     0.021 A 
ATOM     13  C   UNL     1     -17.493 -49.298 111.330  1.00  0.00     0.160 A 
ATOM     14  C   UNL     1     -18.387 -50.273 110.864  1.00  0.00     0.161 A 
ATOM     15  C   UNL     1     -17.287 -48.129 110.575  1.00  0.00     0.051 A 
ATOM     16  C   UNL     1     -19.071 -50.070 109.648  1.00  0.00     0.062 A 
ATOM     17  C   UNL     1     -17.968 -47.933 109.371  1.00  0.00     0.016 A 
BRANCH  13  18
ATOM     18  O   UNL     1     -16.827 -49.529 112.544  1.00  0.00    -0.493 OA
ATOM     19  C   UNL     1     -15.904 -48.624 113.142  1.00  0.00     0.278 C 
ENDBRANCH  13  18
BRANCH  14  20
ATOM     20  O   UNL     1     -18.571 -51.431 111.635  1.00  0.00    -0.493 OA
ATOM     21  C   UNL     1     -18.323 -52.756 111.177  1.00  0.00     0.278 C 
ENDBRANCH  14  20
ENDBRANCH   1  12
BRANCH   8  22
ATOM     22  O   UNL     1     -18.551 -45.438 105.550  1.00  0.00    -0.490 OA
ATOM     23  C   UNL     1     -18.904 -44.340 106.385  1.00  0.00     0.278 C 
ENDBRANCH   8  22
BRANCH  11  24
ATOM     24  O   UNL     1     -22.558 -48.838 103.519  1.00  0.00    -0.492 OA
ATOM     25  C   UNL     1     -23.965 -48.645 103.625  1.00  0.00     0.278 C 
ENDBRANCH  11  24
BRANCH   9  26
ATOM     26  O   UNL     1     -19.563 -44.970 102.941  1.00  0.00    -0.490 OA
ATOM     27  C   UNL     1     -20.129 -43.664 102.964  1.00  0.00     0.279 C 
ENDBRANCH   9  26
BRANCH  10  28
ATOM     28  O   UNL     1     -21.784 -46.535 102.011  1.00  0.00    -0.490 OA
ATOM     29  C   UNL     1     -21.355 -46.869 100.695  1.00  0.00     0.278 C 
ENDBRANCH  10  28
TORSDOF 7
ENDMDL
MODEL 7
REMARK VINA RESULT:    -6.136      4.923      8.479
REMARK INTER + INTRA:          -9.223
REMARK INTER:                  -8.479
REMARK INTRA:                  -0.744
REMARK UNBOUND:                -0.576
REMARK SMILES COc1ccc(-c2cc(=O)c3c(OC)c(OC)c(OC)c(OC)c3o2)cc1OC
REMARK SMILES IDX 7 1 8 2 9 3 10 4 11 5 24 6 25 7 21 8 18 9 15 10 12 11 6 12
REMARK SMILES IDX 3 13 27 14 4 15 26 16 5 17 2 18 1 19 28 20 29 21 22 22 23 23
REMARK SMILES IDX 13 24 14 25 19 26 20 27 16 28 17 29
REMARK H PARENT
REMARK Flexibility Score: inf
ROOT
ATOM      1  C   UNL     1     -18.388 -48.259 108.921  1.00  0.00     0.138 A 
ATOM      2  C   UNL     1     -17.409 -47.275 108.726  1.00  0.00     0.100 A 
ATOM      3  C   UNL     1     -16.456 -47.051 109.719  1.00  0.00     0.197 A 
ATOM      4  O   UNL     1     -15.584 -46.161 109.527  1.00  0.00    -0.289 OA
ATOM      5  C   UNL     1     -16.482 -47.821 110.907  1.00  0.00     0.115 A 
ATOM      6  C   UNL     1     -17.488 -48.804 111.016  1.00  0.00     0.188 A 
ATOM      7  O   UNL     1     -18.378 -48.974 110.042  1.00  0.00    -0.452 OA
ATOM      8  C   UNL     1     -17.577 -49.607 112.151  1.00  0.00     0.209 A 
ATOM      9  C   UNL     1     -16.622 -49.489 113.177  1.00  0.00     0.211 A 
ATOM     10  C   UNL     1     -15.641 -48.465 113.122  1.00  0.00     0.208 A 
ATOM     11  C   UNL     1     -15.562 -47.634 111.970  1.00  0.00     0.179 A 
ENDROOT
BRANCH   1  12
ATOM     12  C   UNL     1     -19.432 -48.542 107.904  1.00  0.00     0.021 A 
ATOM     13  C   UNL     1     -21.374 -49.076 105.924  1.00  0.00     0.160 A 
ATOM     14  C   UNL     1     -20.279 -48.252 105.626  1.00  0.00     0.161 A 
ATOM     15  C   UNL     1     -21.490 -49.638 107.208  1.00  0.00     0.051 A 
ATOM     16  C   UNL     1     -19.311 -47.992 106.617  1.00  0.00     0.062 A 
ATOM     17  C   UNL     1     -20.528 -49.376 108.186  1.00  0.00     0.016 A 
BRANCH  13  18
ATOM     18  O   UNL     1     -22.321 -49.317 104.916  1.00  0.00    -0.493 OA
ATOM     19  C   UNL     1     -23.524 -48.573 104.747  1.00  0.00     0.278 C 
ENDBRANCH  13  18
BRANCH  14  20
ATOM     20  O   UNL     1     -20.186 -47.708 104.335  1.00  0.00    -0.493 OA
ATOM     21  C   UNL     1     -19.075 -47.880 103.462  1.00  0.00     0.278 C 
ENDBRANCH  14  20
ENDBRANCH   1  12
BRANCH   8  22
ATOM     22  O   UNL     1     -18.636 -50.519 112.234  1.00  0.00    -0.490 OA
ATOM     23  C   UNL     1     -18.547 -51.847 111.728  1.00  0.00     0.278 C 
ENDBRANCH   8  22
BRANCH  11  24
ATOM     24  O   UNL     1     -14.596 -46.613 111.830  1.00  0.00    -0.492 OA
ATOM     25  C   UNL     1     -14.529 -45.377 112.533  1.00  0.00     0.278 C 
ENDBRANCH  11  24
BRANCH   9  26
ATOM     26  O   UNL     1     -16.628 -50.402 114.235  1.00  0.00    -0.490 OA
ATOM     27  C   UNL     1     -15.817 -51.572 114.235  1.00  0.00     0.279 C 
ENDBRANCH   9  26
BRANCH  10  28
ATOM     28  O   UNL     1     -14.727 -48.249 114.171  1.00  0.00    -0.490 OA
ATOM     29  C   UNL     1     -13.394 -48.740 114.266  1.00  0.00     0.278 C 
ENDBRANCH  10  28
TORSDOF 7
ENDMDL
MODEL 8
REMARK VINA RESULT:    -6.116      3.981      7.404
REMARK INTER + INTRA:          -9.195
REMARK INTER:                  -8.509
REMARK INTRA:                  -0.685
REMARK UNBOUND:                -0.576
REMARK SMILES COc1ccc(-c2cc(=O)c3c(OC)c(OC)c(OC)c(OC)c3o2)cc1OC
REMARK SMILES IDX 7 1 8 2 9 3 10 4 11 5 24 6 25 7 21 8 18 9 15 10 12 11 6 12
REMARK SMILES IDX 3 13 27 14 4 15 26 16 5 17 2 18 1 19 28 20 29 21 22 22 23 23
REMARK SMILES IDX 13 24 14 25 19 26 20 27 16 28 17 29
REMARK H PARENT
REMARK Flexibility Score: inf
ROOT
ATOM      1  C   UNL     1     -20.308 -46.879 104.374  1.00  0.00     0.138 A 
ATOM      2  C   UNL     1     -21.404 -47.751 104.415  1.00  0.00     0.100 A 
ATOM      3  C   UNL     1     -21.514 -48.664 105.463  1.00  0.00     0.197 A 
ATOM      4  O   UNL     1     -22.506 -49.441 105.483  1.00  0.00    -0.289 OA
ATOM      5  C   UNL     1     -20.524 -48.696 106.475  1.00  0.00     0.115 A 
ATOM      6  C   UNL     1     -19.463 -47.772 106.369  1.00  0.00     0.188 A 
ATOM      7  O   UNL     1     -19.401 -46.926 105.345  1.00  0.00    -0.452 OA
ATOM      8  C   UNL     1     -18.452 -47.738 107.327  1.00  0.00     0.209 A 
ATOM      9  C   UNL     1     -18.513 -48.584 108.450  1.00  0.00     0.211 A 
ATOM     10  C   UNL     1     -19.532 -49.567 108.546  1.00  0.00     0.208 A 
ATOM     11  C   UNL     1     -20.555 -49.613 107.557  1.00  0.00     0.179 A 
ENDROOT
BRANCH   1  12
ATOM     12  C   UNL     1     -20.133 -45.887 103.282  1.00  0.00     0.021 A 
ATOM     13  C   UNL     1     -19.825 -44.045 101.164  1.00  0.00     0.160 A 
ATOM     14  C   UNL     1     -19.729 -45.421 100.913  1.00  0.00     0.161 A 
ATOM     15  C   UNL     1     -20.083 -43.594 102.471  1.00  0.00     0.051 A 
ATOM     16  C   UNL     1     -19.887 -46.336 101.973  1.00  0.00     0.062 A 
ATOM     17  C   UNL     1     -20.239 -44.506 103.517  1.00  0.00     0.016 A 
BRANCH  13  18
ATOM     18  O   UNL     1     -19.663 -43.158 100.087  1.00  0.00    -0.493 OA
ATOM     19  C   UNL     1     -18.562 -42.266  99.937  1.00  0.00     0.278 C 
ENDBRANCH  13  18
BRANCH  14  20
ATOM     20  O   UNL     1     -19.474 -45.843  99.599  1.00  0.00    -0.493 OA
ATOM     21  C   UNL     1     -19.250 -47.195  99.212  1.00  0.00     0.278 C 
ENDBRANCH  14  20
ENDBRANCH   1  12
BRANCH   8  22
ATOM     22  O   UNL     1     -17.390 -46.847 107.135  1.00  0.00    -0.490 OA
ATOM     23  C   UNL     1     -16.146 -47.244 106.566  1.00  0.00     0.278 C 
ENDBRANCH   8  22
BRANCH  11  24
ATOM     24  O   UNL     1     -21.616 -50.543 107.600  1.00  0.00    -0.492 OA
ATOM     25  C   UNL     1     -21.585 -51.917 107.228  1.00  0.00     0.278 C 
ENDBRANCH  11  24
BRANCH   9  26
ATOM     26  O   UNL     1     -17.581 -48.432 109.480  1.00  0.00    -0.490 OA
ATOM     27  C   UNL     1     -17.716 -47.434 110.486  1.00  0.00     0.279 C 
ENDBRANCH   9  26
BRANCH  10  28
ATOM     28  O   UNL     1     -19.575 -50.496 109.602  1.00  0.00    -0.490 OA
ATOM     29  C   UNL     1     -18.916 -51.757 109.667  1.00  0.00     0.278 C 
ENDBRANCH  10  28
TORSDOF 7
ENDMDL
MODEL 9
REMARK VINA RESULT:    -6.088      4.214      7.226
REMARK INTER + INTRA:          -9.155
REMARK INTER:                  -8.414
REMARK INTRA:                  -0.741
REMARK UNBOUND:                -0.576
REMARK SMILES COc1ccc(-c2cc(=O)c3c(OC)c(OC)c(OC)c(OC)c3o2)cc1OC
REMARK SMILES IDX 7 1 8 2 9 3 10 4 11 5 24 6 25 7 21 8 18 9 15 10 12 11 6 12
REMARK SMILES IDX 3 13 27 14 4 15 26 16 5 17 2 18 1 19 28 20 29 21 22 22 23 23
REMARK SMILES IDX 13 24 14 25 19 26 20 27 16 28 17 29
REMARK H PARENT
REMARK Flexibility Score: inf
ROOT
ATOM      1  C   UNL     1     -18.752 -46.639 106.816  1.00  0.00     0.138 A 
ATOM      2  C   UNL     1     -18.366 -45.319 107.084  1.00  0.00     0.100 A 
ATOM      3  C   UNL     1     -18.383 -44.378 106.056  1.00  0.00     0.197 A 
ATOM      4  O   UNL     1     -18.032 -43.195 106.316  1.00  0.00    -0.289 OA
ATOM      5  C   UNL     1     -18.795 -44.762 104.757  1.00  0.00     0.115 A 
ATOM      6  C   UNL     1     -19.186 -46.105 104.574  1.00  0.00     0.188 A 
ATOM      7  O   UNL     1     -19.145 -46.966 105.588  1.00  0.00    -0.452 OA
ATOM      8  C   UNL     1     -19.608 -46.559 103.327  1.00  0.00     0.209 A 
ATOM      9  C   UNL     1     -19.712 -45.664 102.247  1.00  0.00     0.211 A 
ATOM     10  C   UNL     1     -19.263 -44.325 102.386  1.00  0.00     0.208 A 
ATOM     11  C   UNL     1     -18.814 -43.867 103.656  1.00  0.00     0.179 A 
ENDROOT
BRANCH   1  12
ATOM     12  C   UNL     1     -18.751 -47.689 107.866  1.00  0.00     0.021 A 
ATOM     13  C   UNL     1     -18.755 -49.729 109.819  1.00  0.00     0.160 A 
ATOM     14  C   UNL     1     -19.501 -49.885 108.642  1.00  0.00     0.161 A 
ATOM     15  C   UNL     1     -18.003 -48.557 110.012  1.00  0.00     0.051 A 
ATOM     16  C   UNL     1     -19.492 -48.866 107.669  1.00  0.00     0.062 A 
ATOM     17  C   UNL     1     -17.998 -47.550 109.045  1.00  0.00     0.016 A 
BRANCH  13  18
ATOM     18  O   UNL     1     -18.784 -50.763 110.769  1.00  0.00    -0.493 OA
ATOM     19  C   UNL     1     -18.457 -50.601 112.146  1.00  0.00     0.278 C 
ENDBRANCH  13  18
BRANCH  14  20
ATOM     20  O   UNL     1     -20.240 -51.068 108.473  1.00  0.00    -0.493 OA
ATOM     21  C   UNL     1     -21.478 -51.155 107.776  1.00  0.00     0.278 C 
ENDBRANCH  14  20
ENDBRANCH   1  12
BRANCH   8  22
ATOM     22  O   UNL     1     -19.920 -47.917 103.190  1.00  0.00    -0.490 OA
ATOM     23  C   UNL     1     -21.222 -48.437 103.442  1.00  0.00     0.278 C 
ENDBRANCH   8  22
BRANCH  11  24
ATOM     24  O   UNL     1     -18.379 -42.542 103.880  1.00  0.00    -0.492 OA
ATOM     25  C   UNL     1     -17.153 -41.948 103.465  1.00  0.00     0.278 C 
ENDBRANCH  11  24
BRANCH   9  26
ATOM     26  O   UNL     1     -20.284 -46.094 101.047  1.00  0.00    -0.490 OA
ATOM     27  C   UNL     1     -21.645 -45.836 100.717  1.00  0.00     0.279 C 
ENDBRANCH   9  26
BRANCH  10  28
ATOM     28  O   UNL     1     -19.258 -43.424 101.305  1.00  0.00    -0.490 OA
ATOM     29  C   UNL     1     -18.287 -43.325 100.269  1.00  0.00     0.278 C 
ENDBRANCH  10  28
TORSDOF 7
ENDMDL
