MODEL 1
REMARK VINA RESULT:    -2.345      0.000      0.000
REMARK INTER + INTRA:          -3.449
REMARK INTER:                  -3.167
REMARK INTRA:                  -0.282
REMARK UNBOUND:                -0.282
REMARK SMILES C=C1C(=O)O[C@@H]2[C@@H]1CCC(C)=CCC[C@]1(C)O[C@H]21
REMARK SMILES IDX 6 1 7 2 2 3 1 4 3 5 4 6 5 7 8 8 9 9 10 10 11 11 12 12 18 14
REMARK SMILES IDX 15 15 17 16 16 17 14 18 13 19
REMARK H PARENT
REMARK Flexibility Score: 70.00
ROOT
ATOM      1  C   UNL     1     127.989 126.412 128.344  1.00  0.00     0.216 C 
ATOM      2  C   UNL     1     129.431 126.346 127.688  1.00  0.00     0.070 C 
ATOM      3  C   UNL     1     129.141 125.946 126.266  1.00  0.00     0.037 C 
ATOM      4  C   UNL     1     130.046 125.624 125.339  1.00  0.00     0.021 C 
ATOM      5  C   UNL     1     127.722 125.766 126.129  1.00  0.00     0.334 C 
ATOM      6  O   UNL     1     127.126 125.414 125.077  1.00  0.00    -0.247 OA
ATOM      7  O   UNL     1     127.084 126.000 127.323  1.00  0.00    -0.455 OA
ENDROOT
BRANCH   2   8
ATOM      8  C   UNL     1     130.373 127.607 127.754  1.00  0.00     0.017 C 
BRANCH   8   9
ATOM      9  C   UNL     1     131.595 127.638 128.713  1.00  0.00     0.031 C 
BRANCH   9  10
ATOM     10  C   UNL     1     131.490 128.746 129.755  1.00  0.00    -0.077 C 
ATOM     11  C   UNL     1     132.155 130.069 129.470  1.00  0.00     0.039 C 
ATOM     12  C   UNL     1     130.818 128.617 130.926  1.00  0.00    -0.028 CG0
ATOM     13  G   UNL     1     130.126 127.365 131.402  1.00  0.00     0.000 G0
ENDBRANCH   9  10
ENDBRANCH   8   9
ENDBRANCH   2   8
BRANCH   1  14
ATOM     14  C   UNL     1     127.720 125.542 129.595  1.00  0.00     0.192 C 
ATOM     15  C   UNL     1     127.914 126.130 130.959  1.00  0.00     0.096 C 
ATOM     16  O   UNL     1     128.841 125.226 130.387  1.00  0.00    -0.362 OA
ATOM     17  C   UNL     1     127.153 125.484 132.118  1.00  0.00     0.045 C 
BRANCH  15  18
ATOM     18  C   UNL     1     128.599 127.481 131.227  1.00  0.00     0.042 C 
BRANCH  18  19
ATOM     19  C   UNL     1     130.117 127.356 131.415  1.00  0.00     0.030 CG0
ATOM     20  G   UNL     1     130.823 128.594 130.922  1.00  0.00     0.000 G0
ENDBRANCH  18  19
ENDBRANCH  15  18
ENDBRANCH   1  14
TORSDOF 0
ENDMDL
MODEL 2
REMARK VINA RESULT:    -2.232      2.678      4.843
REMARK INTER + INTRA:          -3.296
REMARK INTER:                  -2.972
REMARK INTRA:                  -0.324
REMARK UNBOUND:                -0.282
REMARK SMILES C=C1C(=O)O[C@@H]2[C@@H]1CCC(C)=CCC[C@]1(C)O[C@H]21
REMARK SMILES IDX 6 1 7 2 2 3 1 4 3 5 4 6 5 7 8 8 9 9 10 10 11 11 12 12 18 14
REMARK SMILES IDX 15 15 17 16 16 17 14 18 13 19
REMARK H PARENT
REMARK Flexibility Score: 70.00
ROOT
ATOM      1  C   UNL     1     131.766 126.351 130.566  1.00  0.00     0.216 C 
ATOM      2  C   UNL     1     132.414 127.722 130.102  1.00  0.00     0.070 C 
ATOM      3  C   UNL     1     133.854 127.576 130.513  1.00  0.00     0.037 C 
ATOM      4  C   UNL     1     134.788 128.529 130.462  1.00  0.00     0.021 C 
ATOM      5  C   UNL     1     134.011 126.305 131.165  1.00  0.00     0.334 C 
ATOM      6  O   UNL     1     135.081 125.858 131.654  1.00  0.00    -0.247 OA
ATOM      7  O   UNL     1     132.812 125.635 131.219  1.00  0.00    -0.455 OA
ENDROOT
BRANCH   2   8
ATOM      8  C   UNL     1     132.284 128.172 128.598  1.00  0.00     0.017 C 
BRANCH   8   9
ATOM      9  C   UNL     1     131.044 128.972 128.111  1.00  0.00     0.031 C 
BRANCH   9  10
ATOM     10  C   UNL     1     130.188 128.180 127.130  1.00  0.00    -0.077 C 
ATOM     11  C   UNL     1     130.584 128.168 125.674  1.00  0.00     0.039 C 
ATOM     12  C   UNL     1     129.092 127.469 127.491  1.00  0.00    -0.028 CG0
ATOM     13  G   UNL     1     128.521 127.392 128.884  1.00  0.00     0.000 G0
ENDBRANCH   9  10
ENDBRANCH   8   9
ENDBRANCH   2   8
BRANCH   1  14
ATOM     14  C   UNL     1     130.558 126.409 131.531  1.00  0.00     0.192 C 
ATOM     15  C   UNL     1     129.182 126.134 131.007  1.00  0.00     0.096 C 
ATOM     16  O   UNL     1     129.629 127.443 131.304  1.00  0.00    -0.362 OA
ATOM     17  C   UNL     1     128.128 125.666 132.013  1.00  0.00     0.045 C 
BRANCH  15  18
ATOM     18  C   UNL     1     128.832 126.028 129.513  1.00  0.00     0.042 C 
BRANCH  18  19
ATOM     19  C   UNL     1     128.501 127.385 128.877  1.00  0.00     0.030 CG0
ATOM     20  G   UNL     1     129.103 127.494 127.499  1.00  0.00     0.000 G0
ENDBRANCH  18  19
ENDBRANCH  15  18
ENDBRANCH   1  14
TORSDOF 0
ENDMDL
MODEL 3
REMARK VINA RESULT:    -2.220      2.723      4.968
REMARK INTER + INTRA:          -3.280
REMARK INTER:                  -3.032
REMARK INTRA:                  -0.248
REMARK UNBOUND:                -0.282
REMARK SMILES C=C1C(=O)O[C@@H]2[C@@H]1CCC(C)=CCC[C@]1(C)O[C@H]21
REMARK SMILES IDX 6 1 7 2 2 3 1 4 3 5 4 6 5 7 8 8 9 9 10 10 11 11 12 12 18 14
REMARK SMILES IDX 15 15 17 16 16 17 14 18 13 19
REMARK H PARENT
REMARK Flexibility Score: 70.00
ROOT
ATOM      1  C   UNL     1     130.653 126.864 130.487  1.00  0.00     0.216 C 
ATOM      2  C   UNL     1     131.678 125.938 131.264  1.00  0.00     0.070 C 
ATOM      3  C   UNL     1     133.007 126.583 130.977  1.00  0.00     0.037 C 
ATOM      4  C   UNL     1     134.207 126.093 131.300  1.00  0.00     0.021 C 
ATOM      5  C   UNL     1     132.784 127.711 130.116  1.00  0.00     0.334 C 
ATOM      6  O   UNL     1     133.676 128.473 129.659  1.00  0.00    -0.247 OA
ATOM      7  O   UNL     1     131.449 127.838 129.817  1.00  0.00    -0.455 OA
ENDROOT
BRANCH   2   8
ATOM      8  C   UNL     1     131.479 125.682 132.806  1.00  0.00     0.017 C 
BRANCH   8   9
ATOM      9  C   UNL     1     130.216 124.949 133.335  1.00  0.00     0.031 C 
BRANCH   9  10
ATOM     10  C   UNL     1     129.188 125.909 133.923  1.00  0.00    -0.077 C 
ATOM     11  C   UNL     1     129.484 126.555 135.253  1.00  0.00     0.039 C 
ATOM     12  C   UNL     1     128.022 126.229 133.312  1.00  0.00    -0.028 CG0
ATOM     13  G   UNL     1     127.536 125.659 132.004  1.00  0.00     0.000 G0
ENDBRANCH   9  10
ENDBRANCH   8   9
ENDBRANCH   2   8
BRANCH   1  14
ATOM     14  C   UNL     1     129.729 126.202 129.436  1.00  0.00     0.192 C 
ATOM     15  C   UNL     1     128.244 126.259 129.619  1.00  0.00     0.096 C 
ATOM     16  O   UNL     1     128.992 125.084 129.871  1.00  0.00    -0.362 OA
ATOM     17  C   UNL     1     127.376 126.106 128.369  1.00  0.00     0.045 C 
BRANCH  15  18
ATOM     18  C   UNL     1     127.551 126.723 130.911  1.00  0.00     0.042 C 
BRANCH  18  19
ATOM     19  C   UNL     1     127.539 125.648 132.006  1.00  0.00     0.030 CG0
ATOM     20  G   UNL     1     128.016 126.213 133.319  1.00  0.00     0.000 G0
ENDBRANCH  18  19
ENDBRANCH  15  18
ENDBRANCH   1  14
TORSDOF 0
ENDMDL
MODEL 4
REMARK VINA RESULT:    -2.138     18.596     20.896
REMARK INTER + INTRA:          -3.170
REMARK INTER:                  -3.022
REMARK INTRA:                  -0.148
REMARK UNBOUND:                -0.282
REMARK SMILES C=C1C(=O)O[C@@H]2[C@@H]1CCC(C)=CCC[C@]1(C)O[C@H]21
REMARK SMILES IDX 6 1 7 2 2 3 1 4 3 5 4 6 5 7 8 8 9 9 10 10 11 11 12 12 18 14
REMARK SMILES IDX 15 15 17 16 16 17 14 18 13 19
REMARK H PARENT
REMARK Flexibility Score: 70.00
ROOT
ATOM      1  C   UNL     1     139.990 144.144 130.840  1.00  0.00     0.216 C 
ATOM      2  C   UNL     1     139.131 143.031 130.108  1.00  0.00     0.070 C 
ATOM      3  C   UNL     1     137.717 143.401 130.466  1.00  0.00     0.037 C 
ATOM      4  C   UNL     1     136.623 142.682 130.200  1.00  0.00     0.021 C 
ATOM      5  C   UNL     1     137.755 144.553 131.323  1.00  0.00     0.334 C 
ATOM      6  O   UNL     1     136.754 145.125 131.829  1.00  0.00    -0.247 OA
ATOM      7  O   UNL     1     139.051 144.944 131.556  1.00  0.00    -0.455 OA
ENDROOT
BRANCH   2   8
ATOM      8  C   UNL     1     139.299 142.816 128.556  1.00  0.00     0.017 C 
BRANCH   8   9
ATOM      9  C   UNL     1     140.708 142.641 127.925  1.00  0.00     0.031 C 
BRANCH   9  10
ATOM     10  C   UNL     1     141.302 143.963 127.453  1.00  0.00    -0.077 C 
ATOM     11  C   UNL     1     140.674 144.654 126.268  1.00  0.00     0.039 C 
ATOM     12  C   UNL     1     142.361 144.567 128.046  1.00  0.00    -0.028 CG0
ATOM     13  G   UNL     1     143.141 144.015 129.212  1.00  0.00     0.000 G0
ENDBRANCH   9  10
ENDBRANCH   8   9
ENDBRANCH   2   8
BRANCH   1  14
ATOM     14  C   UNL     1     141.078 143.682 131.839  1.00  0.00     0.192 C 
ATOM     15  C   UNL     1     142.484 144.172 131.677  1.00  0.00     0.096 C 
ATOM     16  O   UNL     1     142.095 142.860 131.316  1.00  0.00    -0.362 OA
ATOM     17  C   UNL     1     143.379 144.162 132.918  1.00  0.00     0.045 C 
BRANCH  15  18
ATOM     18  C   UNL     1     143.000 144.922 130.438  1.00  0.00     0.042 C 
BRANCH  18  19
ATOM     19  C   UNL     1     143.155 144.016 129.208  1.00  0.00     0.030 CG0
ATOM     20  G   UNL     1     142.371 144.557 128.040  1.00  0.00     0.000 G0
ENDBRANCH  18  19
ENDBRANCH  15  18
ENDBRANCH   1  14
TORSDOF 0
ENDMDL
MODEL 5
REMARK VINA RESULT:    -2.123     12.342     14.654
REMARK INTER + INTRA:          -3.149
REMARK INTER:                  -2.853
REMARK INTRA:                  -0.296
REMARK UNBOUND:                -0.282
REMARK SMILES C=C1C(=O)O[C@@H]2[C@@H]1CCC(C)=CCC[C@]1(C)O[C@H]21
REMARK SMILES IDX 6 1 7 2 2 3 1 4 3 5 4 6 5 7 8 8 9 9 10 10 11 11 12 12 18 14
REMARK SMILES IDX 15 15 17 16 16 17 14 18 13 19
REMARK H PARENT
REMARK Flexibility Score: 70.00
ROOT
ATOM      1  C   UNL     1     139.117 126.713 138.829  1.00  0.00     0.216 C 
ATOM      2  C   UNL     1     139.438 126.603 140.377  1.00  0.00     0.070 C 
ATOM      3  C   UNL     1     140.778 125.918 140.400  1.00  0.00     0.037 C 
ATOM      4  C   UNL     1     141.417 125.473 141.485  1.00  0.00     0.021 C 
ATOM      5  C   UNL     1     141.163 125.634 139.045  1.00  0.00     0.334 C 
ATOM      6  O   UNL     1     142.220 125.051 138.688  1.00  0.00    -0.247 OA
ATOM      7  O   UNL     1     140.197 126.059 138.165  1.00  0.00    -0.455 OA
ENDROOT
BRANCH   2   8
ATOM      8  C   UNL     1     139.438 127.904 141.265  1.00  0.00     0.017 C 
BRANCH   8   9
ATOM      9  C   UNL     1     138.230 128.241 142.182  1.00  0.00     0.031 C 
BRANCH   9  10
ATOM     10  C   UNL     1     137.549 129.547 141.791  1.00  0.00    -0.077 C 
ATOM     11  C   UNL     1     137.989 130.821 142.468  1.00  0.00     0.039 C 
ATOM     12  C   UNL     1     136.573 129.636 140.855  1.00  0.00    -0.028 CG0
ATOM     13  G   UNL     1     135.976 128.473 140.102  1.00  0.00     0.000 G0
ENDBRANCH   9  10
ENDBRANCH   8   9
ENDBRANCH   2   8
BRANCH   1  14
ATOM     14  C   UNL     1     137.797 126.090 138.315  1.00  0.00     0.192 C 
ATOM     15  C   UNL     1     136.590 126.958 138.139  1.00  0.00     0.096 C 
ATOM     16  O   UNL     1     136.725 126.062 139.227  1.00  0.00    -0.362 OA
ATOM     17  C   UNL     1     135.518 126.481 137.158  1.00  0.00     0.045 C 
BRANCH  15  18
ATOM     18  C   UNL     1     136.481 128.400 138.662  1.00  0.00     0.042 C 
BRANCH  18  19
ATOM     19  C   UNL     1     135.951 128.479 140.101  1.00  0.00     0.030 CG0
ATOM     20  G   UNL     1     136.572 129.637 140.839  1.00  0.00     0.000 G0
ENDBRANCH  18  19
ENDBRANCH  15  18
ENDBRANCH   1  14
TORSDOF 0
ENDMDL
MODEL 6
REMARK VINA RESULT:    -2.115      2.654      5.427
REMARK INTER + INTRA:          -3.138
REMARK INTER:                  -2.830
REMARK INTRA:                  -0.308
REMARK UNBOUND:                -0.282
REMARK SMILES C=C1C(=O)O[C@@H]2[C@@H]1CCC(C)=CCC[C@]1(C)O[C@H]21
REMARK SMILES IDX 6 1 7 2 2 3 1 4 3 5 4 6 5 7 8 8 9 9 10 10 11 11 12 12 18 14
REMARK SMILES IDX 15 15 17 16 16 17 14 18 13 19
REMARK H PARENT
REMARK Flexibility Score: 70.00
ROOT
ATOM      1  C   UNL     1     130.265 127.127 129.029  1.00  0.00     0.216 C 
ATOM      2  C   UNL     1     129.915 125.910 129.983  1.00  0.00     0.070 C 
ATOM      3  C   UNL     1     131.113 125.832 130.891  1.00  0.00     0.037 C 
ATOM      4  C   UNL     1     131.361 124.875 131.788  1.00  0.00     0.021 C 
ATOM      5  C   UNL     1     132.050 126.845 130.489  1.00  0.00     0.334 C 
ATOM      6  O   UNL     1     133.173 127.058 131.017  1.00  0.00    -0.247 OA
ATOM      7  O   UNL     1     131.573 127.549 129.410  1.00  0.00    -0.455 OA
ENDROOT
BRANCH   2   8
ATOM      8  C   UNL     1     128.569 125.928 130.801  1.00  0.00     0.017 C 
BRANCH   8   9
ATOM      9  C   UNL     1     127.254 125.381 130.181  1.00  0.00     0.031 C 
BRANCH   9  10
ATOM     10  C   UNL     1     126.216 126.475 129.958  1.00  0.00    -0.077 C 
ATOM     11  C   UNL     1     125.346 126.889 131.118  1.00  0.00     0.039 C 
ATOM     12  C   UNL     1     126.036 127.112 128.775  1.00  0.00    -0.028 CG0
ATOM     13  G   UNL     1     126.779 126.811 127.499  1.00  0.00     0.000 G0
ENDBRANCH   9  10
ENDBRANCH   8   9
ENDBRANCH   2   8
BRANCH   1  14
ATOM     14  C   UNL     1     130.276 126.872 127.502  1.00  0.00     0.192 C 
ATOM     15  C   UNL     1     129.142 127.374 126.663  1.00  0.00     0.096 C 
ATOM     16  O   UNL     1     129.280 126.008 127.008  1.00  0.00    -0.362 OA
ATOM     17  C   UNL     1     129.416 127.599 125.174  1.00  0.00     0.045 C 
BRANCH  15  18
ATOM     18  C   UNL     1     127.824 127.925 127.232  1.00  0.00     0.042 C 
BRANCH  18  19
ATOM     19  C   UNL     1     126.781 126.831 127.498  1.00  0.00     0.030 CG0
ATOM     20  G   UNL     1     126.038 127.098 128.782  1.00  0.00     0.000 G0
ENDBRANCH  18  19
ENDBRANCH  15  18
ENDBRANCH   1  14
TORSDOF 0
ENDMDL
MODEL 7
REMARK VINA RESULT:    -2.067      2.901      5.686
REMARK INTER + INTRA:          -3.073
REMARK INTER:                  -2.785
REMARK INTRA:                  -0.288
REMARK UNBOUND:                -0.282
REMARK SMILES C=C1C(=O)O[C@@H]2[C@@H]1CCC(C)=CCC[C@]1(C)O[C@H]21
REMARK SMILES IDX 6 1 7 2 2 3 1 4 3 5 4 6 5 7 8 8 9 9 10 10 11 11 12 12 18 14
REMARK SMILES IDX 15 15 17 16 16 17 14 18 13 19
REMARK H PARENT
REMARK Flexibility Score: 70.00
ROOT
ATOM      1  C   UNL     1     131.028 128.095 128.801  1.00  0.00     0.216 C 
ATOM      2  C   UNL     1     131.394 126.751 129.556  1.00  0.00     0.070 C 
ATOM      3  C   UNL     1     132.289 127.218 130.672  1.00  0.00     0.037 C 
ATOM      4  C   UNL     1     132.973 126.438 131.513  1.00  0.00     0.021 C 
ATOM      5  C   UNL     1     132.450 128.641 130.554  1.00  0.00     0.334 C 
ATOM      6  O   UNL     1     133.149 129.366 131.311  1.00  0.00    -0.247 OA
ATOM      7  O   UNL     1     131.759 129.121 129.469  1.00  0.00    -0.455 OA
ENDROOT
BRANCH   2   8
ATOM      8  C   UNL     1     130.239 125.821 130.090  1.00  0.00     0.017 C 
BRANCH   8   9
ATOM      9  C   UNL     1     129.333 125.032 129.106  1.00  0.00     0.031 C 
BRANCH   9  10
ATOM     10  C   UNL     1     127.936 125.632 128.992  1.00  0.00    -0.077 C 
ATOM     11  C   UNL     1     126.965 125.416 130.126  1.00  0.00     0.039 C 
ATOM     12  C   UNL     1     127.514 126.363 127.932  1.00  0.00    -0.028 CG0
ATOM     13  G   UNL     1     128.324 126.651 126.693  1.00  0.00     0.000 G0
ENDBRANCH   9  10
ENDBRANCH   8   9
ENDBRANCH   2   8
BRANCH   1  14
ATOM     14  C   UNL     1     131.351 128.190 127.290  1.00  0.00     0.192 C 
ATOM     15  C   UNL     1     130.232 128.325 126.304  1.00  0.00     0.096 C 
ATOM     16  O   UNL     1     130.929 127.108 126.494  1.00  0.00    -0.362 OA
ATOM     17  C   UNL     1     130.563 128.947 124.946  1.00  0.00     0.045 C 
BRANCH  15  18
ATOM     18  C   UNL     1     128.746 128.136 126.652  1.00  0.00     0.042 C 
BRANCH  18  19
ATOM     19  C   UNL     1     128.322 126.661 126.692  1.00  0.00     0.030 CG0
ATOM     20  G   UNL     1     127.511 126.368 127.928  1.00  0.00     0.000 G0
ENDBRANCH  18  19
ENDBRANCH  15  18
ENDBRANCH   1  14
TORSDOF 0
ENDMDL
MODEL 8
REMARK VINA RESULT:    -2.065     17.502     20.426
REMARK INTER + INTRA:          -3.071
REMARK INTER:                  -2.806
REMARK INTRA:                  -0.265
REMARK UNBOUND:                -0.282
REMARK SMILES C=C1C(=O)O[C@@H]2[C@@H]1CCC(C)=CCC[C@]1(C)O[C@H]21
REMARK SMILES IDX 6 1 7 2 2 3 1 4 3 5 4 6 5 7 8 8 9 9 10 10 11 11 12 12 18 14
REMARK SMILES IDX 15 15 17 16 16 17 14 18 13 19
REMARK H PARENT
REMARK Flexibility Score: 70.00
ROOT
ATOM      1  C   UNL     1     139.803 142.428 128.475  1.00  0.00     0.216 C 
ATOM      2  C   UNL     1     139.073 143.248 129.618  1.00  0.00     0.070 C 
ATOM      3  C   UNL     1     137.738 142.563 129.732  1.00  0.00     0.037 C 
ATOM      4  C   UNL     1     136.703 142.971 130.469  1.00  0.00     0.021 C 
ATOM      5  C   UNL     1     137.688 141.509 128.756  1.00  0.00     0.334 C 
ATOM      6  O   UNL     1     136.712 140.739 128.557  1.00  0.00    -0.247 OA
ATOM      7  O   UNL     1     138.851 141.466 128.026  1.00  0.00    -0.455 OA
ENDROOT
BRANCH   2   8
ATOM      8  C   UNL     1     139.766 143.405 131.024  1.00  0.00     0.017 C 
BRANCH   8   9
ATOM      9  C   UNL     1     140.375 144.765 131.464  1.00  0.00     0.031 C 
BRANCH   9  10
ATOM     10  C   UNL     1     141.876 144.678 131.711  1.00  0.00    -0.077 C 
ATOM     11  C   UNL     1     142.363 144.459 133.122  1.00  0.00     0.039 C 
ATOM     12  C   UNL     1     142.807 144.772 130.730  1.00  0.00    -0.028 CG0
ATOM     13  G   UNL     1     142.517 145.027 129.273  1.00  0.00     0.000 G0
ENDBRANCH   9  10
ENDBRANCH   8   9
ENDBRANCH   2   8
BRANCH   1  14
ATOM     14  C   UNL     1     140.312 143.204 127.236  1.00  0.00     0.192 C 
ATOM     15  C   UNL     1     141.719 143.716 127.213  1.00  0.00     0.096 C 
ATOM     16  O   UNL     1     140.609 144.566 127.433  1.00  0.00    -0.362 OA
ATOM     17  C   UNL     1     142.352 143.973 125.844  1.00  0.00     0.045 C 
BRANCH  15  18
ATOM     18  C   UNL     1     142.648 143.743 128.439  1.00  0.00     0.042 C 
BRANCH  18  19
ATOM     19  C   UNL     1     142.522 145.035 129.259  1.00  0.00     0.030 CG0
ATOM     20  G   UNL     1     142.806 144.777 130.716  1.00  0.00     0.000 G0
ENDBRANCH  18  19
ENDBRANCH  15  18
ENDBRANCH   1  14
TORSDOF 0
ENDMDL
MODEL 9
REMARK VINA RESULT:    -2.001     13.546     15.690
REMARK INTER + INTRA:          -2.984
REMARK INTER:                  -2.675
REMARK INTRA:                  -0.308
REMARK UNBOUND:                -0.282
REMARK SMILES C=C1C(=O)O[C@@H]2[C@@H]1CCC(C)=CCC[C@]1(C)O[C@H]21
REMARK SMILES IDX 6 1 7 2 2 3 1 4 3 5 4 6 5 7 8 8 9 9 10 10 11 11 12 12 18 14
REMARK SMILES IDX 15 15 17 16 16 17 14 18 13 19
REMARK H PARENT
REMARK Flexibility Score: 70.00
ROOT
ATOM      1  C   UNL     1     138.040 128.510 140.922  1.00  0.00     0.216 C 
ATOM      2  C   UNL     1     137.684 127.090 140.313  1.00  0.00     0.070 C 
ATOM      3  C   UNL     1     136.348 127.324 139.659  1.00  0.00     0.037 C 
ATOM      4  C   UNL     1     135.560 126.391 139.121  1.00  0.00     0.021 C 
ATOM      5  C   UNL     1     135.965 128.689 139.893  1.00  0.00     0.334 C 
ATOM      6  O   UNL     1     134.896 129.228 139.504  1.00  0.00    -0.247 OA
ATOM      7  O   UNL     1     136.916 129.341 140.640  1.00  0.00    -0.455 OA
ENDROOT
BRANCH   2   8
ATOM      8  C   UNL     1     138.696 126.392 139.328  1.00  0.00     0.017 C 
BRANCH   8   9
ATOM      9  C   UNL     1     139.875 125.538 139.872  1.00  0.00     0.031 C 
BRANCH   9  10
ATOM     10  C   UNL     1     141.232 126.171 139.586  1.00  0.00    -0.077 C 
ATOM     11  C   UNL     1     141.858 125.952 138.231  1.00  0.00     0.039 C 
ATOM     12  C   UNL     1     141.910 126.935 140.478  1.00  0.00    -0.028 CG0
ATOM     13  G   UNL     1     141.466 127.232 141.887  1.00  0.00     0.000 G0
ENDBRANCH   9  10
ENDBRANCH   8   9
ENDBRANCH   2   8
BRANCH   1  14
ATOM     14  C   UNL     1     138.325 128.597 142.441  1.00  0.00     0.192 C 
ATOM     15  C   UNL     1     139.731 128.790 142.917  1.00  0.00     0.096 C 
ATOM     16  O   UNL     1     139.071 127.540 142.996  1.00  0.00    -0.362 OA
ATOM     17  C   UNL     1     139.926 129.402 144.306  1.00  0.00     0.045 C 
BRANCH  15  18
ATOM     18  C   UNL     1     140.973 128.668 142.017  1.00  0.00     0.042 C 
BRANCH  18  19
ATOM     19  C   UNL     1     141.483 127.225 141.891  1.00  0.00     0.030 CG0
ATOM     20  G   UNL     1     141.919 126.932 140.478  1.00  0.00     0.000 G0
ENDBRANCH  18  19
ENDBRANCH  15  18
ENDBRANCH   1  14
TORSDOF 0
ENDMDL
