MODEL 1
REMARK VINA RESULT:    -1.099      0.000      0.000
REMARK INTER + INTRA:          -3.435
REMARK INTER:                  -1.741
REMARK INTRA:                  -1.693
REMARK UNBOUND:                -1.693
REMARK SMILES CCCCCCCCCCCC(=O)[O-]
REMARK SMILES IDX 7 1 8 2 9 3 10 4 11 5 12 6 13 7 14 8 6 9 5 10 4 11 3 12 2 13
REMARK SMILES IDX 1 14
REMARK H PARENT
REMARK Flexibility Score: inf
ROOT
ATOM      1  C   UNL     1      28.317  -7.638  18.625  1.00  0.00     0.000 C 
ENDROOT
BRANCH   1   2
ATOM      2  C   UNL     1      29.363  -7.127  19.631  1.00  0.00     0.000 C 
BRANCH   2   3
ATOM      3  C   UNL     1      30.735  -7.800  19.459  1.00  0.00     0.000 C 
BRANCH   3   4
ATOM      4  C   UNL     1      30.857  -9.107  20.271  1.00  0.00     0.006 C 
BRANCH   4   5
ATOM      5  C   UNL     1      30.393  -8.967  21.730  1.00  0.00     0.053 C 
BRANCH   5   6
ATOM      6  C   UNL     1      29.261  -9.889  22.059  1.00  0.00     0.041 C 
ATOM      7  O   UNL     1      29.368 -11.125  21.846  1.00  0.00    -0.550 OA
ATOM      8  O   UNL     1      28.097  -9.386  22.627  1.00  0.00    -0.550 OA
ENDBRANCH   5   6
ENDBRANCH   4   5
ENDBRANCH   3   4
ENDBRANCH   2   3
ENDBRANCH   1   2
BRANCH   1   9
ATOM      9  C   UNL     1      27.309  -8.659  19.193  1.00  0.00     0.000 C 
BRANCH   9  10
ATOM     10  C   UNL     1      27.531 -10.115  18.742  1.00  0.00    -0.000 C 
BRANCH  10  11
ATOM     11  C   UNL     1      28.350 -10.280  17.445  1.00  0.00    -0.000 C 
BRANCH  11  12
ATOM     12  C   UNL     1      29.628 -11.125  17.587  1.00  0.00    -0.000 C 
BRANCH  12  13
ATOM     13  C   UNL     1      30.798 -10.581  16.755  1.00  0.00    -0.003 C 
ATOM     14  C   UNL     1      30.412  -9.288  16.042  1.00  0.00     0.004 C 
ENDBRANCH  12  13
ENDBRANCH  11  12
ENDBRANCH  10  11
ENDBRANCH   9  10
ENDBRANCH   1   9
TORSDOF 10
ENDMDL
MODEL 2
REMARK VINA RESULT:    -1.006      1.682      2.794
REMARK INTER + INTRA:          -3.287
REMARK INTER:                  -2.111
REMARK INTRA:                  -1.176
REMARK UNBOUND:                -1.693
REMARK SMILES CCCCCCCCCCCC(=O)[O-]
REMARK SMILES IDX 7 1 8 2 9 3 10 4 11 5 12 6 13 7 14 8 6 9 5 10 4 11 3 12 2 13
REMARK SMILES IDX 1 14
REMARK H PARENT
REMARK Flexibility Score: inf
ROOT
ATOM      1  C   UNL     1      28.486  -8.924  19.974  1.00  0.00     0.000 C 
ENDROOT
BRANCH   1   2
ATOM      2  C   UNL     1      28.240 -10.420  20.239  1.00  0.00     0.000 C 
BRANCH   2   3
ATOM      3  C   UNL     1      27.663 -10.690  21.640  1.00  0.00     0.000 C 
BRANCH   3   4
ATOM      4  C   UNL     1      28.039  -9.590  22.654  1.00  0.00     0.006 C 
BRANCH   4   5
ATOM      5  C   UNL     1      29.057 -10.051  23.710  1.00  0.00     0.053 C 
BRANCH   5   6
ATOM      6  C   UNL     1      30.471  -9.814  23.282  1.00  0.00     0.041 C 
ATOM      7  O   UNL     1      31.125 -10.731  22.721  1.00  0.00    -0.550 OA
ATOM      8  O   UNL     1      31.057  -8.570  23.477  1.00  0.00    -0.550 OA
ENDBRANCH   5   6
ENDBRANCH   4   5
ENDBRANCH   3   4
ENDBRANCH   2   3
ENDBRANCH   1   2
BRANCH   1   9
ATOM      9  C   UNL     1      29.969  -8.521  19.839  1.00  0.00     0.000 C 
BRANCH   9  10
ATOM     10  C   UNL     1      30.914  -9.654  19.395  1.00  0.00    -0.000 C 
BRANCH  10  11
ATOM     11  C   UNL     1      31.106  -9.784  17.870  1.00  0.00    -0.000 C 
BRANCH  11  12
ATOM     12  C   UNL     1      30.353 -10.957  17.219  1.00  0.00    -0.000 C 
BRANCH  12  13
ATOM     13  C   UNL     1      29.834 -10.626  15.811  1.00  0.00    -0.003 C 
ATOM     14  C   UNL     1      28.766  -9.537  15.861  1.00  0.00     0.004 C 
ENDBRANCH  12  13
ENDBRANCH  11  12
ENDBRANCH  10  11
ENDBRANCH   9  10
ENDBRANCH   1   9
TORSDOF 10
ENDMDL
MODEL 3
REMARK VINA RESULT:    -0.983      2.103      3.583
REMARK INTER + INTRA:          -3.250
REMARK INTER:                  -2.174
REMARK INTRA:                  -1.076
REMARK UNBOUND:                -1.693
REMARK SMILES CCCCCCCCCCCC(=O)[O-]
REMARK SMILES IDX 7 1 8 2 9 3 10 4 11 5 12 6 13 7 14 8 6 9 5 10 4 11 3 12 2 13
REMARK SMILES IDX 1 14
REMARK H PARENT
REMARK Flexibility Score: inf
ROOT
ATOM      1  C   UNL     1      28.834  -8.708  16.332  1.00  0.00     0.000 C 
ENDROOT
BRANCH   1   2
ATOM      2  C   UNL     1      28.049 -10.016  16.538  1.00  0.00     0.000 C 
BRANCH   2   3
ATOM      3  C   UNL     1      27.900 -10.395  18.022  1.00  0.00     0.000 C 
BRANCH   3   4
ATOM      4  C   UNL     1      28.309  -9.246  18.967  1.00  0.00     0.006 C 
BRANCH   4   5
ATOM      5  C   UNL     1      28.626  -9.711  20.397  1.00  0.00     0.053 C 
BRANCH   5   6
ATOM      6  C   UNL     1      30.097  -9.765  20.666  1.00  0.00     0.041 C 
ATOM      7  O   UNL     1      30.523 -10.140  21.790  1.00  0.00    -0.550 OA
ATOM      8  O   UNL     1      31.000  -9.427  19.666  1.00  0.00    -0.550 OA
ENDBRANCH   5   6
ENDBRANCH   4   5
ENDBRANCH   3   4
ENDBRANCH   2   3
ENDBRANCH   1   2
BRANCH   1   9
ATOM      9  C   UNL     1      30.329  -8.890  15.999  1.00  0.00     0.000 C 
BRANCH   9  10
ATOM     10  C   UNL     1      30.877 -10.313  16.219  1.00  0.00    -0.000 C 
BRANCH  10  11
ATOM     11  C   UNL     1      31.125 -11.124  14.930  1.00  0.00    -0.000 C 
BRANCH  11  12
ATOM     12  C   UNL     1      30.916 -10.342  13.621  1.00  0.00    -0.000 C 
BRANCH  12  13
ATOM     13  C   UNL     1      29.712 -10.845  12.811  1.00  0.00    -0.003 C 
ATOM     14  C   UNL     1      28.603  -9.797  12.766  1.00  0.00     0.004 C 
ENDBRANCH  12  13
ENDBRANCH  11  12
ENDBRANCH  10  11
ENDBRANCH   9  10
ENDBRANCH   1   9
TORSDOF 10
ENDMDL
MODEL 4
REMARK VINA RESULT:    -0.929      3.277      4.734
REMARK INTER + INTRA:          -3.165
REMARK INTER:                  -1.556
REMARK INTRA:                  -1.609
REMARK UNBOUND:                -1.693
REMARK SMILES CCCCCCCCCCCC(=O)[O-]
REMARK SMILES IDX 7 1 8 2 9 3 10 4 11 5 12 6 13 7 14 8 6 9 5 10 4 11 3 12 2 13
REMARK SMILES IDX 1 14
REMARK H PARENT
REMARK Flexibility Score: inf
ROOT
ATOM      1  C   UNL     1      28.413 -10.869  20.453  1.00  0.00     0.000 C 
ENDROOT
BRANCH   1   2
ATOM      2  C   UNL     1      27.026 -11.034  19.807  1.00  0.00     0.000 C 
BRANCH   2   3
ATOM      3  C   UNL     1      27.013 -10.655  18.316  1.00  0.00     0.000 C 
BRANCH   3   4
ATOM      4  C   UNL     1      26.400  -9.261  18.067  1.00  0.00     0.006 C 
BRANCH   4   5
ATOM      5  C   UNL     1      27.305  -8.331  17.243  1.00  0.00     0.053 C 
BRANCH   5   6
ATOM      6  C   UNL     1      26.937  -8.316  15.792  1.00  0.00     0.041 C 
ATOM      7  O   UNL     1      25.813  -8.742  15.420  1.00  0.00    -0.550 OA
ATOM      8  O   UNL     1      27.827  -7.806  14.855  1.00  0.00    -0.550 OA
ENDBRANCH   5   6
ENDBRANCH   4   5
ENDBRANCH   3   4
ENDBRANCH   2   3
ENDBRANCH   1   2
BRANCH   1   9
ATOM      9  C   UNL     1      28.741  -9.442  20.937  1.00  0.00     0.000 C 
BRANCH   9  10
ATOM     10  C   UNL     1      29.716  -8.656  20.039  1.00  0.00    -0.000 C 
BRANCH  10  11
ATOM     11  C   UNL     1      30.789  -9.512  19.335  1.00  0.00    -0.000 C 
BRANCH  11  12
ATOM     12  C   UNL     1      30.731  -9.489  17.798  1.00  0.00    -0.000 C 
BRANCH  12  13
ATOM     13  C   UNL     1      30.517 -10.883  17.188  1.00  0.00    -0.003 C 
ATOM     14  C   UNL     1      29.830 -10.788  15.829  1.00  0.00     0.004 C 
ENDBRANCH  12  13
ENDBRANCH  11  12
ENDBRANCH  10  11
ENDBRANCH   9  10
ENDBRANCH   1   9
TORSDOF 10
ENDMDL
MODEL 5
REMARK VINA RESULT:    -0.918      3.079      4.970
REMARK INTER + INTRA:          -3.148
REMARK INTER:                  -1.895
REMARK INTRA:                  -1.254
REMARK UNBOUND:                -1.693
REMARK SMILES CCCCCCCCCCCC(=O)[O-]
REMARK SMILES IDX 7 1 8 2 9 3 10 4 11 5 12 6 13 7 14 8 6 9 5 10 4 11 3 12 2 13
REMARK SMILES IDX 1 14
REMARK H PARENT
REMARK Flexibility Score: inf
ROOT
ATOM      1  C   UNL     1      27.229  -9.156  19.032  1.00  0.00     0.000 C 
ENDROOT
BRANCH   1   2
ATOM      2  C   UNL     1      27.765  -9.059  17.592  1.00  0.00     0.000 C 
BRANCH   2   3
ATOM      3  C   UNL     1      28.469 -10.347  17.130  1.00  0.00     0.000 C 
BRANCH   3   4
ATOM      4  C   UNL     1      29.965 -10.367  17.507  1.00  0.00     0.006 C 
BRANCH   4   5
ATOM      5  C   UNL     1      30.861 -10.996  16.427  1.00  0.00     0.053 C 
BRANCH   5   6
ATOM      6  C   UNL     1      30.833 -10.225  15.144  1.00  0.00     0.041 C 
ATOM      7  O   UNL     1      31.125  -9.001  15.134  1.00  0.00    -0.550 OA
ATOM      8  O   UNL     1      30.512 -10.867  13.955  1.00  0.00    -0.550 OA
ENDBRANCH   5   6
ENDBRANCH   4   5
ENDBRANCH   3   4
ENDBRANCH   2   3
ENDBRANCH   1   2
BRANCH   1   9
ATOM      9  C   UNL     1      26.891 -10.583  19.507  1.00  0.00     0.000 C 
BRANCH   9  10
ATOM     10  C   UNL     1      27.703 -11.077  20.720  1.00  0.00    -0.000 C 
BRANCH  10  11
ATOM     11  C   UNL     1      28.334  -9.963  21.580  1.00  0.00    -0.000 C 
BRANCH  11  12
ATOM     12  C   UNL     1      29.822 -10.168  21.918  1.00  0.00    -0.000 C 
BRANCH  12  13
ATOM     13  C   UNL     1      30.761  -9.582  20.854  1.00  0.00    -0.003 C 
ATOM     14  C   UNL     1      30.468  -8.104  20.616  1.00  0.00     0.004 C 
ENDBRANCH  12  13
ENDBRANCH  11  12
ENDBRANCH  10  11
ENDBRANCH   9  10
ENDBRANCH   1   9
TORSDOF 10
ENDMDL
MODEL 6
REMARK VINA RESULT:    -0.894      1.489      2.176
REMARK INTER + INTRA:          -3.110
REMARK INTER:                  -1.687
REMARK INTRA:                  -1.423
REMARK UNBOUND:                -1.693
REMARK SMILES CCCCCCCCCCCC(=O)[O-]
REMARK SMILES IDX 7 1 8 2 9 3 10 4 11 5 12 6 13 7 14 8 6 9 5 10 4 11 3 12 2 13
REMARK SMILES IDX 1 14
REMARK H PARENT
REMARK Flexibility Score: inf
ROOT
ATOM      1  C   UNL     1      27.407  -7.423  16.969  1.00  0.00     0.000 C 
ENDROOT
BRANCH   1   2
ATOM      2  C   UNL     1      26.927  -8.012  18.306  1.00  0.00     0.000 C 
BRANCH   2   3
ATOM      3  C   UNL     1      27.894  -7.725  19.467  1.00  0.00     0.000 C 
BRANCH   3   4
ATOM      4  C   UNL     1      28.170  -8.976  20.327  1.00  0.00     0.006 C 
BRANCH   4   5
ATOM      5  C   UNL     1      29.640  -9.111  20.760  1.00  0.00     0.053 C 
BRANCH   5   6
ATOM      6  C   UNL     1      29.824 -10.127  21.843  1.00  0.00     0.041 C 
ATOM      7  O   UNL     1      28.830 -10.741  22.312  1.00  0.00    -0.550 OA
ATOM      8  O   UNL     1      31.098 -10.415  22.317  1.00  0.00    -0.550 OA
ENDBRANCH   5   6
ENDBRANCH   4   5
ENDBRANCH   3   4
ENDBRANCH   2   3
ENDBRANCH   1   2
BRANCH   1   9
ATOM      9  C   UNL     1      27.318  -8.382  15.764  1.00  0.00     0.000 C 
BRANCH   9  10
ATOM     10  C   UNL     1      27.662  -9.851  16.073  1.00  0.00    -0.000 C 
BRANCH  10  11
ATOM     11  C   UNL     1      29.162 -10.201  15.996  1.00  0.00    -0.000 C 
BRANCH  11  12
ATOM     12  C   UNL     1      29.783 -10.692  17.315  1.00  0.00    -0.000 C 
BRANCH  12  13
ATOM     13  C   UNL     1      31.125 -10.016  17.632  1.00  0.00    -0.003 C 
ATOM     14  C   UNL     1      31.053  -8.512  17.388  1.00  0.00     0.004 C 
ENDBRANCH  12  13
ENDBRANCH  11  12
ENDBRANCH  10  11
ENDBRANCH   9  10
ENDBRANCH   1   9
TORSDOF 10
ENDMDL
MODEL 7
REMARK VINA RESULT:    -0.886      2.305      3.640
REMARK INTER + INTRA:          -3.098
REMARK INTER:                  -1.508
REMARK INTRA:                  -1.590
REMARK UNBOUND:                -1.693
REMARK SMILES CCCCCCCCCCCC(=O)[O-]
REMARK SMILES IDX 7 1 8 2 9 3 10 4 11 5 12 6 13 7 14 8 6 9 5 10 4 11 3 12 2 13
REMARK SMILES IDX 1 14
REMARK H PARENT
REMARK Flexibility Score: inf
ROOT
ATOM      1  C   UNL     1      26.785  -7.647  16.706  1.00  0.00     0.000 C 
ENDROOT
BRANCH   1   2
ATOM      2  C   UNL     1      26.535  -8.527  17.944  1.00  0.00     0.000 C 
BRANCH   2   3
ATOM      3  C   UNL     1      26.724 -10.026  17.659  1.00  0.00     0.000 C 
BRANCH   3   4
ATOM      4  C   UNL     1      27.584 -10.727  18.731  1.00  0.00     0.006 C 
BRANCH   4   5
ATOM      5  C   UNL     1      29.028 -10.999  18.279  1.00  0.00     0.053 C 
BRANCH   5   6
ATOM      6  C   UNL     1      29.986  -9.965  18.780  1.00  0.00     0.041 C 
ATOM      7  O   UNL     1      31.124  -9.848  18.254  1.00  0.00    -0.550 OA
ATOM      8  O   UNL     1      29.613  -9.112  19.811  1.00  0.00    -0.550 OA
ENDBRANCH   5   6
ENDBRANCH   4   5
ENDBRANCH   3   4
ENDBRANCH   2   3
ENDBRANCH   1   2
BRANCH   1   9
ATOM      9  C   UNL     1      28.002  -6.705  16.810  1.00  0.00     0.000 C 
BRANCH   9  10
ATOM     10  C   UNL     1      29.351  -7.338  16.421  1.00  0.00    -0.000 C 
BRANCH  10  11
ATOM     11  C   UNL     1      29.439  -7.848  14.968  1.00  0.00    -0.000 C 
BRANCH  11  12
ATOM     12  C   UNL     1      30.095  -9.231  14.803  1.00  0.00    -0.000 C 
BRANCH  12  13
ATOM     13  C   UNL     1      29.072 -10.374  14.750  1.00  0.00    -0.003 C 
ATOM     14  C   UNL     1      27.812  -9.950  14.000  1.00  0.00     0.004 C 
ENDBRANCH  12  13
ENDBRANCH  11  12
ENDBRANCH  10  11
ENDBRANCH   9  10
ENDBRANCH   1   9
TORSDOF 10
ENDMDL
MODEL 8
REMARK VINA RESULT:    -0.854      2.275      4.110
REMARK INTER + INTRA:          -3.046
REMARK INTER:                  -1.591
REMARK INTRA:                  -1.456
REMARK UNBOUND:                -1.693
REMARK SMILES CCCCCCCCCCCC(=O)[O-]
REMARK SMILES IDX 7 1 8 2 9 3 10 4 11 5 12 6 13 7 14 8 6 9 5 10 4 11 3 12 2 13
REMARK SMILES IDX 1 14
REMARK H PARENT
REMARK Flexibility Score: inf
ROOT
ATOM      1  C   UNL     1      28.286  -8.801  14.879  1.00  0.00     0.000 C 
ENDROOT
BRANCH   1   2
ATOM      2  C   UNL     1      29.207  -7.707  15.450  1.00  0.00     0.000 C 
BRANCH   2   3
ATOM      3  C   UNL     1      28.670  -7.098  16.757  1.00  0.00     0.000 C 
BRANCH   3   4
ATOM      4  C   UNL     1      27.210  -7.510  17.042  1.00  0.00     0.006 C 
BRANCH   4   5
ATOM      5  C   UNL     1      26.953  -7.878  18.512  1.00  0.00     0.053 C 
BRANCH   5   6
ATOM      6  C   UNL     1      26.434  -9.273  18.669  1.00  0.00     0.041 C 
ATOM      7  O   UNL     1      25.777  -9.593  19.693  1.00  0.00    -0.550 OA
ATOM      8  O   UNL     1      26.654 -10.212  17.669  1.00  0.00    -0.550 OA
ENDBRANCH   5   6
ENDBRANCH   4   5
ENDBRANCH   3   4
ENDBRANCH   2   3
ENDBRANCH   1   2
BRANCH   1   9
ATOM      9  C   UNL     1      28.977 -10.149  14.591  1.00  0.00     0.000 C 
BRANCH   9  10
ATOM     10  C   UNL     1      30.464 -10.219  14.988  1.00  0.00    -0.000 C 
BRANCH  10  11
ATOM     11  C   UNL     1      30.776 -11.125  16.196  1.00  0.00    -0.000 C 
BRANCH  11  12
ATOM     12  C   UNL     1      30.011 -10.774  17.485  1.00  0.00    -0.000 C 
BRANCH  12  13
ATOM     13  C   UNL     1      30.716  -9.696  18.322  1.00  0.00    -0.003 C 
ATOM     14  C   UNL     1      30.155  -9.647  19.740  1.00  0.00     0.004 C 
ENDBRANCH  12  13
ENDBRANCH  11  12
ENDBRANCH  10  11
ENDBRANCH   9  10
ENDBRANCH   1   9
TORSDOF 10
ENDMDL
