MODEL 1
REMARK VINA RESULT:    -5.507      0.000      0.000
REMARK INTER + INTRA:         -16.944
REMARK INTER:                 -13.878
REMARK INTRA:                  -3.066
REMARK UNBOUND:                -3.066
REMARK SMILES CCCCCCCCCCCCCCCCCCCCCCCCCCCC(=O)[O-]
REMARK SMILES IDX 15 1 16 2 17 3 18 4 19 5 20 6 21 7 22 8 23 9 24 10 25 11
REMARK SMILES IDX 26 12 27 13 28 14 29 15 30 16 14 17 13 18 12 19 11 20 10 21
REMARK SMILES IDX 9 22 8 23 7 24 6 25 5 26 4 27 3 28 2 29 1 30
REMARK H PARENT
REMARK Flexibility Score: inf
ROOT
ATOM      1  C   UNL     1      20.527  13.015  43.013  1.00  0.00     0.000 C 
ENDROOT
BRANCH   1   2
ATOM      2  C   UNL     1      21.804  13.198  42.173  1.00  0.00     0.000 C 
BRANCH   2   3
ATOM      3  C   UNL     1      23.026  13.728  42.946  1.00  0.00     0.000 C 
BRANCH   3   4
ATOM      4  C   UNL     1      24.143  14.245  42.024  1.00  0.00     0.000 C 
BRANCH   4   5
ATOM      5  C   UNL     1      23.639  15.314  41.039  1.00  0.00     0.000 C 
BRANCH   5   6
ATOM      6  C   UNL     1      23.807  16.739  41.600  1.00  0.00     0.000 C 
BRANCH   6   7
ATOM      7  C   UNL     1      22.500  17.316  42.173  1.00  0.00     0.000 C 
BRANCH   7   8
ATOM      8  C   UNL     1      21.209  16.639  41.671  1.00  0.00     0.000 C 
BRANCH   8   9
ATOM      9  C   UNL     1      19.983  16.800  42.592  1.00  0.00     0.000 C 
BRANCH   9  10
ATOM     10  C   UNL     1      18.695  16.135  42.078  1.00  0.00     0.000 C 
BRANCH  10  11
ATOM     11  C   UNL     1      17.440  16.607  42.826  1.00  0.00     0.000 C 
BRANCH  11  12
ATOM     12  C   UNL     1      16.612  17.569  41.960  1.00  0.00     0.006 C 
BRANCH  12  13
ATOM     13  C   UNL     1      15.154  17.112  41.818  1.00  0.00     0.053 C 
BRANCH  13  14
ATOM     14  C   UNL     1      14.209  18.046  42.509  1.00  0.00     0.041 C 
ATOM     15  O   UNL     1      14.649  19.053  43.125  1.00  0.00    -0.550 OA
ATOM     16  O   UNL     1      12.840  17.824  42.444  1.00  0.00    -0.550 OA
ENDBRANCH  13  14
ENDBRANCH  12  13
ENDBRANCH  11  12
ENDBRANCH  10  11
ENDBRANCH   9  10
ENDBRANCH   8   9
ENDBRANCH   7   8
ENDBRANCH   6   7
ENDBRANCH   5   6
ENDBRANCH   4   5
ENDBRANCH   3   4
ENDBRANCH   2   3
ENDBRANCH   1   2
BRANCH   1  17
ATOM     17  C   UNL     1      20.779  13.149  44.525  1.00  0.00     0.000 C 
BRANCH  17  18
ATOM     18  C   UNL     1      19.469  13.129  45.330  1.00  0.00     0.000 C 
BRANCH  18  19
ATOM     19  C   UNL     1      19.369  11.912  46.267  1.00  0.00     0.000 C 
BRANCH  19  20
ATOM     20  C   UNL     1      20.383  10.812  45.896  1.00  0.00     0.000 C 
BRANCH  20  21
ATOM     21  C   UNL     1      19.734   9.515  45.377  1.00  0.00     0.000 C 
BRANCH  21  22
ATOM     22  C   UNL     1      20.712   8.482  44.782  1.00  0.00    -0.000 C 
BRANCH  22  23
ATOM     23  C   UNL     1      20.736   8.453  43.240  1.00  0.00    -0.000 C 
BRANCH  23  24
ATOM     24  C   UNL     1      21.795   9.398  42.642  1.00  0.00    -0.000 C 
BRANCH  24  25
ATOM     25  C   UNL     1      21.420   9.900  41.237  1.00  0.00    -0.000 C 
BRANCH  25  26
ATOM     26  C   UNL     1      22.002   9.023  40.113  1.00  0.00    -0.000 C 
BRANCH  26  27
ATOM     27  C   UNL     1      20.918   8.575  39.108  1.00  0.00    -0.000 C 
BRANCH  27  28
ATOM     28  C   UNL     1      19.509   9.081  39.459  1.00  0.00    -0.000 C 
BRANCH  28  29
ATOM     29  C   UNL     1      18.669   8.036  40.204  1.00  0.00    -0.003 C 
ATOM     30  C   UNL     1      17.200   8.125  39.795  1.00  0.00     0.004 C 
ENDBRANCH  28  29
ENDBRANCH  27  28
ENDBRANCH  26  27
ENDBRANCH  25  26
ENDBRANCH  24  25
ENDBRANCH  23  24
ENDBRANCH  22  23
ENDBRANCH  21  22
ENDBRANCH  20  21
ENDBRANCH  19  20
ENDBRANCH  18  19
ENDBRANCH  17  18
ENDBRANCH   1  17
TORSDOF 26
ENDMDL
MODEL 2
REMARK VINA RESULT:    -5.218      4.927      8.947
REMARK INTER + INTRA:         -16.215
REMARK INTER:                 -14.825
REMARK INTRA:                  -1.390
REMARK UNBOUND:                -3.066
REMARK SMILES CCCCCCCCCCCCCCCCCCCCCCCCCCCC(=O)[O-]
REMARK SMILES IDX 15 1 16 2 17 3 18 4 19 5 20 6 21 7 22 8 23 9 24 10 25 11
REMARK SMILES IDX 26 12 27 13 28 14 29 15 30 16 14 17 13 18 12 19 11 20 10 21
REMARK SMILES IDX 9 22 8 23 7 24 6 25 5 26 4 27 3 28 2 29 1 30
REMARK H PARENT
REMARK Flexibility Score: inf
ROOT
ATOM      1  C   UNL     1      15.125  18.649  42.461  1.00  0.00     0.000 C 
ENDROOT
BRANCH   1   2
ATOM      2  C   UNL     1      13.651  18.674  42.013  1.00  0.00     0.000 C 
BRANCH   2   3
ATOM      3  C   UNL     1      12.842  17.409  42.352  1.00  0.00     0.000 C 
BRANCH   3   4
ATOM      4  C   UNL     1      11.335  17.573  42.094  1.00  0.00     0.000 C 
BRANCH   4   5
ATOM      5  C   UNL     1      10.603  16.221  42.033  1.00  0.00     0.000 C 
BRANCH   5   6
ATOM      6  C   UNL     1       9.079  16.396  41.900  1.00  0.00     0.000 C 
BRANCH   6   7
ATOM      7  C   UNL     1       8.343  16.290  43.247  1.00  0.00     0.000 C 
BRANCH   7   8
ATOM      8  C   UNL     1       6.804  16.264  43.154  1.00  0.00     0.000 C 
BRANCH   8   9
ATOM      9  C   UNL     1       6.226  15.278  42.119  1.00  0.00     0.000 C 
BRANCH   9  10
ATOM     10  C   UNL     1       6.587  13.802  42.358  1.00  0.00     0.000 C 
BRANCH  10  11
ATOM     11  C   UNL     1       7.100  13.100  41.093  1.00  0.00     0.000 C 
BRANCH  11  12
ATOM     12  C   UNL     1       8.560  12.653  41.264  1.00  0.00     0.006 C 
BRANCH  12  13
ATOM     13  C   UNL     1       8.835  11.300  40.594  1.00  0.00     0.053 C 
BRANCH  13  14
ATOM     14  C   UNL     1       9.503  11.465  39.265  1.00  0.00     0.041 C 
ATOM     15  O   UNL     1       9.661  10.472  38.505  1.00  0.00    -0.550 OA
ATOM     16  O   UNL     1       9.922  12.722  38.847  1.00  0.00    -0.550 OA
ENDBRANCH  13  14
ENDBRANCH  12  13
ENDBRANCH  11  12
ENDBRANCH  10  11
ENDBRANCH   9  10
ENDBRANCH   8   9
ENDBRANCH   7   8
ENDBRANCH   6   7
ENDBRANCH   5   6
ENDBRANCH   4   5
ENDBRANCH   3   4
ENDBRANCH   2   3
ENDBRANCH   1   2
BRANCH   1  17
ATOM     17  C   UNL     1      15.878  17.397  41.974  1.00  0.00     0.000 C 
BRANCH  17  18
ATOM     18  C   UNL     1      17.402  17.594  42.011  1.00  0.00     0.000 C 
BRANCH  18  19
ATOM     19  C   UNL     1      18.138  16.394  42.633  1.00  0.00     0.000 C 
BRANCH  19  20
ATOM     20  C   UNL     1      19.660  16.467  42.401  1.00  0.00     0.000 C 
BRANCH  20  21
ATOM     21  C   UNL     1      20.448  15.320  43.064  1.00  0.00     0.000 C 
BRANCH  21  22
ATOM     22  C   UNL     1      19.993  13.899  42.672  1.00  0.00    -0.000 C 
BRANCH  22  23
ATOM     23  C   UNL     1      21.139  12.867  42.608  1.00  0.00    -0.000 C 
BRANCH  23  24
ATOM     24  C   UNL     1      20.820  11.573  43.382  1.00  0.00    -0.000 C 
BRANCH  24  25
ATOM     25  C   UNL     1      21.569  10.350  42.829  1.00  0.00    -0.000 C 
BRANCH  25  26
ATOM     26  C   UNL     1      20.654   9.392  42.044  1.00  0.00    -0.000 C 
BRANCH  26  27
ATOM     27  C   UNL     1      20.760   9.611  40.518  1.00  0.00    -0.000 C 
BRANCH  27  28
ATOM     28  C   UNL     1      19.415   9.481  39.786  1.00  0.00    -0.000 C 
BRANCH  28  29
ATOM     29  C   UNL     1      18.661   8.195  40.146  1.00  0.00    -0.003 C 
ATOM     30  C   UNL     1      17.302   8.146  39.452  1.00  0.00     0.004 C 
ENDBRANCH  28  29
ENDBRANCH  27  28
ENDBRANCH  26  27
ENDBRANCH  25  26
ENDBRANCH  24  25
ENDBRANCH  23  24
ENDBRANCH  22  23
ENDBRANCH  21  22
ENDBRANCH  20  21
ENDBRANCH  19  20
ENDBRANCH  18  19
ENDBRANCH  17  18
ENDBRANCH   1  17
TORSDOF 26
ENDMDL
MODEL 3
REMARK VINA RESULT:    -5.142      3.891      6.970
REMARK INTER + INTRA:         -16.023
REMARK INTER:                 -14.560
REMARK INTRA:                  -1.463
REMARK UNBOUND:                -3.066
REMARK SMILES CCCCCCCCCCCCCCCCCCCCCCCCCCCC(=O)[O-]
REMARK SMILES IDX 15 1 16 2 17 3 18 4 19 5 20 6 21 7 22 8 23 9 24 10 25 11
REMARK SMILES IDX 26 12 27 13 28 14 29 15 30 16 14 17 13 18 12 19 11 20 10 21
REMARK SMILES IDX 9 22 8 23 7 24 6 25 5 26 4 27 3 28 2 29 1 30
REMARK H PARENT
REMARK Flexibility Score: inf
ROOT
ATOM      1  C   UNL     1      19.522  16.948  42.477  1.00  0.00     0.000 C 
ENDROOT
BRANCH   1   2
ATOM      2  C   UNL     1      18.011  16.671  42.367  1.00  0.00     0.000 C 
BRANCH   2   3
ATOM      3  C   UNL     1      17.123  17.923  42.242  1.00  0.00     0.000 C 
BRANCH   3   4
ATOM      4  C   UNL     1      15.760  17.632  41.593  1.00  0.00     0.000 C 
BRANCH   4   5
ATOM      5  C   UNL     1      14.607  18.363  42.302  1.00  0.00     0.000 C 
BRANCH   5   6
ATOM      6  C   UNL     1      13.505  17.391  42.763  1.00  0.00     0.000 C 
BRANCH   6   7
ATOM      7  C   UNL     1      12.157  17.637  42.061  1.00  0.00     0.000 C 
BRANCH   7   8
ATOM      8  C   UNL     1      11.131  16.495  42.195  1.00  0.00     0.000 C 
BRANCH   8   9
ATOM      9  C   UNL     1       9.660  16.905  41.974  1.00  0.00     0.000 C 
BRANCH   9  10
ATOM     10  C   UNL     1       8.665  15.734  41.904  1.00  0.00     0.000 C 
BRANCH  10  11
ATOM     11  C   UNL     1       9.344  14.392  41.594  1.00  0.00     0.000 C 
BRANCH  11  12
ATOM     12  C   UNL     1       8.735  13.743  40.342  1.00  0.00     0.006 C 
BRANCH  12  13
ATOM     13  C   UNL     1       9.764  12.921  39.555  1.00  0.00     0.053 C 
BRANCH  13  14
ATOM     14  C   UNL     1       9.395  11.472  39.502  1.00  0.00     0.041 C 
ATOM     15  O   UNL     1       9.017  10.873  40.545  1.00  0.00    -0.550 OA
ATOM     16  O   UNL     1       9.433  10.788  38.294  1.00  0.00    -0.550 OA
ENDBRANCH  13  14
ENDBRANCH  12  13
ENDBRANCH  11  12
ENDBRANCH  10  11
ENDBRANCH   9  10
ENDBRANCH   8   9
ENDBRANCH   7   8
ENDBRANCH   6   7
ENDBRANCH   5   6
ENDBRANCH   4   5
ENDBRANCH   3   4
ENDBRANCH   2   3
ENDBRANCH   1   2
BRANCH   1  17
ATOM     17  C   UNL     1      20.373  15.960  41.659  1.00  0.00     0.000 C 
BRANCH  17  18
ATOM     18  C   UNL     1      21.861  16.034  42.037  1.00  0.00     0.000 C 
BRANCH  18  19
ATOM     19  C   UNL     1      22.672  14.847  41.489  1.00  0.00     0.000 C 
BRANCH  19  20
ATOM     20  C   UNL     1      23.339  14.033  42.615  1.00  0.00     0.000 C 
BRANCH  20  21
ATOM     21  C   UNL     1      23.029  12.525  42.561  1.00  0.00     0.000 C 
BRANCH  21  22
ATOM     22  C   UNL     1      21.530  12.159  42.586  1.00  0.00    -0.000 C 
BRANCH  22  23
ATOM     23  C   UNL     1      20.984  11.837  43.992  1.00  0.00    -0.000 C 
BRANCH  23  24
ATOM     24  C   UNL     1      20.592  10.356  44.154  1.00  0.00    -0.000 C 
BRANCH  24  25
ATOM     25  C   UNL     1      21.136   9.469  43.022  1.00  0.00    -0.000 C 
BRANCH  25  26
ATOM     26  C   UNL     1      20.251   8.240  42.745  1.00  0.00    -0.000 C 
BRANCH  26  27
ATOM     27  C   UNL     1      20.023   8.019  41.233  1.00  0.00    -0.000 C 
BRANCH  27  28
ATOM     28  C   UNL     1      19.712   9.313  40.464  1.00  0.00    -0.000 C 
BRANCH  28  29
ATOM     29  C   UNL     1      18.630   9.125  39.393  1.00  0.00    -0.003 C 
ATOM     30  C   UNL     1      17.632   8.048  39.810  1.00  0.00     0.004 C 
ENDBRANCH  28  29
ENDBRANCH  27  28
ENDBRANCH  26  27
ENDBRANCH  25  26
ENDBRANCH  24  25
ENDBRANCH  23  24
ENDBRANCH  22  23
ENDBRANCH  21  22
ENDBRANCH  20  21
ENDBRANCH  19  20
ENDBRANCH  18  19
ENDBRANCH  17  18
ENDBRANCH   1  17
TORSDOF 26
ENDMDL
MODEL 4
REMARK VINA RESULT:    -5.132      6.227     10.107
REMARK INTER + INTRA:         -15.999
REMARK INTER:                 -14.958
REMARK INTRA:                  -1.042
REMARK UNBOUND:                -3.066
REMARK SMILES CCCCCCCCCCCCCCCCCCCCCCCCCCCC(=O)[O-]
REMARK SMILES IDX 15 1 16 2 17 3 18 4 19 5 20 6 21 7 22 8 23 9 24 10 25 11
REMARK SMILES IDX 26 12 27 13 28 14 29 15 30 16 14 17 13 18 12 19 11 20 10 21
REMARK SMILES IDX 9 22 8 23 7 24 6 25 5 26 4 27 3 28 2 29 1 30
REMARK H PARENT
REMARK Flexibility Score: inf
ROOT
ATOM      1  C   UNL     1      11.569  17.623  42.003  1.00  0.00     0.000 C 
ENDROOT
BRANCH   1   2
ATOM      2  C   UNL     1      13.057  17.601  42.400  1.00  0.00     0.000 C 
BRANCH   2   3
ATOM      3  C   UNL     1      13.912  18.731  41.797  1.00  0.00     0.000 C 
BRANCH   3   4
ATOM      4  C   UNL     1      15.342  18.770  42.362  1.00  0.00     0.000 C 
BRANCH   4   5
ATOM      5  C   UNL     1      16.165  17.536  41.952  1.00  0.00     0.000 C 
BRANCH   5   6
ATOM      6  C   UNL     1      17.658  17.701  42.291  1.00  0.00     0.000 C 
BRANCH   6   7
ATOM      7  C   UNL     1      18.419  16.364  42.313  1.00  0.00     0.000 C 
BRANCH   7   8
ATOM      8  C   UNL     1      19.955  16.483  42.254  1.00  0.00     0.000 C 
BRANCH   8   9
ATOM      9  C   UNL     1      20.724  15.160  42.444  1.00  0.00     0.000 C 
BRANCH   9  10
ATOM     10  C   UNL     1      20.153  14.229  43.528  1.00  0.00     0.000 C 
BRANCH  10  11
ATOM     11  C   UNL     1      21.077  13.045  43.844  1.00  0.00     0.000 C 
BRANCH  11  12
ATOM     12  C   UNL     1      20.715  11.820  42.991  1.00  0.00     0.006 C 
BRANCH  12  13
ATOM     13  C   UNL     1      21.274  10.517  43.580  1.00  0.00     0.053 C 
BRANCH  13  14
ATOM     14  C   UNL     1      20.445  10.025  44.725  1.00  0.00     0.041 C 
ATOM     15  O   UNL     1      19.731  10.827  45.384  1.00  0.00    -0.550 OA
ATOM     16  O   UNL     1      20.434   8.674  45.046  1.00  0.00    -0.550 OA
ENDBRANCH  13  14
ENDBRANCH  12  13
ENDBRANCH  11  12
ENDBRANCH  10  11
ENDBRANCH   9  10
ENDBRANCH   8   9
ENDBRANCH   7   8
ENDBRANCH   6   7
ENDBRANCH   5   6
ENDBRANCH   4   5
ENDBRANCH   3   4
ENDBRANCH   2   3
ENDBRANCH   1   2
BRANCH   1  17
ATOM     17  C   UNL     1      10.919  16.228  42.035  1.00  0.00     0.000 C 
BRANCH  17  18
ATOM     18  C   UNL     1       9.411  16.290  41.743  1.00  0.00     0.000 C 
BRANCH  18  19
ATOM     19  C   UNL     1       8.631  15.144  42.411  1.00  0.00     0.000 C 
BRANCH  19  20
ATOM     20  C   UNL     1       9.161  13.761  41.988  1.00  0.00     0.000 C 
BRANCH  20  21
ATOM     21  C   UNL     1       8.270  13.040  40.957  1.00  0.00     0.000 C 
BRANCH  21  22
ATOM     22  C   UNL     1       9.019  12.124  39.967  1.00  0.00    -0.000 C 
BRANCH  22  23
ATOM     23  C   UNL     1       9.011  10.633  40.360  1.00  0.00    -0.000 C 
BRANCH  23  24
ATOM     24  C   UNL     1       7.985  10.313  41.464  1.00  0.00    -0.000 C 
BRANCH  24  25
ATOM     25  C   UNL     1       8.080   8.861  41.962  1.00  0.00    -0.000 C 
BRANCH  25  26
ATOM     26  C   UNL     1       8.888   8.726  43.266  1.00  0.00    -0.000 C 
BRANCH  26  27
ATOM     27  C   UNL     1       9.080  10.088  43.971  1.00  0.00    -0.000 C 
BRANCH  27  28
ATOM     28  C   UNL     1      10.135  10.056  45.088  1.00  0.00    -0.000 C 
BRANCH  28  29
ATOM     29  C   UNL     1      10.486   8.631  45.536  1.00  0.00    -0.003 C 
ATOM     30  C   UNL     1      11.989   8.383  45.437  1.00  0.00     0.004 C 
ENDBRANCH  28  29
ENDBRANCH  27  28
ENDBRANCH  26  27
ENDBRANCH  25  26
ENDBRANCH  24  25
ENDBRANCH  23  24
ENDBRANCH  22  23
ENDBRANCH  21  22
ENDBRANCH  20  21
ENDBRANCH  19  20
ENDBRANCH  18  19
ENDBRANCH  17  18
ENDBRANCH   1  17
TORSDOF 26
ENDMDL
MODEL 5
REMARK VINA RESULT:    -5.107      5.775      9.986
REMARK INTER + INTRA:         -15.934
REMARK INTER:                 -14.663
REMARK INTRA:                  -1.272
REMARK UNBOUND:                -3.066
REMARK SMILES CCCCCCCCCCCCCCCCCCCCCCCCCCCC(=O)[O-]
REMARK SMILES IDX 15 1 16 2 17 3 18 4 19 5 20 6 21 7 22 8 23 9 24 10 25 11
REMARK SMILES IDX 26 12 27 13 28 14 29 15 30 16 14 17 13 18 12 19 11 20 10 21
REMARK SMILES IDX 9 22 8 23 7 24 6 25 5 26 4 27 3 28 2 29 1 30
REMARK H PARENT
REMARK Flexibility Score: inf
ROOT
ATOM      1  C   UNL     1      15.375  18.740  42.324  1.00  0.00     0.000 C 
ENDROOT
BRANCH   1   2
ATOM      2  C   UNL     1      16.180  17.514  41.856  1.00  0.00     0.000 C 
BRANCH   2   3
ATOM      3  C   UNL     1      17.634  17.454  42.360  1.00  0.00     0.000 C 
BRANCH   3   4
ATOM      4  C   UNL     1      18.209  16.028  42.369  1.00  0.00     0.000 C 
BRANCH   4   5
ATOM      5  C   UNL     1      19.699  16.001  42.752  1.00  0.00     0.000 C 
BRANCH   5   6
ATOM      6  C   UNL     1      20.251  14.565  42.819  1.00  0.00     0.000 C 
BRANCH   6   7
ATOM      7  C   UNL     1      20.435  14.060  44.261  1.00  0.00     0.000 C 
BRANCH   7   8
ATOM      8  C   UNL     1      19.582  12.834  44.641  1.00  0.00     0.000 C 
BRANCH   8   9
ATOM      9  C   UNL     1      19.627  12.438  46.130  1.00  0.00     0.000 C 
BRANCH   9  10
ATOM     10  C   UNL     1      19.816  10.935  46.396  1.00  0.00     0.000 C 
BRANCH  10  11
ATOM     11  C   UNL     1      19.924  10.110  45.106  1.00  0.00     0.000 C 
BRANCH  11  12
ATOM     12  C   UNL     1      21.116   9.144  45.167  1.00  0.00     0.006 C 
BRANCH  12  13
ATOM     13  C   UNL     1      22.408   9.844  45.611  1.00  0.00     0.053 C 
BRANCH  13  14
ATOM     14  C   UNL     1      23.155  10.419  44.448  1.00  0.00     0.041 C 
ATOM     15  O   UNL     1      23.085  11.652  44.196  1.00  0.00    -0.550 OA
ATOM     16  O   UNL     1      23.957   9.602  43.663  1.00  0.00    -0.550 OA
ENDBRANCH  13  14
ENDBRANCH  12  13
ENDBRANCH  11  12
ENDBRANCH  10  11
ENDBRANCH   9  10
ENDBRANCH   8   9
ENDBRANCH   7   8
ENDBRANCH   6   7
ENDBRANCH   5   6
ENDBRANCH   4   5
ENDBRANCH   3   4
ENDBRANCH   2   3
ENDBRANCH   1   2
BRANCH   1  17
ATOM     17  C   UNL     1      13.901  18.694  41.882  1.00  0.00     0.000 C 
BRANCH  17  18
ATOM     18  C   UNL     1      13.133  17.548  42.559  1.00  0.00     0.000 C 
BRANCH  18  19
ATOM     19  C   UNL     1      11.635  17.549  42.205  1.00  0.00     0.000 C 
BRANCH  19  20
ATOM     20  C   UNL     1      11.082  16.121  42.031  1.00  0.00     0.000 C 
BRANCH  20  21
ATOM     21  C   UNL     1       9.562  16.068  41.780  1.00  0.00     0.000 C 
BRANCH  21  22
ATOM     22  C   UNL     1       8.903  14.694  42.020  1.00  0.00    -0.000 C 
BRANCH  22  23
ATOM     23  C   UNL     1       9.184  13.659  40.911  1.00  0.00    -0.000 C 
BRANCH  23  24
ATOM     24  C   UNL     1       8.476  12.312  41.159  1.00  0.00    -0.000 C 
BRANCH  24  25
ATOM     25  C   UNL     1       8.531  11.875  42.632  1.00  0.00    -0.000 C 
BRANCH  25  26
ATOM     26  C   UNL     1       8.850  10.378  42.800  1.00  0.00    -0.000 C 
BRANCH  26  27
ATOM     27  C   UNL     1       8.659   9.906  44.259  1.00  0.00    -0.000 C 
BRANCH  27  28
ATOM     28  C   UNL     1       9.946   9.969  45.097  1.00  0.00    -0.000 C 
BRANCH  28  29
ATOM     29  C   UNL     1      10.431   8.585  45.549  1.00  0.00    -0.003 C 
ATOM     30  C   UNL     1      11.940   8.448  45.364  1.00  0.00     0.004 C 
ENDBRANCH  28  29
ENDBRANCH  27  28
ENDBRANCH  26  27
ENDBRANCH  25  26
ENDBRANCH  24  25
ENDBRANCH  23  24
ENDBRANCH  22  23
ENDBRANCH  21  22
ENDBRANCH  20  21
ENDBRANCH  19  20
ENDBRANCH  18  19
ENDBRANCH  17  18
ENDBRANCH   1  17
TORSDOF 26
ENDMDL
MODEL 6
REMARK VINA RESULT:    -5.083      5.737      9.922
REMARK INTER + INTRA:         -15.874
REMARK INTER:                 -14.753
REMARK INTRA:                  -1.121
REMARK UNBOUND:                -3.066
REMARK SMILES CCCCCCCCCCCCCCCCCCCCCCCCCCCC(=O)[O-]
REMARK SMILES IDX 15 1 16 2 17 3 18 4 19 5 20 6 21 7 22 8 23 9 24 10 25 11
REMARK SMILES IDX 26 12 27 13 28 14 29 15 30 16 14 17 13 18 12 19 11 20 10 21
REMARK SMILES IDX 9 22 8 23 7 24 6 25 5 26 4 27 3 28 2 29 1 30
REMARK H PARENT
REMARK Flexibility Score: inf
ROOT
ATOM      1  C   UNL     1      14.599  18.277  41.973  1.00  0.00     0.000 C 
ENDROOT
BRANCH   1   2
ATOM      2  C   UNL     1      15.736  17.324  41.561  1.00  0.00     0.000 C 
BRANCH   2   3
ATOM      3  C   UNL     1      17.122  17.672  42.136  1.00  0.00     0.000 C 
BRANCH   3   4
ATOM      4  C   UNL     1      17.983  16.431  42.424  1.00  0.00     0.000 C 
BRANCH   4   5
ATOM      5  C   UNL     1      19.486  16.755  42.446  1.00  0.00     0.000 C 
BRANCH   5   6
ATOM      6  C   UNL     1      20.301  15.665  43.166  1.00  0.00     0.000 C 
BRANCH   6   7
ATOM      7  C   UNL     1      21.639  15.358  42.471  1.00  0.00     0.000 C 
BRANCH   7   8
ATOM      8  C   UNL     1      22.007  13.864  42.388  1.00  0.00     0.000 C 
BRANCH   8   9
ATOM      9  C   UNL     1      21.018  12.904  43.080  1.00  0.00     0.000 C 
BRANCH   9  10
ATOM     10  C   UNL     1      20.690  11.628  42.285  1.00  0.00     0.000 C 
BRANCH  10  11
ATOM     11  C   UNL     1      21.599  10.447  42.654  1.00  0.00     0.000 C 
BRANCH  11  12
ATOM     12  C   UNL     1      21.126   9.154  41.972  1.00  0.00     0.006 C 
BRANCH  12  13
ATOM     13  C   UNL     1      20.750   9.378  40.501  1.00  0.00     0.053 C 
BRANCH  13  14
ATOM     14  C   UNL     1      19.342   8.956  40.218  1.00  0.00     0.041 C 
ATOM     15  O   UNL     1      18.878   7.904  40.733  1.00  0.00    -0.550 OA
ATOM     16  O   UNL     1      18.529   9.742  39.411  1.00  0.00    -0.550 OA
ENDBRANCH  13  14
ENDBRANCH  12  13
ENDBRANCH  11  12
ENDBRANCH  10  11
ENDBRANCH   9  10
ENDBRANCH   8   9
ENDBRANCH   7   8
ENDBRANCH   6   7
ENDBRANCH   5   6
ENDBRANCH   4   5
ENDBRANCH   3   4
ENDBRANCH   2   3
ENDBRANCH   1   2
BRANCH   1  17
ATOM     17  C   UNL     1      13.477  17.569  42.755  1.00  0.00     0.000 C 
BRANCH  17  18
ATOM     18  C   UNL     1      12.115  17.705  42.056  1.00  0.00     0.000 C 
BRANCH  18  19
ATOM     19  C   UNL     1      11.221  16.468  42.254  1.00  0.00     0.000 C 
BRANCH  19  20
ATOM     20  C   UNL     1       9.791  16.698  41.727  1.00  0.00     0.000 C 
BRANCH  20  21
ATOM     21  C   UNL     1       8.687  16.276  42.715  1.00  0.00     0.000 C 
BRANCH  21  22
ATOM     22  C   UNL     1       7.883  15.024  42.307  1.00  0.00    -0.000 C 
BRANCH  22  23
ATOM     23  C   UNL     1       8.709  13.966  41.546  1.00  0.00    -0.000 C 
BRANCH  23  24
ATOM     24  C   UNL     1       8.908  12.670  42.356  1.00  0.00    -0.000 C 
BRANCH  24  25
ATOM     25  C   UNL     1       7.859  11.595  42.025  1.00  0.00    -0.000 C 
BRANCH  25  26
ATOM     26  C   UNL     1       7.638  10.599  43.179  1.00  0.00    -0.000 C 
BRANCH  26  27
ATOM     27  C   UNL     1       8.883   9.720  43.431  1.00  0.00    -0.000 C 
BRANCH  27  28
ATOM     28  C   UNL     1       9.120   9.405  44.917  1.00  0.00    -0.000 C 
BRANCH  28  29
ATOM     29  C   UNL     1      10.530   9.781  45.389  1.00  0.00    -0.003 C 
ATOM     30  C   UNL     1      11.443   8.557  45.411  1.00  0.00     0.004 C 
ENDBRANCH  28  29
ENDBRANCH  27  28
ENDBRANCH  26  27
ENDBRANCH  25  26
ENDBRANCH  24  25
ENDBRANCH  23  24
ENDBRANCH  22  23
ENDBRANCH  21  22
ENDBRANCH  20  21
ENDBRANCH  19  20
ENDBRANCH  18  19
ENDBRANCH  17  18
ENDBRANCH   1  17
TORSDOF 26
ENDMDL
MODEL 7
REMARK VINA RESULT:    -5.055      5.340      9.085
REMARK INTER + INTRA:         -15.803
REMARK INTER:                 -14.687
REMARK INTRA:                  -1.117
REMARK UNBOUND:                -3.066
REMARK SMILES CCCCCCCCCCCCCCCCCCCCCCCCCCCC(=O)[O-]
REMARK SMILES IDX 15 1 16 2 17 3 18 4 19 5 20 6 21 7 22 8 23 9 24 10 25 11
REMARK SMILES IDX 26 12 27 13 28 14 29 15 30 16 14 17 13 18 12 19 11 20 10 21
REMARK SMILES IDX 9 22 8 23 7 24 6 25 5 26 4 27 3 28 2 29 1 30
REMARK H PARENT
REMARK Flexibility Score: inf
ROOT
ATOM      1  C   UNL     1      14.709  18.331  42.041  1.00  0.00     0.000 C 
ENDROOT
BRANCH   1   2
ATOM      2  C   UNL     1      13.500  17.667  42.725  1.00  0.00     0.000 C 
BRANCH   2   3
ATOM      3  C   UNL     1      12.175  17.759  41.945  1.00  0.00     0.000 C 
BRANCH   3   4
ATOM      4  C   UNL     1      11.229  16.579  42.225  1.00  0.00     0.000 C 
BRANCH   4   5
ATOM      5  C   UNL     1       9.773  16.894  41.842  1.00  0.00     0.000 C 
BRANCH   5   6
ATOM      6  C   UNL     1       8.963  15.616  41.556  1.00  0.00     0.000 C 
BRANCH   6   7
ATOM      7  C   UNL     1       9.837  14.351  41.503  1.00  0.00     0.000 C 
BRANCH   7   8
ATOM      8  C   UNL     1       9.223  13.161  40.738  1.00  0.00     0.000 C 
BRANCH   8   9
ATOM      9  C   UNL     1       7.937  12.577  41.356  1.00  0.00     0.000 C 
BRANCH   9  10
ATOM     10  C   UNL     1       7.979  11.064  41.630  1.00  0.00     0.000 C 
BRANCH  10  11
ATOM     11  C   UNL     1       7.973  10.729  43.129  1.00  0.00     0.000 C 
BRANCH  11  12
ATOM     12  C   UNL     1       8.673   9.387  43.396  1.00  0.00     0.006 C 
BRANCH  12  13
ATOM     13  C   UNL     1       8.884   9.132  44.894  1.00  0.00     0.053 C 
BRANCH  13  14
ATOM     14  C   UNL     1      10.290   9.426  45.315  1.00  0.00     0.041 C 
ATOM     15  O   UNL     1      10.711  10.614  45.336  1.00  0.00    -0.550 OA
ATOM     16  O   UNL     1      11.127   8.394  45.717  1.00  0.00    -0.550 OA
ENDBRANCH  13  14
ENDBRANCH  12  13
ENDBRANCH  11  12
ENDBRANCH  10  11
ENDBRANCH   9  10
ENDBRANCH   8   9
ENDBRANCH   7   8
ENDBRANCH   6   7
ENDBRANCH   5   6
ENDBRANCH   4   5
ENDBRANCH   3   4
ENDBRANCH   2   3
ENDBRANCH   1   2
BRANCH   1  17
ATOM     17  C   UNL     1      15.795  17.320  41.628  1.00  0.00     0.000 C 
BRANCH  17  18
ATOM     18  C   UNL     1      17.159  17.654  42.253  1.00  0.00     0.000 C 
BRANCH  18  19
ATOM     19  C   UNL     1      18.048  16.412  42.433  1.00  0.00     0.000 C 
BRANCH  19  20
ATOM     20  C   UNL     1      19.543  16.739  42.249  1.00  0.00     0.000 C 
BRANCH  20  21
ATOM     21  C   UNL     1      20.491  15.686  42.854  1.00  0.00     0.000 C 
BRANCH  21  22
ATOM     22  C   UNL     1      19.798  14.450  43.464  1.00  0.00    -0.000 C 
BRANCH  22  23
ATOM     23  C   UNL     1      20.290  13.105  42.891  1.00  0.00    -0.000 C 
BRANCH  23  24
ATOM     24  C   UNL     1      21.218  12.348  43.861  1.00  0.00    -0.000 C 
BRANCH  24  25
ATOM     25  C   UNL     1      21.600  10.950  43.348  1.00  0.00    -0.000 C 
BRANCH  25  26
ATOM     26  C   UNL     1      21.662  10.871  41.811  1.00  0.00    -0.000 C 
BRANCH  26  27
ATOM     27  C   UNL     1      21.084   9.542  41.276  1.00  0.00    -0.000 C 
BRANCH  27  28
ATOM     28  C   UNL     1      19.754   9.710  40.525  1.00  0.00    -0.000 C 
BRANCH  28  29
ATOM     29  C   UNL     1      19.287   8.418  39.842  1.00  0.00    -0.003 C 
ATOM     30  C   UNL     1      17.791   8.468  39.544  1.00  0.00     0.004 C 
ENDBRANCH  28  29
ENDBRANCH  27  28
ENDBRANCH  26  27
ENDBRANCH  25  26
ENDBRANCH  24  25
ENDBRANCH  23  24
ENDBRANCH  22  23
ENDBRANCH  21  22
ENDBRANCH  20  21
ENDBRANCH  19  20
ENDBRANCH  18  19
ENDBRANCH  17  18
ENDBRANCH   1  17
TORSDOF 26
ENDMDL
MODEL 8
REMARK VINA RESULT:    -5.040      5.747      9.902
REMARK INTER + INTRA:         -15.766
REMARK INTER:                 -14.597
REMARK INTRA:                  -1.169
REMARK UNBOUND:                -3.066
REMARK SMILES CCCCCCCCCCCCCCCCCCCCCCCCCCCC(=O)[O-]
REMARK SMILES IDX 15 1 16 2 17 3 18 4 19 5 20 6 21 7 22 8 23 9 24 10 25 11
REMARK SMILES IDX 26 12 27 13 28 14 29 15 30 16 14 17 13 18 12 19 11 20 10 21
REMARK SMILES IDX 9 22 8 23 7 24 6 25 5 26 4 27 3 28 2 29 1 30
REMARK H PARENT
REMARK Flexibility Score: inf
ROOT
ATOM      1  C   UNL     1      13.967  18.472  42.814  1.00  0.00     0.000 C 
ENDROOT
BRANCH   1   2
ATOM      2  C   UNL     1      15.299  18.636  42.059  1.00  0.00     0.000 C 
BRANCH   2   3
ATOM      3  C   UNL     1      16.133  17.350  41.914  1.00  0.00     0.000 C 
BRANCH   3   4
ATOM      4  C   UNL     1      17.632  17.572  42.173  1.00  0.00     0.000 C 
BRANCH   4   5
ATOM      5  C   UNL     1      18.401  16.249  42.323  1.00  0.00     0.000 C 
BRANCH   5   6
ATOM      6  C   UNL     1      19.897  16.480  42.610  1.00  0.00     0.000 C 
BRANCH   6   7
ATOM      7  C   UNL     1      20.771  15.265  42.255  1.00  0.00     0.000 C 
BRANCH   7   8
ATOM      8  C   UNL     1      20.220  13.902  42.721  1.00  0.00     0.000 C 
BRANCH   8   9
ATOM      9  C   UNL     1      21.242  12.747  42.724  1.00  0.00     0.000 C 
BRANCH   9  10
ATOM     10  C   UNL     1      20.749  11.445  42.070  1.00  0.00     0.000 C 
BRANCH  10  11
ATOM     11  C   UNL     1      21.057  10.200  42.915  1.00  0.00     0.000 C 
BRANCH  11  12
ATOM     12  C   UNL     1      22.102  10.513  43.996  1.00  0.00     0.006 C 
BRANCH  12  13
ATOM     13  C   UNL     1      21.676  10.004  45.380  1.00  0.00     0.053 C 
BRANCH  13  14
ATOM     14  C   UNL     1      20.206  10.173  45.606  1.00  0.00     0.041 C 
ATOM     15  O   UNL     1      19.460   9.164  45.719  1.00  0.00    -0.550 OA
ATOM     16  O   UNL     1      19.663  11.445  45.726  1.00  0.00    -0.550 OA
ENDBRANCH  13  14
ENDBRANCH  12  13
ENDBRANCH  11  12
ENDBRANCH  10  11
ENDBRANCH   9  10
ENDBRANCH   8   9
ENDBRANCH   7   8
ENDBRANCH   6   7
ENDBRANCH   5   6
ENDBRANCH   4   5
ENDBRANCH   3   4
ENDBRANCH   2   3
ENDBRANCH   1   2
BRANCH   1  17
ATOM     17  C   UNL     1      13.175  17.228  42.370  1.00  0.00     0.000 C 
BRANCH  17  18
ATOM     18  C   UNL     1      11.694  17.551  42.116  1.00  0.00     0.000 C 
BRANCH  18  19
ATOM     19  C   UNL     1      10.807  16.294  42.113  1.00  0.00     0.000 C 
BRANCH  19  20
ATOM     20  C   UNL     1       9.361  16.609  41.683  1.00  0.00     0.000 C 
BRANCH  20  21
ATOM     21  C   UNL     1       8.532  15.361  41.321  1.00  0.00     0.000 C 
BRANCH  21  22
ATOM     22  C   UNL     1       8.355  14.335  42.459  1.00  0.00    -0.000 C 
BRANCH  22  23
ATOM     23  C   UNL     1       8.972  12.953  42.163  1.00  0.00    -0.000 C 
BRANCH  23  24
ATOM     24  C   UNL     1       7.913  11.837  42.060  1.00  0.00    -0.000 C 
BRANCH  24  25
ATOM     25  C   UNL     1       8.370  10.664  41.178  1.00  0.00    -0.000 C 
BRANCH  25  26
ATOM     26  C   UNL     1       8.596   9.367  41.976  1.00  0.00    -0.000 C 
BRANCH  26  27
ATOM     27  C   UNL     1       8.594   9.618  43.501  1.00  0.00    -0.000 C 
BRANCH  27  28
ATOM     28  C   UNL     1       9.315   8.523  44.303  1.00  0.00    -0.000 C 
BRANCH  28  29
ATOM     29  C   UNL     1      10.183   9.087  45.436  1.00  0.00    -0.003 C 
ATOM     30  C   UNL     1      11.584   8.482  45.403  1.00  0.00     0.004 C 
ENDBRANCH  28  29
ENDBRANCH  27  28
ENDBRANCH  26  27
ENDBRANCH  25  26
ENDBRANCH  24  25
ENDBRANCH  23  24
ENDBRANCH  22  23
ENDBRANCH  21  22
ENDBRANCH  20  21
ENDBRANCH  19  20
ENDBRANCH  18  19
ENDBRANCH  17  18
ENDBRANCH   1  17
TORSDOF 26
ENDMDL
MODEL 9
REMARK VINA RESULT:    -5.032      5.485      9.767
REMARK INTER + INTRA:         -15.745
REMARK INTER:                 -14.295
REMARK INTRA:                  -1.451
REMARK UNBOUND:                -3.066
REMARK SMILES CCCCCCCCCCCCCCCCCCCCCCCCCCCC(=O)[O-]
REMARK SMILES IDX 15 1 16 2 17 3 18 4 19 5 20 6 21 7 22 8 23 9 24 10 25 11
REMARK SMILES IDX 26 12 27 13 28 14 29 15 30 16 14 17 13 18 12 19 11 20 10 21
REMARK SMILES IDX 9 22 8 23 7 24 6 25 5 26 4 27 3 28 2 29 1 30
REMARK H PARENT
REMARK Flexibility Score: inf
ROOT
ATOM      1  C   UNL     1      13.511  17.583  42.749  1.00  0.00     0.000 C 
ENDROOT
BRANCH   1   2
ATOM      2  C   UNL     1      12.161  17.774  42.034  1.00  0.00     0.000 C 
BRANCH   2   3
ATOM      3  C   UNL     1      11.224  16.551  42.067  1.00  0.00     0.000 C 
BRANCH   3   4
ATOM      4  C   UNL     1       9.735  16.934  42.046  1.00  0.00     0.000 C 
BRANCH   4   5
ATOM      5  C   UNL     1       8.835  15.755  41.643  1.00  0.00     0.000 C 
BRANCH   5   6
ATOM      6  C   UNL     1       9.566  14.404  41.761  1.00  0.00     0.000 C 
BRANCH   6   7
ATOM      7  C   UNL     1       8.616  13.232  42.064  1.00  0.00     0.000 C 
BRANCH   7   8
ATOM      8  C   UNL     1       8.600  12.111  41.006  1.00  0.00     0.000 C 
BRANCH   8   9
ATOM      9  C   UNL     1       9.355  12.430  39.700  1.00  0.00     0.000 C 
BRANCH   9  10
ATOM     10  C   UNL     1       9.938  11.206  38.973  1.00  0.00     0.000 C 
BRANCH  10  11
ATOM     11  C   UNL     1       8.890  10.117  38.703  1.00  0.00     0.000 C 
BRANCH  11  12
ATOM     12  C   UNL     1       9.214   8.834  39.483  1.00  0.00     0.006 C 
BRANCH  12  13
ATOM     13  C   UNL     1       7.978   8.248  40.177  1.00  0.00     0.053 C 
BRANCH  13  14
ATOM     14  C   UNL     1       8.008   8.480  41.655  1.00  0.00     0.041 C 
ATOM     15  O   UNL     1       9.060   8.894  42.212  1.00  0.00    -0.550 OA
ATOM     16  O   UNL     1       6.864   8.273  42.415  1.00  0.00    -0.550 OA
ENDBRANCH  13  14
ENDBRANCH  12  13
ENDBRANCH  11  12
ENDBRANCH  10  11
ENDBRANCH   9  10
ENDBRANCH   8   9
ENDBRANCH   7   8
ENDBRANCH   6   7
ENDBRANCH   5   6
ENDBRANCH   4   5
ENDBRANCH   3   4
ENDBRANCH   2   3
ENDBRANCH   1   2
BRANCH   1  17
ATOM     17  C   UNL     1      14.635  18.447  42.149  1.00  0.00     0.000 C 
BRANCH  17  18
ATOM     18  C   UNL     1      15.772  17.589  41.570  1.00  0.00     0.000 C 
BRANCH  18  19
ATOM     19  C   UNL     1      17.108  17.805  42.301  1.00  0.00     0.000 C 
BRANCH  19  20
ATOM     20  C   UNL     1      17.989  16.540  42.281  1.00  0.00     0.000 C 
BRANCH  20  21
ATOM     21  C   UNL     1      19.501  16.832  42.339  1.00  0.00     0.000 C 
BRANCH  21  22
ATOM     22  C   UNL     1      20.364  15.711  42.954  1.00  0.00    -0.000 C 
BRANCH  22  23
ATOM     23  C   UNL     1      19.639  14.354  43.076  1.00  0.00    -0.000 C 
BRANCH  23  24
ATOM     24  C   UNL     1      20.539  13.162  42.696  1.00  0.00    -0.000 C 
BRANCH  24  25
ATOM     25  C   UNL     1      20.522  12.044  43.752  1.00  0.00    -0.000 C 
BRANCH  25  26
ATOM     26  C   UNL     1      20.980  10.685  43.192  1.00  0.00    -0.000 C 
BRANCH  26  27
ATOM     27  C   UNL     1      21.721  10.833  41.845  1.00  0.00    -0.000 C 
BRANCH  27  28
ATOM     28  C   UNL     1      21.473   9.666  40.876  1.00  0.00    -0.000 C 
BRANCH  28  29
ATOM     29  C   UNL     1      20.019   9.179  40.890  1.00  0.00    -0.003 C 
ATOM     30  C   UNL     1      19.253   9.712  39.681  1.00  0.00     0.004 C 
ENDBRANCH  28  29
ENDBRANCH  27  28
ENDBRANCH  26  27
ENDBRANCH  25  26
ENDBRANCH  24  25
ENDBRANCH  23  24
ENDBRANCH  22  23
ENDBRANCH  21  22
ENDBRANCH  20  21
ENDBRANCH  19  20
ENDBRANCH  18  19
ENDBRANCH  17  18
ENDBRANCH   1  17
TORSDOF 26
ENDMDL
