MODEL 1
REMARK VINA RESULT:    -3.612      0.000      0.000
REMARK INTER + INTRA:          -4.933
REMARK INTER:                  -4.456
REMARK INTRA:                  -0.477
REMARK UNBOUND:                -0.477
REMARK SMILES C=CC[C@H](C)C(=O)CC
REMARK SMILES IDX 4 1 5 2 6 3 7 4 8 5 9 6 3 7 2 8 1 9
REMARK H PARENT
REMARK Flexibility Score: inf
ROOT
ATOM      1  C   UNL     1       9.054 118.568  19.919  1.00  0.00     0.057 C 
ATOM      2  C   UNL     1       9.061 119.986  19.333  1.00  0.00     0.016 C 
ENDROOT
BRANCH   1   3
ATOM      3  C   UNL     1       9.931 117.660  19.083  1.00  0.00     0.135 C 
ATOM      4  O   UNL     1       9.983 116.465  19.339  1.00  0.00    -0.299 OA
BRANCH   3   5
ATOM      5  C   UNL     1      10.742 118.199  17.934  1.00  0.00     0.072 C 
ATOM      6  C   UNL     1      10.172 117.725  16.602  1.00  0.00     0.012 C 
ENDBRANCH   3   5
ENDBRANCH   1   3
BRANCH   1   7
ATOM      7  C   UNL     1       7.625 117.990  19.998  1.00  0.00     0.038 C 
BRANCH   7   8
ATOM      8  C   UNL     1       6.773 118.406  18.827  1.00  0.00    -0.034 C 
ATOM      9  C   UNL     1       6.605 117.615  17.763  1.00  0.00     0.004 C 
ENDBRANCH   7   8
ENDBRANCH   1   7
TORSDOF 4
ENDMDL
MODEL 2
REMARK VINA RESULT:    -3.489      1.345      3.313
REMARK INTER + INTRA:          -4.781
REMARK INTER:                  -4.386
REMARK INTRA:                  -0.395
REMARK UNBOUND:                -0.477
REMARK SMILES C=CC[C@H](C)C(=O)CC
REMARK SMILES IDX 4 1 5 2 6 3 7 4 8 5 9 6 3 7 2 8 1 9
REMARK H PARENT
REMARK Flexibility Score: inf
ROOT
ATOM      1  C   UNL     1       9.560 117.981  20.036  1.00  0.00     0.057 C 
ATOM      2  C   UNL     1       9.959 116.509  19.870  1.00  0.00     0.016 C 
ENDROOT
BRANCH   1   3
ATOM      3  C   UNL     1       8.058 118.094  20.198  1.00  0.00     0.135 C 
ATOM      4  O   UNL     1       7.529 117.704  21.229  1.00  0.00    -0.299 OA
BRANCH   3   5
ATOM      5  C   UNL     1       7.199 118.684  19.112  1.00  0.00     0.072 C 
ATOM      6  C   UNL     1       6.820 117.623  18.085  1.00  0.00     0.012 C 
ENDBRANCH   3   5
ENDBRANCH   1   3
BRANCH   1   7
ATOM      7  C   UNL     1      10.024 118.838  18.839  1.00  0.00     0.038 C 
BRANCH   7   8
ATOM      8  C   UNL     1      10.787 118.033  17.819  1.00  0.00    -0.034 C 
ATOM      9  C   UNL     1      10.420 117.995  16.535  1.00  0.00     0.004 C 
ENDBRANCH   7   8
ENDBRANCH   1   7
TORSDOF 4
ENDMDL
MODEL 3
REMARK VINA RESULT:    -3.483      1.369      3.171
REMARK INTER + INTRA:          -4.774
REMARK INTER:                  -4.305
REMARK INTRA:                  -0.469
REMARK UNBOUND:                -0.477
REMARK SMILES C=CC[C@H](C)C(=O)CC
REMARK SMILES IDX 4 1 5 2 6 3 7 4 8 5 9 6 3 7 2 8 1 9
REMARK H PARENT
REMARK Flexibility Score: inf
ROOT
ATOM      1  C   UNL     1       8.967 119.575  19.382  1.00  0.00     0.057 C 
ATOM      2  C   UNL     1       9.097 120.908  20.131  1.00  0.00     0.016 C 
ENDROOT
BRANCH   1   3
ATOM      3  C   UNL     1       7.700 118.865  19.809  1.00  0.00     0.135 C 
ATOM      4  O   UNL     1       7.629 118.372  20.926  1.00  0.00    -0.299 OA
BRANCH   3   5
ATOM      5  C   UNL     1       6.516 118.757  18.884  1.00  0.00     0.072 C 
ATOM      6  C   UNL     1       6.712 117.623  17.884  1.00  0.00     0.012 C 
ENDBRANCH   3   5
ENDBRANCH   1   3
BRANCH   1   7
ATOM      7  C   UNL     1      10.187 118.661  19.624  1.00  0.00     0.038 C 
BRANCH   7   8
ATOM      8  C   UNL     1      10.492 117.786  18.436  1.00  0.00    -0.034 C 
ATOM      9  C   UNL     1      10.362 118.231  17.183  1.00  0.00     0.004 C 
ENDBRANCH   7   8
ENDBRANCH   1   7
TORSDOF 4
ENDMDL
MODEL 4
REMARK VINA RESULT:    -3.451      1.911      3.780
REMARK INTER + INTRA:          -4.735
REMARK INTER:                  -4.469
REMARK INTRA:                  -0.266
REMARK UNBOUND:                -0.477
REMARK SMILES C=CC[C@H](C)C(=O)CC
REMARK SMILES IDX 4 1 5 2 6 3 7 4 8 5 9 6 3 7 2 8 1 9
REMARK H PARENT
REMARK Flexibility Score: inf
ROOT
ATOM      1  C   UNL     1       8.111 117.820  19.234  1.00  0.00     0.057 C 
ATOM      2  C   UNL     1       6.929 117.709  18.261  1.00  0.00     0.016 C 
ENDROOT
BRANCH   1   3
ATOM      3  C   UNL     1       7.642 118.401  20.551  1.00  0.00     0.135 C 
ATOM      4  O   UNL     1       7.118 119.506  20.574  1.00  0.00    -0.299 OA
BRANCH   3   5
ATOM      5  C   UNL     1       7.803 117.640  21.841  1.00  0.00     0.072 C 
ATOM      6  C   UNL     1       9.190 117.014  21.929  1.00  0.00     0.012 C 
ENDBRANCH   3   5
ENDBRANCH   1   3
BRANCH   1   7
ATOM      7  C   UNL     1       9.249 118.687  18.654  1.00  0.00     0.038 C 
BRANCH   7   8
ATOM      8  C   UNL     1      10.271 117.867  17.910  1.00  0.00    -0.034 C 
ATOM      9  C   UNL     1      10.472 118.016  16.597  1.00  0.00     0.004 C 
ENDBRANCH   7   8
ENDBRANCH   1   7
TORSDOF 4
ENDMDL
MODEL 5
REMARK VINA RESULT:    -3.437      1.807      3.818
REMARK INTER + INTRA:          -4.718
REMARK INTER:                  -4.230
REMARK INTRA:                  -0.488
REMARK UNBOUND:                -0.477
REMARK SMILES C=CC[C@H](C)C(=O)CC
REMARK SMILES IDX 4 1 5 2 6 3 7 4 8 5 9 6 3 7 2 8 1 9
REMARK H PARENT
REMARK Flexibility Score: inf
ROOT
ATOM      1  C   UNL     1       8.108 117.774  18.917  1.00  0.00     0.057 C 
ATOM      2  C   UNL     1       6.806 117.700  18.109  1.00  0.00     0.016 C 
ENDROOT
BRANCH   1   3
ATOM      3  C   UNL     1       8.132 119.044  19.742  1.00  0.00     0.135 C 
ATOM      4  O   UNL     1       8.474 120.097  19.222  1.00  0.00    -0.299 OA
BRANCH   3   5
ATOM      5  C   UNL     1       7.738 119.038  21.195  1.00  0.00     0.072 C 
ATOM      6  C   UNL     1       7.824 117.630  21.773  1.00  0.00     0.012 C 
ENDBRANCH   3   5
ENDBRANCH   1   3
BRANCH   1   7
ATOM      7  C   UNL     1       9.351 117.718  18.004  1.00  0.00     0.038 C 
BRANCH   7   8
ATOM      8  C   UNL     1      10.553 117.141  18.706  1.00  0.00    -0.034 C 
ATOM      9  C   UNL     1      10.461 116.054  19.478  1.00  0.00     0.004 C 
ENDBRANCH   7   8
ENDBRANCH   1   7
TORSDOF 4
ENDMDL
MODEL 6
REMARK VINA RESULT:    -3.389      1.955      3.787
REMARK INTER + INTRA:          -4.658
REMARK INTER:                  -4.394
REMARK INTRA:                  -0.264
REMARK UNBOUND:                -0.477
REMARK SMILES C=CC[C@H](C)C(=O)CC
REMARK SMILES IDX 4 1 5 2 6 3 7 4 8 5 9 6 3 7 2 8 1 9
REMARK H PARENT
REMARK Flexibility Score: inf
ROOT
ATOM      1  C   UNL     1       9.901 117.363  18.040  1.00  0.00     0.057 C 
ATOM      2  C   UNL     1      10.476 117.944  16.742  1.00  0.00     0.016 C 
ENDROOT
BRANCH   1   3
ATOM      3  C   UNL     1       9.081 118.414  18.757  1.00  0.00     0.135 C 
ATOM      4  O   UNL     1       9.541 119.535  18.919  1.00  0.00    -0.299 OA
BRANCH   3   5
ATOM      5  C   UNL     1       7.700 118.108  19.273  1.00  0.00     0.072 C 
ATOM      6  C   UNL     1       6.771 117.712  18.131  1.00  0.00     0.012 C 
ENDBRANCH   3   5
ENDBRANCH   1   3
BRANCH   1   7
ATOM      7  C   UNL     1      11.014 116.839  18.974  1.00  0.00     0.038 C 
BRANCH   7   8
ATOM      8  C   UNL     1      10.905 115.356  19.219  1.00  0.00    -0.034 C 
ATOM      9  C   UNL     1      11.465 114.464  18.397  1.00  0.00     0.004 C 
ENDBRANCH   7   8
ENDBRANCH   1   7
TORSDOF 4
ENDMDL
MODEL 7
REMARK VINA RESULT:    -3.370      1.587      3.277
REMARK INTER + INTRA:          -4.635
REMARK INTER:                  -4.207
REMARK INTRA:                  -0.427
REMARK UNBOUND:                -0.477
REMARK SMILES C=CC[C@H](C)C(=O)CC
REMARK SMILES IDX 4 1 5 2 6 3 7 4 8 5 9 6 3 7 2 8 1 9
REMARK H PARENT
REMARK Flexibility Score: inf
ROOT
ATOM      1  C   UNL     1       8.159 117.538  19.606  1.00  0.00     0.057 C 
ATOM      2  C   UNL     1       7.069 117.932  18.601  1.00  0.00     0.016 C 
ENDROOT
BRANCH   1   3
ATOM      3  C   UNL     1       8.310 118.619  20.655  1.00  0.00     0.135 C 
ATOM      4  O   UNL     1       7.514 118.680  21.582  1.00  0.00    -0.299 OA
BRANCH   3   5
ATOM      5  C   UNL     1       9.429 119.624  20.584  1.00  0.00     0.072 C 
ATOM      6  C   UNL     1       9.011 120.842  19.768  1.00  0.00     0.012 C 
ENDBRANCH   3   5
ENDBRANCH   1   3
BRANCH   1   7
ATOM      7  C   UNL     1       9.515 117.288  18.912  1.00  0.00     0.038 C 
BRANCH   7   8
ATOM      8  C   UNL     1       9.492 117.676  17.456  1.00  0.00    -0.034 C 
ATOM      9  C   UNL     1      10.591 118.103  16.825  1.00  0.00     0.004 C 
ENDBRANCH   7   8
ENDBRANCH   1   7
TORSDOF 4
ENDMDL
MODEL 8
REMARK VINA RESULT:    -3.348      1.649      3.416
REMARK INTER + INTRA:          -4.607
REMARK INTER:                  -4.230
REMARK INTRA:                  -0.377
REMARK UNBOUND:                -0.477
REMARK SMILES C=CC[C@H](C)C(=O)CC
REMARK SMILES IDX 4 1 5 2 6 3 7 4 8 5 9 6 3 7 2 8 1 9
REMARK H PARENT
REMARK Flexibility Score: inf
ROOT
ATOM      1  C   UNL     1       9.202 117.675  19.725  1.00  0.00     0.057 C 
ATOM      2  C   UNL     1      10.064 116.414  19.871  1.00  0.00     0.016 C 
ENDROOT
BRANCH   1   3
ATOM      3  C   UNL     1       8.538 117.692  18.365  1.00  0.00     0.135 C 
ATOM      4  O   UNL     1       9.228 117.716  17.355  1.00  0.00    -0.299 OA
BRANCH   3   5
ATOM      5  C   UNL     1       7.039 117.674  18.227  1.00  0.00     0.072 C 
ATOM      6  C   UNL     1       6.421 118.906  18.879  1.00  0.00     0.012 C 
ENDBRANCH   3   5
ENDBRANCH   1   3
BRANCH   1   7
ATOM      7  C   UNL     1      10.033 118.961  19.919  1.00  0.00     0.038 C 
BRANCH   7   8
ATOM      8  C   UNL     1       9.460 119.859  20.986  1.00  0.00    -0.034 C 
ATOM      9  C   UNL     1       8.966 121.066  20.697  1.00  0.00     0.004 C 
ENDBRANCH   7   8
ENDBRANCH   1   7
TORSDOF 4
ENDMDL
MODEL 9
REMARK VINA RESULT:    -3.264      1.823      2.483
REMARK INTER + INTRA:          -4.504
REMARK INTER:                  -4.255
REMARK INTRA:                  -0.250
REMARK UNBOUND:                -0.477
REMARK SMILES C=CC[C@H](C)C(=O)CC
REMARK SMILES IDX 4 1 5 2 6 3 7 4 8 5 9 6 3 7 2 8 1 9
REMARK H PARENT
REMARK Flexibility Score: inf
ROOT
ATOM      1  C   UNL     1      10.369 117.773  18.472  1.00  0.00     0.057 C 
ATOM      2  C   UNL     1      10.133 117.637  16.963  1.00  0.00     0.016 C 
ENDROOT
BRANCH   1   3
ATOM      3  C   UNL     1      10.758 116.432  19.057  1.00  0.00     0.135 C 
ATOM      4  O   UNL     1      10.651 116.242  20.260  1.00  0.00    -0.299 OA
BRANCH   3   5
ATOM      5  C   UNL     1      11.273 115.320  18.182  1.00  0.00     0.072 C 
ATOM      6  C   UNL     1      11.249 113.990  18.928  1.00  0.00     0.012 C 
ENDBRANCH   3   5
ENDBRANCH   1   3
BRANCH   1   7
ATOM      7  C   UNL     1       9.121 118.320  19.199  1.00  0.00     0.038 C 
BRANCH   7   8
ATOM      8  C   UNL     1       7.848 117.670  18.719  1.00  0.00    -0.034 C 
ATOM      9  C   UNL     1       6.694 118.341  18.665  1.00  0.00     0.004 C 
ENDBRANCH   7   8
ENDBRANCH   1   7
TORSDOF 4
ENDMDL
