MODEL 1
REMARK VINA RESULT:    -4.096      0.000      0.000
REMARK INTER + INTRA:          -5.663
REMARK INTER:                  -5.294
REMARK INTRA:                  -0.369
REMARK UNBOUND:                -0.369
REMARK SMILES CO[C@]1(CO)O[C@H](CO)[C@H](O)[C@H]1O
REMARK SMILES IDX 3 1 12 2 10 3 7 4 6 5 2 6 1 7 4 8 5 9 13 11 11 13 8 15 9 16
REMARK H PARENT 5 10 13 12 11 14 9 17
REMARK Flexibility Score: inf
ROOT
ATOM      1  C   UNL     1      31.877  -1.785  36.775  1.00  0.00     0.221 C 
ATOM      2  C   UNL     1      31.840  -1.956  38.310  1.00  0.00     0.207 C 
ATOM      3  C   UNL     1      30.987  -0.804  38.767  1.00  0.00     0.180 C 
ATOM      4  C   UNL     1      31.231   0.240  37.678  1.00  0.00     0.179 C 
ATOM      5  O   UNL     1      31.528  -0.437  36.476  1.00  0.00    -0.337 OA
ENDROOT
BRANCH   1   6
ATOM      6  O   UNL     1      33.199  -2.104  36.345  1.00  0.00    -0.349 OA
ATOM      7  C   UNL     1      33.602  -1.378  35.201  1.00  0.00     0.198 C 
ENDBRANCH   1   6
BRANCH   1   8
ATOM      8  C   UNL     1      30.875  -2.719  36.053  1.00  0.00     0.224 C 
BRANCH   8   9
ATOM      9  O   UNL     1      31.288  -4.055  36.147  1.00  0.00    -0.391 OA
ATOM     10  H   UNL     1      30.859  -4.531  35.388  1.00  0.00     0.210 HD
ENDBRANCH   8   9
ENDBRANCH   1   8
BRANCH   2  11
ATOM     11  O   UNL     1      31.300  -3.190  38.712  1.00  0.00    -0.385 OA
ATOM     12  H   UNL     1      30.933  -3.620  37.897  1.00  0.00     0.211 HD
ENDBRANCH   2  11
BRANCH   3  13
ATOM     13  O   UNL     1      31.362  -0.354  40.044  1.00  0.00    -0.387 OA
ATOM     14  H   UNL     1      30.743  -0.786  40.689  1.00  0.00     0.211 HD
ENDBRANCH   3  13
BRANCH   4  15
ATOM     15  C   UNL     1      32.380   1.220  37.988  1.00  0.00     0.191 C 
BRANCH  15  16
ATOM     16  O   UNL     1      33.584   0.534  38.203  1.00  0.00    -0.394 OA
ATOM     17  H   UNL     1      33.792   0.053  37.359  1.00  0.00     0.210 HD
ENDBRANCH  15  16
ENDBRANCH   4  15
TORSDOF 7
ENDMDL
MODEL 2
REMARK VINA RESULT:    -4.089     13.180     14.924
REMARK INTER + INTRA:          -5.653
REMARK INTER:                  -5.126
REMARK INTRA:                  -0.527
REMARK UNBOUND:                -0.369
REMARK SMILES CO[C@]1(CO)O[C@H](CO)[C@H](O)[C@H]1O
REMARK SMILES IDX 3 1 12 2 10 3 7 4 6 5 2 6 1 7 4 8 5 9 13 11 11 13 8 15 9 16
REMARK H PARENT 5 10 13 12 11 14 9 17
REMARK Flexibility Score: inf
ROOT
ATOM      1  C   UNL     1      36.127   4.435  24.426  1.00  0.00     0.221 C 
ATOM      2  C   UNL     1      36.438   5.941  24.283  1.00  0.00     0.207 C 
ATOM      3  C   UNL     1      36.909   6.331  25.658  1.00  0.00     0.180 C 
ATOM      4  C   UNL     1      36.176   5.334  26.553  1.00  0.00     0.179 C 
ATOM      5  O   UNL     1      35.956   4.153  25.812  1.00  0.00    -0.337 OA
ENDROOT
BRANCH   1   6
ATOM      6  O   UNL     1      34.943   4.173  23.676  1.00  0.00    -0.349 OA
ATOM      7  C   UNL     1      34.037   5.259  23.668  1.00  0.00     0.198 C 
ENDBRANCH   1   6
BRANCH   1   8
ATOM      8  C   UNL     1      37.271   3.543  23.886  1.00  0.00     0.224 C 
BRANCH   8   9
ATOM      9  O   UNL     1      37.057   3.226  22.537  1.00  0.00    -0.391 OA
ATOM     10  H   UNL     1      36.074   3.262  22.398  1.00  0.00     0.210 HD
ENDBRANCH   8   9
ENDBRANCH   1   8
BRANCH   2  11
ATOM     11  O   UNL     1      37.413   6.211  23.307  1.00  0.00    -0.385 OA
ATOM     12  H   UNL     1      37.137   5.724  22.487  1.00  0.00     0.211 HD
ENDBRANCH   2  11
BRANCH   3  13
ATOM     13  O   UNL     1      36.591   7.666  25.958  1.00  0.00    -0.387 OA
ATOM     14  H   UNL     1      37.437   8.102  26.241  1.00  0.00     0.211 HD
ENDBRANCH   3  13
BRANCH   4  15
ATOM     15  C   UNL     1      34.821   5.840  27.086  1.00  0.00     0.191 C 
BRANCH  15  16
ATOM     16  O   UNL     1      34.999   6.701  28.179  1.00  0.00    -0.394 OA
ATOM     17  H   UNL     1      35.283   7.577  27.808  1.00  0.00     0.210 HD
ENDBRANCH  15  16
ENDBRANCH   4  15
TORSDOF 7
ENDMDL
MODEL 3
REMARK VINA RESULT:    -3.994     12.881     14.878
REMARK INTER + INTRA:          -5.531
REMARK INTER:                  -5.113
REMARK INTRA:                  -0.418
REMARK UNBOUND:                -0.369
REMARK SMILES CO[C@]1(CO)O[C@H](CO)[C@H](O)[C@H]1O
REMARK SMILES IDX 3 1 12 2 10 3 7 4 6 5 2 6 1 7 4 8 5 9 13 11 11 13 8 15 9 16
REMARK H PARENT 5 10 13 12 11 14 9 17
REMARK Flexibility Score: inf
ROOT
ATOM      1  C   UNL     1      35.692   5.384  26.251  1.00  0.00     0.221 C 
ATOM      2  C   UNL     1      36.701   6.235  25.451  1.00  0.00     0.207 C 
ATOM      3  C   UNL     1      36.363   5.922  24.018  1.00  0.00     0.180 C 
ATOM      4  C   UNL     1      35.793   4.508  24.116  1.00  0.00     0.179 C 
ATOM      5  O   UNL     1      35.211   4.353  25.393  1.00  0.00    -0.337 OA
ENDROOT
BRANCH   1   6
ATOM      6  O   UNL     1      36.381   4.859  27.383  1.00  0.00    -0.349 OA
ATOM      7  C   UNL     1      36.120   5.574  28.574  1.00  0.00     0.198 C 
ENDBRANCH   1   6
BRANCH   1   8
ATOM      8  C   UNL     1      34.479   6.213  26.741  1.00  0.00     0.224 C 
BRANCH   8   9
ATOM      9  O   UNL     1      33.276   5.576  26.407  1.00  0.00    -0.391 OA
ATOM     10  H   UNL     1      32.932   5.178  27.249  1.00  0.00     0.210 HD
ENDBRANCH   8   9
ENDBRANCH   1   8
BRANCH   2  11
ATOM     11  O   UNL     1      36.594   7.611  25.718  1.00  0.00    -0.385 OA
ATOM     12  H   UNL     1      36.797   8.083  24.869  1.00  0.00     0.211 HD
ENDBRANCH   2  11
BRANCH   3  13
ATOM     13  O   UNL     1      37.495   5.994  23.189  1.00  0.00    -0.387 OA
ATOM     14  H   UNL     1      38.272   5.728  23.747  1.00  0.00     0.211 HD
ENDBRANCH   3  13
BRANCH   4  15
ATOM     15  C   UNL     1      36.835   3.390  23.911  1.00  0.00     0.191 C 
BRANCH  15  16
ATOM     16  O   UNL     1      37.064   3.159  22.547  1.00  0.00    -0.394 OA
ATOM     17  H   UNL     1      37.852   3.708  22.294  1.00  0.00     0.210 HD
ENDBRANCH  15  16
ENDBRANCH   4  15
TORSDOF 7
ENDMDL
MODEL 4
REMARK VINA RESULT:    -3.945      7.159      8.865
REMARK INTER + INTRA:          -5.468
REMARK INTER:                  -4.874
REMARK INTRA:                  -0.594
REMARK UNBOUND:                -0.369
REMARK SMILES CO[C@]1(CO)O[C@H](CO)[C@H](O)[C@H]1O
REMARK SMILES IDX 3 1 12 2 10 3 7 4 6 5 2 6 1 7 4 8 5 9 13 11 11 13 8 15 9 16
REMARK H PARENT 5 10 13 12 11 14 9 17
REMARK Flexibility Score: inf
ROOT
ATOM      1  C   UNL     1      39.036   2.505  37.798  1.00  0.00     0.221 C 
ATOM      2  C   UNL     1      38.872   1.052  38.294  1.00  0.00     0.207 C 
ATOM      3  C   UNL     1      39.959   0.911  39.325  1.00  0.00     0.180 C 
ATOM      4  C   UNL     1      41.011   1.903  38.832  1.00  0.00     0.179 C 
ATOM      5  O   UNL     1      40.352   2.936  38.133  1.00  0.00    -0.337 OA
ENDROOT
BRANCH   1   6
ATOM      6  O   UNL     1      38.817   2.500  36.389  1.00  0.00    -0.349 OA
ATOM      7  C   UNL     1      39.514   3.527  35.713  1.00  0.00     0.198 C 
ENDBRANCH   1   6
BRANCH   1   8
ATOM      8  C   UNL     1      38.024   3.472  38.460  1.00  0.00     0.224 C 
BRANCH   8   9
ATOM      9  O   UNL     1      36.740   3.285  37.929  1.00  0.00    -0.391 OA
ATOM     10  H   UNL     1      36.104   3.555  38.642  1.00  0.00     0.210 HD
ENDBRANCH   8   9
ENDBRANCH   1   8
BRANCH   2  11
ATOM     11  O   UNL     1      37.603   0.797  38.842  1.00  0.00    -0.385 OA
ATOM     12  H   UNL     1      37.071   1.628  38.726  1.00  0.00     0.211 HD
ENDBRANCH   2  11
BRANCH   3  13
ATOM     13  O   UNL     1      40.444  -0.405  39.394  1.00  0.00    -0.387 OA
ATOM     14  H   UNL     1      41.390  -0.343  39.686  1.00  0.00     0.211 HD
ENDBRANCH   3  13
BRANCH   4  15
ATOM     15  C   UNL     1      42.078   1.285  37.907  1.00  0.00     0.191 C 
BRANCH  15  16
ATOM     16  O   UNL     1      43.072   0.631  38.650  1.00  0.00    -0.394 OA
ATOM     17  H   UNL     1      43.693   0.218  37.995  1.00  0.00     0.210 HD
ENDBRANCH  15  16
ENDBRANCH   4  15
TORSDOF 7
ENDMDL
MODEL 5
REMARK VINA RESULT:    -3.849     13.892     16.023
REMARK INTER + INTRA:          -5.344
REMARK INTER:                  -4.973
REMARK INTRA:                  -0.371
REMARK UNBOUND:                -0.369
REMARK SMILES CO[C@]1(CO)O[C@H](CO)[C@H](O)[C@H]1O
REMARK SMILES IDX 3 1 12 2 10 3 7 4 6 5 2 6 1 7 4 8 5 9 13 11 11 13 8 15 9 16
REMARK H PARENT 5 10 13 12 11 14 9 17
REMARK Flexibility Score: inf
ROOT
ATOM      1  C   UNL     1      37.185  -5.437  24.391  1.00  0.00     0.221 C 
ATOM      2  C   UNL     1      37.587  -4.389  23.331  1.00  0.00     0.207 C 
ATOM      3  C   UNL     1      38.036  -5.228  22.165  1.00  0.00     0.180 C 
ATOM      4  C   UNL     1      38.533  -6.501  22.848  1.00  0.00     0.179 C 
ATOM      5  O   UNL     1      37.813  -6.669  24.049  1.00  0.00    -0.337 OA
ENDROOT
BRANCH   1   6
ATOM      6  O   UNL     1      37.621  -4.948  25.658  1.00  0.00    -0.349 OA
ATOM      7  C   UNL     1      38.621  -3.954  25.557  1.00  0.00     0.198 C 
ENDBRANCH   1   6
BRANCH   1   8
ATOM      8  C   UNL     1      35.654  -5.668  24.442  1.00  0.00     0.224 C 
BRANCH   8   9
ATOM      9  O   UNL     1      35.356  -6.863  25.110  1.00  0.00    -0.391 OA
ATOM     10  H   UNL     1      35.890  -6.852  25.947  1.00  0.00     0.210 HD
ENDBRANCH   8   9
ENDBRANCH   1   8
BRANCH   2  11
ATOM     11  O   UNL     1      36.530  -3.533  22.975  1.00  0.00    -0.385 OA
ATOM     12  H   UNL     1      36.930  -2.640  22.807  1.00  0.00     0.211 HD
ENDBRANCH   2  11
BRANCH   3  13
ATOM     13  O   UNL     1      39.037  -4.586  21.418  1.00  0.00    -0.387 OA
ATOM     14  H   UNL     1      38.577  -4.114  20.675  1.00  0.00     0.211 HD
ENDBRANCH   3  13
BRANCH   4  15
ATOM     15  C   UNL     1      40.040  -6.496  23.175  1.00  0.00     0.191 C 
BRANCH  15  16
ATOM     16  O   UNL     1      40.802  -6.831  22.046  1.00  0.00    -0.394 OA
ATOM     17  H   UNL     1      41.004  -5.981  21.575  1.00  0.00     0.210 HD
ENDBRANCH  15  16
ENDBRANCH   4  15
TORSDOF 7
ENDMDL
MODEL 6
REMARK VINA RESULT:    -3.784     14.058     14.879
REMARK INTER + INTRA:          -5.260
REMARK INTER:                  -4.724
REMARK INTRA:                  -0.536
REMARK UNBOUND:                -0.369
REMARK SMILES CO[C@]1(CO)O[C@H](CO)[C@H](O)[C@H]1O
REMARK SMILES IDX 3 1 12 2 10 3 7 4 6 5 2 6 1 7 4 8 5 9 13 11 11 13 8 15 9 16
REMARK H PARENT 5 10 13 12 11 14 9 17
REMARK Flexibility Score: inf
ROOT
ATOM      1  C   UNL     1      37.137  -4.178  23.966  1.00  0.00     0.221 C 
ATOM      2  C   UNL     1      36.713  -5.627  24.288  1.00  0.00     0.207 C 
ATOM      3  C   UNL     1      37.300  -5.866  25.653  1.00  0.00     0.180 C 
ATOM      4  C   UNL     1      38.514  -4.939  25.657  1.00  0.00     0.179 C 
ATOM      5  O   UNL     1      38.239  -3.847  24.807  1.00  0.00    -0.337 OA
ENDROOT
BRANCH   1   6
ATOM      6  O   UNL     1      37.487  -4.134  22.584  1.00  0.00    -0.349 OA
ATOM      7  C   UNL     1      38.094  -5.326  22.126  1.00  0.00     0.198 C 
ENDBRANCH   1   6
BRANCH   1   8
ATOM      8  C   UNL     1      36.001  -3.158  24.229  1.00  0.00     0.224 C 
BRANCH   8   9
ATOM      9  O   UNL     1      35.112  -3.118  23.146  1.00  0.00    -0.391 OA
ATOM     10  H   UNL     1      34.699  -4.020  23.094  1.00  0.00     0.210 HD
ENDBRANCH   8   9
ENDBRANCH   1   8
BRANCH   2  11
ATOM     11  O   UNL     1      35.319  -5.805  24.287  1.00  0.00    -0.385 OA
ATOM     12  H   UNL     1      35.153  -6.760  24.503  1.00  0.00     0.211 HD
ENDBRANCH   2  11
BRANCH   3  13
ATOM     13  O   UNL     1      37.646  -7.214  25.841  1.00  0.00    -0.387 OA
ATOM     14  H   UNL     1      38.006  -7.288  26.764  1.00  0.00     0.211 HD
ENDBRANCH   3  13
BRANCH   4  15
ATOM     15  C   UNL     1      39.823  -5.608  25.191  1.00  0.00     0.191 C 
BRANCH  15  16
ATOM     16  O   UNL     1      40.405  -6.353  26.226  1.00  0.00    -0.394 OA
ATOM     17  H   UNL     1      41.386  -6.218  26.158  1.00  0.00     0.210 HD
ENDBRANCH  15  16
ENDBRANCH   4  15
TORSDOF 7
ENDMDL
MODEL 7
REMARK VINA RESULT:    -3.748     13.816     15.574
REMARK INTER + INTRA:          -5.213
REMARK INTER:                  -4.974
REMARK INTRA:                  -0.239
REMARK UNBOUND:                -0.369
REMARK SMILES CO[C@]1(CO)O[C@H](CO)[C@H](O)[C@H]1O
REMARK SMILES IDX 3 1 12 2 10 3 7 4 6 5 2 6 1 7 4 8 5 9 13 11 11 13 8 15 9 16
REMARK H PARENT 5 10 13 12 11 14 9 17
REMARK Flexibility Score: inf
ROOT
ATOM      1  C   UNL     1      36.848  -4.424  23.945  1.00  0.00     0.221 C 
ATOM      2  C   UNL     1      38.031  -4.475  24.936  1.00  0.00     0.207 C 
ATOM      3  C   UNL     1      39.225  -4.189  24.067  1.00  0.00     0.180 C 
ATOM      4  C   UNL     1      38.774  -4.711  22.704  1.00  0.00     0.179 C 
ATOM      5  O   UNL     1      37.369  -4.600  22.631  1.00  0.00    -0.337 OA
ENDROOT
BRANCH   1   6
ATOM      6  O   UNL     1      35.945  -5.468  24.307  1.00  0.00    -0.349 OA
ATOM      7  C   UNL     1      36.553  -6.488  25.074  1.00  0.00     0.198 C 
ENDBRANCH   1   6
BRANCH   1   8
ATOM      8  C   UNL     1      36.096  -3.071  23.993  1.00  0.00     0.224 C 
BRANCH   8   9
ATOM      9  O   UNL     1      34.942  -3.117  23.199  1.00  0.00    -0.391 OA
ATOM     10  H   UNL     1      34.178  -3.204  23.827  1.00  0.00     0.210 HD
ENDBRANCH   8   9
ENDBRANCH   1   8
BRANCH   2  11
ATOM     11  O   UNL     1      37.915  -3.541  25.980  1.00  0.00    -0.385 OA
ATOM     12  H   UNL     1      38.696  -3.682  26.576  1.00  0.00     0.211 HD
ENDBRANCH   2  11
BRANCH   3  13
ATOM     13  O   UNL     1      40.380  -4.834  24.540  1.00  0.00    -0.387 OA
ATOM     14  H   UNL     1      41.101  -4.640  23.886  1.00  0.00     0.211 HD
ENDBRANCH   3  13
BRANCH   4  15
ATOM     15  C   UNL     1      39.167  -6.176  22.425  1.00  0.00     0.191 C 
BRANCH  15  16
ATOM     16  O   UNL     1      38.099  -6.884  21.856  1.00  0.00    -0.394 OA
ATOM     17  H   UNL     1      38.150  -7.810  22.211  1.00  0.00     0.210 HD
ENDBRANCH  15  16
ENDBRANCH   4  15
TORSDOF 7
ENDMDL
MODEL 8
REMARK VINA RESULT:    -3.685     14.060     16.437
REMARK INTER + INTRA:          -5.131
REMARK INTER:                  -4.560
REMARK INTRA:                  -0.571
REMARK UNBOUND:                -0.369
REMARK SMILES CO[C@]1(CO)O[C@H](CO)[C@H](O)[C@H]1O
REMARK SMILES IDX 3 1 12 2 10 3 7 4 6 5 2 6 1 7 4 8 5 9 13 11 11 13 8 15 9 16
REMARK H PARENT 5 10 13 12 11 14 9 17
REMARK Flexibility Score: inf
ROOT
ATOM      1  C   UNL     1      38.487  -5.524  24.521  1.00  0.00     0.221 C 
ATOM      2  C   UNL     1      37.729  -6.229  23.376  1.00  0.00     0.207 C 
ATOM      3  C   UNL     1      38.834  -6.771  22.509  1.00  0.00     0.180 C 
ATOM      4  C   UNL     1      39.972  -5.786  22.772  1.00  0.00     0.179 C 
ATOM      5  O   UNL     1      39.815  -5.266  24.075  1.00  0.00    -0.337 OA
ENDROOT
BRANCH   1   6
ATOM      6  O   UNL     1      37.781  -4.322  24.822  1.00  0.00    -0.349 OA
ATOM      7  C   UNL     1      36.963  -3.877  23.758  1.00  0.00     0.198 C 
ENDBRANCH   1   6
BRANCH   1   8
ATOM      8  C   UNL     1      38.565  -6.394  25.801  1.00  0.00     0.224 C 
BRANCH   8   9
ATOM      9  O   UNL     1      37.308  -6.481  26.416  1.00  0.00    -0.391 OA
ATOM     10  H   UNL     1      36.885  -5.590  26.307  1.00  0.00     0.210 HD
ENDBRANCH   8   9
ENDBRANCH   1   8
BRANCH   2  11
ATOM     11  O   UNL     1      36.878  -7.252  23.828  1.00  0.00    -0.385 OA
ATOM     12  H   UNL     1      36.007  -7.122  23.369  1.00  0.00     0.211 HD
ENDBRANCH   2  11
BRANCH   3  13
ATOM     13  O   UNL     1      38.458  -6.818  21.157  1.00  0.00    -0.387 OA
ATOM     14  H   UNL     1      38.117  -7.735  20.990  1.00  0.00     0.211 HD
ENDBRANCH   3  13
BRANCH   4  15
ATOM     15  C   UNL     1      40.032  -4.609  21.777  1.00  0.00     0.191 C 
BRANCH  15  16
ATOM     16  O   UNL     1      40.612  -5.005  20.563  1.00  0.00    -0.394 OA
ATOM     17  H   UNL     1      39.865  -5.180  19.934  1.00  0.00     0.210 HD
ENDBRANCH  15  16
ENDBRANCH   4  15
TORSDOF 7
ENDMDL
