MODEL 1
REMARK VINA RESULT:    -7.128      0.000      0.000
REMARK INTER + INTRA:         -11.160
REMARK INTER:                  -9.836
REMARK INTRA:                  -1.324
REMARK UNBOUND:                -1.324
REMARK SMILES O=C([O-])[C@H]1O[C@H](Oc2cc3oc(-c4ccccc4)cc(=O)c3c(O)c2O)[C@@H](O)[C@H](O)[C@H]1O
REMARK SMILES IDX 7 1 6 2 4 3 31 4 5 5 29 6 27 7 2 8 1 9 3 10 32 11 30 13
REMARK SMILES IDX 28 15 8 17 25 18 9 19 23 20 10 21 22 22 11 23 20 24 12 25
REMARK SMILES IDX 19 26 21 27 26 28 24 30 13 32 14 33 18 34 15 35 17 36 16 37
REMARK H PARENT 32 12 30 14 28 16 26 29 24 31
REMARK Flexibility Score: inf
ROOT
ATOM      1  O   UNL     1     106.481  43.066 136.138  1.00  0.00    -0.458 OA
ENDROOT
BRANCH   1   2
ATOM      2  C   UNL     1     107.825  42.943 135.653  1.00  0.00     0.339 C 
ATOM      3  C   UNL     1     108.580  42.119 137.718  1.00  0.00     0.199 C 
ATOM      4  C   UNL     1     108.900  40.710 137.163  1.00  0.00     0.180 C 
ATOM      5  O   UNL     1     108.748  43.114 136.720  1.00  0.00    -0.328 OA
ATOM      6  C   UNL     1     108.043  40.414 135.918  1.00  0.00     0.181 C 
ATOM      7  C   UNL     1     108.062  41.599 134.923  1.00  0.00     0.214 C 
BRANCH   3   8
ATOM      8  C   UNL     1     109.475  42.436 138.882  1.00  0.00     0.073 C 
ATOM      9  O   UNL     1     109.887  41.511 139.631  1.00  0.00    -0.547 OA
ATOM     10  O   UNL     1     109.894  43.741 139.111  1.00  0.00    -0.547 OA
ENDBRANCH   3   8
BRANCH   4  11
ATOM     11  O   UNL     1     110.270  40.541 136.881  1.00  0.00    -0.387 OA
ATOM     12  H   UNL     1     110.565  39.678 137.268  1.00  0.00     0.211 HD
ENDBRANCH   4  11
BRANCH   6  13
ATOM     13  O   UNL     1     106.723  40.152 136.323  1.00  0.00    -0.387 OA
ATOM     14  H   UNL     1     106.768  39.810 137.254  1.00  0.00     0.211 HD
ENDBRANCH   6  13
BRANCH   7  15
ATOM     15  O   UNL     1     109.294  41.654 134.251  1.00  0.00    -0.384 OA
ATOM     16  H   UNL     1     109.621  40.719 134.169  1.00  0.00     0.211 HD
ENDBRANCH   7  15
ENDBRANCH   1   2
BRANCH   1  17
ATOM     17  C   UNL     1     105.675  44.221 136.156  1.00  0.00     0.172 A 
ATOM     18  C   UNL     1     105.853  45.301 137.053  1.00  0.00     0.201 A 
ATOM     19  C   UNL     1     104.628  44.259 135.233  1.00  0.00     0.098 A 
ATOM     20  C   UNL     1     105.021  46.447 136.950  1.00  0.00     0.176 A 
ATOM     21  C   UNL     1     103.780  45.359 135.150  1.00  0.00     0.146 A 
ATOM     22  C   UNL     1     103.968  46.468 136.003  1.00  0.00     0.111 A 
ATOM     23  O   UNL     1     102.798  45.350 134.254  1.00  0.00    -0.456 OA
ATOM     24  C   UNL     1     103.083  47.559 135.854  1.00  0.00     0.197 A 
ATOM     25  C   UNL     1     101.942  46.355 134.097  1.00  0.00     0.138 A 
ATOM     26  C   UNL     1     102.070  47.500 134.897  1.00  0.00     0.100 A 
ATOM     27  O   UNL     1     103.187  48.594 136.566  1.00  0.00    -0.289 OA
BRANCH  18  28
ATOM     28  O   UNL     1     106.826  45.204 138.050  1.00  0.00    -0.502 OA
ATOM     29  H   UNL     1     107.549  45.889 138.214  1.00  0.00     0.293 HD
ENDBRANCH  18  28
BRANCH  20  30
ATOM     30  O   UNL     1     105.227  47.569 137.761  1.00  0.00    -0.504 OA
ATOM     31  H   UNL     1     105.225  48.523 137.429  1.00  0.00     0.293 HD
ENDBRANCH  20  30
BRANCH  25  32
ATOM     32  C   UNL     1     100.884  46.235 133.062  1.00  0.00     0.017 A 
ATOM     33  C   UNL     1     100.998  46.969 131.866  1.00  0.00     0.012 A 
ATOM     34  C   UNL     1      99.776  45.379 133.229  1.00  0.00     0.012 A 
ATOM     35  C   UNL     1     100.019  46.867 130.873  1.00  0.00     0.001 A 
ATOM     36  C   UNL     1      98.801  45.279 132.231  1.00  0.00     0.001 A 
ATOM     37  C   UNL     1      98.920  46.025 131.056  1.00  0.00     0.000 A 
ENDBRANCH  25  32
ENDBRANCH   1  17
TORSDOF 9
ENDMDL
MODEL 2
REMARK VINA RESULT:    -7.017      2.052      3.374
REMARK INTER + INTRA:         -11.007
REMARK INTER:                  -9.629
REMARK INTRA:                  -1.378
REMARK UNBOUND:                -1.324
REMARK SMILES O=C([O-])[C@H]1O[C@H](Oc2cc3oc(-c4ccccc4)cc(=O)c3c(O)c2O)[C@@H](O)[C@H](O)[C@H]1O
REMARK SMILES IDX 7 1 6 2 4 3 31 4 5 5 29 6 27 7 2 8 1 9 3 10 32 11 30 13
REMARK SMILES IDX 28 15 8 17 25 18 9 19 23 20 10 21 22 22 11 23 20 24 12 25
REMARK SMILES IDX 19 26 21 27 26 28 24 30 13 32 14 33 18 34 15 35 17 36 16 37
REMARK H PARENT 32 12 30 14 28 16 26 29 24 31
REMARK Flexibility Score: inf
ROOT
ATOM      1  O   UNL     1     105.544  43.220 136.032  1.00  0.00    -0.458 OA
ENDROOT
BRANCH   1   2
ATOM      2  C   UNL     1     106.748  43.102 135.259  1.00  0.00     0.339 C 
ATOM      3  C   UNL     1     108.009  42.541 137.160  1.00  0.00     0.199 C 
ATOM      4  C   UNL     1     108.285  41.094 136.684  1.00  0.00     0.180 C 
ATOM      5  O   UNL     1     107.877  43.427 136.058  1.00  0.00    -0.328 OA
ATOM      6  C   UNL     1     107.188  40.628 135.708  1.00  0.00     0.181 C 
ATOM      7  C   UNL     1     106.900  41.696 134.628  1.00  0.00     0.214 C 
BRANCH   3   8
ATOM      8  C   UNL     1     109.122  43.020 138.045  1.00  0.00     0.073 C 
ATOM      9  O   UNL     1     109.384  44.249 138.122  1.00  0.00    -0.547 OA
ATOM     10  O   UNL     1     109.838  42.118 138.824  1.00  0.00    -0.547 OA
ENDBRANCH   3   8
BRANCH   4  11
ATOM     11  O   UNL     1     109.563  40.953 136.106  1.00  0.00    -0.387 OA
ATOM     12  H   UNL     1     110.237  41.280 136.754  1.00  0.00     0.211 HD
ENDBRANCH   4  11
BRANCH   6  13
ATOM     13  O   UNL     1     106.016  40.356 136.435  1.00  0.00    -0.387 OA
ATOM     14  H   UNL     1     105.873  41.121 137.051  1.00  0.00     0.211 HD
ENDBRANCH   6  13
BRANCH   7  15
ATOM     15  O   UNL     1     107.939  41.730 133.683  1.00  0.00    -0.384 OA
ATOM     16  H   UNL     1     108.551  42.465 133.954  1.00  0.00     0.211 HD
ENDBRANCH   7  15
ENDBRANCH   1   2
BRANCH   1  17
ATOM     17  C   UNL     1     104.267  43.602 135.581  1.00  0.00     0.172 A 
ATOM     18  C   UNL     1     103.162  42.723 135.481  1.00  0.00     0.201 A 
ATOM     19  C   UNL     1     104.121  44.935 135.194  1.00  0.00     0.098 A 
ATOM     20  C   UNL     1     101.898  43.224 135.069  1.00  0.00     0.176 A 
ATOM     21  C   UNL     1     102.898  45.428 134.749  1.00  0.00     0.146 A 
ATOM     22  C   UNL     1     101.771  44.581 134.686  1.00  0.00     0.111 A 
ATOM     23  O   UNL     1     102.809  46.705 134.393  1.00  0.00    -0.456 OA
ATOM     24  C   UNL     1     100.556  45.149 134.243  1.00  0.00     0.197 A 
ATOM     25  C   UNL     1     101.683  47.268 133.961  1.00  0.00     0.138 A 
ATOM     26  C   UNL     1     100.514  46.496 133.882  1.00  0.00     0.100 A 
ATOM     27  O   UNL     1      99.499  44.467 134.167  1.00  0.00    -0.289 OA
BRANCH  18  28
ATOM     28  O   UNL     1     103.345  41.367 135.756  1.00  0.00    -0.502 OA
ATOM     29  H   UNL     1     103.415  40.644 135.055  1.00  0.00     0.293 HD
ENDBRANCH  18  28
BRANCH  20  30
ATOM     30  O   UNL     1     100.765  42.402 135.044  1.00  0.00    -0.504 OA
ATOM     31  H   UNL     1     100.329  42.005 135.864  1.00  0.00     0.293 HD
ENDBRANCH  20  30
BRANCH  25  32
ATOM     32  C   UNL     1     101.701  48.706 133.592  1.00  0.00     0.017 A 
ATOM     33  C   UNL     1     101.424  49.083 132.264  1.00  0.00     0.012 A 
ATOM     34  C   UNL     1     101.957  49.714 134.544  1.00  0.00     0.012 A 
ATOM     35  C   UNL     1     101.427  50.431 131.894  1.00  0.00     0.001 A 
ATOM     36  C   UNL     1     101.956  51.061 134.168  1.00  0.00     0.001 A 
ATOM     37  C   UNL     1     101.695  51.420 132.844  1.00  0.00     0.000 A 
ENDBRANCH  25  32
ENDBRANCH   1  17
TORSDOF 9
ENDMDL
MODEL 3
REMARK VINA RESULT:    -6.927      3.538     10.030
REMARK INTER + INTRA:         -10.883
REMARK INTER:                  -9.509
REMARK INTRA:                  -1.374
REMARK UNBOUND:                -1.324
REMARK SMILES O=C([O-])[C@H]1O[C@H](Oc2cc3oc(-c4ccccc4)cc(=O)c3c(O)c2O)[C@@H](O)[C@H](O)[C@H]1O
REMARK SMILES IDX 7 1 6 2 4 3 31 4 5 5 29 6 27 7 2 8 1 9 3 10 32 11 30 13
REMARK SMILES IDX 28 15 8 17 25 18 9 19 23 20 10 21 22 22 11 23 20 24 12 25
REMARK SMILES IDX 19 26 21 27 26 28 24 30 13 32 14 33 18 34 15 35 17 36 16 37
REMARK H PARENT 32 12 30 14 28 16 26 29 24 31
REMARK Flexibility Score: inf
ROOT
ATOM      1  O   UNL     1     101.582  48.537 133.135  1.00  0.00    -0.458 OA
ENDROOT
BRANCH   1   2
ATOM      2  C   UNL     1     101.024  49.670 133.816  1.00  0.00     0.339 C 
ATOM      3  C   UNL     1     101.223  51.019 131.904  1.00  0.00     0.199 C 
ATOM      4  C   UNL     1      99.694  51.154 131.706  1.00  0.00     0.180 C 
ATOM      5  O   UNL     1     101.552  50.874 133.277  1.00  0.00    -0.328 OA
ATOM      6  C   UNL     1      98.960  49.958 132.342  1.00  0.00     0.181 C 
ATOM      7  C   UNL     1      99.476  49.673 133.772  1.00  0.00     0.214 C 
BRANCH   3   8
ATOM      8  C   UNL     1     101.928  52.225 131.354  1.00  0.00     0.073 C 
ATOM      9  O   UNL     1     102.033  53.267 132.053  1.00  0.00    -0.547 OA
ATOM     10  O   UNL     1     102.513  52.184 130.094  1.00  0.00    -0.547 OA
ENDBRANCH   3   8
BRANCH   4  11
ATOM     11  O   UNL     1      99.193  52.373 132.204  1.00  0.00    -0.387 OA
ATOM     12  H   UNL     1      98.215  52.399 132.041  1.00  0.00     0.211 HD
ENDBRANCH   4  11
BRANCH   6  13
ATOM     13  O   UNL     1      99.146  48.824 131.532  1.00  0.00    -0.387 OA
ATOM     14  H   UNL     1      98.352  48.758 130.939  1.00  0.00     0.211 HD
ENDBRANCH   6  13
BRANCH   7  15
ATOM     15  O   UNL     1      98.995  50.641 134.668  1.00  0.00    -0.384 OA
ATOM     16  H   UNL     1      99.418  51.504 134.415  1.00  0.00     0.211 HD
ENDBRANCH   7  15
ENDBRANCH   1   2
BRANCH   1  17
ATOM     17  C   UNL     1     101.867  47.266 133.671  1.00  0.00     0.172 A 
ATOM     18  C   UNL     1     100.987  46.159 133.604  1.00  0.00     0.201 A 
ATOM     19  C   UNL     1     103.094  47.131 134.322  1.00  0.00     0.098 A 
ATOM     20  C   UNL     1     101.395  44.903 134.125  1.00  0.00     0.176 A 
ATOM     21  C   UNL     1     103.488  45.915 134.873  1.00  0.00     0.146 A 
ATOM     22  C   UNL     1     102.646  44.786 134.777  1.00  0.00     0.111 A 
ATOM     23  O   UNL     1     104.666  45.835 135.482  1.00  0.00    -0.456 OA
ATOM     24  C   UNL     1     103.115  43.578 135.342  1.00  0.00     0.197 A 
ATOM     25  C   UNL     1     105.130  44.717 136.033  1.00  0.00     0.138 A 
ATOM     26  C   UNL     1     104.360  43.546 135.969  1.00  0.00     0.100 A 
ATOM     27  O   UNL     1     102.432  42.519 135.291  1.00  0.00    -0.289 OA
BRANCH  18  28
ATOM     28  O   UNL     1      99.714  46.334 133.057  1.00  0.00    -0.502 OA
ATOM     29  H   UNL     1      99.293  47.230 132.862  1.00  0.00     0.293 HD
ENDBRANCH  18  28
BRANCH  20  30
ATOM     30  O   UNL     1     100.587  43.767 133.997  1.00  0.00    -0.504 OA
ATOM     31  H   UNL     1     100.703  43.060 133.285  1.00  0.00     0.293 HD
ENDBRANCH  20  30
BRANCH  25  32
ATOM     32  C   UNL     1     106.464  44.745 136.687  1.00  0.00     0.017 A 
ATOM     33  C   UNL     1     107.216  43.558 136.776  1.00  0.00     0.012 A 
ATOM     34  C   UNL     1     107.016  45.938 137.196  1.00  0.00     0.012 A 
ATOM     35  C   UNL     1     108.477  43.561 137.380  1.00  0.00     0.001 A 
ATOM     36  C   UNL     1     108.278  45.935 137.798  1.00  0.00     0.001 A 
ATOM     37  C   UNL     1     109.007  44.747 137.893  1.00  0.00     0.000 A 
ENDBRANCH  25  32
ENDBRANCH   1  17
TORSDOF 9
ENDMDL
MODEL 4
REMARK VINA RESULT:    -6.882      2.870      4.940
REMARK INTER + INTRA:         -10.821
REMARK INTER:                  -9.583
REMARK INTRA:                  -1.238
REMARK UNBOUND:                -1.324
REMARK SMILES O=C([O-])[C@H]1O[C@H](Oc2cc3oc(-c4ccccc4)cc(=O)c3c(O)c2O)[C@@H](O)[C@H](O)[C@H]1O
REMARK SMILES IDX 7 1 6 2 4 3 31 4 5 5 29 6 27 7 2 8 1 9 3 10 32 11 30 13
REMARK SMILES IDX 28 15 8 17 25 18 9 19 23 20 10 21 22 22 11 23 20 24 12 25
REMARK SMILES IDX 19 26 21 27 26 28 24 30 13 32 14 33 18 34 15 35 17 36 16 37
REMARK H PARENT 32 12 30 14 28 16 26 29 24 31
REMARK Flexibility Score: inf
ROOT
ATOM      1  O   UNL     1     104.724  45.822 135.478  1.00  0.00    -0.458 OA
ENDROOT
BRANCH   1   2
ATOM      2  C   UNL     1     104.992  45.202 136.744  1.00  0.00     0.339 C 
ATOM      3  C   UNL     1     106.125  43.417 135.721  1.00  0.00     0.199 C 
ATOM      4  C   UNL     1     107.502  43.810 136.310  1.00  0.00     0.180 C 
ATOM      5  O   UNL     1     105.069  43.792 136.593  1.00  0.00    -0.328 OA
ATOM      6  C   UNL     1     107.540  45.316 136.633  1.00  0.00     0.181 C 
ATOM      7  C   UNL     1     106.276  45.761 137.406  1.00  0.00     0.214 C 
BRANCH   3   8
ATOM      8  C   UNL     1     106.064  41.936 135.484  1.00  0.00     0.073 C 
ATOM      9  O   UNL     1     104.952  41.346 135.458  1.00  0.00    -0.547 OA
ATOM     10  O   UNL     1     107.227  41.215 135.240  1.00  0.00    -0.547 OA
ENDBRANCH   3   8
BRANCH   4  11
ATOM     11  O   UNL     1     107.840  43.045 137.444  1.00  0.00    -0.387 OA
ATOM     12  H   UNL     1     107.193  42.298 137.522  1.00  0.00     0.211 HD
ENDBRANCH   4  11
BRANCH   6  13
ATOM     13  O   UNL     1     107.646  46.039 135.433  1.00  0.00    -0.387 OA
ATOM     14  H   UNL     1     106.933  45.703 134.828  1.00  0.00     0.211 HD
ENDBRANCH   6  13
BRANCH   7  15
ATOM     15  O   UNL     1     106.333  45.317 138.737  1.00  0.00    -0.384 OA
ATOM     16  H   UNL     1     105.401  45.115 139.015  1.00  0.00     0.211 HD
ENDBRANCH   7  15
ENDBRANCH   1   2
BRANCH   1  17
ATOM     17  C   UNL     1     103.472  46.012 134.862  1.00  0.00     0.172 A 
ATOM     18  C   UNL     1     102.512  44.989 134.676  1.00  0.00     0.201 A 
ATOM     19  C   UNL     1     103.202  47.300 134.396  1.00  0.00     0.098 A 
ATOM     20  C   UNL     1     101.255  45.299 134.095  1.00  0.00     0.176 A 
ATOM     21  C   UNL     1     101.989  47.607 133.786  1.00  0.00     0.146 A 
ATOM     22  C   UNL     1     100.999  46.613 133.633  1.00  0.00     0.111 A 
ATOM     23  O   UNL     1     101.778  48.848 133.360  1.00  0.00    -0.456 OA
ATOM     24  C   UNL     1      99.784  46.996 133.023  1.00  0.00     0.197 A 
ATOM     25  C   UNL     1     100.650  49.238 132.772  1.00  0.00     0.138 A 
ATOM     26  C   UNL     1      99.611  48.312 132.594  1.00  0.00     0.100 A 
ATOM     27  O   UNL     1      98.842  46.175 132.857  1.00  0.00    -0.289 OA
BRANCH  18  28
ATOM     28  O   UNL     1     102.837  43.679 135.037  1.00  0.00    -0.502 OA
ATOM     29  H   UNL     1     103.289  43.419 135.901  1.00  0.00     0.293 HD
ENDBRANCH  18  28
BRANCH  20  30
ATOM     30  O   UNL     1     100.250  44.331 133.977  1.00  0.00    -0.504 OA
ATOM     31  H   UNL     1      99.750  44.126 133.124  1.00  0.00     0.293 HD
ENDBRANCH  20  30
BRANCH  25  32
ATOM     32  C   UNL     1     100.525  50.652 132.337  1.00  0.00     0.017 A 
ATOM     33  C   UNL     1     101.555  51.237 131.577  1.00  0.00     0.012 A 
ATOM     34  C   UNL     1      99.382  51.422 132.637  1.00  0.00     0.012 A 
ATOM     35  C   UNL     1     101.456  52.564 131.149  1.00  0.00     0.001 A 
ATOM     36  C   UNL     1      99.288  52.749 132.205  1.00  0.00     0.001 A 
ATOM     37  C   UNL     1     100.325  53.321 131.464  1.00  0.00     0.000 A 
ENDBRANCH  25  32
ENDBRANCH   1  17
TORSDOF 9
ENDMDL
MODEL 5
REMARK VINA RESULT:    -6.837      2.410      9.061
REMARK INTER + INTRA:         -10.759
REMARK INTER:                  -9.369
REMARK INTRA:                  -1.391
REMARK UNBOUND:                -1.324
REMARK SMILES O=C([O-])[C@H]1O[C@H](Oc2cc3oc(-c4ccccc4)cc(=O)c3c(O)c2O)[C@@H](O)[C@H](O)[C@H]1O
REMARK SMILES IDX 7 1 6 2 4 3 31 4 5 5 29 6 27 7 2 8 1 9 3 10 32 11 30 13
REMARK SMILES IDX 28 15 8 17 25 18 9 19 23 20 10 21 22 22 11 23 20 24 12 25
REMARK SMILES IDX 19 26 21 27 26 28 24 30 13 32 14 33 18 34 15 35 17 36 16 37
REMARK H PARENT 32 12 30 14 28 16 26 29 24 31
REMARK Flexibility Score: inf
ROOT
ATOM      1  O   UNL     1     101.920  46.800 134.279  1.00  0.00    -0.458 OA
ENDROOT
BRANCH   1   2
ATOM      2  C   UNL     1     101.999  47.368 132.963  1.00  0.00     0.339 C 
ATOM      3  C   UNL     1      99.766  46.808 132.499  1.00  0.00     0.199 C 
ATOM      4  C   UNL     1      99.293  48.281 132.444  1.00  0.00     0.180 C 
ATOM      5  O   UNL     1     101.118  46.687 132.082  1.00  0.00    -0.328 OA
ATOM      6  C   UNL     1     100.227  49.178 133.278  1.00  0.00     0.181 C 
ATOM      7  C   UNL     1     101.715  48.890 132.968  1.00  0.00     0.214 C 
BRANCH   3   8
ATOM      8  C   UNL     1      98.902  45.950 131.621  1.00  0.00     0.073 C 
ATOM      9  O   UNL     1      98.052  45.176 132.134  1.00  0.00    -0.547 OA
ATOM     10  O   UNL     1      98.998  46.041 130.237  1.00  0.00    -0.547 OA
ENDBRANCH   3   8
BRANCH   4  11
ATOM     11  O   UNL     1      99.182  48.761 131.124  1.00  0.00    -0.387 OA
ATOM     12  H   UNL     1      98.241  48.657 130.831  1.00  0.00     0.211 HD
ENDBRANCH   4  11
BRANCH   6  13
ATOM     13  O   UNL     1      99.973  48.960 134.643  1.00  0.00    -0.387 OA
ATOM     14  H   UNL     1      99.700  48.010 134.738  1.00  0.00     0.211 HD
ENDBRANCH   6  13
BRANCH   7  15
ATOM     15  O   UNL     1     102.066  49.424 131.717  1.00  0.00    -0.384 OA
ATOM     16  H   UNL     1     103.056  49.368 131.647  1.00  0.00     0.211 HD
ENDBRANCH   7  15
ENDBRANCH   1   2
BRANCH   1  17
ATOM     17  C   UNL     1     102.961  46.651 135.215  1.00  0.00     0.172 A 
ATOM     18  C   UNL     1     103.158  47.502 136.328  1.00  0.00     0.201 A 
ATOM     19  C   UNL     1     103.849  45.599 134.989  1.00  0.00     0.098 A 
ATOM     20  C   UNL     1     104.205  47.229 137.248  1.00  0.00     0.176 A 
ATOM     21  C   UNL     1     104.905  45.346 135.860  1.00  0.00     0.146 A 
ATOM     22  C   UNL     1     105.093  46.154 137.002  1.00  0.00     0.111 A 
ATOM     23  O   UNL     1     105.724  44.332 135.603  1.00  0.00    -0.456 OA
ATOM     24  C   UNL     1     106.172  45.832 137.855  1.00  0.00     0.197 A 
ATOM     25  C   UNL     1     106.755  44.010 136.379  1.00  0.00     0.138 A 
ATOM     26  C   UNL     1     107.003  44.756 137.541  1.00  0.00     0.100 A 
ATOM     27  O   UNL     1     106.405  46.494 138.902  1.00  0.00    -0.289 OA
BRANCH  18  28
ATOM     28  O   UNL     1     102.337  48.621 136.482  1.00  0.00    -0.502 OA
ATOM     29  H   UNL     1     102.197  49.114 137.351  1.00  0.00     0.293 HD
ENDBRANCH  18  28
BRANCH  20  30
ATOM     30  O   UNL     1     104.373  47.998 138.405  1.00  0.00    -0.504 OA
ATOM     31  H   UNL     1     105.234  48.456 138.667  1.00  0.00     0.293 HD
ENDBRANCH  20  30
BRANCH  25  32
ATOM     32  C   UNL     1     107.604  42.854 135.993  1.00  0.00     0.017 A 
ATOM     33  C   UNL     1     107.564  42.375 134.670  1.00  0.00     0.012 A 
ATOM     34  C   UNL     1     108.479  42.236 136.911  1.00  0.00     0.012 A 
ATOM     35  C   UNL     1     108.359  41.294 134.281  1.00  0.00     0.001 A 
ATOM     36  C   UNL     1     109.274  41.156 136.516  1.00  0.00     0.001 A 
ATOM     37  C   UNL     1     109.212  40.682 135.203  1.00  0.00     0.000 A 
ENDBRANCH  25  32
ENDBRANCH   1  17
TORSDOF 9
ENDMDL
MODEL 6
REMARK VINA RESULT:    -6.739      2.864      9.517
REMARK INTER + INTRA:         -10.624
REMARK INTER:                  -9.361
REMARK INTRA:                  -1.263
REMARK UNBOUND:                -1.324
REMARK SMILES O=C([O-])[C@H]1O[C@H](Oc2cc3oc(-c4ccccc4)cc(=O)c3c(O)c2O)[C@@H](O)[C@H](O)[C@H]1O
REMARK SMILES IDX 7 1 6 2 4 3 31 4 5 5 29 6 27 7 2 8 1 9 3 10 32 11 30 13
REMARK SMILES IDX 28 15 8 17 25 18 9 19 23 20 10 21 22 22 11 23 20 24 12 25
REMARK SMILES IDX 19 26 21 27 26 28 24 30 13 32 14 33 18 34 15 35 17 36 16 37
REMARK H PARENT 32 12 30 14 28 16 26 29 24 31
REMARK Flexibility Score: inf
ROOT
ATOM      1  O   UNL     1     101.962  47.064 133.955  1.00  0.00    -0.458 OA
ENDROOT
BRANCH   1   2
ATOM      2  C   UNL     1     102.050  47.485 132.587  1.00  0.00     0.339 C 
ATOM      3  C   UNL     1      99.808  46.911 132.183  1.00  0.00     0.199 C 
ATOM      4  C   UNL     1      99.358  48.377 131.968  1.00  0.00     0.180 C 
ATOM      5  O   UNL     1     101.158  46.726 131.783  1.00  0.00    -0.328 OA
ATOM      6  C   UNL     1     100.306  49.345 132.701  1.00  0.00     0.181 C 
ATOM      7  C   UNL     1     101.789  49.002 132.425  1.00  0.00     0.214 C 
BRANCH   3   8
ATOM      8  C   UNL     1      98.931  45.977 131.401  1.00  0.00     0.073 C 
ATOM      9  O   UNL     1      98.242  45.110 131.999  1.00  0.00    -0.547 OA
ATOM     10  O   UNL     1      98.834  46.096 130.019  1.00  0.00    -0.547 OA
ENDBRANCH   3   8
BRANCH   4  11
ATOM     11  O   UNL     1      99.254  48.713 130.603  1.00  0.00    -0.387 OA
ATOM     12  H   UNL     1      98.307  48.616 130.328  1.00  0.00     0.211 HD
ENDBRANCH   4  11
BRANCH   6  13
ATOM     13  O   UNL     1     100.049  49.280 134.081  1.00  0.00    -0.387 OA
ATOM     14  H   UNL     1      99.269  49.867 134.259  1.00  0.00     0.211 HD
ENDBRANCH   6  13
BRANCH   7  15
ATOM     15  O   UNL     1     102.148  49.392 131.125  1.00  0.00    -0.384 OA
ATOM     16  H   UNL     1     102.890  48.796 130.839  1.00  0.00     0.211 HD
ENDBRANCH   7  15
ENDBRANCH   1   2
BRANCH   1  17
ATOM     17  C   UNL     1     102.566  45.939 134.550  1.00  0.00     0.172 A 
ATOM     18  C   UNL     1     101.987  44.648 134.582  1.00  0.00     0.201 A 
ATOM     19  C   UNL     1     103.805  46.152 135.158  1.00  0.00     0.098 A 
ATOM     20  C   UNL     1     102.707  43.567 135.155  1.00  0.00     0.176 A 
ATOM     21  C   UNL     1     104.501  45.108 135.760  1.00  0.00     0.146 A 
ATOM     22  C   UNL     1     103.964  43.804 135.763  1.00  0.00     0.111 A 
ATOM     23  O   UNL     1     105.678  45.360 136.325  1.00  0.00    -0.456 OA
ATOM     24  C   UNL     1     104.731  42.787 136.375  1.00  0.00     0.197 A 
ATOM     25  C   UNL     1     106.418  44.429 136.919  1.00  0.00     0.138 A 
ATOM     26  C   UNL     1     105.961  43.103 136.953  1.00  0.00     0.100 A 
ATOM     27  O   UNL     1     104.331  41.592 136.412  1.00  0.00    -0.289 OA
BRANCH  18  28
ATOM     28  O   UNL     1     100.698  44.469 134.077  1.00  0.00    -0.502 OA
ATOM     29  H   UNL     1      99.863  44.861 134.487  1.00  0.00     0.293 HD
ENDBRANCH  18  28
BRANCH  20  30
ATOM     30  O   UNL     1     102.203  42.262 135.124  1.00  0.00    -0.504 OA
ATOM     31  H   UNL     1     102.750  41.442 134.907  1.00  0.00     0.293 HD
ENDBRANCH  20  30
BRANCH  25  32
ATOM     32  C   UNL     1     107.719  44.825 137.516  1.00  0.00     0.017 A 
ATOM     33  C   UNL     1     108.213  46.126 137.300  1.00  0.00     0.012 A 
ATOM     34  C   UNL     1     108.465  43.942 138.324  1.00  0.00     0.012 A 
ATOM     35  C   UNL     1     109.430  46.525 137.858  1.00  0.00     0.001 A 
ATOM     36  C   UNL     1     109.682  44.347 138.881  1.00  0.00     0.001 A 
ATOM     37  C   UNL     1     110.166  45.636 138.646  1.00  0.00     0.000 A 
ENDBRANCH  25  32
ENDBRANCH   1  17
TORSDOF 9
ENDMDL
MODEL 7
REMARK VINA RESULT:    -6.701      3.245      9.394
REMARK INTER + INTRA:         -10.572
REMARK INTER:                  -9.487
REMARK INTRA:                  -1.084
REMARK UNBOUND:                -1.324
REMARK SMILES O=C([O-])[C@H]1O[C@H](Oc2cc3oc(-c4ccccc4)cc(=O)c3c(O)c2O)[C@@H](O)[C@H](O)[C@H]1O
REMARK SMILES IDX 7 1 6 2 4 3 31 4 5 5 29 6 27 7 2 8 1 9 3 10 32 11 30 13
REMARK SMILES IDX 28 15 8 17 25 18 9 19 23 20 10 21 22 22 11 23 20 24 12 25
REMARK SMILES IDX 19 26 21 27 26 28 24 30 13 32 14 33 18 34 15 35 17 36 16 37
REMARK H PARENT 32 12 30 14 28 16 26 29 24 31
REMARK Flexibility Score: inf
ROOT
ATOM      1  O   UNL     1     101.609  47.842 134.469  1.00  0.00    -0.458 OA
ENDROOT
BRANCH   1   2
ATOM      2  C   UNL     1     102.054  48.544 133.299  1.00  0.00     0.339 C 
ATOM      3  C   UNL     1     100.232  47.763 132.040  1.00  0.00     0.199 C 
ATOM      4  C   UNL     1      99.593  49.166 131.893  1.00  0.00     0.180 C 
ATOM      5  O   UNL     1     101.646  47.851 132.128  1.00  0.00    -0.328 OA
ATOM      6  C   UNL     1     100.034  50.083 133.049  1.00  0.00     0.181 C 
ATOM      7  C   UNL     1     101.562  50.012 133.277  1.00  0.00     0.214 C 
BRANCH   3   8
ATOM      8  C   UNL     1      99.865  46.899 130.869  1.00  0.00     0.073 C 
ATOM      9  O   UNL     1     100.495  45.830 130.651  1.00  0.00    -0.547 OA
ATOM     10  O   UNL     1      98.798  47.244 130.047  1.00  0.00    -0.547 OA
ENDBRANCH   3   8
BRANCH   4  11
ATOM     11  O   UNL     1      99.877  49.758 130.646  1.00  0.00    -0.387 OA
ATOM     12  H   UNL     1      99.025  50.073 130.248  1.00  0.00     0.211 HD
ENDBRANCH   4  11
BRANCH   6  13
ATOM     13  O   UNL     1      99.357  49.701 134.220  1.00  0.00    -0.387 OA
ATOM     14  H   UNL     1      98.674  50.398 134.401  1.00  0.00     0.211 HD
ENDBRANCH   6  13
BRANCH   7  15
ATOM     15  O   UNL     1     102.242  50.706 132.263  1.00  0.00    -0.384 OA
ATOM     16  H   UNL     1     101.686  50.635 131.442  1.00  0.00     0.211 HD
ENDBRANCH   7  15
ENDBRANCH   1   2
BRANCH   1  17
ATOM     17  C   UNL     1     101.759  46.473 134.760  1.00  0.00     0.172 A 
ATOM     18  C   UNL     1     100.682  45.589 135.008  1.00  0.00     0.201 A 
ATOM     19  C   UNL     1     103.069  45.994 134.823  1.00  0.00     0.098 A 
ATOM     20  C   UNL     1     100.938  44.211 135.234  1.00  0.00     0.176 A 
ATOM     21  C   UNL     1     103.335  44.653 135.086  1.00  0.00     0.146 A 
ATOM     22  C   UNL     1     102.274  43.745 135.289  1.00  0.00     0.111 A 
ATOM     23  O   UNL     1     104.599  44.245 135.134  1.00  0.00    -0.456 OA
ATOM     24  C   UNL     1     102.614  42.395 135.533  1.00  0.00     0.197 A 
ATOM     25  C   UNL     1     104.951  42.985 135.372  1.00  0.00     0.138 A 
ATOM     26  C   UNL     1     103.956  42.017 135.573  1.00  0.00     0.100 A 
ATOM     27  O   UNL     1     101.729  41.516 135.714  1.00  0.00    -0.289 OA
BRANCH  18  28
ATOM     28  O   UNL     1      99.383  46.099 135.060  1.00  0.00    -0.502 OA
ATOM     29  H   UNL     1      99.070  46.921 134.566  1.00  0.00     0.293 HD
ENDBRANCH  18  28
BRANCH  20  30
ATOM     30  O   UNL     1      99.893  43.294 135.394  1.00  0.00    -0.504 OA
ATOM     31  H   UNL     1      98.975  43.528 135.746  1.00  0.00     0.293 HD
ENDBRANCH  20  30
BRANCH  25  32
ATOM     32  C   UNL     1     106.396  42.642 135.402  1.00  0.00     0.017 A 
ATOM     33  C   UNL     1     106.948  41.872 134.361  1.00  0.00     0.012 A 
ATOM     34  C   UNL     1     107.245  43.094 136.434  1.00  0.00     0.012 A 
ATOM     35  C   UNL     1     108.306  41.544 134.363  1.00  0.00     0.001 A 
ATOM     36  C   UNL     1     108.604  42.764 136.430  1.00  0.00     0.001 A 
ATOM     37  C   UNL     1     109.134  41.987 135.398  1.00  0.00     0.000 A 
ENDBRANCH  25  32
ENDBRANCH   1  17
TORSDOF 9
ENDMDL
MODEL 8
REMARK VINA RESULT:    -6.591      3.072      5.509
REMARK INTER + INTRA:         -10.420
REMARK INTER:                  -9.109
REMARK INTRA:                  -1.311
REMARK UNBOUND:                -1.324
REMARK SMILES O=C([O-])[C@H]1O[C@H](Oc2cc3oc(-c4ccccc4)cc(=O)c3c(O)c2O)[C@@H](O)[C@H](O)[C@H]1O
REMARK SMILES IDX 7 1 6 2 4 3 31 4 5 5 29 6 27 7 2 8 1 9 3 10 32 11 30 13
REMARK SMILES IDX 28 15 8 17 25 18 9 19 23 20 10 21 22 22 11 23 20 24 12 25
REMARK SMILES IDX 19 26 21 27 26 28 24 30 13 32 14 33 18 34 15 35 17 36 16 37
REMARK H PARENT 32 12 30 14 28 16 26 29 24 31
REMARK Flexibility Score: inf
ROOT
ATOM      1  O   UNL     1     102.732  45.254 135.549  1.00  0.00    -0.458 OA
ENDROOT
BRANCH   1   2
ATOM      2  C   UNL     1     104.141  45.065 135.353  1.00  0.00     0.339 C 
ATOM      3  C   UNL     1     104.529  44.953 137.667  1.00  0.00     0.199 C 
ATOM      4  C   UNL     1     104.944  43.462 137.635  1.00  0.00     0.180 C 
ATOM      5  O   UNL     1     104.864  45.604 136.451  1.00  0.00    -0.328 OA
ATOM      6  C   UNL     1     104.316  42.753 136.420  1.00  0.00     0.181 C 
ATOM      7  C   UNL     1     104.504  43.578 135.125  1.00  0.00     0.214 C 
BRANCH   3   8
ATOM      8  C   UNL     1     105.208  45.658 138.805  1.00  0.00     0.073 C 
ATOM      9  O   UNL     1     106.441  45.905 138.749  1.00  0.00    -0.547 OA
ATOM     10  O   UNL     1     104.472  46.087 139.904  1.00  0.00    -0.547 OA
ENDBRANCH   3   8
BRANCH   4  11
ATOM     11  O   UNL     1     106.343  43.292 137.648  1.00  0.00    -0.387 OA
ATOM     12  H   UNL     1     106.686  43.590 138.528  1.00  0.00     0.211 HD
ENDBRANCH   4  11
BRANCH   6  13
ATOM     13  O   UNL     1     102.947  42.552 136.664  1.00  0.00    -0.387 OA
ATOM     14  H   UNL     1     102.622  43.348 137.162  1.00  0.00     0.211 HD
ENDBRANCH   6  13
BRANCH   7  15
ATOM     15  O   UNL     1     105.833  43.495 134.680  1.00  0.00    -0.384 OA
ATOM     16  H   UNL     1     106.321  44.261 135.083  1.00  0.00     0.211 HD
ENDBRANCH   7  15
ENDBRANCH   1   2
BRANCH   1  17
ATOM     17  C   UNL     1     101.762  45.565 134.577  1.00  0.00     0.172 A 
ATOM     18  C   UNL     1     100.856  44.626 134.028  1.00  0.00     0.201 A 
ATOM     19  C   UNL     1     101.736  46.887 134.132  1.00  0.00     0.098 A 
ATOM     20  C   UNL     1      99.876  45.055 133.095  1.00  0.00     0.176 A 
ATOM     21  C   UNL     1     100.807  47.311 133.186  1.00  0.00     0.146 A 
ATOM     22  C   UNL     1      99.864  46.403 132.659  1.00  0.00     0.111 A 
ATOM     23  O   UNL     1     100.820  48.581 132.794  1.00  0.00    -0.456 OA
ATOM     24  C   UNL     1      98.937  46.903 131.717  1.00  0.00     0.197 A 
ATOM     25  C   UNL     1      99.970  49.080 131.900  1.00  0.00     0.138 A 
ATOM     26  C   UNL     1      98.992  48.245 131.339  1.00  0.00     0.100 A 
ATOM     27  O   UNL     1      98.054  46.163 131.205  1.00  0.00    -0.289 OA
BRANCH  18  28
ATOM     28  O   UNL     1     100.967  43.282 134.391  1.00  0.00    -0.502 OA
ATOM     29  H   UNL     1     100.188  42.646 134.478  1.00  0.00     0.293 HD
ENDBRANCH  18  28
BRANCH  20  30
ATOM     30  O   UNL     1      98.909  44.173 132.599  1.00  0.00    -0.504 OA
ATOM     31  H   UNL     1      98.754  43.986 131.619  1.00  0.00     0.293 HD
ENDBRANCH  20  30
BRANCH  25  32
ATOM     32  C   UNL     1     100.077  50.516 131.538  1.00  0.00     0.017 A 
ATOM     33  C   UNL     1      99.446  51.483 132.345  1.00  0.00     0.012 A 
ATOM     34  C   UNL     1     100.822  50.946 130.421  1.00  0.00     0.012 A 
ATOM     35  C   UNL     1      99.539  52.841 132.029  1.00  0.00     0.001 A 
ATOM     36  C   UNL     1     100.913  52.307 130.111  1.00  0.00     0.001 A 
ATOM     37  C   UNL     1     100.270  53.253 130.912  1.00  0.00     0.000 A 
ENDBRANCH  25  32
ENDBRANCH   1  17
TORSDOF 9
ENDMDL
MODEL 9
REMARK VINA RESULT:    -6.545      2.718      9.172
REMARK INTER + INTRA:         -10.357
REMARK INTER:                  -9.240
REMARK INTRA:                  -1.117
REMARK UNBOUND:                -1.324
REMARK SMILES O=C([O-])[C@H]1O[C@H](Oc2cc3oc(-c4ccccc4)cc(=O)c3c(O)c2O)[C@@H](O)[C@H](O)[C@H]1O
REMARK SMILES IDX 7 1 6 2 4 3 31 4 5 5 29 6 27 7 2 8 1 9 3 10 32 11 30 13
REMARK SMILES IDX 28 15 8 17 25 18 9 19 23 20 10 21 22 22 11 23 20 24 12 25
REMARK SMILES IDX 19 26 21 27 26 28 24 30 13 32 14 33 18 34 15 35 17 36 16 37
REMARK H PARENT 32 12 30 14 28 16 26 29 24 31
REMARK Flexibility Score: inf
ROOT
ATOM      1  O   UNL     1     101.916  47.531 133.886  1.00  0.00    -0.458 OA
ENDROOT
BRANCH   1   2
ATOM      2  C   UNL     1     100.564  47.087 133.702  1.00  0.00     0.339 C 
ATOM      3  C   UNL     1     100.061  48.924 132.329  1.00  0.00     0.199 C 
ATOM      4  C   UNL     1      99.872  48.062 131.058  1.00  0.00     0.180 C 
ATOM      5  O   UNL     1      99.706  48.201 133.497  1.00  0.00    -0.328 OA
ATOM      6  C   UNL     1     100.668  46.747 131.175  1.00  0.00     0.181 C 
ATOM      7  C   UNL     1     100.437  46.067 132.545  1.00  0.00     0.214 C 
BRANCH   3   8
ATOM      8  C   UNL     1      99.221  50.165 132.245  1.00  0.00     0.073 C 
ATOM      9  O   UNL     1      99.720  51.238 131.815  1.00  0.00    -0.547 OA
ATOM     10  O   UNL     1      97.875  50.128 132.593  1.00  0.00    -0.547 OA
ENDBRANCH   3   8
BRANCH   4  11
ATOM     11  O   UNL     1      98.515  47.804 130.779  1.00  0.00    -0.387 OA
ATOM     12  H   UNL     1      97.973  48.122 131.545  1.00  0.00     0.211 HD
ENDBRANCH   4  11
BRANCH   6  13
ATOM     13  O   UNL     1     102.035  47.023 131.003  1.00  0.00    -0.387 OA
ATOM     14  H   UNL     1     102.156  47.996 131.159  1.00  0.00     0.211 HD
ENDBRANCH   6  13
BRANCH   7  15
ATOM     15  O   UNL     1      99.162  45.479 132.591  1.00  0.00    -0.384 OA
ATOM     16  H   UNL     1      99.280  44.564 132.961  1.00  0.00     0.211 HD
ENDBRANCH   7  15
ENDBRANCH   1   2
BRANCH   1  17
ATOM     17  C   UNL     1     102.770  47.262 134.973  1.00  0.00     0.172 A 
ATOM     18  C   UNL     1     102.729  47.953 136.207  1.00  0.00     0.201 A 
ATOM     19  C   UNL     1     103.720  46.259 134.778  1.00  0.00     0.098 A 
ATOM     20  C   UNL     1     103.596  47.564 137.261  1.00  0.00     0.176 A 
ATOM     21  C   UNL     1     104.604  45.896 135.790  1.00  0.00     0.146 A 
ATOM     22  C   UNL     1     104.550  46.540 137.044  1.00  0.00     0.111 A 
ATOM     23  O   UNL     1     105.491  44.934 135.557  1.00  0.00    -0.456 OA
ATOM     24  C   UNL     1     105.464  46.111 138.033  1.00  0.00     0.197 A 
ATOM     25  C   UNL     1     106.371  44.515 136.462  1.00  0.00     0.138 A 
ATOM     26  C   UNL     1     106.374  45.096 137.739  1.00  0.00     0.100 A 
ATOM     27  O   UNL     1     105.477  46.624 139.185  1.00  0.00    -0.289 OA
BRANCH  18  28
ATOM     28  O   UNL     1     101.856  49.033 136.353  1.00  0.00    -0.502 OA
ATOM     29  H   UNL     1     101.157  49.111 137.076  1.00  0.00     0.293 HD
ENDBRANCH  18  28
BRANCH  20  30
ATOM     30  O   UNL     1     103.522  48.166 138.523  1.00  0.00    -0.504 OA
ATOM     31  H   UNL     1     104.323  48.421 139.083  1.00  0.00     0.293 HD
ENDBRANCH  20  30
BRANCH  25  32
ATOM     32  C   UNL     1     107.315  43.431 136.091  1.00  0.00     0.017 A 
ATOM     33  C   UNL     1     107.405  43.020 134.747  1.00  0.00     0.012 A 
ATOM     34  C   UNL     1     108.152  42.816 137.045  1.00  0.00     0.012 A 
ATOM     35  C   UNL     1     108.292  42.007 134.372  1.00  0.00     0.001 A 
ATOM     36  C   UNL     1     109.038  41.804 136.664  1.00  0.00     0.001 A 
ATOM     37  C   UNL     1     109.106  41.397 135.329  1.00  0.00     0.000 A 
ENDBRANCH  25  32
ENDBRANCH   1  17
TORSDOF 9
ENDMDL
