MODEL 1
REMARK VINA RESULT:    -4.483      0.000      0.000
REMARK INTER + INTRA:          -6.885
REMARK INTER:                  -6.580
REMARK INTRA:                  -0.305
REMARK UNBOUND:                -0.305
REMARK SMILES O=C([O-])CCCCCCCC(=O)[O-]
REMARK SMILES IDX 7 1 6 2 5 3 4 4 2 5 1 6 3 7 8 8 9 9 10 10 11 11 12 12 13 13
REMARK H PARENT
REMARK Flexibility Score: inf
ROOT
ATOM      1  C   UNL     1      15.728   1.423  40.930  1.00  0.00     0.000 C 
ENDROOT
BRANCH   1   2
ATOM      2  C   UNL     1      17.207   1.738  40.662  1.00  0.00     0.000 C 
BRANCH   2   3
ATOM      3  C   UNL     1      17.427   3.174  40.164  1.00  0.00     0.006 C 
BRANCH   3   4
ATOM      4  C   UNL     1      17.150   4.189  41.276  1.00  0.00     0.053 C 
BRANCH   4   5
ATOM      5  C   UNL     1      16.180   5.228  40.809  1.00  0.00     0.041 C 
ATOM      6  O   UNL     1      14.952   4.960  40.736  1.00  0.00    -0.550 OA
ATOM      7  O   UNL     1      16.625   6.508  40.503  1.00  0.00    -0.550 OA
ENDBRANCH   4   5
ENDBRANCH   3   4
ENDBRANCH   2   3
ENDBRANCH   1   2
BRANCH   1   8
ATOM      8  C   UNL     1      15.428  -0.083  40.905  1.00  0.00     0.000 C 
BRANCH   8   9
ATOM      9  C   UNL     1      13.990  -0.350  40.436  1.00  0.00     0.006 C 
BRANCH   9  10
ATOM     10  C   UNL     1      13.025  -0.555  41.611  1.00  0.00     0.053 C 
BRANCH  10  11
ATOM     11  C   UNL     1      11.625  -0.157  41.255  1.00  0.00     0.041 C 
ATOM     12  O   UNL     1      10.700  -0.263  42.104  1.00  0.00    -0.550 OA
ATOM     13  O   UNL     1      11.337   0.300  39.976  1.00  0.00    -0.550 OA
ENDBRANCH  10  11
ENDBRANCH   9  10
ENDBRANCH   8   9
ENDBRANCH   1   8
TORSDOF 8
ENDMDL
MODEL 2
REMARK VINA RESULT:    -4.458      2.660      3.106
REMARK INTER + INTRA:          -6.848
REMARK INTER:                  -6.728
REMARK INTRA:                  -0.120
REMARK UNBOUND:                -0.305
REMARK SMILES O=C([O-])CCCCCCCC(=O)[O-]
REMARK SMILES IDX 7 1 6 2 5 3 4 4 2 5 1 6 3 7 8 8 9 9 10 10 11 11 12 12 13 13
REMARK H PARENT
REMARK Flexibility Score: inf
ROOT
ATOM      1  C   UNL     1      16.064   1.643  41.014  1.00  0.00     0.000 C 
ENDROOT
BRANCH   1   2
ATOM      2  C   UNL     1      17.461   1.732  40.382  1.00  0.00     0.000 C 
BRANCH   2   3
ATOM      3  C   UNL     1      18.373   2.737  41.100  1.00  0.00     0.006 C 
BRANCH   3   4
ATOM      4  C   UNL     1      19.773   2.748  40.479  1.00  0.00     0.053 C 
BRANCH   4   5
ATOM      5  C   UNL     1      20.792   3.174  41.489  1.00  0.00     0.041 C 
ATOM      6  O   UNL     1      21.699   2.377  41.847  1.00  0.00    -0.550 OA
ATOM      7  O   UNL     1      20.770   4.466  41.997  1.00  0.00    -0.550 OA
ENDBRANCH   4   5
ENDBRANCH   3   4
ENDBRANCH   2   3
ENDBRANCH   1   2
BRANCH   1   8
ATOM      8  C   UNL     1      15.525   0.205  41.062  1.00  0.00     0.000 C 
BRANCH   8   9
ATOM      9  C   UNL     1      14.056   0.153  40.616  1.00  0.00     0.006 C 
BRANCH   9  10
ATOM     10  C   UNL     1      13.208  -0.755  41.516  1.00  0.00     0.053 C 
BRANCH  10  11
ATOM     11  C   UNL     1      11.746  -0.623  41.217  1.00  0.00     0.041 C 
ATOM     12  O   UNL     1      11.282  -1.039  40.122  1.00  0.00    -0.550 OA
ATOM     13  O   UNL     1      10.902  -0.011  42.134  1.00  0.00    -0.550 OA
ENDBRANCH  10  11
ENDBRANCH   9  10
ENDBRANCH   8   9
ENDBRANCH   1   8
TORSDOF 8
ENDMDL
MODEL 3
REMARK VINA RESULT:    -4.336      5.288      6.863
REMARK INTER + INTRA:          -6.669
REMARK INTER:                  -6.264
REMARK INTRA:                  -0.405
REMARK UNBOUND:                -0.305
REMARK SMILES O=C([O-])CCCCCCCC(=O)[O-]
REMARK SMILES IDX 7 1 6 2 5 3 4 4 2 5 1 6 3 7 8 8 9 9 10 10 11 11 12 12 13 13
REMARK H PARENT
REMARK Flexibility Score: inf
ROOT
ATOM      1  C   UNL     1      16.334   4.054  40.535  1.00  0.00     0.000 C 
ENDROOT
BRANCH   1   2
ATOM      2  C   UNL     1      17.099   2.732  40.701  1.00  0.00     0.000 C 
BRANCH   2   3
ATOM      3  C   UNL     1      18.389   2.892  41.520  1.00  0.00     0.006 C 
BRANCH   3   4
ATOM      4  C   UNL     1      19.626   2.713  40.636  1.00  0.00     0.053 C 
BRANCH   4   5
ATOM      5  C   UNL     1      20.867   3.067  41.392  1.00  0.00     0.041 C 
ATOM      6  O   UNL     1      21.028   4.236  41.832  1.00  0.00    -0.550 OA
ATOM      7  O   UNL     1      21.824   2.095  41.655  1.00  0.00    -0.550 OA
ENDBRANCH   4   5
ENDBRANCH   3   4
ENDBRANCH   2   3
ENDBRANCH   1   2
BRANCH   1   8
ATOM      8  C   UNL     1      15.779   4.589  41.864  1.00  0.00     0.000 C 
BRANCH   8   9
ATOM      9  C   UNL     1      15.997   6.105  41.979  1.00  0.00     0.006 C 
BRANCH   9  10
ATOM     10  C   UNL     1      16.731   6.681  40.761  1.00  0.00     0.053 C 
BRANCH  10  11
ATOM     11  C   UNL     1      17.346   8.013  41.063  1.00  0.00     0.041 C 
ATOM     12  O   UNL     1      16.727   9.075  40.787  1.00  0.00    -0.550 OA
ATOM     13  O   UNL     1      18.616   8.082  41.622  1.00  0.00    -0.550 OA
ENDBRANCH  10  11
ENDBRANCH   9  10
ENDBRANCH   8   9
ENDBRANCH   1   8
TORSDOF 8
ENDMDL
MODEL 4
REMARK VINA RESULT:    -4.261      0.988      6.273
REMARK INTER + INTRA:          -6.559
REMARK INTER:                  -6.281
REMARK INTRA:                  -0.278
REMARK UNBOUND:                -0.305
REMARK SMILES O=C([O-])CCCCCCCC(=O)[O-]
REMARK SMILES IDX 7 1 6 2 5 3 4 4 2 5 1 6 3 7 8 8 9 9 10 10 11 11 12 12 13 13
REMARK H PARENT
REMARK Flexibility Score: inf
ROOT
ATOM      1  C   UNL     1      15.740   1.499  40.560  1.00  0.00     0.000 C 
ENDROOT
BRANCH   1   2
ATOM      2  C   UNL     1      15.508   0.044  40.993  1.00  0.00     0.000 C 
BRANCH   2   3
ATOM      3  C   UNL     1      14.168  -0.517  40.493  1.00  0.00     0.006 C 
BRANCH   3   4
ATOM      4  C   UNL     1      13.232  -0.829  41.664  1.00  0.00     0.053 C 
BRANCH   4   5
ATOM      5  C   UNL     1      12.025   0.054  41.620  1.00  0.00     0.041 C 
ATOM      6  O   UNL     1      10.877  -0.434  41.795  1.00  0.00    -0.550 OA
ATOM      7  O   UNL     1      12.171   1.423  41.437  1.00  0.00    -0.550 OA
ENDBRANCH   4   5
ENDBRANCH   3   4
ENDBRANCH   2   3
ENDBRANCH   1   2
BRANCH   1   8
ATOM      8  C   UNL     1      17.135   2.016  40.944  1.00  0.00     0.000 C 
BRANCH   8   9
ATOM      9  C   UNL     1      17.290   3.501  40.580  1.00  0.00     0.006 C 
BRANCH   9  10
ATOM     10  C   UNL     1      16.481   4.414  41.511  1.00  0.00     0.053 C 
BRANCH  10  11
ATOM     11  C   UNL     1      16.949   5.835  41.436  1.00  0.00     0.041 C 
ATOM     12  O   UNL     1      16.657   6.548  40.439  1.00  0.00    -0.550 OA
ATOM     13  O   UNL     1      17.733   6.363  42.453  1.00  0.00    -0.550 OA
ENDBRANCH  10  11
ENDBRANCH   9  10
ENDBRANCH   8   9
ENDBRANCH   1   8
TORSDOF 8
ENDMDL
MODEL 5
REMARK VINA RESULT:    -4.236      5.398      6.337
REMARK INTER + INTRA:          -6.522
REMARK INTER:                  -6.039
REMARK INTRA:                  -0.483
REMARK UNBOUND:                -0.305
REMARK SMILES O=C([O-])CCCCCCCC(=O)[O-]
REMARK SMILES IDX 7 1 6 2 5 3 4 4 2 5 1 6 3 7 8 8 9 9 10 10 11 11 12 12 13 13
REMARK H PARENT
REMARK Flexibility Score: inf
ROOT
ATOM      1  C   UNL     1      16.687   5.138  41.005  1.00  0.00     0.000 C 
ENDROOT
BRANCH   1   2
ATOM      2  C   UNL     1      17.043   5.359  42.483  1.00  0.00     0.000 C 
BRANCH   2   3
ATOM      3  C   UNL     1      17.168   6.846  42.847  1.00  0.00     0.006 C 
BRANCH   3   4
ATOM      4  C   UNL     1      18.016   7.594  41.815  1.00  0.00     0.053 C 
BRANCH   4   5
ATOM      5  C   UNL     1      17.190   8.611  41.094  1.00  0.00     0.041 C 
ATOM      6  O   UNL     1      17.402   8.851  39.876  1.00  0.00    -0.550 OA
ATOM      7  O   UNL     1      16.151   9.258  41.752  1.00  0.00    -0.550 OA
ENDBRANCH   4   5
ENDBRANCH   3   4
ENDBRANCH   2   3
ENDBRANCH   1   2
BRANCH   1   8
ATOM      8  C   UNL     1      16.892   3.684  40.557  1.00  0.00     0.000 C 
BRANCH   8   9
ATOM      9  C   UNL     1      17.955   2.988  41.419  1.00  0.00     0.006 C 
BRANCH   9  10
ATOM     10  C   UNL     1      19.254   2.729  40.643  1.00  0.00     0.053 C 
BRANCH  10  11
ATOM     11  C   UNL     1      20.451   3.252  41.375  1.00  0.00     0.041 C 
ATOM     12  O   UNL     1      20.491   4.454  41.750  1.00  0.00    -0.550 OA
ATOM     13  O   UNL     1      21.536   2.420  41.616  1.00  0.00    -0.550 OA
ENDBRANCH  10  11
ENDBRANCH   9  10
ENDBRANCH   8   9
ENDBRANCH   1   8
TORSDOF 8
ENDMDL
MODEL 6
REMARK VINA RESULT:    -4.234      2.376      6.495
REMARK INTER + INTRA:          -6.519
REMARK INTER:                  -6.220
REMARK INTRA:                  -0.298
REMARK UNBOUND:                -0.305
REMARK SMILES O=C([O-])CCCCCCCC(=O)[O-]
REMARK SMILES IDX 7 1 6 2 5 3 4 4 2 5 1 6 3 7 8 8 9 9 10 10 11 11 12 12 13 13
REMARK H PARENT
REMARK Flexibility Score: inf
ROOT
ATOM      1  C   UNL     1      16.049   0.781  40.569  1.00  0.00     0.000 C 
ENDROOT
BRANCH   1   2
ATOM      2  C   UNL     1      14.895  -0.102  41.067  1.00  0.00     0.000 C 
BRANCH   2   3
ATOM      3  C   UNL     1      14.102  -0.744  39.919  1.00  0.00     0.006 C 
BRANCH   3   4
ATOM      4  C   UNL     1      12.725  -1.213  40.399  1.00  0.00     0.053 C 
BRANCH   4   5
ATOM      5  C   UNL     1      11.789  -0.052  40.523  1.00  0.00     0.041 C 
ATOM      6  O   UNL     1      11.162   0.366  39.513  1.00  0.00    -0.550 OA
ATOM      7  O   UNL     1      11.570   0.536  41.762  1.00  0.00    -0.550 OA
ENDBRANCH   4   5
ENDBRANCH   3   4
ENDBRANCH   2   3
ENDBRANCH   1   2
BRANCH   1   8
ATOM      8  C   UNL     1      16.065   2.167  41.231  1.00  0.00     0.000 C 
BRANCH   8   9
ATOM      9  C   UNL     1      16.996   3.126  40.476  1.00  0.00     0.006 C 
BRANCH   9  10
ATOM     10  C   UNL     1      18.230   3.509  41.303  1.00  0.00     0.053 C 
BRANCH  10  11
ATOM     11  C   UNL     1      19.454   2.777  40.846  1.00  0.00     0.041 C 
ATOM     12  O   UNL     1      20.559   2.965  41.421  1.00  0.00    -0.550 OA
ATOM     13  O   UNL     1      19.381   1.911  39.763  1.00  0.00    -0.550 OA
ENDBRANCH  10  11
ENDBRANCH   9  10
ENDBRANCH   8   9
ENDBRANCH   1   8
TORSDOF 8
ENDMDL
MODEL 7
REMARK VINA RESULT:    -4.198      4.755      5.987
REMARK INTER + INTRA:          -6.467
REMARK INTER:                  -5.770
REMARK INTRA:                  -0.696
REMARK UNBOUND:                -0.305
REMARK SMILES O=C([O-])CCCCCCCC(=O)[O-]
REMARK SMILES IDX 7 1 6 2 5 3 4 4 2 5 1 6 3 7 8 8 9 9 10 10 11 11 12 12 13 13
REMARK H PARENT
REMARK Flexibility Score: inf
ROOT
ATOM      1  C   UNL     1      11.060   0.594  41.033  1.00  0.00     0.000 C 
ENDROOT
BRANCH   1   2
ATOM      2  C   UNL     1      12.131  -0.378  41.553  1.00  0.00     0.000 C 
BRANCH   2   3
ATOM      3  C   UNL     1      13.527  -0.080  40.986  1.00  0.00     0.006 C 
BRANCH   3   4
ATOM      4  C   UNL     1      13.832  -0.975  39.782  1.00  0.00     0.053 C 
BRANCH   4   5
ATOM      5  C   UNL     1      14.005  -2.396  40.214  1.00  0.00     0.041 C 
ATOM      6  O   UNL     1      14.806  -2.682  41.144  1.00  0.00    -0.550 OA
ATOM      7  O   UNL     1      13.246  -3.400  39.627  1.00  0.00    -0.550 OA
ENDBRANCH   4   5
ENDBRANCH   3   4
ENDBRANCH   2   3
ENDBRANCH   1   2
BRANCH   1   8
ATOM      8  C   UNL     1      10.111  -0.059  40.017  1.00  0.00     0.000 C 
BRANCH   8   9
ATOM      9  C   UNL     1      10.019  -1.575  40.245  1.00  0.00     0.006 C 
BRANCH   9  10
ATOM     10  C   UNL     1       8.597  -2.023  40.606  1.00  0.00     0.053 C 
BRANCH  10  11
ATOM     11  C   UNL     1       8.190  -1.539  41.964  1.00  0.00     0.041 C 
ATOM     12  O   UNL     1       8.816  -1.923  42.988  1.00  0.00    -0.550 OA
ATOM     13  O   UNL     1       7.101  -0.689  42.101  1.00  0.00    -0.550 OA
ENDBRANCH  10  11
ENDBRANCH   9  10
ENDBRANCH   8   9
ENDBRANCH   1   8
TORSDOF 8
ENDMDL
MODEL 8
REMARK VINA RESULT:    -4.125      4.841      7.323
REMARK INTER + INTRA:          -6.359
REMARK INTER:                  -5.893
REMARK INTRA:                  -0.466
REMARK UNBOUND:                -0.305
REMARK SMILES O=C([O-])CCCCCCCC(=O)[O-]
REMARK SMILES IDX 7 1 6 2 5 3 4 4 2 5 1 6 3 7 8 8 9 9 10 10 11 11 12 12 13 13
REMARK H PARENT
REMARK Flexibility Score: inf
ROOT
ATOM      1  C   UNL     1      16.448   4.990  42.683  1.00  0.00     0.000 C 
ENDROOT
BRANCH   1   2
ATOM      2  C   UNL     1      16.452   4.944  41.148  1.00  0.00     0.000 C 
BRANCH   2   3
ATOM      3  C   UNL     1      16.947   3.599  40.596  1.00  0.00     0.006 C 
BRANCH   3   4
ATOM      4  C   UNL     1      17.912   2.926  41.575  1.00  0.00     0.053 C 
BRANCH   4   5
ATOM      5  C   UNL     1      19.252   2.728  40.940  1.00  0.00     0.041 C 
ATOM      6  O   UNL     1      19.361   2.031  39.897  1.00  0.00    -0.550 OA
ATOM      7  O   UNL     1      20.373   3.354  41.470  1.00  0.00    -0.550 OA
ENDBRANCH   4   5
ENDBRANCH   3   4
ENDBRANCH   2   3
ENDBRANCH   1   2
BRANCH   1   8
ATOM      8  C   UNL     1      16.643   6.410  43.235  1.00  0.00     0.000 C 
BRANCH   8   9
ATOM      9  C   UNL     1      17.758   7.146  42.476  1.00  0.00     0.006 C 
BRANCH   9  10
ATOM     10  C   UNL     1      17.579   8.669  42.515  1.00  0.00     0.053 C 
BRANCH  10  11
ATOM     11  C   UNL     1      16.985   9.191  41.244  1.00  0.00     0.041 C 
ATOM     12  O   UNL     1      17.286   8.664  40.140  1.00  0.00    -0.550 OA
ATOM     13  O   UNL     1      16.124  10.280  41.275  1.00  0.00    -0.550 OA
ENDBRANCH  10  11
ENDBRANCH   9  10
ENDBRANCH   8   9
ENDBRANCH   1   8
TORSDOF 8
ENDMDL
MODEL 9
REMARK VINA RESULT:    -4.115      2.009      2.616
REMARK INTER + INTRA:          -6.344
REMARK INTER:                  -5.938
REMARK INTRA:                  -0.406
REMARK UNBOUND:                -0.305
REMARK SMILES O=C([O-])CCCCCCCC(=O)[O-]
REMARK SMILES IDX 7 1 6 2 5 3 4 4 2 5 1 6 3 7 8 8 9 9 10 10 11 11 12 12 13 13
REMARK H PARENT
REMARK Flexibility Score: inf
ROOT
ATOM      1  C   UNL     1      16.790   2.619  41.499  1.00  0.00     0.000 C 
ENDROOT
BRANCH   1   2
ATOM      2  C   UNL     1      17.329   3.808  40.690  1.00  0.00     0.000 C 
BRANCH   2   3
ATOM      3  C   UNL     1      16.362   5.002  40.675  1.00  0.00     0.006 C 
BRANCH   3   4
ATOM      4  C   UNL     1      15.232   4.805  41.689  1.00  0.00     0.053 C 
BRANCH   4   5
ATOM      5  C   UNL     1      15.332   5.814  42.789  1.00  0.00     0.041 C 
ATOM      6  O   UNL     1      14.317   6.476  43.134  1.00  0.00    -0.550 OA
ATOM      7  O   UNL     1      16.531   5.987  43.468  1.00  0.00    -0.550 OA
ENDBRANCH   4   5
ENDBRANCH   3   4
ENDBRANCH   2   3
ENDBRANCH   1   2
BRANCH   1   8
ATOM      8  C   UNL     1      16.651   1.342  40.657  1.00  0.00     0.000 C 
BRANCH   8   9
ATOM      9  C   UNL     1      15.203   0.827  40.674  1.00  0.00     0.006 C 
BRANCH   9  10
ATOM     10  C   UNL     1      15.123  -0.671  40.993  1.00  0.00     0.053 C 
BRANCH  10  11
ATOM     11  C   UNL     1      14.103  -1.365  40.145  1.00  0.00     0.041 C 
ATOM     12  O   UNL     1      13.236  -0.698  39.521  1.00  0.00    -0.550 OA
ATOM     13  O   UNL     1      14.089  -2.752  40.070  1.00  0.00    -0.550 OA
ENDBRANCH  10  11
ENDBRANCH   9  10
ENDBRANCH   8   9
ENDBRANCH   1   8
TORSDOF 8
ENDMDL
