MODEL 1
REMARK VINA RESULT:    -3.356      0.000      0.000
REMARK INTER + INTRA:          -6.130
REMARK INTER:                  -5.122
REMARK INTRA:                  -1.008
REMARK UNBOUND:                -1.008
REMARK SMILES CCCCCCCCCCC(=O)[O-]
REMARK SMILES IDX 7 1 8 2 9 3 10 4 11 5 12 6 13 7 6 8 5 9 4 10 3 11 2 12 1 13
REMARK H PARENT
REMARK Flexibility Score: inf
ROOT
ATOM      1  C   UNL     1     -99.980  70.277  25.563  1.00  0.00     0.000 C 
ENDROOT
BRANCH   1   2
ATOM      2  C   UNL     1     -99.334  70.985  26.768  1.00  0.00     0.000 C 
BRANCH   2   3
ATOM      3  C   UNL     1     -98.288  70.149  27.528  1.00  0.00     0.006 C 
BRANCH   3   4
ATOM      4  C   UNL     1     -98.675  69.893  28.990  1.00  0.00     0.053 C 
BRANCH   4   5
ATOM      5  C   UNL     1     -99.193  68.499  29.156  1.00  0.00     0.041 C 
ATOM      6  O   UNL     1     -98.593  67.687  29.909  1.00  0.00    -0.550 OA
ATOM      7  O   UNL     1    -100.365  68.111  28.519  1.00  0.00    -0.550 OA
ENDBRANCH   4   5
ENDBRANCH   3   4
ENDBRANCH   2   3
ENDBRANCH   1   2
BRANCH   1   8
ATOM      8  C   UNL     1     -99.328  68.923  25.243  1.00  0.00     0.000 C 
BRANCH   8   9
ATOM      9  C   UNL     1     -99.268  68.687  23.728  1.00  0.00    -0.000 C 
BRANCH   9  10
ATOM     10  C   UNL     1     -99.536  69.988  22.958  1.00  0.00    -0.000 C 
BRANCH  10  11
ATOM     11  C   UNL     1     -98.277  70.541  22.272  1.00  0.00    -0.000 C 
BRANCH  11  12
ATOM     12  C   UNL     1     -98.065  72.038  22.539  1.00  0.00    -0.003 C 
ATOM     13  C   UNL     1     -97.299  72.259  23.840  1.00  0.00     0.004 C 
ENDBRANCH  11  12
ENDBRANCH  10  11
ENDBRANCH   9  10
ENDBRANCH   8   9
ENDBRANCH   1   8
TORSDOF 9
ENDMDL
MODEL 2
REMARK VINA RESULT:    -3.284      1.922      3.240
REMARK INTER + INTRA:          -6.020
REMARK INTER:                  -5.257
REMARK INTRA:                  -0.763
REMARK UNBOUND:                -1.008
REMARK SMILES CCCCCCCCCCC(=O)[O-]
REMARK SMILES IDX 7 1 8 2 9 3 10 4 11 5 12 6 13 7 6 8 5 9 4 10 3 11 2 12 1 13
REMARK H PARENT
REMARK Flexibility Score: inf
ROOT
ATOM      1  C   UNL     1     -99.629  69.604  23.063  1.00  0.00     0.000 C 
ENDROOT
BRANCH   1   2
ATOM      2  C   UNL     1     -99.210  68.517  24.070  1.00  0.00     0.000 C 
BRANCH   2   3
ATOM      3  C   UNL     1     -99.210  68.962  25.544  1.00  0.00     0.006 C 
BRANCH   3   4
ATOM      4  C   UNL     1    -100.251  70.049  25.841  1.00  0.00     0.053 C 
BRANCH   4   5
ATOM      5  C   UNL     1    -101.302  69.526  26.769  1.00  0.00     0.041 C 
ATOM      6  O   UNL     1    -101.106  68.461  27.411  1.00  0.00    -0.550 OA
ATOM      7  O   UNL     1    -102.477  70.241  26.963  1.00  0.00    -0.550 OA
ENDBRANCH   4   5
ENDBRANCH   3   4
ENDBRANCH   2   3
ENDBRANCH   1   2
BRANCH   1   8
ATOM      8  C   UNL     1     -98.430  70.295  22.395  1.00  0.00     0.000 C 
BRANCH   8   9
ATOM      9  C   UNL     1     -98.388  71.787  22.751  1.00  0.00    -0.000 C 
BRANCH   9  10
ATOM     10  C   UNL     1     -97.507  72.032  23.986  1.00  0.00    -0.000 C 
BRANCH  10  11
ATOM     11  C   UNL     1     -96.382  73.044  23.718  1.00  0.00    -0.000 C 
BRANCH  11  12
ATOM     12  C   UNL     1     -95.498  72.647  22.527  1.00  0.00    -0.003 C 
ATOM     13  C   UNL     1     -95.353  73.802  21.542  1.00  0.00     0.004 C 
ENDBRANCH  11  12
ENDBRANCH  10  11
ENDBRANCH   9  10
ENDBRANCH   8   9
ENDBRANCH   1   8
TORSDOF 9
ENDMDL
MODEL 3
REMARK VINA RESULT:    -3.252      1.631      2.719
REMARK INTER + INTRA:          -5.971
REMARK INTER:                  -4.884
REMARK INTRA:                  -1.087
REMARK UNBOUND:                -1.008
REMARK SMILES CCCCCCCCCCC(=O)[O-]
REMARK SMILES IDX 7 1 8 2 9 3 10 4 11 5 12 6 13 7 6 8 5 9 4 10 3 11 2 12 1 13
REMARK H PARENT
REMARK Flexibility Score: inf
ROOT
ATOM      1  C   UNL     1    -101.437  71.238  26.953  1.00  0.00     0.000 C 
ENDROOT
BRANCH   1   2
ATOM      2  C   UNL     1    -101.872  69.769  26.801  1.00  0.00     0.000 C 
BRANCH   2   3
ATOM      3  C   UNL     1    -100.858  68.735  27.323  1.00  0.00     0.006 C 
BRANCH   3   4
ATOM      4  C   UNL     1    -100.516  68.927  28.806  1.00  0.00     0.053 C 
BRANCH   4   5
ATOM      5  C   UNL     1     -99.042  68.799  29.023  1.00  0.00     0.041 C 
ATOM      6  O   UNL     1     -98.569  67.764  29.564  1.00  0.00    -0.550 OA
ATOM      7  O   UNL     1     -98.183  69.799  28.584  1.00  0.00    -0.550 OA
ENDBRANCH   4   5
ENDBRANCH   3   4
ENDBRANCH   2   3
ENDBRANCH   1   2
BRANCH   1   8
ATOM      8  C   UNL     1    -100.799  71.810  25.678  1.00  0.00     0.000 C 
BRANCH   8   9
ATOM      9  C   UNL     1     -99.279  71.946  25.837  1.00  0.00    -0.000 C 
BRANCH   9  10
ATOM     10  C   UNL     1     -98.553  70.742  25.220  1.00  0.00    -0.000 C 
BRANCH  10  11
ATOM     11  C   UNL     1     -98.635  70.723  23.685  1.00  0.00    -0.000 C 
BRANCH  11  12
ATOM     12  C   UNL     1     -99.300  69.450  23.143  1.00  0.00    -0.003 C 
ATOM     13  C   UNL     1     -99.131  68.287  24.116  1.00  0.00     0.004 C 
ENDBRANCH  11  12
ENDBRANCH  10  11
ENDBRANCH   9  10
ENDBRANCH   8   9
ENDBRANCH   1   8
TORSDOF 9
ENDMDL
MODEL 4
REMARK VINA RESULT:    -3.229      2.130      4.191
REMARK INTER + INTRA:          -5.936
REMARK INTER:                  -5.027
REMARK INTRA:                  -0.909
REMARK UNBOUND:                -1.008
REMARK SMILES CCCCCCCCCCC(=O)[O-]
REMARK SMILES IDX 7 1 8 2 9 3 10 4 11 5 12 6 13 7 6 8 5 9 4 10 3 11 2 12 1 13
REMARK H PARENT
REMARK Flexibility Score: inf
ROOT
ATOM      1  C   UNL     1     -98.608  71.753  23.037  1.00  0.00     0.000 C 
ENDROOT
BRANCH   1   2
ATOM      2  C   UNL     1     -98.574  70.291  22.552  1.00  0.00     0.000 C 
BRANCH   2   3
ATOM      3  C   UNL     1     -99.666  69.384  23.147  1.00  0.00     0.006 C 
BRANCH   3   4
ATOM      4  C   UNL     1     -99.154  68.507  24.297  1.00  0.00     0.053 C 
BRANCH   4   5
ATOM      5  C   UNL     1     -99.493  69.124  25.616  1.00  0.00     0.041 C 
ATOM      6  O   UNL     1    -100.560  69.779  25.753  1.00  0.00    -0.550 OA
ATOM      7  O   UNL     1     -98.657  68.934  26.710  1.00  0.00    -0.550 OA
ENDBRANCH   4   5
ENDBRANCH   3   4
ENDBRANCH   2   3
ENDBRANCH   1   2
BRANCH   1   8
ATOM      8  C   UNL     1     -97.635  72.023  24.195  1.00  0.00     0.000 C 
BRANCH   8   9
ATOM      9  C   UNL     1     -96.673  73.166  23.849  1.00  0.00    -0.000 C 
BRANCH   9  10
ATOM     10  C   UNL     1     -95.523  72.666  22.962  1.00  0.00    -0.000 C 
BRANCH  10  11
ATOM     11  C   UNL     1     -95.148  73.668  21.858  1.00  0.00    -0.000 C 
BRANCH  11  12
ATOM     12  C   UNL     1     -96.012  73.512  20.598  1.00  0.00    -0.003 C 
ATOM     13  C   UNL     1     -96.190  72.041  20.234  1.00  0.00     0.004 C 
ENDBRANCH  11  12
ENDBRANCH  10  11
ENDBRANCH   9  10
ENDBRANCH   8   9
ENDBRANCH   1   8
TORSDOF 9
ENDMDL
MODEL 5
REMARK VINA RESULT:    -3.182      3.785      5.267
REMARK INTER + INTRA:          -5.864
REMARK INTER:                  -4.578
REMARK INTRA:                  -1.285
REMARK UNBOUND:                -1.008
REMARK SMILES CCCCCCCCCCC(=O)[O-]
REMARK SMILES IDX 7 1 8 2 9 3 10 4 11 5 12 6 13 7 6 8 5 9 4 10 3 11 2 12 1 13
REMARK H PARENT
REMARK Flexibility Score: inf
ROOT
ATOM      1  C   UNL     1     -99.675  71.613  26.008  1.00  0.00     0.000 C 
ENDROOT
BRANCH   1   2
ATOM      2  C   UNL     1     -99.157  72.718  25.069  1.00  0.00     0.000 C 
BRANCH   2   3
ATOM      3  C   UNL     1     -97.751  72.472  24.492  1.00  0.00     0.006 C 
BRANCH   3   4
ATOM      4  C   UNL     1     -97.617  72.923  23.031  1.00  0.00     0.053 C 
BRANCH   4   5
ATOM      5  C   UNL     1     -96.399  72.319  22.408  1.00  0.00     0.041 C 
ATOM      6  O   UNL     1     -96.511  71.532  21.432  1.00  0.00    -0.550 OA
ATOM      7  O   UNL     1     -95.135  72.665  22.872  1.00  0.00    -0.550 OA
ENDBRANCH   4   5
ENDBRANCH   3   4
ENDBRANCH   2   3
ENDBRANCH   1   2
BRANCH   1   8
ATOM      8  C   UNL     1     -98.549  70.755  26.604  1.00  0.00     0.000 C 
BRANCH   8   9
ATOM      9  C   UNL     1     -98.895  69.263  26.528  1.00  0.00    -0.000 C 
BRANCH   9  10
ATOM     10  C   UNL     1     -99.846  68.979  25.355  1.00  0.00    -0.000 C 
BRANCH  10  11
ATOM     11  C   UNL     1     -99.123  68.382  24.137  1.00  0.00    -0.000 C 
BRANCH  11  12
ATOM     12  C   UNL     1     -98.954  69.393  22.995  1.00  0.00    -0.003 C 
ATOM     13  C   UNL     1    -100.282  70.063  22.654  1.00  0.00     0.004 C 
ENDBRANCH  11  12
ENDBRANCH  10  11
ENDBRANCH   9  10
ENDBRANCH   8   9
ENDBRANCH   1   8
TORSDOF 9
ENDMDL
MODEL 6
REMARK VINA RESULT:    -3.162      1.082      2.319
REMARK INTER + INTRA:          -5.834
REMARK INTER:                  -5.188
REMARK INTRA:                  -0.646
REMARK UNBOUND:                -1.008
REMARK SMILES CCCCCCCCCCC(=O)[O-]
REMARK SMILES IDX 7 1 8 2 9 3 10 4 11 5 12 6 13 7 6 8 5 9 4 10 3 11 2 12 1 13
REMARK H PARENT
REMARK Flexibility Score: inf
ROOT
ATOM      1  C   UNL     1     -99.143  68.765  23.829  1.00  0.00     0.000 C 
ENDROOT
BRANCH   1   2
ATOM      2  C   UNL     1     -99.568  68.850  25.307  1.00  0.00     0.000 C 
BRANCH   2   3
ATOM      3  C   UNL     1     -99.008  70.061  26.075  1.00  0.00     0.006 C 
BRANCH   3   4
ATOM      4  C   UNL     1     -99.642  70.235  27.462  1.00  0.00     0.053 C 
BRANCH   4   5
ATOM      5  C   UNL     1     -99.472  68.990  28.273  1.00  0.00     0.041 C 
ATOM      6  O   UNL     1    -100.479  68.319  28.620  1.00  0.00    -0.550 OA
ATOM      7  O   UNL     1     -98.199  68.544  28.605  1.00  0.00    -0.550 OA
ENDBRANCH   4   5
ENDBRANCH   3   4
ENDBRANCH   2   3
ENDBRANCH   1   2
BRANCH   1   8
ATOM      8  C   UNL     1     -99.503  70.026  23.028  1.00  0.00     0.000 C 
BRANCH   8   9
ATOM      9  C   UNL     1     -98.269  70.600  22.322  1.00  0.00    -0.000 C 
BRANCH   9  10
ATOM     10  C   UNL     1     -98.091  72.090  22.652  1.00  0.00    -0.000 C 
BRANCH  10  11
ATOM     11  C   UNL     1     -97.256  72.319  23.922  1.00  0.00    -0.000 C 
BRANCH  11  12
ATOM     12  C   UNL     1     -96.118  73.327  23.709  1.00  0.00    -0.003 C 
ATOM     13  C   UNL     1     -95.304  72.980  22.466  1.00  0.00     0.004 C 
ENDBRANCH  11  12
ENDBRANCH  10  11
ENDBRANCH   9  10
ENDBRANCH   8   9
ENDBRANCH   1   8
TORSDOF 9
ENDMDL
MODEL 7
REMARK VINA RESULT:    -3.149     11.078     12.948
REMARK INTER + INTRA:          -5.814
REMARK INTER:                  -5.213
REMARK INTRA:                  -0.602
REMARK UNBOUND:                -1.008
REMARK SMILES CCCCCCCCCCC(=O)[O-]
REMARK SMILES IDX 7 1 8 2 9 3 10 4 11 5 12 6 13 7 6 8 5 9 4 10 3 11 2 12 1 13
REMARK H PARENT
REMARK Flexibility Score: inf
ROOT
ATOM      1  C   UNL     1    -100.232  57.610  20.246  1.00  0.00     0.000 C 
ENDROOT
BRANCH   1   2
ATOM      2  C   UNL     1    -100.502  58.031  21.702  1.00  0.00     0.000 C 
BRANCH   2   3
ATOM      3  C   UNL     1    -101.675  59.010  21.888  1.00  0.00     0.006 C 
BRANCH   3   4
ATOM      4  C   UNL     1    -101.602  59.786  23.209  1.00  0.00     0.053 C 
BRANCH   4   5
ATOM      5  C   UNL     1    -101.297  61.228  22.952  1.00  0.00     0.041 C 
ATOM      6  O   UNL     1    -100.232  61.737  23.391  1.00  0.00    -0.550 OA
ATOM      7  O   UNL     1    -102.164  61.997  22.186  1.00  0.00    -0.550 OA
ENDBRANCH   4   5
ENDBRANCH   3   4
ENDBRANCH   2   3
ENDBRANCH   1   2
BRANCH   1   8
ATOM      8  C   UNL     1     -98.769  57.212  19.998  1.00  0.00     0.000 C 
BRANCH   8   9
ATOM      9  C   UNL     1     -97.809  58.268  20.561  1.00  0.00    -0.000 C 
BRANCH   9  10
ATOM     10  C   UNL     1     -96.851  57.647  21.589  1.00  0.00    -0.000 C 
BRANCH  10  11
ATOM     11  C   UNL     1     -96.050  56.468  21.015  1.00  0.00    -0.000 C 
BRANCH  11  12
ATOM     12  C   UNL     1     -96.391  55.134  21.694  1.00  0.00    -0.003 C 
ATOM     13  C   UNL     1     -97.134  55.361  23.007  1.00  0.00     0.004 C 
ENDBRANCH  11  12
ENDBRANCH  10  11
ENDBRANCH   9  10
ENDBRANCH   8   9
ENDBRANCH   1   8
TORSDOF 9
ENDMDL
MODEL 8
REMARK VINA RESULT:    -3.124      1.509      2.773
REMARK INTER + INTRA:          -5.776
REMARK INTER:                  -4.546
REMARK INTRA:                  -1.230
REMARK UNBOUND:                -1.008
REMARK SMILES CCCCCCCCCCC(=O)[O-]
REMARK SMILES IDX 7 1 8 2 9 3 10 4 11 5 12 6 13 7 6 8 5 9 4 10 3 11 2 12 1 13
REMARK H PARENT
REMARK Flexibility Score: inf
ROOT
ATOM      1  C   UNL     1     -98.616  72.538  25.286  1.00  0.00     0.000 C 
ENDROOT
BRANCH   1   2
ATOM      2  C   UNL     1     -99.319  71.645  26.325  1.00  0.00     0.000 C 
BRANCH   2   3
ATOM      3  C   UNL     1     -98.630  70.294  26.592  1.00  0.00     0.006 C 
BRANCH   3   4
ATOM      4  C   UNL     1     -99.478  69.093  26.155  1.00  0.00     0.053 C 
BRANCH   4   5
ATOM      5  C   UNL     1    -100.640  68.911  27.079  1.00  0.00     0.041 C 
ATOM      6  O   UNL     1    -100.473  68.385  28.210  1.00  0.00    -0.550 OA
ATOM      7  O   UNL     1    -101.900  69.368  26.711  1.00  0.00    -0.550 OA
ENDBRANCH   4   5
ENDBRANCH   3   4
ENDBRANCH   2   3
ENDBRANCH   1   2
BRANCH   1   8
ATOM      8  C   UNL     1     -97.717  71.746  24.324  1.00  0.00     0.000 C 
BRANCH   8   9
ATOM      9  C   UNL     1     -97.774  72.335  22.909  1.00  0.00    -0.000 C 
BRANCH   9  10
ATOM     10  C   UNL     1     -98.364  71.323  21.916  1.00  0.00    -0.000 C 
BRANCH  10  11
ATOM     11  C   UNL     1     -98.974  70.096  22.614  1.00  0.00    -0.000 C 
BRANCH  11  12
ATOM     12  C   UNL     1    -100.480  69.955  22.352  1.00  0.00    -0.003 C 
ATOM     13  C   UNL     1    -101.290  70.773  23.353  1.00  0.00     0.004 C 
ENDBRANCH  11  12
ENDBRANCH  10  11
ENDBRANCH   9  10
ENDBRANCH   8   9
ENDBRANCH   1   8
TORSDOF 9
ENDMDL
MODEL 9
REMARK VINA RESULT:    -3.070      2.686      4.994
REMARK INTER + INTRA:          -5.694
REMARK INTER:                  -4.399
REMARK INTRA:                  -1.295
REMARK UNBOUND:                -1.008
REMARK SMILES CCCCCCCCCCC(=O)[O-]
REMARK SMILES IDX 7 1 8 2 9 3 10 4 11 5 12 6 13 7 6 8 5 9 4 10 3 11 2 12 1 13
REMARK H PARENT
REMARK Flexibility Score: inf
ROOT
ATOM      1  C   UNL     1    -101.433  71.201  26.801  1.00  0.00     0.000 C 
ENDROOT
BRANCH   1   2
ATOM      2  C   UNL     1    -101.114  71.067  25.301  1.00  0.00     0.000 C 
BRANCH   2   3
ATOM      3  C   UNL     1     -99.705  71.537  24.892  1.00  0.00     0.006 C 
BRANCH   3   4
ATOM      4  C   UNL     1     -98.693  70.388  24.804  1.00  0.00     0.053 C 
BRANCH   4   5
ATOM      5  C   UNL     1     -99.061  69.451  23.698  1.00  0.00     0.041 C 
ATOM      6  O   UNL     1     -99.302  68.240  23.947  1.00  0.00    -0.550 OA
ATOM      7  O   UNL     1     -99.188  69.924  22.398  1.00  0.00    -0.550 OA
ENDBRANCH   4   5
ENDBRANCH   3   4
ENDBRANCH   2   3
ENDBRANCH   1   2
BRANCH   1   8
ATOM      8  C   UNL     1    -101.939  69.891  27.425  1.00  0.00     0.000 C 
BRANCH   8   9
ATOM      9  C   UNL     1    -100.912  68.765  27.247  1.00  0.00    -0.000 C 
BRANCH   9  10
ATOM     10  C   UNL     1    -100.071  68.583  28.519  1.00  0.00    -0.000 C 
BRANCH  10  11
ATOM     11  C   UNL     1     -98.577  68.863  28.286  1.00  0.00    -0.000 C 
BRANCH  11  12
ATOM     12  C   UNL     1     -98.217  70.344  28.472  1.00  0.00    -0.003 C 
ATOM     13  C   UNL     1     -98.931  70.934  29.684  1.00  0.00     0.004 C 
ENDBRANCH  11  12
ENDBRANCH  10  11
ENDBRANCH   9  10
ENDBRANCH   8   9
ENDBRANCH   1   8
TORSDOF 9
ENDMDL
