MODEL 1
REMARK VINA RESULT:    -4.153      0.000      0.000
REMARK INTER + INTRA:          -7.283
REMARK INTER:                  -6.095
REMARK INTRA:                  -1.188
REMARK UNBOUND:                -1.188
REMARK SMILES CCCCCC(=O)CCCCC
REMARK SMILES IDX 6 1 7 2 5 3 4 4 3 5 2 6 1 7 8 8 9 9 10 10 11 11 12 12
REMARK H PARENT
REMARK Flexibility Score: inf
ROOT
ATOM      1  C   UNL     1     119.244 117.161 118.977  1.00  0.00     0.132 C 
ATOM      2  O   UNL     1     119.215 116.425 119.952  1.00  0.00    -0.300 OA
ENDROOT
BRANCH   1   3
ATOM      3  C   UNL     1     117.972 117.423 118.211  1.00  0.00     0.075 C 
BRANCH   3   4
ATOM      4  C   UNL     1     118.140 118.607 117.246  1.00  0.00     0.008 C 
BRANCH   4   5
ATOM      5  C   UNL     1     117.505 119.905 117.775  1.00  0.00     0.000 C 
BRANCH   5   6
ATOM      6  C   UNL     1     116.692 119.744 119.072  1.00  0.00    -0.003 C 
ATOM      7  C   UNL     1     116.957 120.858 120.085  1.00  0.00     0.004 C 
ENDBRANCH   5   6
ENDBRANCH   4   5
ENDBRANCH   3   4
ENDBRANCH   1   3
BRANCH   1   8
ATOM      8  C   UNL     1     120.539 117.834 118.596  1.00  0.00     0.075 C 
BRANCH   8   9
ATOM      9  C   UNL     1     121.257 118.466 119.801  1.00  0.00     0.008 C 
BRANCH   9  10
ATOM     10  C   UNL     1     120.493 119.628 120.467  1.00  0.00     0.000 C 
BRANCH  10  11
ATOM     11  C   UNL     1     121.055 121.029 120.168  1.00  0.00    -0.003 C 
ATOM     12  C   UNL     1     120.503 121.626 118.874  1.00  0.00     0.004 C 
ENDBRANCH  10  11
ENDBRANCH   9  10
ENDBRANCH   8   9
ENDBRANCH   1   8
TORSDOF 8
ENDMDL
MODEL 2
REMARK VINA RESULT:    -4.140      2.126      4.543
REMARK INTER + INTRA:          -7.263
REMARK INTER:                  -5.991
REMARK INTRA:                  -1.272
REMARK UNBOUND:                -1.188
REMARK SMILES CCCCCC(=O)CCCCC
REMARK SMILES IDX 6 1 7 2 5 3 4 4 3 5 2 6 1 7 8 8 9 9 10 10 11 11 12 12
REMARK H PARENT
REMARK Flexibility Score: inf
ROOT
ATOM      1  C   UNL     1     118.251 120.517 119.124  1.00  0.00     0.132 C 
ATOM      2  O   UNL     1     118.157 121.297 120.062  1.00  0.00    -0.300 OA
ENDROOT
BRANCH   1   3
ATOM      3  C   UNL     1     119.599 120.280 118.492  1.00  0.00     0.075 C 
BRANCH   3   4
ATOM      4  C   UNL     1     119.525 119.175 117.428  1.00  0.00     0.008 C 
BRANCH   4   5
ATOM      5  C   UNL     1     120.121 117.840 117.909  1.00  0.00     0.000 C 
BRANCH   5   6
ATOM      6  C   UNL     1     120.945 117.930 119.206  1.00  0.00    -0.003 C 
ATOM      7  C   UNL     1     120.872 116.658 120.050  1.00  0.00     0.004 C 
ENDBRANCH   5   6
ENDBRANCH   4   5
ENDBRANCH   3   4
ENDBRANCH   1   3
BRANCH   1   8
ATOM      8  C   UNL     1     117.026 119.770 118.658  1.00  0.00     0.075 C 
BRANCH   8   9
ATOM      9  C   UNL     1     116.382 118.930 119.775  1.00  0.00     0.008 C 
BRANCH   9  10
ATOM     10  C   UNL     1     117.360 118.015 120.537  1.00  0.00     0.000 C 
BRANCH  10  11
ATOM     11  C   UNL     1     117.068 116.509 120.414  1.00  0.00    -0.003 C 
ATOM     12  C   UNL     1     117.127 116.008 118.972  1.00  0.00     0.004 C 
ENDBRANCH  10  11
ENDBRANCH   9  10
ENDBRANCH   8   9
ENDBRANCH   1   8
TORSDOF 8
ENDMDL
MODEL 3
REMARK VINA RESULT:    -4.118      1.977      3.835
REMARK INTER + INTRA:          -7.232
REMARK INTER:                  -6.001
REMARK INTRA:                  -1.231
REMARK UNBOUND:                -1.188
REMARK SMILES CCCCCC(=O)CCCCC
REMARK SMILES IDX 6 1 7 2 5 3 4 4 3 5 2 6 1 7 8 8 9 9 10 10 11 11 12 12
REMARK H PARENT
REMARK Flexibility Score: inf
ROOT
ATOM      1  C   UNL     1     120.562 120.449 119.894  1.00  0.00     0.132 C 
ATOM      2  O   UNL     1     120.982 121.463 120.434  1.00  0.00    -0.300 OA
ENDROOT
BRANCH   1   3
ATOM      3  C   UNL     1     119.844 120.559 118.574  1.00  0.00     0.075 C 
BRANCH   3   4
ATOM      4  C   UNL     1     118.376 120.128 118.704  1.00  0.00     0.008 C 
BRANCH   4   5
ATOM      5  C   UNL     1     117.873 119.338 117.482  1.00  0.00     0.000 C 
BRANCH   5   6
ATOM      6  C   UNL     1     118.975 118.637 116.668  1.00  0.00    -0.003 C 
ATOM      7  C   UNL     1     118.813 118.823 115.160  1.00  0.00     0.004 C 
ENDBRANCH   5   6
ENDBRANCH   4   5
ENDBRANCH   3   4
ENDBRANCH   1   3
BRANCH   1   8
ATOM      8  C   UNL     1     120.823 119.108 120.535  1.00  0.00     0.075 C 
BRANCH   8   9
ATOM      9  C   UNL     1     121.317 118.055 119.528  1.00  0.00     0.008 C 
BRANCH   9  10
ATOM     10  C   UNL     1     120.568 116.710 119.585  1.00  0.00     0.000 C 
BRANCH  10  11
ATOM     11  C   UNL     1     119.219 116.750 120.324  1.00  0.00    -0.003 C 
ATOM     12  C   UNL     1     118.054 116.264 119.462  1.00  0.00     0.004 C 
ENDBRANCH  10  11
ENDBRANCH   9  10
ENDBRANCH   8   9
ENDBRANCH   1   8
TORSDOF 8
ENDMDL
MODEL 4
REMARK VINA RESULT:    -4.112      1.979      4.427
REMARK INTER + INTRA:          -7.223
REMARK INTER:                  -5.996
REMARK INTRA:                  -1.228
REMARK UNBOUND:                -1.188
REMARK SMILES CCCCCC(=O)CCCCC
REMARK SMILES IDX 6 1 7 2 5 3 4 4 3 5 2 6 1 7 8 8 9 9 10 10 11 11 12 12
REMARK H PARENT
REMARK Flexibility Score: inf
ROOT
ATOM      1  C   UNL     1     117.147 120.649 119.708  1.00  0.00     0.132 C 
ATOM      2  O   UNL     1     116.219 121.339 120.104  1.00  0.00    -0.300 OA
ENDROOT
BRANCH   1   3
ATOM      3  C   UNL     1     118.445 120.645 120.475  1.00  0.00     0.075 C 
BRANCH   3   4
ATOM      4  C   UNL     1     119.567 121.317 119.668  1.00  0.00     0.008 C 
BRANCH   4   5
ATOM      5  C   UNL     1     120.878 120.512 119.681  1.00  0.00     0.000 C 
BRANCH   5   6
ATOM      6  C   UNL     1     120.794 119.150 120.393  1.00  0.00    -0.003 C 
ATOM      7  C   UNL     1     121.410 118.012 119.580  1.00  0.00     0.004 C 
ENDBRANCH   5   6
ENDBRANCH   4   5
ENDBRANCH   3   4
ENDBRANCH   1   3
BRANCH   1   8
ATOM      8  C   UNL     1     116.954 119.774 118.494  1.00  0.00     0.075 C 
BRANCH   8   9
ATOM      9  C   UNL     1     117.550 118.367 118.675  1.00  0.00     0.008 C 
BRANCH   9  10
ATOM     10  C   UNL     1     118.493 117.918 117.542  1.00  0.00     0.000 C 
BRANCH  10  11
ATOM     11  C   UNL     1     119.052 119.059 116.673  1.00  0.00    -0.003 C 
ATOM     12  C   UNL     1     118.794 118.852 115.181  1.00  0.00     0.004 C 
ENDBRANCH  10  11
ENDBRANCH   9  10
ENDBRANCH   8   9
ENDBRANCH   1   8
TORSDOF 8
ENDMDL
MODEL 5
REMARK VINA RESULT:    -4.112      1.580      3.651
REMARK INTER + INTRA:          -7.223
REMARK INTER:                  -5.885
REMARK INTRA:                  -1.338
REMARK UNBOUND:                -1.188
REMARK SMILES CCCCCC(=O)CCCCC
REMARK SMILES IDX 6 1 7 2 5 3 4 4 3 5 2 6 1 7 8 8 9 9 10 10 11 11 12 12
REMARK H PARENT
REMARK Flexibility Score: inf
ROOT
ATOM      1  C   UNL     1     120.391 119.666 119.191  1.00  0.00     0.132 C 
ATOM      2  O   UNL     1     121.230 118.895 119.635  1.00  0.00    -0.300 OA
ENDROOT
BRANCH   1   3
ATOM      3  C   UNL     1     120.048 120.912 119.967  1.00  0.00     0.075 C 
BRANCH   3   4
ATOM      4  C   UNL     1     118.539 121.192 119.927  1.00  0.00     0.008 C 
BRANCH   4   5
ATOM      5  C   UNL     1     117.734 120.270 120.860  1.00  0.00     0.000 C 
BRANCH   5   6
ATOM      6  C   UNL     1     116.376 119.809 120.300  1.00  0.00    -0.003 C 
ATOM      7  C   UNL     1     116.019 120.479 118.974  1.00  0.00     0.004 C 
ENDBRANCH   5   6
ENDBRANCH   4   5
ENDBRANCH   3   4
ENDBRANCH   1   3
BRANCH   1   8
ATOM      8  C   UNL     1     119.761 119.381 117.850  1.00  0.00     0.075 C 
BRANCH   8   9
ATOM      9  C   UNL     1     119.397 117.898 117.667  1.00  0.00     0.008 C 
BRANCH   9  10
ATOM     10  C   UNL     1     117.898 117.578 117.828  1.00  0.00     0.000 C 
BRANCH  10  11
ATOM     11  C   UNL     1     117.573 116.506 118.883  1.00  0.00    -0.003 C 
ATOM     12  C   UNL     1     118.447 116.618 120.132  1.00  0.00     0.004 C 
ENDBRANCH  10  11
ENDBRANCH   9  10
ENDBRANCH   8   9
ENDBRANCH   1   8
TORSDOF 8
ENDMDL
MODEL 6
REMARK VINA RESULT:    -4.110      1.294      3.317
REMARK INTER + INTRA:          -7.221
REMARK INTER:                  -5.991
REMARK INTRA:                  -1.230
REMARK UNBOUND:                -1.188
REMARK SMILES CCCCCC(=O)CCCCC
REMARK SMILES IDX 6 1 7 2 5 3 4 4 3 5 2 6 1 7 8 8 9 9 10 10 11 11 12 12
REMARK H PARENT
REMARK Flexibility Score: inf
ROOT
ATOM      1  C   UNL     1     120.828 118.819 119.935  1.00  0.00     0.132 C 
ATOM      2  O   UNL     1     120.844 118.173 120.973  1.00  0.00    -0.300 OA
ENDROOT
BRANCH   1   3
ATOM      3  C   UNL     1     120.503 118.125 118.637  1.00  0.00     0.075 C 
BRANCH   3   4
ATOM      4  C   UNL     1     119.095 117.513 118.673  1.00  0.00     0.008 C 
BRANCH   4   5
ATOM      5  C   UNL     1     118.238 117.911 117.458  1.00  0.00     0.000 C 
BRANCH   5   6
ATOM      6  C   UNL     1     118.799 119.078 116.627  1.00  0.00    -0.003 C 
ATOM      7  C   UNL     1     118.840 118.779 115.129  1.00  0.00     0.004 C 
ENDBRANCH   5   6
ENDBRANCH   4   5
ENDBRANCH   3   4
ENDBRANCH   1   3
BRANCH   1   8
ATOM      8  C   UNL     1     121.077 120.306 119.985  1.00  0.00     0.075 C 
BRANCH   8   9
ATOM      9  C   UNL     1     119.842 121.130 119.583  1.00  0.00     0.008 C 
BRANCH   9  10
ATOM     10  C   UNL     1     118.588 120.870 120.441  1.00  0.00     0.000 C 
BRANCH  10  11
ATOM     11  C   UNL     1     117.274 120.754 119.649  1.00  0.00    -0.003 C 
ATOM     12  C   UNL     1     116.380 119.617 120.144  1.00  0.00     0.004 C 
ENDBRANCH  10  11
ENDBRANCH   9  10
ENDBRANCH   8   9
ENDBRANCH   1   8
TORSDOF 8
ENDMDL
MODEL 7
REMARK VINA RESULT:    -4.107      2.017      3.672
REMARK INTER + INTRA:          -7.216
REMARK INTER:                  -5.998
REMARK INTRA:                  -1.218
REMARK UNBOUND:                -1.188
REMARK SMILES CCCCCC(=O)CCCCC
REMARK SMILES IDX 6 1 7 2 5 3 4 4 3 5 2 6 1 7 8 8 9 9 10 10 11 11 12 12
REMARK H PARENT
REMARK Flexibility Score: inf
ROOT
ATOM      1  C   UNL     1     116.761 118.812 119.869  1.00  0.00     0.132 C 
ATOM      2  O   UNL     1     116.684 119.488 120.885  1.00  0.00    -0.300 OA
ENDROOT
BRANCH   1   3
ATOM      3  C   UNL     1     117.116 119.477 118.564  1.00  0.00     0.075 C 
BRANCH   3   4
ATOM      4  C   UNL     1     118.510 120.119 118.629  1.00  0.00     0.008 C 
BRANCH   4   5
ATOM      5  C   UNL     1     119.409 119.719 117.446  1.00  0.00     0.000 C 
BRANCH   5   6
ATOM      6  C   UNL     1     118.891 118.534 116.612  1.00  0.00    -0.003 C 
ATOM      7  C   UNL     1     118.803 118.847 115.119  1.00  0.00     0.004 C 
ENDBRANCH   5   6
ENDBRANCH   4   5
ENDBRANCH   3   4
ENDBRANCH   1   3
BRANCH   1   8
ATOM      8  C   UNL     1     116.556 117.319 119.956  1.00  0.00     0.075 C 
BRANCH   8   9
ATOM      9  C   UNL     1     117.797 116.523 119.520  1.00  0.00     0.008 C 
BRANCH   9  10
ATOM     10  C   UNL     1     119.034 116.715 120.420  1.00  0.00     0.000 C 
BRANCH  10  11
ATOM     11  C   UNL     1     120.371 116.833 119.667  1.00  0.00    -0.003 C 
ATOM     12  C   UNL     1     121.212 118.022 120.132  1.00  0.00     0.004 C 
ENDBRANCH  10  11
ENDBRANCH   9  10
ENDBRANCH   8   9
ENDBRANCH   1   8
TORSDOF 8
ENDMDL
MODEL 8
REMARK VINA RESULT:    -4.096      1.570      3.545
REMARK INTER + INTRA:          -7.200
REMARK INTER:                  -5.966
REMARK INTRA:                  -1.234
REMARK UNBOUND:                -1.188
REMARK SMILES CCCCCC(=O)CCCCC
REMARK SMILES IDX 6 1 7 2 5 3 4 4 3 5 2 6 1 7 8 8 9 9 10 10 11 11 12 12
REMARK H PARENT
REMARK Flexibility Score: inf
ROOT
ATOM      1  C   UNL     1     117.156 118.384 118.990  1.00  0.00     0.132 C 
ATOM      2  O   UNL     1     116.318 118.399 119.881  1.00  0.00    -0.300 OA
ENDROOT
BRANCH   1   3
ATOM      3  C   UNL     1     117.803 117.077 118.607  1.00  0.00     0.075 C 
BRANCH   3   4
ATOM      4  C   UNL     1     118.454 116.403 119.823  1.00  0.00     0.008 C 
BRANCH   4   5
ATOM      5  C   UNL     1     119.490 117.301 120.522  1.00  0.00     0.000 C 
BRANCH   5   6
ATOM      6  C   UNL     1     120.950 116.834 120.381  1.00  0.00    -0.003 C 
ATOM      7  C   UNL     1     121.550 117.155 119.012  1.00  0.00     0.004 C 
ENDBRANCH   5   6
ENDBRANCH   4   5
ENDBRANCH   3   4
ENDBRANCH   1   3
BRANCH   1   8
ATOM      8  C   UNL     1     117.481 119.662 118.259  1.00  0.00     0.075 C 
BRANCH   8   9
ATOM      9  C   UNL     1     118.742 119.543 117.385  1.00  0.00     0.008 C 
BRANCH   9  10
ATOM     10  C   UNL     1     119.988 120.247 117.955  1.00  0.00     0.000 C 
BRANCH  10  11
ATOM     11  C   UNL     1     119.767 120.973 119.294  1.00  0.00    -0.003 C 
ATOM     12  C   UNL     1     120.945 120.820 120.255  1.00  0.00     0.004 C 
ENDBRANCH  10  11
ENDBRANCH   9  10
ENDBRANCH   8   9
ENDBRANCH   1   8
TORSDOF 8
ENDMDL
MODEL 9
REMARK VINA RESULT:    -4.087      1.293      3.328
REMARK INTER + INTRA:          -7.187
REMARK INTER:                  -5.957
REMARK INTRA:                  -1.230
REMARK UNBOUND:                -1.188
REMARK SMILES CCCCCC(=O)CCCCC
REMARK SMILES IDX 6 1 7 2 5 3 4 4 3 5 2 6 1 7 8 8 9 9 10 10 11 11 12 12
REMARK H PARENT
REMARK Flexibility Score: inf
ROOT
ATOM      1  C   UNL     1     120.783 118.900 119.922  1.00  0.00     0.132 C 
ATOM      2  O   UNL     1     120.845 118.255 120.959  1.00  0.00    -0.300 OA
ENDROOT
BRANCH   1   3
ATOM      3  C   UNL     1     121.085 120.376 119.951  1.00  0.00     0.075 C 
BRANCH   3   4
ATOM      4  C   UNL     1     119.851 121.202 119.558  1.00  0.00     0.008 C 
BRANCH   4   5
ATOM      5  C   UNL     1     118.637 120.934 120.466  1.00  0.00     0.000 C 
BRANCH   5   6
ATOM      6  C   UNL     1     117.285 120.871 119.735  1.00  0.00    -0.003 C 
ATOM      7  C   UNL     1     116.395 119.727 120.221  1.00  0.00     0.004 C 
ENDBRANCH   5   6
ENDBRANCH   4   5
ENDBRANCH   3   4
ENDBRANCH   1   3
BRANCH   1   8
ATOM      8  C   UNL     1     120.462 118.192 118.629  1.00  0.00     0.075 C 
BRANCH   8   9
ATOM      9  C   UNL     1     119.080 117.517 118.650  1.00  0.00     0.008 C 
BRANCH   9  10
ATOM     10  C   UNL     1     118.136 117.948 117.510  1.00  0.00     0.000 C 
BRANCH  10  11
ATOM     11  C   UNL     1     118.628 119.147 116.680  1.00  0.00    -0.003 C 
ATOM     12  C   UNL     1     118.861 118.798 115.211  1.00  0.00     0.004 C 
ENDBRANCH  10  11
ENDBRANCH   9  10
ENDBRANCH   8   9
ENDBRANCH   1   8
TORSDOF 8
ENDMDL
