MODEL 1
REMARK VINA RESULT:    -5.058      0.000      0.000
REMARK INTER + INTRA:          -8.335
REMARK INTER:                  -7.719
REMARK INTRA:                  -0.616
REMARK UNBOUND:                -0.616
REMARK SMILES O=C([O-])CCCCCCCCC(=O)[O-]
REMARK SMILES IDX 7 1 6 2 5 3 4 4 2 5 1 6 3 7 8 8 9 9 10 10 11 11 12 12 13 13
REMARK SMILES IDX 14 14
REMARK H PARENT
REMARK Flexibility Score: inf
ROOT
ATOM      1  C   UNL     1      88.157 325.375 193.295  1.00  0.00     0.000 C 
ENDROOT
BRANCH   1   2
ATOM      2  C   UNL     1      86.834 324.635 193.052  1.00  0.00     0.000 C 
BRANCH   2   3
ATOM      3  C   UNL     1      86.855 323.773 191.776  1.00  0.00     0.006 C 
BRANCH   3   4
ATOM      4  C   UNL     1      88.161 323.866 190.971  1.00  0.00     0.053 C 
BRANCH   4   5
ATOM      5  C   UNL     1      88.086 323.093 189.690  1.00  0.00     0.041 C 
ATOM      6  O   UNL     1      88.989 323.216 188.821  1.00  0.00    -0.550 OA
ATOM      7  O   UNL     1      87.034 322.212 189.470  1.00  0.00    -0.550 OA
ENDBRANCH   4   5
ENDBRANCH   3   4
ENDBRANCH   2   3
ENDBRANCH   1   2
BRANCH   1   8
ATOM      8  C   UNL     1      87.918 326.693 194.048  1.00  0.00     0.000 C 
BRANCH   8   9
ATOM      9  C   UNL     1      86.629 326.680 194.887  1.00  0.00     0.000 C 
BRANCH   9  10
ATOM     10  C   UNL     1      86.839 326.519 196.407  1.00  0.00     0.006 C 
BRANCH  10  11
ATOM     11  C   UNL     1      88.290 326.241 196.826  1.00  0.00     0.053 C 
BRANCH  11  12
ATOM     12  C   UNL     1      88.472 324.837 197.314  1.00  0.00     0.041 C 
ATOM     13  O   UNL     1      88.310 323.866 196.529  1.00  0.00    -0.550 OA
ATOM     14  O   UNL     1      88.786 324.599 198.646  1.00  0.00    -0.550 OA
ENDBRANCH  11  12
ENDBRANCH  10  11
ENDBRANCH   9  10
ENDBRANCH   8   9
ENDBRANCH   1   8
TORSDOF 9
ENDMDL
MODEL 2
REMARK VINA RESULT:    -5.014      2.564      3.967
REMARK INTER + INTRA:          -8.268
REMARK INTER:                  -7.879
REMARK INTRA:                  -0.389
REMARK UNBOUND:                -0.616
REMARK SMILES O=C([O-])CCCCCCCCC(=O)[O-]
REMARK SMILES IDX 7 1 6 2 5 3 4 4 2 5 1 6 3 7 8 8 9 9 10 10 11 11 12 12 13 13
REMARK SMILES IDX 14 14
REMARK H PARENT
REMARK Flexibility Score: inf
ROOT
ATOM      1  C   UNL     1      86.988 326.471 196.262  1.00  0.00     0.000 C 
ENDROOT
BRANCH   1   2
ATOM      2  C   UNL     1      86.798 326.502 194.738  1.00  0.00     0.000 C 
BRANCH   2   3
ATOM      3  C   UNL     1      88.077 326.126 193.968  1.00  0.00     0.006 C 
BRANCH   3   4
ATOM      4  C   UNL     1      87.865 325.086 192.856  1.00  0.00     0.053 C 
BRANCH   4   5
ATOM      5  C   UNL     1      88.296 323.716 193.280  1.00  0.00     0.041 C 
ATOM      6  O   UNL     1      88.327 322.774 192.444  1.00  0.00    -0.550 OA
ATOM      7  O   UNL     1      88.696 323.487 194.590  1.00  0.00    -0.550 OA
ENDBRANCH   4   5
ENDBRANCH   3   4
ENDBRANCH   2   3
ENDBRANCH   1   2
BRANCH   1   8
ATOM      8  C   UNL     1      88.458 326.215 196.627  1.00  0.00     0.000 C 
BRANCH   8   9
ATOM      9  C   UNL     1      88.875 326.890 197.946  1.00  0.00     0.000 C 
BRANCH   9  10
ATOM     10  C   UNL     1      89.069 325.931 199.139  1.00  0.00     0.006 C 
BRANCH  10  11
ATOM     11  C   UNL     1      89.750 326.564 200.362  1.00  0.00     0.053 C 
BRANCH  11  12
ATOM     12  C   UNL     1      89.029 326.238 201.634  1.00  0.00     0.041 C 
ATOM     13  O   UNL     1      89.289 326.871 202.691  1.00  0.00    -0.550 OA
ATOM     14  O   UNL     1      88.094 325.211 201.660  1.00  0.00    -0.550 OA
ENDBRANCH  11  12
ENDBRANCH  10  11
ENDBRANCH   9  10
ENDBRANCH   8   9
ENDBRANCH   1   8
TORSDOF 9
ENDMDL
MODEL 3
REMARK VINA RESULT:    -5.009     19.132     20.262
REMARK INTER + INTRA:          -8.260
REMARK INTER:                  -7.677
REMARK INTRA:                  -0.583
REMARK UNBOUND:                -0.616
REMARK SMILES O=C([O-])CCCCCCCCC(=O)[O-]
REMARK SMILES IDX 7 1 6 2 5 3 4 4 2 5 1 6 3 7 8 8 9 9 10 10 11 11 12 12 13 13
REMARK SMILES IDX 14 14
REMARK H PARENT
REMARK Flexibility Score: inf
ROOT
ATOM      1  C   UNL     1     103.960 312.975 192.381  1.00  0.00     0.000 C 
ENDROOT
BRANCH   1   2
ATOM      2  C   UNL     1     105.208 313.605 191.745  1.00  0.00     0.000 C 
BRANCH   2   3
ATOM      3  C   UNL     1     104.881 314.475 190.518  1.00  0.00     0.006 C 
BRANCH   3   4
ATOM      4  C   UNL     1     103.555 314.121 189.825  1.00  0.00     0.053 C 
BRANCH   4   5
ATOM      5  C   UNL     1     103.283 315.008 188.649  1.00  0.00     0.041 C 
ATOM      6  O   UNL     1     102.104 315.175 188.239  1.00  0.00    -0.550 OA
ATOM      7  O   UNL     1     104.329 315.676 188.025  1.00  0.00    -0.550 OA
ENDBRANCH   4   5
ENDBRANCH   3   4
ENDBRANCH   2   3
ENDBRANCH   1   2
BRANCH   1   8
ATOM      8  C   UNL     1     104.294 311.618 193.017  1.00  0.00     0.000 C 
BRANCH   8   9
ATOM      9  C   UNL     1     105.720 311.558 193.591  1.00  0.00     0.000 C 
BRANCH   9  10
ATOM     10  C   UNL     1     105.807 311.580 195.132  1.00  0.00     0.006 C 
BRANCH  10  11
ATOM     11  C   UNL     1     104.453 311.711 195.846  1.00  0.00     0.053 C 
BRANCH  11  12
ATOM     12  C   UNL     1     104.260 313.075 196.433  1.00  0.00     0.041 C 
ATOM     13  O   UNL     1     103.943 313.204 197.645  1.00  0.00    -0.550 OA
ATOM     14  O   UNL     1     104.396 314.202 195.634  1.00  0.00    -0.550 OA
ENDBRANCH  11  12
ENDBRANCH  10  11
ENDBRANCH   9  10
ENDBRANCH   8   9
ENDBRANCH   1   8
TORSDOF 9
ENDMDL
MODEL 4
REMARK VINA RESULT:    -5.000     20.454     21.243
REMARK INTER + INTRA:          -8.246
REMARK INTER:                  -7.962
REMARK INTRA:                  -0.284
REMARK UNBOUND:                -0.616
REMARK SMILES O=C([O-])CCCCCCCCC(=O)[O-]
REMARK SMILES IDX 7 1 6 2 5 3 4 4 2 5 1 6 3 7 8 8 9 9 10 10 11 11 12 12 13 13
REMARK SMILES IDX 14 14
REMARK H PARENT
REMARK Flexibility Score: inf
ROOT
ATOM      1  C   UNL     1     104.350 312.170 195.769  1.00  0.00     0.000 C 
ENDROOT
BRANCH   1   2
ATOM      2  C   UNL     1     105.607 311.543 195.149  1.00  0.00     0.000 C 
BRANCH   2   3
ATOM      3  C   UNL     1     105.406 311.128 193.679  1.00  0.00     0.006 C 
BRANCH   3   4
ATOM      4  C   UNL     1     104.246 311.845 192.971  1.00  0.00     0.053 C 
BRANCH   4   5
ATOM      5  C   UNL     1     104.726 312.970 192.106  1.00  0.00     0.041 C 
ATOM      6  O   UNL     1     103.923 313.574 191.348  1.00  0.00    -0.550 OA
ATOM      7  O   UNL     1     106.054 313.373 192.163  1.00  0.00    -0.550 OA
ENDBRANCH   4   5
ENDBRANCH   3   4
ENDBRANCH   2   3
ENDBRANCH   1   2
BRANCH   1   8
ATOM      8  C   UNL     1     103.907 311.392 197.017  1.00  0.00     0.000 C 
BRANCH   8   9
ATOM      9  C   UNL     1     103.780 312.283 198.266  1.00  0.00     0.000 C 
BRANCH   9  10
ATOM     10  C   UNL     1     103.281 311.563 199.536  1.00  0.00     0.006 C 
BRANCH  10  11
ATOM     11  C   UNL     1     104.250 311.620 200.726  1.00  0.00     0.053 C 
BRANCH  11  12
ATOM     12  C   UNL     1     103.594 311.196 202.003  1.00  0.00     0.041 C 
ATOM     13  O   UNL     1     104.263 311.124 203.067  1.00  0.00    -0.550 OA
ATOM     14  O   UNL     1     102.250 310.846 202.011  1.00  0.00    -0.550 OA
ENDBRANCH  11  12
ENDBRANCH  10  11
ENDBRANCH   9  10
ENDBRANCH   8   9
ENDBRANCH   1   8
TORSDOF 9
ENDMDL
MODEL 5
REMARK VINA RESULT:    -4.990      1.405      2.451
REMARK INTER + INTRA:          -8.232
REMARK INTER:                  -7.937
REMARK INTRA:                  -0.295
REMARK UNBOUND:                -0.616
REMARK SMILES O=C([O-])CCCCCCCCC(=O)[O-]
REMARK SMILES IDX 7 1 6 2 5 3 4 4 2 5 1 6 3 7 8 8 9 9 10 10 11 11 12 12 13 13
REMARK SMILES IDX 14 14
REMARK H PARENT
REMARK Flexibility Score: inf
ROOT
ATOM      1  C   UNL     1      88.056 324.305 191.687  1.00  0.00     0.000 C 
ENDROOT
BRANCH   1   2
ATOM      2  C   UNL     1      87.245 323.222 190.959  1.00  0.00     0.000 C 
BRANCH   2   3
ATOM      3  C   UNL     1      87.802 322.895 189.562  1.00  0.00     0.006 C 
BRANCH   3   4
ATOM      4  C   UNL     1      89.094 323.646 189.202  1.00  0.00     0.053 C 
BRANCH   4   5
ATOM      5  C   UNL     1      90.185 322.713 188.775  1.00  0.00     0.041 C 
ATOM      6  O   UNL     1      89.954 321.481 188.653  1.00  0.00    -0.550 OA
ATOM      7  O   UNL     1      91.448 323.209 188.479  1.00  0.00    -0.550 OA
ENDBRANCH   4   5
ENDBRANCH   3   4
ENDBRANCH   2   3
ENDBRANCH   1   2
BRANCH   1   8
ATOM      8  C   UNL     1      87.361 324.729 192.989  1.00  0.00     0.000 C 
BRANCH   8   9
ATOM      9  C   UNL     1      88.053 325.918 193.679  1.00  0.00     0.000 C 
BRANCH   9  10
ATOM     10  C   UNL     1      87.111 326.867 194.448  1.00  0.00     0.006 C 
BRANCH  10  11
ATOM     11  C   UNL     1      86.588 326.308 195.780  1.00  0.00     0.053 C 
BRANCH  11  12
ATOM     12  C   UNL     1      87.700 325.823 196.658  1.00  0.00     0.041 C 
ATOM     13  O   UNL     1      88.313 326.628 197.409  1.00  0.00    -0.550 OA
ATOM     14  O   UNL     1      88.084 324.489 196.622  1.00  0.00    -0.550 OA
ENDBRANCH  11  12
ENDBRANCH  10  11
ENDBRANCH   9  10
ENDBRANCH   8   9
ENDBRANCH   1   8
TORSDOF 9
ENDMDL
MODEL 6
REMARK VINA RESULT:    -4.978     18.931     20.872
REMARK INTER + INTRA:          -8.213
REMARK INTER:                  -7.659
REMARK INTRA:                  -0.553
REMARK UNBOUND:                -0.616
REMARK SMILES O=C([O-])CCCCCCCCC(=O)[O-]
REMARK SMILES IDX 7 1 6 2 5 3 4 4 2 5 1 6 3 7 8 8 9 9 10 10 11 11 12 12 13 13
REMARK SMILES IDX 14 14
REMARK H PARENT
REMARK Flexibility Score: inf
ROOT
ATOM      1  C   UNL     1     105.646 311.868 193.328  1.00  0.00     0.000 C 
ENDROOT
BRANCH   1   2
ATOM      2  C   UNL     1     104.232 311.275 193.418  1.00  0.00     0.000 C 
BRANCH   2   3
ATOM      3  C   UNL     1     103.600 311.441 194.812  1.00  0.00     0.006 C 
BRANCH   3   4
ATOM      4  C   UNL     1     104.576 311.923 195.897  1.00  0.00     0.053 C 
BRANCH   4   5
ATOM      5  C   UNL     1     104.181 313.256 196.455  1.00  0.00     0.041 C 
ATOM      6  O   UNL     1     103.862 313.367 197.668  1.00  0.00    -0.550 OA
ATOM      7  O   UNL     1     104.197 314.382 195.642  1.00  0.00    -0.550 OA
ENDBRANCH   4   5
ENDBRANCH   3   4
ENDBRANCH   2   3
ENDBRANCH   1   2
BRANCH   1   8
ATOM      8  C   UNL     1     105.646 313.163 192.503  1.00  0.00     0.000 C 
BRANCH   8   9
ATOM      9  C   UNL     1     104.235 313.602 192.073  1.00  0.00     0.000 C 
BRANCH   9  10
ATOM     10  C   UNL     1     104.007 313.675 190.549  1.00  0.00     0.006 C 
BRANCH  10  11
ATOM     11  C   UNL     1     103.480 315.028 190.046  1.00  0.00     0.053 C 
BRANCH  11  12
ATOM     12  C   UNL     1     103.221 315.014 188.571  1.00  0.00     0.041 C 
ATOM     13  O   UNL     1     104.107 315.409 187.768  1.00  0.00    -0.550 OA
ATOM     14  O   UNL     1     101.989 314.597 188.085  1.00  0.00    -0.550 OA
ENDBRANCH  11  12
ENDBRANCH  10  11
ENDBRANCH   9  10
ENDBRANCH   8   9
ENDBRANCH   1   8
TORSDOF 9
ENDMDL
MODEL 7
REMARK VINA RESULT:    -4.970      1.915      2.612
REMARK INTER + INTRA:          -8.201
REMARK INTER:                  -7.799
REMARK INTRA:                  -0.402
REMARK UNBOUND:                -0.616
REMARK SMILES O=C([O-])CCCCCCCCC(=O)[O-]
REMARK SMILES IDX 7 1 6 2 5 3 4 4 2 5 1 6 3 7 8 8 9 9 10 10 11 11 12 12 13 13
REMARK SMILES IDX 14 14
REMARK H PARENT
REMARK Flexibility Score: inf
ROOT
ATOM      1  C   UNL     1      88.005 326.707 194.337  1.00  0.00     0.000 C 
ENDROOT
BRANCH   1   2
ATOM      2  C   UNL     1      86.644 325.999 194.410  1.00  0.00     0.000 C 
BRANCH   2   3
ATOM      3  C   UNL     1      86.486 324.896 193.348  1.00  0.00     0.006 C 
BRANCH   3   4
ATOM      4  C   UNL     1      87.765 324.594 192.551  1.00  0.00     0.053 C 
BRANCH   4   5
ATOM      5  C   UNL     1      87.487 323.757 191.340  1.00  0.00     0.041 C 
ATOM      6  O   UNL     1      88.417 323.470 190.541  1.00  0.00    -0.550 OA
ATOM      7  O   UNL     1      86.208 323.267 191.113  1.00  0.00    -0.550 OA
ENDBRANCH   4   5
ENDBRANCH   3   4
ENDBRANCH   2   3
ENDBRANCH   1   2
BRANCH   1   8
ATOM      8  C   UNL     1      88.808 326.487 195.628  1.00  0.00     0.000 C 
BRANCH   8   9
ATOM      9  C   UNL     1      87.943 325.979 196.794  1.00  0.00     0.000 C 
BRANCH   9  10
ATOM     10  C   UNL     1      88.724 325.574 198.062  1.00  0.00     0.006 C 
BRANCH  10  11
ATOM     11  C   UNL     1      89.139 326.750 198.959  1.00  0.00     0.053 C 
BRANCH  11  12
ATOM     12  C   UNL     1      89.477 326.302 200.348  1.00  0.00     0.041 C 
ATOM     13  O   UNL     1      88.691 325.548 200.980  1.00  0.00    -0.550 OA
ATOM     14  O   UNL     1      90.644 326.745 200.956  1.00  0.00    -0.550 OA
ENDBRANCH  11  12
ENDBRANCH  10  11
ENDBRANCH   9  10
ENDBRANCH   8   9
ENDBRANCH   1   8
TORSDOF 9
ENDMDL
MODEL 8
REMARK VINA RESULT:    -4.943     20.282     21.687
REMARK INTER + INTRA:          -8.160
REMARK INTER:                  -7.609
REMARK INTRA:                  -0.552
REMARK UNBOUND:                -0.616
REMARK SMILES O=C([O-])CCCCCCCCC(=O)[O-]
REMARK SMILES IDX 7 1 6 2 5 3 4 4 2 5 1 6 3 7 8 8 9 9 10 10 11 11 12 12 13 13
REMARK SMILES IDX 14 14
REMARK H PARENT
REMARK Flexibility Score: inf
ROOT
ATOM      1  C   UNL     1     105.693 311.606 195.081  1.00  0.00     0.000 C 
ENDROOT
BRANCH   1   2
ATOM      2  C   UNL     1     104.349 312.113 195.625  1.00  0.00     0.000 C 
BRANCH   2   3
ATOM      3  C   UNL     1     104.024 311.562 197.026  1.00  0.00     0.006 C 
BRANCH   3   4
ATOM      4  C   UNL     1     103.921 312.634 198.121  1.00  0.00     0.053 C 
BRANCH   4   5
ATOM      5  C   UNL     1     103.767 312.031 199.484  1.00  0.00     0.041 C 
ATOM      6  O   UNL     1     102.780 311.293 199.743  1.00  0.00    -0.550 OA
ATOM      7  O   UNL     1     104.731 312.258 200.458  1.00  0.00    -0.550 OA
ENDBRANCH   4   5
ENDBRANCH   3   4
ENDBRANCH   2   3
ENDBRANCH   1   2
BRANCH   1   8
ATOM      8  C   UNL     1     105.666 311.517 193.548  1.00  0.00     0.000 C 
BRANCH   8   9
ATOM      9  C   UNL     1     104.273 311.793 192.955  1.00  0.00     0.000 C 
BRANCH   9  10
ATOM     10  C   UNL     1     104.195 313.003 192.001  1.00  0.00     0.006 C 
BRANCH  10  11
ATOM     11  C   UNL     1     105.545 313.676 191.711  1.00  0.00     0.053 C 
BRANCH  11  12
ATOM     12  C   UNL     1     105.631 315.043 192.316  1.00  0.00     0.041 C 
ATOM     13  O   UNL     1     105.788 316.053 191.581  1.00  0.00    -0.550 OA
ATOM     14  O   UNL     1     105.572 315.197 193.695  1.00  0.00    -0.550 OA
ENDBRANCH  11  12
ENDBRANCH  10  11
ENDBRANCH   9  10
ENDBRANCH   8   9
ENDBRANCH   1   8
TORSDOF 9
ENDMDL
MODEL 9
REMARK VINA RESULT:    -4.934      1.058      6.183
REMARK INTER + INTRA:          -8.145
REMARK INTER:                  -7.349
REMARK INTRA:                  -0.796
REMARK UNBOUND:                -0.616
REMARK SMILES O=C([O-])CCCCCCCCC(=O)[O-]
REMARK SMILES IDX 7 1 6 2 5 3 4 4 2 5 1 6 3 7 8 8 9 9 10 10 11 11 12 12 13 13
REMARK SMILES IDX 14 14
REMARK H PARENT
REMARK Flexibility Score: inf
ROOT
ATOM      1  C   UNL     1      86.439 326.278 194.680  1.00  0.00     0.000 C 
ENDROOT
BRANCH   1   2
ATOM      2  C   UNL     1      87.841 326.868 194.469  1.00  0.00     0.000 C 
BRANCH   2   3
ATOM      3  C   UNL     1      88.813 326.525 195.613  1.00  0.00     0.006 C 
BRANCH   3   4
ATOM      4  C   UNL     1      88.129 326.055 196.907  1.00  0.00     0.053 C 
BRANCH   4   5
ATOM      5  C   UNL     1      88.697 324.761 197.404  1.00  0.00     0.041 C 
ATOM      6  O   UNL     1      89.147 323.913 196.590  1.00  0.00    -0.550 OA
ATOM      7  O   UNL     1      88.759 324.507 198.768  1.00  0.00    -0.550 OA
ENDBRANCH   4   5
ENDBRANCH   3   4
ENDBRANCH   2   3
ENDBRANCH   1   2
BRANCH   1   8
ATOM      8  C   UNL     1      86.117 325.229 193.606  1.00  0.00     0.000 C 
BRANCH   8   9
ATOM      9  C   UNL     1      86.828 323.886 193.845  1.00  0.00     0.000 C 
BRANCH   9  10
ATOM     10  C   UNL     1      88.073 323.638 192.968  1.00  0.00     0.006 C 
BRANCH  10  11
ATOM     11  C   UNL     1      87.963 324.180 191.535  1.00  0.00     0.053 C 
BRANCH  11  12
ATOM     12  C   UNL     1      88.337 323.148 190.516  1.00  0.00     0.041 C 
ATOM     13  O   UNL     1      88.160 323.374 189.290  1.00  0.00    -0.550 OA
ATOM     14  O   UNL     1      88.848 321.923 190.924  1.00  0.00    -0.550 OA
ENDBRANCH  11  12
ENDBRANCH  10  11
ENDBRANCH   9  10
ENDBRANCH   8   9
ENDBRANCH   1   8
TORSDOF 9
ENDMDL
