MODEL 1
REMARK VINA RESULT:   139.756      0.000      0.000
REMARK INTER + INTRA:         152.142
REMARK INTER:                 152.012
REMARK INTRA:                   0.130
REMARK UNBOUND:                 0.130
REMARK SMILES CC1(C)CC[C@]2(C(=O)[O-])CC[C@@]3(C)C(=CC[C@H]4[C@@]5(C)CC[C@H](O)C(C)(C)[C@H]5CC[C@]43C)[C@@H]2C1
REMARK SMILES IDX 6 1 5 2 10 3 32 4 4 5 11 6 14 7 33 8 2 9 12 10 15 11 1 12
REMARK SMILES IDX 3 13 13 14 30 15 16 16 17 17 29 18 31 19 18 20 28 21 27 22
REMARK SMILES IDX 20 23 19 24 24 25 21 26 22 27 25 28 26 29 7 30 8 31 9 32
REMARK SMILES IDX 23 33
REMARK H PARENT 23 34
REMARK Flexibility Score: inf
ROOT
ATOM      1  C   UNL     1     -10.836  14.717 -13.419  1.00  0.00     0.017 C 
ATOM      2  C   UNL     1     -10.885  14.940 -11.881  1.00  0.00     0.014 C 
ATOM      3  C   UNL     1     -10.379  13.278 -13.740  1.00  0.00     0.014 C 
ATOM      4  C   UNL     1      -9.841  15.706 -14.094  1.00  0.00     0.028 C 
ATOM      5  C   UNL     1      -9.508  14.972 -11.209  1.00  0.00     0.007 C 
ATOM      6  C   UNL     1     -10.418  12.946 -15.240  1.00  0.00     0.013 C 
ATOM      7  C   UNL     1      -9.619  15.404 -15.580  1.00  0.00    -0.064 C 
ATOM      8  C   UNL     1      -8.462  15.764 -13.373  1.00  0.00     0.015 C 
ATOM      9  C   UNL     1      -8.553  16.007 -11.847  1.00  0.00    -0.035 C 
ATOM     10  C   UNL     1      -9.997  14.082 -16.269  1.00  0.00    -0.006 C 
ATOM     11  C   UNL     1      -9.027  16.364 -16.308  1.00  0.00    -0.027 C 
ATOM     12  C   UNL     1      -9.017  17.453 -11.544  1.00  0.00     0.011 C 
ATOM     13  C   UNL     1      -7.146  15.826 -11.234  1.00  0.00     0.011 C 
ATOM     14  C   UNL     1     -11.252  14.377 -17.154  1.00  0.00     0.017 C 
ATOM     15  C   UNL     1      -8.766  13.609 -17.190  1.00  0.00    -0.020 C 
ATOM     16  C   UNL     1      -8.645  16.203 -17.745  1.00  0.00     0.032 C 
ATOM     17  C   UNL     1      -8.356  14.741 -18.246  1.00  0.00     0.006 C 
ATOM     18  C   UNL     1      -7.519  13.272 -16.285  1.00  0.00     0.008 C 
ATOM     19  C   UNL     1      -9.211  12.306 -17.968  1.00  0.00     0.012 C 
ATOM     20  C   UNL     1      -6.894  14.576 -18.898  1.00  0.00    -0.025 C 
ATOM     21  C   UNL     1      -6.364  14.280 -16.368  1.00  0.00     0.005 C 
ATOM     22  C   UNL     1      -5.761  14.341 -17.797  1.00  0.00     0.003 C 
ATOM     23  C   UNL     1      -6.613  15.782 -19.887  1.00  0.00     0.010 C 
ATOM     24  C   UNL     1      -6.898  13.317 -19.820  1.00  0.00     0.012 C 
ATOM     25  C   UNL     1      -4.494  15.277 -17.918  1.00  0.00    -0.006 C 
ATOM     26  C   UNL     1      -5.728  16.960 -19.413  1.00  0.00     0.033 C 
ATOM     27  C   UNL     1      -4.954  16.745 -18.106  1.00  0.00     0.120 C 
ATOM     28  C   UNL     1      -3.600  15.190 -16.648  1.00  0.00     0.014 C 
ATOM     29  C   UNL     1      -3.596  14.814 -19.100  1.00  0.00     0.014 C 
ENDROOT
BRANCH   1  30
ATOM     30  C   UNL     1     -12.261  14.935 -13.914  1.00  0.00     0.048 C 
ATOM     31  O   UNL     1     -12.529  15.882 -14.701  1.00  0.00    -0.550 OA
ATOM     32  O   UNL     1     -13.304  14.167 -13.410  1.00  0.00    -0.550 OA
ENDBRANCH   1  30
BRANCH  27  33
ATOM     33  O   UNL     1      -3.849  17.619 -18.105  1.00  0.00    -0.393 OA
ATOM     34  H   UNL     1      -4.105  18.426 -17.584  1.00  0.00     0.210 HD
ENDBRANCH  27  33
TORSDOF 2
ENDMDL
MODEL 2
REMARK VINA RESULT:   142.551      2.912      6.890
REMARK INTER + INTRA:         155.181
REMARK INTER:                 153.569
REMARK INTRA:                   1.612
REMARK UNBOUND:                 0.130
REMARK SMILES CC1(C)CC[C@]2(C(=O)[O-])CC[C@@]3(C)C(=CC[C@H]4[C@@]5(C)CC[C@H](O)C(C)(C)[C@H]5CC[C@]43C)[C@@H]2C1
REMARK SMILES IDX 6 1 5 2 10 3 32 4 4 5 11 6 14 7 33 8 2 9 12 10 15 11 1 12
REMARK SMILES IDX 3 13 13 14 30 15 16 16 17 17 29 18 31 19 18 20 28 21 27 22
REMARK SMILES IDX 20 23 19 24 24 25 21 26 22 27 25 28 26 29 7 30 8 31 9 32
REMARK SMILES IDX 23 33
REMARK H PARENT 23 34
REMARK Flexibility Score: inf
ROOT
ATOM      1  C   UNL     1     -10.365  12.048 -17.503  1.00  0.00     0.017 C 
ATOM      2  C   UNL     1     -10.720  10.644 -18.068  1.00  0.00     0.014 C 
ATOM      3  C   UNL     1      -8.834  12.226 -17.425  1.00  0.00     0.014 C 
ATOM      4  C   UNL     1     -10.950  12.236 -16.072  1.00  0.00     0.028 C 
ATOM      5  C   UNL     1     -10.392   9.485 -17.119  1.00  0.00     0.007 C 
ATOM      6  C   UNL     1      -8.405  13.635 -16.984  1.00  0.00     0.013 C 
ATOM      7  C   UNL     1     -10.473  13.528 -15.400  1.00  0.00    -0.064 C 
ATOM      8  C   UNL     1     -10.651  11.031 -15.132  1.00  0.00     0.015 C 
ATOM      9  C   UNL     1     -11.036   9.653 -15.723  1.00  0.00    -0.035 C 
ATOM     10  C   UNL     1      -9.274  14.367 -15.872  1.00  0.00    -0.006 C 
ATOM     11  C   UNL     1     -11.147  13.924 -14.309  1.00  0.00    -0.027 C 
ATOM     12  C   UNL     1     -12.575   9.494 -15.798  1.00  0.00     0.011 C 
ATOM     13  C   UNL     1     -10.493   8.547 -14.791  1.00  0.00     0.011 C 
ATOM     14  C   UNL     1      -9.857  15.658 -16.532  1.00  0.00     0.017 C 
ATOM     15  C   UNL     1      -8.378  14.752 -14.592  1.00  0.00    -0.020 C 
ATOM     16  C   UNL     1     -10.760  15.103 -13.473  1.00  0.00     0.032 C 
ATOM     17  C   UNL     1      -9.243  15.513 -13.480  1.00  0.00     0.006 C 
ATOM     18  C   UNL     1      -7.758  13.447 -13.960  1.00  0.00     0.008 C 
ATOM     19  C   UNL     1      -7.208  15.698 -15.083  1.00  0.00     0.012 C 
ATOM     20  C   UNL     1      -8.592  15.548 -12.009  1.00  0.00    -0.025 C 
ATOM     21  C   UNL     1      -8.362  13.028 -12.612  1.00  0.00     0.005 C 
ATOM     22  C   UNL     1      -8.120  14.103 -11.519  1.00  0.00     0.003 C 
ATOM     23  C   UNL     1      -9.571  16.295 -11.011  1.00  0.00     0.010 C 
ATOM     24  C   UNL     1      -7.321  16.452 -12.046  1.00  0.00     0.012 C 
ATOM     25  C   UNL     1      -8.619  13.677 -10.081  1.00  0.00    -0.006 C 
ATOM     26  C   UNL     1     -10.465  15.462 -10.061  1.00  0.00     0.033 C 
ATOM     27  C   UNL     1     -10.136  13.967  -9.957  1.00  0.00     0.120 C 
ATOM     28  C   UNL     1      -8.373  12.164  -9.820  1.00  0.00     0.014 C 
ATOM     29  C   UNL     1      -7.811  14.433  -8.988  1.00  0.00     0.014 C 
ENDROOT
BRANCH   1  30
ATOM     30  C   UNL     1     -10.960  13.051 -18.484  1.00  0.00     0.048 C 
ATOM     31  O   UNL     1     -11.008  12.793 -19.716  1.00  0.00    -0.550 OA
ATOM     32  O   UNL     1     -11.348  14.313 -18.048  1.00  0.00    -0.550 OA
ENDBRANCH   1  30
BRANCH  27  33
ATOM     33  O   UNL     1     -10.635  13.496  -8.726  1.00  0.00    -0.393 OA
ATOM     34  H   UNL     1     -10.320  12.559  -8.613  1.00  0.00     0.210 HD
ENDBRANCH  27  33
TORSDOF 2
ENDMDL
