MODEL 1
REMARK VINA RESULT:    -3.530      0.000      0.000
REMARK INTER + INTRA:          -8.869
REMARK INTER:                  -6.419
REMARK INTRA:                  -2.451
REMARK UNBOUND:                -2.451
REMARK SMILES CCCCCCCCCCCCCC[C@@H](C)C(=O)[O-]
REMARK SMILES IDX 9 1 10 2 11 3 12 4 13 5 14 6 15 7 16 8 17 9 18 10 19 11 8 12
REMARK SMILES IDX 7 13 6 14 5 15 4 16 3 17 2 18 1 19
REMARK H PARENT
REMARK Flexibility Score: inf
ROOT
ATOM      1  C   UNL     1      -1.285  -4.103 -27.599  1.00  0.00     0.000 C 
ENDROOT
BRANCH   1   2
ATOM      2  C   UNL     1      -0.978  -2.720 -28.193  1.00  0.00     0.000 C 
BRANCH   2   3
ATOM      3  C   UNL     1      -1.055  -1.631 -27.116  1.00  0.00     0.000 C 
BRANCH   3   4
ATOM      4  C   UNL     1      -1.752  -0.373 -27.656  1.00  0.00     0.000 C 
BRANCH   4   5
ATOM      5  C   UNL     1      -1.840  -0.347 -29.191  1.00  0.00     0.001 C 
BRANCH   5   6
ATOM      6  C   UNL     1      -1.318   0.939 -29.865  1.00  0.00     0.009 C 
BRANCH   6   7
ATOM      7  C   UNL     1       0.187   0.896 -30.233  1.00  0.00     0.032 C 
ATOM      8  C   UNL     1       1.057   1.024 -28.977  1.00  0.00     0.014 C 
BRANCH   7   9
ATOM      9  C   UNL     1       0.555  -0.369 -30.961  1.00  0.00     0.044 C 
ATOM     10  O   UNL     1       0.103  -0.601 -32.114  1.00  0.00    -0.550 OA
ATOM     11  O   UNL     1       1.363  -1.314 -30.342  1.00  0.00    -0.550 OA
ENDBRANCH   7   9
ENDBRANCH   6   7
ENDBRANCH   5   6
ENDBRANCH   4   5
ENDBRANCH   3   4
ENDBRANCH   2   3
ENDBRANCH   1   2
BRANCH   1  12
ATOM     12  C   UNL     1      -1.645  -4.050 -26.104  1.00  0.00     0.000 C 
BRANCH  12  13
ATOM     13  C   UNL     1      -2.740  -5.036 -25.659  1.00  0.00    -0.000 C 
BRANCH  13  14
ATOM     14  C   UNL     1      -3.921  -5.103 -26.643  1.00  0.00    -0.000 C 
BRANCH  14  15
ATOM     15  C   UNL     1      -5.024  -4.084 -26.312  1.00  0.00    -0.000 C 
BRANCH  15  16
ATOM     16  C   UNL     1      -4.960  -2.830 -27.197  1.00  0.00    -0.000 C 
BRANCH  16  17
ATOM     17  C   UNL     1      -4.884  -1.558 -26.338  1.00  0.00    -0.000 C 
BRANCH  17  18
ATOM     18  C   UNL     1      -4.626  -1.861 -24.855  1.00  0.00    -0.003 C 
ATOM     19  C   UNL     1      -3.379  -1.161 -24.316  1.00  0.00     0.004 C 
ENDBRANCH  17  18
ENDBRANCH  16  17
ENDBRANCH  15  16
ENDBRANCH  14  15
ENDBRANCH  13  14
ENDBRANCH  12  13
ENDBRANCH   1  12
TORSDOF 14
ENDMDL
MODEL 2
REMARK VINA RESULT:    -3.487      3.092      6.208
REMARK INTER + INTRA:          -8.791
REMARK INTER:                  -7.051
REMARK INTRA:                  -1.740
REMARK UNBOUND:                -2.451
REMARK SMILES CCCCCCCCCCCCCC[C@@H](C)C(=O)[O-]
REMARK SMILES IDX 9 1 10 2 11 3 12 4 13 5 14 6 15 7 16 8 17 9 18 10 19 11 8 12
REMARK SMILES IDX 7 13 6 14 5 15 4 16 3 17 2 18 1 19
REMARK H PARENT
REMARK Flexibility Score: inf
ROOT
ATOM      1  C   UNL     1      -0.697  -4.166 -26.956  1.00  0.00     0.000 C 
ENDROOT
BRANCH   1   2
ATOM      2  C   UNL     1      -1.738  -5.295 -26.957  1.00  0.00     0.000 C 
BRANCH   2   3
ATOM      3  C   UNL     1      -2.834  -5.033 -25.917  1.00  0.00     0.000 C 
BRANCH   3   4
ATOM      4  C   UNL     1      -4.202  -4.859 -26.592  1.00  0.00     0.000 C 
BRANCH   4   5
ATOM      5  C   UNL     1      -4.549  -3.388 -26.877  1.00  0.00     0.001 C 
BRANCH   5   6
ATOM      6  C   UNL     1      -5.078  -2.584 -25.671  1.00  0.00     0.009 C 
BRANCH   6   7
ATOM      7  C   UNL     1      -4.196  -1.370 -25.282  1.00  0.00     0.032 C 
ATOM      8  C   UNL     1      -5.001  -0.068 -25.355  1.00  0.00     0.014 C 
BRANCH   7   9
ATOM      9  C   UNL     1      -3.613  -1.514 -23.902  1.00  0.00     0.044 C 
ATOM     10  O   UNL     1      -3.510  -2.648 -23.363  1.00  0.00    -0.550 OA
ATOM     11  O   UNL     1      -3.225  -0.383 -23.193  1.00  0.00    -0.550 OA
ENDBRANCH   7   9
ENDBRANCH   6   7
ENDBRANCH   5   6
ENDBRANCH   4   5
ENDBRANCH   3   4
ENDBRANCH   2   3
ENDBRANCH   1   2
BRANCH   1  12
ATOM     12  C   UNL     1      -0.272  -3.738 -28.372  1.00  0.00     0.000 C 
BRANCH  12  13
ATOM     13  C   UNL     1      -0.502  -2.253 -28.705  1.00  0.00    -0.000 C 
BRANCH  13  14
ATOM     14  C   UNL     1      -1.562  -1.595 -27.803  1.00  0.00    -0.000 C 
BRANCH  14  15
ATOM     15  C   UNL     1      -2.002  -0.216 -28.321  1.00  0.00    -0.000 C 
BRANCH  15  16
ATOM     16  C   UNL     1      -1.022   0.375 -29.346  1.00  0.00    -0.000 C 
BRANCH  16  17
ATOM     17  C   UNL     1      -1.748   0.738 -30.651  1.00  0.00    -0.000 C 
BRANCH  17  18
ATOM     18  C   UNL     1      -0.879   0.501 -31.895  1.00  0.00    -0.003 C 
ATOM     19  C   UNL     1       0.435  -0.210 -31.573  1.00  0.00     0.004 C 
ENDBRANCH  17  18
ENDBRANCH  16  17
ENDBRANCH  15  16
ENDBRANCH  14  15
ENDBRANCH  13  14
ENDBRANCH  12  13
ENDBRANCH   1  12
TORSDOF 14
ENDMDL
MODEL 3
REMARK VINA RESULT:    -3.481     14.385     16.207
REMARK INTER + INTRA:          -8.781
REMARK INTER:                  -6.143
REMARK INTRA:                  -2.637
REMARK UNBOUND:                -2.451
REMARK SMILES CCCCCCCCCCCCCC[C@@H](C)C(=O)[O-]
REMARK SMILES IDX 9 1 10 2 11 3 12 4 13 5 14 6 15 7 16 8 17 9 18 10 19 11 8 12
REMARK SMILES IDX 7 13 6 14 5 15 4 16 3 17 2 18 1 19
REMARK H PARENT
REMARK Flexibility Score: inf
ROOT
ATOM      1  C   UNL     1      10.517  -7.376 -23.978  1.00  0.00     0.000 C 
ENDROOT
BRANCH   1   2
ATOM      2  C   UNL     1      10.546  -7.464 -22.445  1.00  0.00     0.000 C 
BRANCH   2   3
ATOM      3  C   UNL     1      11.977  -7.318 -21.913  1.00  0.00     0.000 C 
BRANCH   3   4
ATOM      4  C   UNL     1      12.053  -6.230 -20.832  1.00  0.00     0.000 C 
BRANCH   4   5
ATOM      5  C   UNL     1      13.294  -5.332 -20.969  1.00  0.00     0.001 C 
BRANCH   5   6
ATOM      6  C   UNL     1      13.546  -4.758 -22.379  1.00  0.00     0.009 C 
BRANCH   6   7
ATOM      7  C   UNL     1      12.819  -3.417 -22.656  1.00  0.00     0.032 C 
ATOM      8  C   UNL     1      13.759  -2.422 -23.347  1.00  0.00     0.014 C 
BRANCH   7   9
ATOM      9  C   UNL     1      11.589  -3.605 -23.504  1.00  0.00     0.044 C 
ATOM     10  O   UNL     1      11.628  -3.399 -24.746  1.00  0.00    -0.550 OA
ATOM     11  O   UNL     1      10.387  -3.963 -22.909  1.00  0.00    -0.550 OA
ENDBRANCH   7   9
ENDBRANCH   6   7
ENDBRANCH   5   6
ENDBRANCH   4   5
ENDBRANCH   3   4
ENDBRANCH   2   3
ENDBRANCH   1   2
BRANCH   1  12
ATOM     12  C   UNL     1      11.918  -7.234 -24.599  1.00  0.00     0.000 C 
BRANCH  12  13
ATOM     13  C   UNL     1      12.184  -8.124 -25.827  1.00  0.00    -0.000 C 
BRANCH  13  14
ATOM     14  C   UNL     1      13.457  -8.977 -25.683  1.00  0.00    -0.000 C 
BRANCH  14  15
ATOM     15  C   UNL     1      13.657  -9.500 -24.251  1.00  0.00    -0.000 C 
BRANCH  15  16
ATOM     16  C   UNL     1      13.088 -10.913 -24.049  1.00  0.00    -0.000 C 
BRANCH  16  17
ATOM     17  C   UNL     1      12.178 -10.965 -22.812  1.00  0.00    -0.000 C 
BRANCH  17  18
ATOM     18  C   UNL     1      10.692 -11.102 -23.178  1.00  0.00    -0.003 C 
ATOM     19  C   UNL     1      10.470 -11.336 -24.671  1.00  0.00     0.004 C 
ENDBRANCH  17  18
ENDBRANCH  16  17
ENDBRANCH  15  16
ENDBRANCH  14  15
ENDBRANCH  13  14
ENDBRANCH  12  13
ENDBRANCH   1  12
TORSDOF 14
ENDMDL
MODEL 4
REMARK VINA RESULT:    -3.478     15.687     16.907
REMARK INTER + INTRA:          -8.776
REMARK INTER:                  -6.369
REMARK INTRA:                  -2.407
REMARK UNBOUND:                -2.451
REMARK SMILES CCCCCCCCCCCCCC[C@@H](C)C(=O)[O-]
REMARK SMILES IDX 9 1 10 2 11 3 12 4 13 5 14 6 15 7 16 8 17 9 18 10 19 11 8 12
REMARK SMILES IDX 7 13 6 14 5 15 4 16 3 17 2 18 1 19
REMARK H PARENT
REMARK Flexibility Score: inf
ROOT
ATOM      1  C   UNL     1      11.675  -9.757 -26.772  1.00  0.00     0.000 C 
ENDROOT
BRANCH   1   2
ATOM      2  C   UNL     1      12.456  -8.546 -26.242  1.00  0.00     0.000 C 
BRANCH   2   3
ATOM      3  C   UNL     1      13.508  -8.978 -25.213  1.00  0.00     0.000 C 
BRANCH   3   4
ATOM      4  C   UNL     1      13.465  -8.075 -23.971  1.00  0.00     0.000 C 
BRANCH   4   5
ATOM      5  C   UNL     1      12.417  -6.955 -24.079  1.00  0.00     0.001 C 
BRANCH   5   6
ATOM      6  C   UNL     1      11.906  -6.392 -22.736  1.00  0.00     0.009 C 
BRANCH   6   7
ATOM      7  C   UNL     1      13.031  -5.924 -21.777  1.00  0.00     0.032 C 
ATOM      8  C   UNL     1      13.373  -4.449 -22.018  1.00  0.00     0.014 C 
BRANCH   7   9
ATOM      9  C   UNL     1      12.656  -6.114 -20.331  1.00  0.00     0.044 C 
ATOM     10  O   UNL     1      11.711  -6.882 -20.008  1.00  0.00    -0.550 OA
ATOM     11  O   UNL     1      13.326  -5.402 -19.344  1.00  0.00    -0.550 OA
ENDBRANCH   7   9
ENDBRANCH   6   7
ENDBRANCH   5   6
ENDBRANCH   4   5
ENDBRANCH   3   4
ENDBRANCH   2   3
ENDBRANCH   1   2
BRANCH   1  12
ATOM     12  C   UNL     1      11.473 -10.854 -25.711  1.00  0.00     0.000 C 
BRANCH  12  13
ATOM     13  C   UNL     1      10.007 -11.151 -25.347  1.00  0.00    -0.000 C 
BRANCH  13  14
ATOM     14  C   UNL     1       9.751 -11.129 -23.830  1.00  0.00    -0.000 C 
BRANCH  14  15
ATOM     15  C   UNL     1      10.234  -9.827 -23.170  1.00  0.00    -0.000 C 
BRANCH  15  16
ATOM     16  C   UNL     1      11.230 -10.073 -22.026  1.00  0.00    -0.000 C 
BRANCH  16  17
ATOM     17  C   UNL     1      11.396 -11.577 -21.760  1.00  0.00    -0.000 C 
BRANCH  17  18
ATOM     18  C   UNL     1      12.869 -11.997 -21.641  1.00  0.00    -0.003 C 
ATOM     19  C   UNL     1      13.616 -11.914 -22.971  1.00  0.00     0.004 C 
ENDBRANCH  17  18
ENDBRANCH  16  17
ENDBRANCH  15  16
ENDBRANCH  14  15
ENDBRANCH  13  14
ENDBRANCH  12  13
ENDBRANCH   1  12
TORSDOF 14
ENDMDL
MODEL 5
REMARK VINA RESULT:    -3.474      1.622      3.178
REMARK INTER + INTRA:          -8.768
REMARK INTER:                  -6.552
REMARK INTRA:                  -2.216
REMARK UNBOUND:                -2.451
REMARK SMILES CCCCCCCCCCCCCC[C@@H](C)C(=O)[O-]
REMARK SMILES IDX 9 1 10 2 11 3 12 4 13 5 14 6 15 7 16 8 17 9 18 10 19 11 8 12
REMARK SMILES IDX 7 13 6 14 5 15 4 16 3 17 2 18 1 19
REMARK H PARENT
REMARK Flexibility Score: inf
ROOT
ATOM      1  C   UNL     1      -1.715  -2.782 -26.239  1.00  0.00     0.000 C 
ENDROOT
BRANCH   1   2
ATOM      2  C   UNL     1      -1.647  -3.295 -27.685  1.00  0.00     0.000 C 
BRANCH   2   3
ATOM      3  C   UNL     1      -0.280  -3.926 -27.981  1.00  0.00     0.000 C 
BRANCH   3   4
ATOM      4  C   UNL     1       0.770  -2.846 -28.283  1.00  0.00     0.000 C 
BRANCH   4   5
ATOM      5  C   UNL     1       0.558  -2.167 -29.646  1.00  0.00     0.001 C 
BRANCH   5   6
ATOM      6  C   UNL     1       0.499  -0.626 -29.619  1.00  0.00     0.009 C 
BRANCH   6   7
ATOM      7  C   UNL     1      -0.877  -0.036 -30.021  1.00  0.00     0.032 C 
ATOM      8  C   UNL     1      -1.807   0.051 -28.806  1.00  0.00     0.014 C 
BRANCH   7   9
ATOM      9  C   UNL     1      -0.747   1.328 -30.643  1.00  0.00     0.044 C 
ATOM     10  O   UNL     1       0.065   2.171 -30.179  1.00  0.00    -0.550 OA
ATOM     11  O   UNL     1      -1.563   1.682 -31.711  1.00  0.00    -0.550 OA
ENDBRANCH   7   9
ENDBRANCH   6   7
ENDBRANCH   5   6
ENDBRANCH   4   5
ENDBRANCH   3   4
ENDBRANCH   2   3
ENDBRANCH   1   2
BRANCH   1  12
ATOM     12  C   UNL     1      -3.064  -2.125 -25.897  1.00  0.00     0.000 C 
BRANCH  12  13
ATOM     13  C   UNL     1      -4.128  -2.196 -27.008  1.00  0.00    -0.000 C 
BRANCH  13  14
ATOM     14  C   UNL     1      -5.140  -3.336 -26.796  1.00  0.00    -0.000 C 
BRANCH  14  15
ATOM     15  C   UNL     1      -5.172  -3.832 -25.341  1.00  0.00    -0.000 C 
BRANCH  15  16
ATOM     16  C   UNL     1      -4.852  -5.330 -25.215  1.00  0.00    -0.000 C 
BRANCH  16  17
ATOM     17  C   UNL     1      -4.089  -5.832 -26.451  1.00  0.00    -0.000 C 
BRANCH  17  18
ATOM     18  C   UNL     1      -2.825  -6.623 -26.084  1.00  0.00    -0.003 C 
ATOM     19  C   UNL     1      -2.133  -6.084 -24.832  1.00  0.00     0.004 C 
ENDBRANCH  17  18
ENDBRANCH  16  17
ENDBRANCH  15  16
ENDBRANCH  14  15
ENDBRANCH  13  14
ENDBRANCH  12  13
ENDBRANCH   1  12
TORSDOF 14
ENDMDL
MODEL 6
REMARK VINA RESULT:    -3.449     14.105     16.841
REMARK INTER + INTRA:          -8.723
REMARK INTER:                  -6.783
REMARK INTRA:                  -1.940
REMARK UNBOUND:                -2.451
REMARK SMILES CCCCCCCCCCCCCC[C@@H](C)C(=O)[O-]
REMARK SMILES IDX 9 1 10 2 11 3 12 4 13 5 14 6 15 7 16 8 17 9 18 10 19 11 8 12
REMARK SMILES IDX 7 13 6 14 5 15 4 16 3 17 2 18 1 19
REMARK H PARENT
REMARK Flexibility Score: inf
ROOT
ATOM      1  C   UNL     1      -4.615  -9.033 -17.773  1.00  0.00     0.000 C 
ENDROOT
BRANCH   1   2
ATOM      2  C   UNL     1      -3.087  -9.173 -17.712  1.00  0.00     0.000 C 
BRANCH   2   3
ATOM      3  C   UNL     1      -2.608  -9.354 -16.266  1.00  0.00     0.000 C 
BRANCH   3   4
ATOM      4  C   UNL     1      -1.724 -10.603 -16.133  1.00  0.00     0.000 C 
BRANCH   4   5
ATOM      5  C   UNL     1      -2.360 -11.700 -15.263  1.00  0.00     0.001 C 
BRANCH   5   6
ATOM      6  C   UNL     1      -1.385 -12.761 -14.712  1.00  0.00     0.009 C 
BRANCH   6   7
ATOM      7  C   UNL     1      -1.841 -14.224 -14.948  1.00  0.00     0.032 C 
ATOM      8  C   UNL     1      -0.932 -14.918 -15.969  1.00  0.00     0.014 C 
BRANCH   7   9
ATOM      9  C   UNL     1      -1.853 -15.025 -13.674  1.00  0.00     0.044 C 
ATOM     10  O   UNL     1      -0.962 -15.886 -13.448  1.00  0.00    -0.550 OA
ATOM     11  O   UNL     1      -2.881 -14.849 -12.756  1.00  0.00    -0.550 OA
ENDBRANCH   7   9
ENDBRANCH   6   7
ENDBRANCH   5   6
ENDBRANCH   4   5
ENDBRANCH   3   4
ENDBRANCH   2   3
ENDBRANCH   1   2
BRANCH   1  12
ATOM     12  C   UNL     1      -5.323 -10.335 -18.187  1.00  0.00     0.000 C 
BRANCH  12  13
ATOM     13  C   UNL     1      -5.807 -11.217 -17.022  1.00  0.00    -0.000 C 
BRANCH  13  14
ATOM     14  C   UNL     1      -5.195 -12.628 -17.044  1.00  0.00    -0.000 C 
BRANCH  14  15
ATOM     15  C   UNL     1      -4.780 -13.068 -18.458  1.00  0.00    -0.000 C 
BRANCH  15  16
ATOM     16  C   UNL     1      -3.320 -13.543 -18.528  1.00  0.00    -0.000 C 
BRANCH  16  17
ATOM     17  C   UNL     1      -3.199 -14.813 -19.384  1.00  0.00    -0.000 C 
BRANCH  17  18
ATOM     18  C   UNL     1      -4.527 -15.578 -19.497  1.00  0.00    -0.003 C 
ATOM     19  C   UNL     1      -4.351 -16.987 -20.063  1.00  0.00     0.004 C 
ENDBRANCH  17  18
ENDBRANCH  16  17
ENDBRANCH  15  16
ENDBRANCH  14  15
ENDBRANCH  13  14
ENDBRANCH  12  13
ENDBRANCH   1  12
TORSDOF 14
ENDMDL
MODEL 7
REMARK VINA RESULT:    -3.393      1.465      2.344
REMARK INTER + INTRA:          -8.620
REMARK INTER:                  -6.417
REMARK INTRA:                  -2.203
REMARK UNBOUND:                -2.451
REMARK SMILES CCCCCCCCCCCCCC[C@@H](C)C(=O)[O-]
REMARK SMILES IDX 9 1 10 2 11 3 12 4 13 5 14 6 15 7 16 8 17 9 18 10 19 11 8 12
REMARK SMILES IDX 7 13 6 14 5 15 4 16 3 17 2 18 1 19
REMARK H PARENT
REMARK Flexibility Score: inf
ROOT
ATOM      1  C   UNL     1      -2.181  -4.302 -25.963  1.00  0.00     0.000 C 
ENDROOT
BRANCH   1   2
ATOM      2  C   UNL     1      -1.005  -3.574 -26.632  1.00  0.00     0.000 C 
BRANCH   2   3
ATOM      3  C   UNL     1      -1.421  -2.989 -27.987  1.00  0.00     0.000 C 
BRANCH   3   4
ATOM      4  C   UNL     1      -0.775  -1.614 -28.213  1.00  0.00     0.000 C 
BRANCH   4   5
ATOM      5  C   UNL     1      -1.769  -0.560 -28.727  1.00  0.00     0.001 C 
BRANCH   5   6
ATOM      6  C   UNL     1      -1.373   0.142 -30.043  1.00  0.00     0.009 C 
BRANCH   6   7
ATOM      7  C   UNL     1       0.121  -0.023 -30.424  1.00  0.00     0.032 C 
ATOM      8  C   UNL     1       0.261  -0.652 -31.814  1.00  0.00     0.014 C 
BRANCH   7   9
ATOM      9  C   UNL     1       0.858   1.289 -30.399  1.00  0.00     0.044 C 
ATOM     10  O   UNL     1       2.000   1.395 -30.922  1.00  0.00    -0.550 OA
ATOM     11  O   UNL     1       0.298   2.386 -29.755  1.00  0.00    -0.550 OA
ENDBRANCH   7   9
ENDBRANCH   6   7
ENDBRANCH   5   6
ENDBRANCH   4   5
ENDBRANCH   3   4
ENDBRANCH   2   3
ENDBRANCH   1   2
BRANCH   1  12
ATOM     12  C   UNL     1      -3.417  -4.411 -26.873  1.00  0.00     0.000 C 
BRANCH  12  13
ATOM     13  C   UNL     1      -4.745  -3.971 -26.229  1.00  0.00    -0.000 C 
BRANCH  13  14
ATOM     14  C   UNL     1      -5.335  -2.707 -26.880  1.00  0.00    -0.000 C 
BRANCH  14  15
ATOM     15  C   UNL     1      -4.517  -1.445 -26.565  1.00  0.00    -0.000 C 
BRANCH  15  16
ATOM     16  C   UNL     1      -5.038  -0.691 -25.331  1.00  0.00    -0.000 C 
BRANCH  16  17
ATOM     17  C   UNL     1      -3.886  -0.346 -24.374  1.00  0.00    -0.000 C 
BRANCH  17  18
ATOM     18  C   UNL     1      -2.507  -0.659 -24.973  1.00  0.00    -0.003 C 
ATOM     19  C   UNL     1      -1.640   0.587 -25.146  1.00  0.00     0.004 C 
ENDBRANCH  17  18
ENDBRANCH  16  17
ENDBRANCH  15  16
ENDBRANCH  14  15
ENDBRANCH  13  14
ENDBRANCH  12  13
ENDBRANCH   1  12
TORSDOF 14
ENDMDL
MODEL 8
REMARK VINA RESULT:    -3.359     13.242     15.263
REMARK INTER + INTRA:          -8.560
REMARK INTER:                  -6.215
REMARK INTRA:                  -2.345
REMARK UNBOUND:                -2.451
REMARK SMILES CCCCCCCCCCCCCC[C@@H](C)C(=O)[O-]
REMARK SMILES IDX 9 1 10 2 11 3 12 4 13 5 14 6 15 7 16 8 17 9 18 10 19 11 8 12
REMARK SMILES IDX 7 13 6 14 5 15 4 16 3 17 2 18 1 19
REMARK H PARENT
REMARK Flexibility Score: inf
ROOT
ATOM      1  C   UNL     1       9.591  -4.093 -22.451  1.00  0.00     0.000 C 
ENDROOT
BRANCH   1   2
ATOM      2  C   UNL     1       9.744  -3.560 -21.019  1.00  0.00     0.000 C 
BRANCH   2   3
ATOM      3  C   UNL     1       9.987  -2.045 -21.019  1.00  0.00     0.000 C 
BRANCH   3   4
ATOM      4  C   UNL     1      11.126  -1.672 -20.059  1.00  0.00     0.000 C 
BRANCH   4   5
ATOM      5  C   UNL     1      10.755  -0.528 -19.102  1.00  0.00     0.001 C 
BRANCH   5   6
ATOM      6  C   UNL     1      10.298   0.782 -19.777  1.00  0.00     0.009 C 
BRANCH   6   7
ATOM      7  C   UNL     1       9.040   1.421 -19.133  1.00  0.00     0.032 C 
ATOM      8  C   UNL     1       8.701   2.753 -19.811  1.00  0.00     0.014 C 
BRANCH   7   9
ATOM      9  C   UNL     1       7.844   0.511 -19.205  1.00  0.00     0.044 C 
ATOM     10  O   UNL     1       7.297   0.255 -20.311  1.00  0.00    -0.550 OA
ATOM     11  O   UNL     1       7.304  -0.016 -18.039  1.00  0.00    -0.550 OA
ENDBRANCH   7   9
ENDBRANCH   6   7
ENDBRANCH   5   6
ENDBRANCH   4   5
ENDBRANCH   3   4
ENDBRANCH   2   3
ENDBRANCH   1   2
BRANCH   1  12
ATOM     12  C   UNL     1      10.045  -3.084 -23.520  1.00  0.00     0.000 C 
BRANCH  12  13
ATOM     13  C   UNL     1      11.350  -3.448 -24.252  1.00  0.00    -0.000 C 
BRANCH  13  14
ATOM     14  C   UNL     1      12.491  -2.454 -23.973  1.00  0.00    -0.000 C 
BRANCH  14  15
ATOM     15  C   UNL     1      13.425  -2.930 -22.849  1.00  0.00    -0.000 C 
BRANCH  15  16
ATOM     16  C   UNL     1      13.422  -4.457 -22.678  1.00  0.00    -0.000 C 
BRANCH  16  17
ATOM     17  C   UNL     1      13.244  -4.842 -21.202  1.00  0.00    -0.000 C 
BRANCH  17  18
ATOM     18  C   UNL     1      12.494  -6.172 -21.025  1.00  0.00    -0.003 C 
ATOM     19  C   UNL     1      12.104  -6.812 -22.356  1.00  0.00     0.004 C 
ENDBRANCH  17  18
ENDBRANCH  16  17
ENDBRANCH  15  16
ENDBRANCH  14  15
ENDBRANCH  13  14
ENDBRANCH  12  13
ENDBRANCH   1  12
TORSDOF 14
ENDMDL
MODEL 9
REMARK VINA RESULT:    -3.275     14.441     16.443
REMARK INTER + INTRA:          -8.406
REMARK INTER:                  -5.639
REMARK INTRA:                  -2.767
REMARK UNBOUND:                -2.451
REMARK SMILES CCCCCCCCCCCCCC[C@@H](C)C(=O)[O-]
REMARK SMILES IDX 9 1 10 2 11 3 12 4 13 5 14 6 15 7 16 8 17 9 18 10 19 11 8 12
REMARK SMILES IDX 7 13 6 14 5 15 4 16 3 17 2 18 1 19
REMARK H PARENT
REMARK Flexibility Score: inf
ROOT
ATOM      1  C   UNL     1       9.653  -6.865 -21.676  1.00  0.00     0.000 C 
ENDROOT
BRANCH   1   2
ATOM      2  C   UNL     1      10.436  -7.876 -22.526  1.00  0.00     0.000 C 
BRANCH   2   3
ATOM      3  C   UNL     1      10.600  -7.374 -23.966  1.00  0.00     0.000 C 
BRANCH   3   4
ATOM      4  C   UNL     1      11.989  -7.729 -24.517  1.00  0.00     0.000 C 
BRANCH   4   5
ATOM      5  C   UNL     1      12.784  -8.661 -23.587  1.00  0.00     0.001 C 
BRANCH   5   6
ATOM      6  C   UNL     1      13.426  -9.888 -24.267  1.00  0.00     0.009 C 
BRANCH   6   7
ATOM      7  C   UNL     1      12.741 -11.235 -23.921  1.00  0.00     0.032 C 
ATOM      8  C   UNL     1      12.364 -11.287 -22.436  1.00  0.00     0.014 C 
BRANCH   7   9
ATOM      9  C   UNL     1      11.509 -11.472 -24.752  1.00  0.00     0.044 C 
ATOM     10  O   UNL     1      11.605 -11.777 -25.970  1.00  0.00    -0.550 OA
ATOM     11  O   UNL     1      10.250 -11.309 -24.185  1.00  0.00    -0.550 OA
ENDBRANCH   7   9
ENDBRANCH   6   7
ENDBRANCH   5   6
ENDBRANCH   4   5
ENDBRANCH   3   4
ENDBRANCH   2   3
ENDBRANCH   1   2
BRANCH   1  12
ATOM     12  C   UNL     1      10.562  -5.979 -20.805  1.00  0.00     0.000 C 
BRANCH  12  13
ATOM     13  C   UNL     1      11.926  -6.596 -20.445  1.00  0.00    -0.000 C 
BRANCH  13  14
ATOM     14  C   UNL     1      13.087  -5.594 -20.568  1.00  0.00    -0.000 C 
BRANCH  14  15
ATOM     15  C   UNL     1      13.595  -5.456 -22.013  1.00  0.00    -0.000 C 
BRANCH  15  16
ATOM     16  C   UNL     1      13.362  -4.053 -22.594  1.00  0.00    -0.000 C 
BRANCH  16  17
ATOM     17  C   UNL     1      12.248  -4.077 -23.651  1.00  0.00    -0.000 C 
BRANCH  17  18
ATOM     18  C   UNL     1      11.062  -3.173 -23.279  1.00  0.00    -0.003 C 
ATOM     19  C   UNL     1       9.718  -3.747 -23.727  1.00  0.00     0.004 C 
ENDBRANCH  17  18
ENDBRANCH  16  17
ENDBRANCH  15  16
ENDBRANCH  14  15
ENDBRANCH  13  14
ENDBRANCH  12  13
ENDBRANCH   1  12
TORSDOF 14
ENDMDL
