MODEL 1
REMARK VINA RESULT:    -3.433      0.000      0.000
REMARK INTER + INTRA:          -3.339
REMARK INTER:                  -4.637
REMARK INTRA:                   1.298
REMARK UNBOUND:                 1.298
REMARK SMILES C=C1C(=O)O[C@H]2[C@H]3O[C@]3(C)CCC=C(C)CC[C@@H]12
REMARK SMILES IDX 6 1 18 2 2 3 1 4 3 5 4 6 5 7 17 8 16 9 14 10 15 11 13 12
REMARK SMILES IDX 7 14 9 15 8 16 10 17 11 18 12 19
REMARK H PARENT
REMARK Flexibility Score: 70.00
ROOT
ATOM      1  C   UNL     1     -16.170 -23.944 -40.673  1.00  0.00     0.216 C 
ATOM      2  C   UNL     1     -14.816 -23.446 -40.051  1.00  0.00     0.070 C 
ATOM      3  C   UNL     1     -15.139 -22.011 -39.747  1.00  0.00     0.037 C 
ATOM      4  C   UNL     1     -14.428 -21.195 -38.970  1.00  0.00     0.021 C 
ATOM      5  C   UNL     1     -16.362 -21.668 -40.437  1.00  0.00     0.334 C 
ATOM      6  O   UNL     1     -16.873 -20.519 -40.500  1.00  0.00    -0.247 OA
ATOM      7  O   UNL     1     -16.904 -22.780 -41.044  1.00  0.00    -0.455 OA
ENDROOT
BRANCH   2   8
ATOM      8  C   UNL     1     -13.581 -23.498 -40.983  1.00  0.00     0.017 C 
BRANCH   8   9
ATOM      9  C   UNL     1     -12.980 -24.906 -41.167  1.00  0.00     0.031 C 
BRANCH   9  10
ATOM     10  C   UNL     1     -12.324 -25.032 -42.533  1.00  0.00    -0.077 C 
ATOM     11  C   UNL     1     -11.060 -24.250 -42.781  1.00  0.00     0.039 C 
ATOM     12  C   UNL     1     -12.832 -25.754 -43.563  1.00  0.00    -0.028 CG0
ATOM     13  G   UNL     1     -14.058 -26.636 -43.524  1.00  0.00     0.000 G0
ENDBRANCH   9  10
ENDBRANCH   8   9
ENDBRANCH   2   8
BRANCH   1  14
ATOM     14  C   UNL     1     -16.097 -25.027 -41.767  1.00  0.00     0.192 C 
ATOM     15  C   UNL     1     -15.767 -24.751 -43.203  1.00  0.00     0.096 C 
ATOM     16  O   UNL     1     -17.099 -24.877 -42.744  1.00  0.00    -0.362 OA
ATOM     17  C   UNL     1     -15.574 -23.365 -43.831  1.00  0.00     0.045 C 
BRANCH  15  18
ATOM     18  C   UNL     1     -15.341 -25.965 -44.049  1.00  0.00     0.042 C 
BRANCH  18  19
ATOM     19  C   UNL     1     -14.065 -26.648 -43.525  1.00  0.00     0.030 CG0
ATOM     20  G   UNL     1     -12.853 -25.746 -43.563  1.00  0.00     0.000 G0
ENDBRANCH  18  19
ENDBRANCH  15  18
ENDBRANCH   1  14
TORSDOF 0
ENDMDL
MODEL 2
REMARK VINA RESULT:    -3.260      3.135      5.175
REMARK INTER + INTRA:          -3.105
REMARK INTER:                  -4.384
REMARK INTRA:                   1.279
REMARK UNBOUND:                 1.298
REMARK SMILES C=C1C(=O)O[C@H]2[C@H]3O[C@]3(C)CCC=C(C)CC[C@@H]12
REMARK SMILES IDX 6 1 18 2 2 3 1 4 3 5 4 6 5 7 17 8 16 9 14 10 15 11 13 12
REMARK SMILES IDX 7 14 9 15 8 16 10 17 11 18 12 19
REMARK H PARENT
REMARK Flexibility Score: 70.00
ROOT
ATOM      1  C   UNL     1     -11.106 -24.754 -43.140  1.00  0.00     0.216 C 
ATOM      2  C   UNL     1     -11.035 -24.634 -41.576  1.00  0.00     0.070 C 
ATOM      3  C   UNL     1     -10.119 -25.775 -41.232  1.00  0.00     0.037 C 
ATOM      4  C   UNL     1      -9.515 -25.969 -40.061  1.00  0.00     0.021 C 
ATOM      5  C   UNL     1     -10.000 -26.623 -42.396  1.00  0.00     0.334 C 
ATOM      6  O   UNL     1      -9.402 -27.730 -42.440  1.00  0.00    -0.247 OA
ATOM      7  O   UNL     1     -10.651 -26.063 -43.474  1.00  0.00    -0.455 OA
ENDROOT
BRANCH   2   8
ATOM      8  C   UNL     1     -12.374 -24.816 -40.820  1.00  0.00     0.017 C 
BRANCH   8   9
ATOM      9  C   UNL     1     -13.325 -23.606 -40.906  1.00  0.00     0.031 C 
BRANCH   9  10
ATOM     10  C   UNL     1     -14.774 -24.062 -40.856  1.00  0.00    -0.077 C 
ATOM     11  C   UNL     1     -15.289 -24.631 -39.558  1.00  0.00     0.039 C 
ATOM     12  C   UNL     1     -15.620 -24.047 -41.917  1.00  0.00    -0.028 CG0
ATOM     13  G   UNL     1     -15.327 -23.490 -43.291  1.00  0.00     0.000 G0
ENDBRANCH   9  10
ENDBRANCH   8   9
ENDBRANCH   2   8
BRANCH   1  14
ATOM     14  C   UNL     1     -12.421 -24.342 -43.829  1.00  0.00     0.192 C 
ATOM     15  C   UNL     1     -13.605 -25.247 -43.990  1.00  0.00     0.096 C 
ATOM     16  O   UNL     1     -12.655 -25.055 -45.020  1.00  0.00    -0.362 OA
ATOM     17  C   UNL     1     -13.657 -26.734 -43.617  1.00  0.00     0.045 C 
BRANCH  15  18
ATOM     18  C   UNL     1     -14.945 -24.563 -44.320  1.00  0.00     0.042 C 
BRANCH  18  19
ATOM     19  C   UNL     1     -15.340 -23.484 -43.296  1.00  0.00     0.030 CG0
ATOM     20  G   UNL     1     -15.611 -24.045 -41.920  1.00  0.00     0.000 G0
ENDBRANCH  18  19
ENDBRANCH  15  18
ENDBRANCH   1  14
TORSDOF 0
ENDMDL
MODEL 3
REMARK VINA RESULT:    -3.239      2.573      3.676
REMARK INTER + INTRA:          -3.077
REMARK INTER:                  -4.392
REMARK INTRA:                   1.316
REMARK UNBOUND:                 1.298
REMARK SMILES C=C1C(=O)O[C@H]2[C@H]3O[C@]3(C)CCC=C(C)CC[C@@H]12
REMARK SMILES IDX 6 1 18 2 2 3 1 4 3 5 4 6 5 7 17 8 16 9 14 10 15 11 13 12
REMARK SMILES IDX 7 14 9 15 8 16 10 17 11 18 12 19
REMARK H PARENT
REMARK Flexibility Score: 70.00
ROOT
ATOM      1  C   UNL     1     -16.927 -21.454 -39.823  1.00  0.00     0.216 C 
ATOM      2  C   UNL     1     -16.610 -21.737 -38.311  1.00  0.00     0.070 C 
ATOM      3  C   UNL     1     -15.730 -20.569 -37.969  1.00  0.00     0.037 C 
ATOM      4  C   UNL     1     -15.390 -20.176 -36.741  1.00  0.00     0.021 C 
ATOM      5  C   UNL     1     -15.320 -19.936 -39.202  1.00  0.00     0.334 C 
ATOM      6  O   UNL     1     -14.491 -18.994 -39.305  1.00  0.00    -0.247 OA
ATOM      7  O   UNL     1     -15.955 -20.517 -40.279  1.00  0.00    -0.455 OA
ENDROOT
BRANCH   2   8
ATOM      8  C   UNL     1     -15.844 -23.049 -38.012  1.00  0.00     0.017 C 
BRANCH   8   9
ATOM      9  C   UNL     1     -16.696 -24.328 -38.140  1.00  0.00     0.031 C 
BRANCH   9  10
ATOM     10  C   UNL     1     -15.841 -25.494 -38.610  1.00  0.00    -0.077 C 
ATOM     11  C   UNL     1     -14.788 -26.019 -37.669  1.00  0.00     0.039 C 
ATOM     12  C   UNL     1     -15.922 -26.055 -39.843  1.00  0.00    -0.028 CG0
ATOM     13  G   UNL     1     -16.922 -25.713 -40.923  1.00  0.00     0.000 G0
ENDBRANCH   9  10
ENDBRANCH   8   9
ENDBRANCH   2   8
BRANCH   1  14
ATOM     14  C   UNL     1     -17.124 -22.669 -40.750  1.00  0.00     0.192 C 
ATOM     15  C   UNL     1     -16.010 -23.368 -41.469  1.00  0.00     0.096 C 
ATOM     16  O   UNL     1     -16.809 -22.382 -42.092  1.00  0.00    -0.362 OA
ATOM     17  C   UNL     1     -14.541 -22.926 -41.497  1.00  0.00     0.045 C 
BRANCH  15  18
ATOM     18  C   UNL     1     -16.324 -24.777 -42.006  1.00  0.00     0.042 C 
BRANCH  18  19
ATOM     19  C   UNL     1     -16.911 -25.714 -40.936  1.00  0.00     0.030 CG0
ATOM     20  G   UNL     1     -15.922 -26.060 -39.846  1.00  0.00     0.000 G0
ENDBRANCH  18  19
ENDBRANCH  15  18
ENDBRANCH   1  14
TORSDOF 0
ENDMDL
MODEL 4
REMARK VINA RESULT:    -3.116      3.175      5.437
REMARK INTER + INTRA:          -2.911
REMARK INTER:                  -4.152
REMARK INTRA:                   1.241
REMARK UNBOUND:                 1.298
REMARK SMILES C=C1C(=O)O[C@H]2[C@H]3O[C@]3(C)CCC=C(C)CC[C@@H]12
REMARK SMILES IDX 6 1 18 2 2 3 1 4 3 5 4 6 5 7 17 8 16 9 14 10 15 11 13 12
REMARK SMILES IDX 7 14 9 15 8 16 10 17 11 18 12 19
REMARK H PARENT
REMARK Flexibility Score: 70.00
ROOT
ATOM      1  C   UNL     1     -13.775 -26.546 -44.685  1.00  0.00     0.216 C 
ATOM      2  C   UNL     1     -15.165 -25.815 -44.697  1.00  0.00     0.070 C 
ATOM      3  C   UNL     1     -15.313 -25.483 -46.155  1.00  0.00     0.037 C 
ATOM      4  C   UNL     1     -16.434 -25.090 -46.759  1.00  0.00     0.021 C 
ATOM      5  C   UNL     1     -14.031 -25.673 -46.793  1.00  0.00     0.334 C 
ATOM      6  O   UNL     1     -13.754 -25.385 -47.987  1.00  0.00    -0.247 OA
ATOM      7  O   UNL     1     -13.122 -26.209 -45.906  1.00  0.00    -0.455 OA
ENDROOT
BRANCH   2   8
ATOM      8  C   UNL     1     -15.251 -24.507 -43.872  1.00  0.00     0.017 C 
BRANCH   8   9
ATOM      9  C   UNL     1     -15.371 -24.720 -42.350  1.00  0.00     0.031 C 
BRANCH   9  10
ATOM     10  C   UNL     1     -14.723 -23.569 -41.597  1.00  0.00    -0.077 C 
ATOM     11  C   UNL     1     -15.406 -22.226 -41.641  1.00  0.00     0.039 C 
ATOM     12  C   UNL     1     -13.540 -23.654 -40.937  1.00  0.00    -0.028 CG0
ATOM     13  G   UNL     1     -12.711 -24.901 -40.736  1.00  0.00     0.000 G0
ENDBRANCH   9  10
ENDBRANCH   8   9
ENDBRANCH   2   8
BRANCH   1  14
ATOM     14  C   UNL     1     -12.897 -26.390 -43.428  1.00  0.00     0.192 C 
ATOM     15  C   UNL     1     -12.004 -25.214 -43.167  1.00  0.00     0.096 C 
ATOM     16  O   UNL     1     -11.520 -26.421 -43.723  1.00  0.00    -0.362 OA
ATOM     17  C   UNL     1     -11.729 -24.060 -44.140  1.00  0.00     0.045 C 
BRANCH  15  18
ATOM     18  C   UNL     1     -11.531 -25.028 -41.713  1.00  0.00     0.042 C 
BRANCH  18  19
ATOM     19  C   UNL     1     -12.693 -24.902 -40.712  1.00  0.00     0.030 CG0
ATOM     20  G   UNL     1     -13.536 -23.669 -40.936  1.00  0.00     0.000 G0
ENDBRANCH  18  19
ENDBRANCH  15  18
ENDBRANCH   1  14
TORSDOF 0
ENDMDL
MODEL 5
REMARK VINA RESULT:    -2.990      2.416      3.692
REMARK INTER + INTRA:          -2.741
REMARK INTER:                  -4.119
REMARK INTRA:                   1.378
REMARK UNBOUND:                 1.298
REMARK SMILES C=C1C(=O)O[C@H]2[C@H]3O[C@]3(C)CCC=C(C)CC[C@@H]12
REMARK SMILES IDX 6 1 18 2 2 3 1 4 3 5 4 6 5 7 17 8 16 9 14 10 15 11 13 12
REMARK SMILES IDX 7 14 9 15 8 16 10 17 11 18 12 19
REMARK H PARENT
REMARK Flexibility Score: 70.00
ROOT
ATOM      1  C   UNL     1     -13.009 -24.246 -40.952  1.00  0.00     0.216 C 
ATOM      2  C   UNL     1     -13.550 -23.427 -42.178  1.00  0.00     0.070 C 
ATOM      3  C   UNL     1     -14.990 -23.235 -41.794  1.00  0.00     0.037 C 
ATOM      4  C   UNL     1     -15.845 -22.382 -42.358  1.00  0.00     0.021 C 
ATOM      5  C   UNL     1     -15.288 -24.130 -40.699  1.00  0.00     0.334 C 
ATOM      6  O   UNL     1     -16.426 -24.320 -40.194  1.00  0.00    -0.247 OA
ATOM      7  O   UNL     1     -14.147 -24.777 -40.277  1.00  0.00    -0.455 OA
ENDROOT
BRANCH   2   8
ATOM      8  C   UNL     1     -13.486 -24.139 -43.552  1.00  0.00     0.017 C 
BRANCH   8   9
ATOM      9  C   UNL     1     -12.066 -24.262 -44.140  1.00  0.00     0.031 C 
BRANCH   9  10
ATOM     10  C   UNL     1     -11.936 -25.539 -44.956  1.00  0.00    -0.077 C 
ATOM     11  C   UNL     1     -12.729 -25.641 -46.234  1.00  0.00     0.039 C 
ATOM     12  C   UNL     1     -11.200 -26.616 -44.582  1.00  0.00    -0.028 CG0
ATOM     13  G   UNL     1     -10.305 -26.716 -43.369  1.00  0.00     0.000 G0
ENDBRANCH   9  10
ENDBRANCH   8   9
ENDBRANCH   2   8
BRANCH   1  14
ATOM     14  C   UNL     1     -11.889 -25.271 -41.216  1.00  0.00     0.192 C 
ATOM     15  C   UNL     1     -12.131 -26.706 -41.574  1.00  0.00     0.096 C 
ATOM     16  O   UNL     1     -11.854 -26.294 -40.250  1.00  0.00    -0.362 OA
ATOM     17  C   UNL     1     -13.496 -27.405 -41.614  1.00  0.00     0.045 C 
BRANCH  15  18
ATOM     18  C   UNL     1     -10.941 -27.463 -42.195  1.00  0.00     0.042 C 
BRANCH  18  19
ATOM     19  C   UNL     1     -10.295 -26.711 -43.371  1.00  0.00     0.030 CG0
ATOM     20  G   UNL     1     -11.198 -26.613 -44.579  1.00  0.00     0.000 G0
ENDBRANCH  18  19
ENDBRANCH  15  18
ENDBRANCH   1  14
TORSDOF 0
ENDMDL
MODEL 6
REMARK VINA RESULT:    -2.908      3.158      4.828
REMARK INTER + INTRA:          -2.629
REMARK INTER:                  -3.955
REMARK INTRA:                   1.326
REMARK UNBOUND:                 1.298
REMARK SMILES C=C1C(=O)O[C@H]2[C@H]3O[C@]3(C)CCC=C(C)CC[C@@H]12
REMARK SMILES IDX 6 1 18 2 2 3 1 4 3 5 4 6 5 7 17 8 16 9 14 10 15 11 13 12
REMARK SMILES IDX 7 14 9 15 8 16 10 17 11 18 12 19
REMARK H PARENT
REMARK Flexibility Score: 70.00
ROOT
ATOM      1  C   UNL     1     -11.557 -24.518 -42.868  1.00  0.00     0.216 C 
ATOM      2  C   UNL     1     -12.736 -24.099 -43.818  1.00  0.00     0.070 C 
ATOM      3  C   UNL     1     -13.732 -23.556 -42.833  1.00  0.00     0.037 C 
ATOM      4  C   UNL     1     -14.808 -22.826 -43.127  1.00  0.00     0.021 C 
ATOM      5  C   UNL     1     -13.319 -23.956 -41.507  1.00  0.00     0.334 C 
ATOM      6  O   UNL     1     -13.974 -23.773 -40.447  1.00  0.00    -0.247 OA
ATOM      7  O   UNL     1     -12.097 -24.591 -41.550  1.00  0.00    -0.455 OA
ENDROOT
BRANCH   2   8
ATOM      8  C   UNL     1     -13.397 -25.244 -44.624  1.00  0.00     0.017 C 
BRANCH   8   9
ATOM      9  C   UNL     1     -12.540 -25.781 -45.788  1.00  0.00     0.031 C 
BRANCH   9  10
ATOM     10  C   UNL     1     -12.803 -27.263 -46.004  1.00  0.00    -0.077 C 
ATOM     11  C   UNL     1     -14.161 -27.669 -46.518  1.00  0.00     0.039 C 
ATOM     12  C   UNL     1     -11.919 -28.250 -45.710  1.00  0.00    -0.028 CG0
ATOM     13  G   UNL     1     -10.500 -28.069 -45.223  1.00  0.00     0.000 G0
ENDBRANCH   9  10
ENDBRANCH   8   9
ENDBRANCH   2   8
BRANCH   1  14
ATOM     14  C   UNL     1     -10.709 -25.737 -43.277  1.00  0.00     0.192 C 
ATOM     15  C   UNL     1     -11.019 -27.148 -42.880  1.00  0.00     0.096 C 
ATOM     16  O   UNL     1     -10.083 -26.354 -42.178  1.00  0.00    -0.362 OA
ATOM     17  C   UNL     1     -12.132 -27.589 -41.921  1.00  0.00     0.045 C 
BRANCH  15  18
ATOM     18  C   UNL     1     -10.325 -28.254 -43.698  1.00  0.00     0.042 C 
BRANCH  18  19
ATOM     19  C   UNL     1     -10.483 -28.070 -45.217  1.00  0.00     0.030 CG0
ATOM     20  G   UNL     1     -11.907 -28.248 -45.690  1.00  0.00     0.000 G0
ENDBRANCH  18  19
ENDBRANCH  15  18
ENDBRANCH   1  14
TORSDOF 0
ENDMDL
MODEL 7
REMARK VINA RESULT:    -2.889      7.877      9.591
REMARK INTER + INTRA:          -2.604
REMARK INTER:                  -3.891
REMARK INTRA:                   1.287
REMARK UNBOUND:                 1.298
REMARK SMILES C=C1C(=O)O[C@H]2[C@H]3O[C@]3(C)CCC=C(C)CC[C@@H]12
REMARK SMILES IDX 6 1 18 2 2 3 1 4 3 5 4 6 5 7 17 8 16 9 14 10 15 11 13 12
REMARK SMILES IDX 7 14 9 15 8 16 10 17 11 18 12 19
REMARK H PARENT
REMARK Flexibility Score: 70.00
ROOT
ATOM      1  C   UNL     1      -9.348 -27.646 -35.652  1.00  0.00     0.216 C 
ATOM      2  C   UNL     1     -10.268 -27.575 -36.923  1.00  0.00     0.070 C 
ATOM      3  C   UNL     1      -9.410 -26.781 -37.866  1.00  0.00     0.037 C 
ATOM      4  C   UNL     1      -9.601 -26.651 -39.179  1.00  0.00     0.021 C 
ATOM      5  C   UNL     1      -8.334 -26.187 -37.107  1.00  0.00     0.334 C 
ATOM      6  O   UNL     1      -7.486 -25.368 -37.549  1.00  0.00    -0.247 OA
ATOM      7  O   UNL     1      -8.361 -26.629 -35.801  1.00  0.00    -0.455 OA
ENDROOT
BRANCH   2   8
ATOM      8  C   UNL     1     -11.623 -26.846 -36.739  1.00  0.00     0.017 C 
BRANCH   8   9
ATOM      9  C   UNL     1     -12.693 -27.668 -35.994  1.00  0.00     0.031 C 
BRANCH   9  10
ATOM     10  C   UNL     1     -13.628 -26.750 -35.221  1.00  0.00    -0.077 C 
ATOM     11  C   UNL     1     -14.559 -25.867 -36.012  1.00  0.00     0.039 C 
ATOM     12  C   UNL     1     -13.639 -26.629 -33.870  1.00  0.00    -0.028 CG0
ATOM     13  G   UNL     1     -12.823 -27.438 -32.888  1.00  0.00     0.000 G0
ENDBRANCH   9  10
ENDBRANCH   8   9
ENDBRANCH   2   8
BRANCH   1  14
ATOM     14  C   UNL     1     -10.035 -27.670 -34.273  1.00  0.00     0.192 C 
ATOM     15  C   UNL     1     -10.533 -26.450 -33.561  1.00  0.00     0.096 C 
ATOM     16  O   UNL     1      -9.273 -27.027 -33.279  1.00  0.00    -0.362 OA
ATOM     17  C   UNL     1     -10.336 -24.998 -34.018  1.00  0.00     0.045 C 
BRANCH  15  18
ATOM     18  C   UNL     1     -11.537 -26.690 -32.418  1.00  0.00     0.042 C 
BRANCH  18  19
ATOM     19  C   UNL     1     -12.813 -27.417 -32.879  1.00  0.00     0.030 CG0
ATOM     20  G   UNL     1     -13.624 -26.617 -33.872  1.00  0.00     0.000 G0
ENDBRANCH  18  19
ENDBRANCH  15  18
ENDBRANCH   1  14
TORSDOF 0
ENDMDL
MODEL 8
REMARK VINA RESULT:    -2.876      3.741      5.743
REMARK INTER + INTRA:          -2.586
REMARK INTER:                  -3.865
REMARK INTRA:                   1.279
REMARK UNBOUND:                 1.298
REMARK SMILES C=C1C(=O)O[C@H]2[C@H]3O[C@]3(C)CCC=C(C)CC[C@@H]12
REMARK SMILES IDX 6 1 18 2 2 3 1 4 3 5 4 6 5 7 17 8 16 9 14 10 15 11 13 12
REMARK SMILES IDX 7 14 9 15 8 16 10 17 11 18 12 19
REMARK H PARENT
REMARK Flexibility Score: 70.00
ROOT
ATOM      1  C   UNL     1     -11.136 -26.599 -41.148  1.00  0.00     0.216 C 
ATOM      2  C   UNL     1     -10.534 -27.662 -42.136  1.00  0.00     0.070 C 
ATOM      3  C   UNL     1      -9.065 -27.533 -41.851  1.00  0.00     0.037 C 
ATOM      4  C   UNL     1      -8.115 -28.389 -42.226  1.00  0.00     0.021 C 
ATOM      5  C   UNL     1      -8.857 -26.323 -41.089  1.00  0.00     0.334 C 
ATOM      6  O   UNL     1      -7.740 -25.838 -40.768  1.00  0.00    -0.247 OA
ATOM      7  O   UNL     1     -10.064 -25.743 -40.763  1.00  0.00    -0.455 OA
ENDROOT
BRANCH   2   8
ATOM      8  C   UNL     1     -10.779 -27.403 -43.643  1.00  0.00     0.017 C 
BRANCH   8   9
ATOM      9  C   UNL     1     -12.209 -27.726 -44.121  1.00  0.00     0.031 C 
BRANCH   9  10
ATOM     10  C   UNL     1     -12.606 -26.813 -45.271  1.00  0.00    -0.077 C 
ATOM     11  C   UNL     1     -11.899 -26.995 -46.589  1.00  0.00     0.039 C 
ATOM     12  C   UNL     1     -13.511 -25.807 -45.173  1.00  0.00    -0.028 CG0
ATOM     13  G   UNL     1     -14.357 -25.472 -43.966  1.00  0.00     0.000 G0
ENDBRANCH   9  10
ENDBRANCH   8   9
ENDBRANCH   2   8
BRANCH   1  14
ATOM     14  C   UNL     1     -12.416 -25.862 -41.587  1.00  0.00     0.192 C 
ATOM     15  C   UNL     1     -12.427 -24.651 -42.471  1.00  0.00     0.096 C 
ATOM     16  O   UNL     1     -12.495 -24.558 -41.061  1.00  0.00    -0.362 OA
ATOM     17  C   UNL     1     -11.192 -23.892 -42.972  1.00  0.00     0.045 C 
BRANCH  15  18
ATOM     18  C   UNL     1     -13.775 -24.302 -43.130  1.00  0.00     0.042 C 
BRANCH  18  19
ATOM     19  C   UNL     1     -14.365 -25.462 -43.951  1.00  0.00     0.030 CG0
ATOM     20  G   UNL     1     -13.531 -25.811 -45.162  1.00  0.00     0.000 G0
ENDBRANCH  18  19
ENDBRANCH  15  18
ENDBRANCH   1  14
TORSDOF 0
ENDMDL
MODEL 9
REMARK VINA RESULT:    -2.716      2.278      3.937
REMARK INTER + INTRA:          -2.371
REMARK INTER:                  -3.653
REMARK INTRA:                   1.282
REMARK UNBOUND:                 1.298
REMARK SMILES C=C1C(=O)O[C@H]2[C@H]3O[C@]3(C)CCC=C(C)CC[C@@H]12
REMARK SMILES IDX 6 1 18 2 2 3 1 4 3 5 4 6 5 7 17 8 16 9 14 10 15 11 13 12
REMARK SMILES IDX 7 14 9 15 8 16 10 17 11 18 12 19
REMARK H PARENT
REMARK Flexibility Score: 70.00
ROOT
ATOM      1  C   UNL     1     -13.402 -23.561 -43.152  1.00  0.00     0.216 C 
ATOM      2  C   UNL     1     -14.929 -23.457 -43.500  1.00  0.00     0.070 C 
ATOM      3  C   UNL     1     -15.498 -22.972 -42.196  1.00  0.00     0.037 C 
ATOM      4  C   UNL     1     -16.718 -22.468 -42.013  1.00  0.00     0.021 C 
ATOM      5  C   UNL     1     -14.490 -23.138 -41.175  1.00  0.00     0.334 C 
ATOM      6  O   UNL     1     -14.653 -22.940 -39.942  1.00  0.00    -0.247 OA
ATOM      7  O   UNL     1     -13.303 -23.565 -41.730  1.00  0.00    -0.455 OA
ENDROOT
BRANCH   2   8
ATOM      8  C   UNL     1     -15.628 -24.783 -43.892  1.00  0.00     0.017 C 
BRANCH   8   9
ATOM      9  C   UNL     1     -15.313 -25.271 -45.320  1.00  0.00     0.031 C 
BRANCH   9  10
ATOM     10  C   UNL     1     -15.364 -26.789 -45.389  1.00  0.00    -0.077 C 
ATOM     11  C   UNL     1     -16.708 -27.455 -45.238  1.00  0.00     0.039 C 
ATOM     12  C   UNL     1     -14.275 -27.588 -45.517  1.00  0.00    -0.028 CG0
ATOM     13  G   UNL     1     -12.847 -27.135 -45.719  1.00  0.00     0.000 G0
ENDBRANCH   9  10
ENDBRANCH   8   9
ENDBRANCH   2   8
BRANCH   1  14
ATOM     14  C   UNL     1     -12.584 -24.665 -43.850  1.00  0.00     0.192 C 
ATOM     15  C   UNL     1     -12.533 -26.091 -43.392  1.00  0.00     0.096 C 
ATOM     16  O   UNL     1     -11.535 -25.151 -43.046  1.00  0.00    -0.362 OA
ATOM     17  C   UNL     1     -13.172 -26.648 -42.112  1.00  0.00     0.045 C 
BRANCH  15  18
ATOM     18  C   UNL     1     -12.017 -27.118 -44.417  1.00  0.00     0.042 C 
BRANCH  18  19
ATOM     19  C   UNL     1     -12.841 -27.141 -45.716  1.00  0.00     0.030 CG0
ATOM     20  G   UNL     1     -14.271 -27.579 -45.502  1.00  0.00     0.000 G0
ENDBRANCH  18  19
ENDBRANCH  15  18
ENDBRANCH   1  14
TORSDOF 0
ENDMDL
