MODEL 1
REMARK VINA RESULT:    -6.444      0.000      0.000
REMARK INTER + INTRA:          -8.748
REMARK INTER:                  -8.139
REMARK INTRA:                  -0.609
REMARK UNBOUND:                -0.609
REMARK SMILES O=C(C=Cc1ccc(O)cc1)c1ccc(O)cc1O
REMARK SMILES IDX 4 1 3 2 5 3 6 4 7 5 8 6 11 7 10 8 9 9 2 11 1 12 12 13 18 14
REMARK SMILES IDX 13 15 17 16 14 17 15 18 19 19 16 21
REMARK H PARENT 9 10 19 20 16 22
REMARK Flexibility Score: inf
ROOT
ATOM      1  C   UNL     1     -19.747 -14.743 -37.979  1.00  0.00     0.012 C 
ATOM      2  C   UNL     1     -18.603 -15.355 -37.641  1.00  0.00     0.053 C 
ENDROOT
BRANCH   1   3
ATOM      3  C   UNL     1     -19.805 -13.427 -38.662  1.00  0.00    -0.025 A 
ATOM      4  C   UNL     1     -19.950 -12.213 -37.958  1.00  0.00     0.012 A 
ATOM      5  C   UNL     1     -20.012 -10.999 -38.649  1.00  0.00     0.047 A 
ATOM      6  C   UNL     1     -19.942 -10.978 -40.047  1.00  0.00     0.115 A 
ATOM      7  C   UNL     1     -19.753 -13.394 -40.066  1.00  0.00     0.012 A 
ATOM      8  C   UNL     1     -19.814 -12.177 -40.753  1.00  0.00     0.047 A 
BRANCH   6   9
ATOM      9  O   UNL     1     -20.002  -9.772 -40.744  1.00  0.00    -0.508 OA
ATOM     10  H   UNL     1     -19.523  -8.944 -40.412  1.00  0.00     0.293 HD
ENDBRANCH   6   9
ENDBRANCH   1   3
BRANCH   2  11
ATOM     11  C   UNL     1     -18.585 -16.678 -36.976  1.00  0.00     0.189 C 
ATOM     12  O   UNL     1     -18.634 -16.745 -35.717  1.00  0.00    -0.289 OA
BRANCH  11  13
ATOM     13  C   UNL     1     -18.521 -17.932 -37.770  1.00  0.00     0.064 A 
ATOM     14  C   UNL     1     -17.652 -18.981 -37.400  1.00  0.00     0.130 A 
ATOM     15  C   UNL     1     -19.316 -18.079 -38.924  1.00  0.00     0.020 A 
ATOM     16  C   UNL     1     -17.595 -20.150 -38.175  1.00  0.00     0.093 A 
ATOM     17  C   UNL     1     -19.253 -19.247 -39.686  1.00  0.00     0.047 A 
ATOM     18  C   UNL     1     -18.394 -20.284 -39.315  1.00  0.00     0.119 A 
BRANCH  14  19
ATOM     19  O   UNL     1     -16.858 -18.873 -36.259  1.00  0.00    -0.507 OA
ATOM     20  H   UNL     1     -17.262 -18.847 -35.330  1.00  0.00     0.293 HD
ENDBRANCH  14  19
BRANCH  18  21
ATOM     21  O   UNL     1     -18.342 -21.443 -40.088  1.00  0.00    -0.508 OA
ATOM     22  H   UNL     1     -18.287 -21.403 -41.100  1.00  0.00     0.293 HD
ENDBRANCH  18  21
ENDBRANCH  11  13
ENDBRANCH   2  11
TORSDOF 6
ENDMDL
MODEL 2
REMARK VINA RESULT:    -6.408      5.059      7.970
REMARK INTER + INTRA:          -8.702
REMARK INTER:                  -7.940
REMARK INTRA:                  -0.761
REMARK UNBOUND:                -0.609
REMARK SMILES O=C(C=Cc1ccc(O)cc1)c1ccc(O)cc1O
REMARK SMILES IDX 4 1 3 2 5 3 6 4 7 5 8 6 11 7 10 8 9 9 2 11 1 12 12 13 18 14
REMARK SMILES IDX 13 15 17 16 14 17 15 18 19 19 16 21
REMARK H PARENT 9 10 19 20 16 22
REMARK Flexibility Score: inf
ROOT
ATOM      1  C   UNL     1     -20.637 -12.601 -40.658  1.00  0.00     0.012 C 
ATOM      2  C   UNL     1     -20.011 -13.393 -41.540  1.00  0.00     0.053 C 
ENDROOT
BRANCH   1   3
ATOM      3  C   UNL     1     -20.132 -12.336 -39.288  1.00  0.00    -0.025 A 
ATOM      4  C   UNL     1     -20.766 -12.844 -38.135  1.00  0.00     0.012 A 
ATOM      5  C   UNL     1     -20.259 -12.556 -36.864  1.00  0.00     0.047 A 
ATOM      6  C   UNL     1     -19.122 -11.750 -36.725  1.00  0.00     0.115 A 
ATOM      7  C   UNL     1     -19.002 -11.515 -39.134  1.00  0.00     0.012 A 
ATOM      8  C   UNL     1     -18.497 -11.230 -37.861  1.00  0.00     0.047 A 
BRANCH   6   9
ATOM      9  O   UNL     1     -18.608 -11.458 -35.462  1.00  0.00    -0.508 OA
ATOM     10  H   UNL     1     -17.627 -11.242 -35.327  1.00  0.00     0.293 HD
ENDBRANCH   6   9
ENDBRANCH   1   3
BRANCH   2  11
ATOM     11  C   UNL     1     -20.536 -13.620 -42.906  1.00  0.00     0.189 C 
ATOM     12  O   UNL     1     -20.746 -14.797 -43.307  1.00  0.00    -0.289 OA
BRANCH  11  13
ATOM     13  C   UNL     1     -20.832 -12.478 -43.810  1.00  0.00     0.064 A 
ATOM     14  C   UNL     1     -22.148 -12.232 -44.260  1.00  0.00     0.130 A 
ATOM     15  C   UNL     1     -19.792 -11.637 -44.251  1.00  0.00     0.020 A 
ATOM     16  C   UNL     1     -22.402 -11.159 -45.127  1.00  0.00     0.093 A 
ATOM     17  C   UNL     1     -20.057 -10.570 -45.112  1.00  0.00     0.047 A 
ATOM     18  C   UNL     1     -21.360 -10.328 -45.553  1.00  0.00     0.119 A 
BRANCH  14  19
ATOM     19  O   UNL     1     -23.203 -13.039 -43.835  1.00  0.00    -0.507 OA
ATOM     20  H   UNL     1     -24.108 -12.651 -43.597  1.00  0.00     0.293 HD
ENDBRANCH  14  19
BRANCH  18  21
ATOM     21  O   UNL     1     -21.606  -9.260 -46.413  1.00  0.00    -0.508 OA
ATOM     22  H   UNL     1     -20.863  -8.834 -46.955  1.00  0.00     0.293 HD
ENDBRANCH  18  21
ENDBRANCH  11  13
ENDBRANCH   2  11
TORSDOF 6
ENDMDL
MODEL 3
REMARK VINA RESULT:    -6.351      4.408      7.252
REMARK INTER + INTRA:          -8.631
REMARK INTER:                  -8.063
REMARK INTRA:                  -0.568
REMARK UNBOUND:                -0.609
REMARK SMILES O=C(C=Cc1ccc(O)cc1)c1ccc(O)cc1O
REMARK SMILES IDX 4 1 3 2 5 3 6 4 7 5 8 6 11 7 10 8 9 9 2 11 1 12 12 13 18 14
REMARK SMILES IDX 13 15 17 16 14 17 15 18 19 19 16 21
REMARK H PARENT 9 10 19 20 16 22
REMARK Flexibility Score: inf
ROOT
ATOM      1  C   UNL     1     -21.296 -13.000 -42.556  1.00  0.00     0.012 C 
ATOM      2  C   UNL     1     -20.177 -12.268 -42.650  1.00  0.00     0.053 C 
ENDROOT
BRANCH   1   3
ATOM      3  C   UNL     1     -22.374 -12.990 -43.575  1.00  0.00    -0.025 A 
ATOM      4  C   UNL     1     -23.563 -13.735 -43.429  1.00  0.00     0.012 A 
ATOM      5  C   UNL     1     -24.545 -13.702 -44.424  1.00  0.00     0.047 A 
ATOM      6  C   UNL     1     -24.352 -12.937 -45.581  1.00  0.00     0.115 A 
ATOM      7  C   UNL     1     -22.186 -12.239 -44.748  1.00  0.00     0.012 A 
ATOM      8  C   UNL     1     -23.170 -12.208 -45.740  1.00  0.00     0.047 A 
BRANCH   6   9
ATOM      9  O   UNL     1     -25.325 -12.897 -46.578  1.00  0.00    -0.508 OA
ATOM     10  H   UNL     1     -26.287 -13.156 -46.390  1.00  0.00     0.293 HD
ENDBRANCH   6   9
ENDBRANCH   1   3
BRANCH   2  11
ATOM     11  C   UNL     1     -19.114 -12.318 -41.621  1.00  0.00     0.189 C 
ATOM     12  O   UNL     1     -17.903 -12.271 -41.971  1.00  0.00    -0.289 OA
BRANCH  11  13
ATOM     13  C   UNL     1     -19.452 -12.411 -40.177  1.00  0.00     0.064 A 
ATOM     14  C   UNL     1     -19.867 -11.270 -39.455  1.00  0.00     0.130 A 
ATOM     15  C   UNL     1     -19.339 -13.641 -39.501  1.00  0.00     0.020 A 
ATOM     16  C   UNL     1     -20.164 -11.376 -38.088  1.00  0.00     0.093 A 
ATOM     17  C   UNL     1     -19.640 -13.736 -38.141  1.00  0.00     0.047 A 
ATOM     18  C   UNL     1     -20.053 -12.606 -37.431  1.00  0.00     0.119 A 
BRANCH  14  19
ATOM     19  O   UNL     1     -19.999 -10.038 -40.095  1.00  0.00    -0.507 OA
ATOM     20  H   UNL     1     -20.695  -9.883 -40.815  1.00  0.00     0.293 HD
ENDBRANCH  14  19
BRANCH  18  21
ATOM     21  O   UNL     1     -20.348 -12.718 -36.074  1.00  0.00    -0.508 OA
ATOM     22  H   UNL     1     -19.775 -13.276 -35.452  1.00  0.00     0.293 HD
ENDBRANCH  18  21
ENDBRANCH  11  13
ENDBRANCH   2  11
TORSDOF 6
ENDMDL
MODEL 4
REMARK VINA RESULT:    -6.289      4.097      7.200
REMARK INTER + INTRA:          -8.552
REMARK INTER:                  -7.795
REMARK INTRA:                  -0.757
REMARK UNBOUND:                -0.609
REMARK SMILES O=C(C=Cc1ccc(O)cc1)c1ccc(O)cc1O
REMARK SMILES IDX 4 1 3 2 5 3 6 4 7 5 8 6 11 7 10 8 9 9 2 11 1 12 12 13 18 14
REMARK SMILES IDX 13 15 17 16 14 17 15 18 19 19 16 21
REMARK H PARENT 9 10 19 20 16 22
REMARK Flexibility Score: inf
ROOT
ATOM      1  C   UNL     1     -20.000 -18.719 -40.463  1.00  0.00     0.012 C 
ATOM      2  C   UNL     1     -19.656 -18.328 -41.699  1.00  0.00     0.053 C 
ENDROOT
BRANCH   1   3
ATOM      3  C   UNL     1     -19.055 -18.758 -39.320  1.00  0.00    -0.025 A 
ATOM      4  C   UNL     1     -18.761 -17.620 -38.540  1.00  0.00     0.012 A 
ATOM      5  C   UNL     1     -17.854 -17.705 -37.480  1.00  0.00     0.047 A 
ATOM      6  C   UNL     1     -17.220 -18.919 -37.189  1.00  0.00     0.115 A 
ATOM      7  C   UNL     1     -18.400 -19.966 -39.029  1.00  0.00     0.012 A 
ATOM      8  C   UNL     1     -17.494 -20.047 -37.967  1.00  0.00     0.047 A 
BRANCH   6   9
ATOM      9  O   UNL     1     -16.314 -19.014 -36.133  1.00  0.00    -0.508 OA
ATOM     10  H   UNL     1     -15.632 -18.287 -35.954  1.00  0.00     0.293 HD
ENDBRANCH   6   9
ENDBRANCH   1   3
BRANCH   2  11
ATOM     11  C   UNL     1     -20.632 -18.285 -42.812  1.00  0.00     0.189 C 
ATOM     12  O   UNL     1     -20.823 -17.204 -43.433  1.00  0.00    -0.289 OA
BRANCH  11  13
ATOM     13  C   UNL     1     -21.383 -19.501 -43.217  1.00  0.00     0.064 A 
ATOM     14  C   UNL     1     -22.792 -19.546 -43.125  1.00  0.00     0.130 A 
ATOM     15  C   UNL     1     -20.693 -20.639 -43.676  1.00  0.00     0.020 A 
ATOM     16  C   UNL     1     -23.481 -20.711 -43.496  1.00  0.00     0.093 A 
ATOM     17  C   UNL     1     -21.389 -21.792 -44.045  1.00  0.00     0.047 A 
ATOM     18  C   UNL     1     -22.782 -21.832 -43.957  1.00  0.00     0.119 A 
BRANCH  14  19
ATOM     19  O   UNL     1     -23.508 -18.434 -42.683  1.00  0.00    -0.507 OA
ATOM     20  H   UNL     1     -24.152 -18.490 -41.902  1.00  0.00     0.293 HD
ENDBRANCH  14  19
BRANCH  18  21
ATOM     21  O   UNL     1     -23.460 -22.992 -44.327  1.00  0.00    -0.508 OA
ATOM     22  H   UNL     1     -23.682 -23.188 -45.297  1.00  0.00     0.293 HD
ENDBRANCH  18  21
ENDBRANCH  11  13
ENDBRANCH   2  11
TORSDOF 6
ENDMDL
MODEL 5
REMARK VINA RESULT:    -6.248      4.115      7.690
REMARK INTER + INTRA:          -8.500
REMARK INTER:                  -7.913
REMARK INTRA:                  -0.586
REMARK UNBOUND:                -0.609
REMARK SMILES O=C(C=Cc1ccc(O)cc1)c1ccc(O)cc1O
REMARK SMILES IDX 4 1 3 2 5 3 6 4 7 5 8 6 11 7 10 8 9 9 2 11 1 12 12 13 18 14
REMARK SMILES IDX 13 15 17 16 14 17 15 18 19 19 16 21
REMARK H PARENT 9 10 19 20 16 22
REMARK Flexibility Score: inf
ROOT
ATOM      1  C   UNL     1     -20.307 -14.338 -43.082  1.00  0.00     0.012 C 
ATOM      2  C   UNL     1     -19.758 -13.867 -41.954  1.00  0.00     0.053 C 
ENDROOT
BRANCH   1   3
ATOM      3  C   UNL     1     -19.755 -15.481 -43.850  1.00  0.00    -0.025 A 
ATOM      4  C   UNL     1     -19.382 -16.696 -43.239  1.00  0.00     0.012 A 
ATOM      5  C   UNL     1     -18.854 -17.740 -44.005  1.00  0.00     0.047 A 
ATOM      6  C   UNL     1     -18.681 -17.585 -45.386  1.00  0.00     0.115 A 
ATOM      7  C   UNL     1     -19.560 -15.332 -45.234  1.00  0.00     0.012 A 
ATOM      8  C   UNL     1     -19.033 -16.379 -45.997  1.00  0.00     0.047 A 
BRANCH   6   9
ATOM      9  O   UNL     1     -18.157 -18.620 -46.158  1.00  0.00    -0.508 OA
ATOM     10  H   UNL     1     -18.680 -19.471 -46.328  1.00  0.00     0.293 HD
ENDBRANCH   6   9
ENDBRANCH   1   3
BRANCH   2  11
ATOM     11  C   UNL     1     -20.349 -12.735 -41.204  1.00  0.00     0.189 C 
ATOM     12  O   UNL     1     -21.253 -12.036 -41.738  1.00  0.00    -0.289 OA
BRANCH  11  13
ATOM     13  C   UNL     1     -19.901 -12.415 -39.824  1.00  0.00     0.064 A 
ATOM     14  C   UNL     1     -19.818 -11.077 -39.380  1.00  0.00     0.130 A 
ATOM     15  C   UNL     1     -19.527 -13.449 -38.944  1.00  0.00     0.020 A 
ATOM     16  C   UNL     1     -19.375 -10.797 -38.079  1.00  0.00     0.093 A 
ATOM     17  C   UNL     1     -19.090 -13.159 -37.650  1.00  0.00     0.047 A 
ATOM     18  C   UNL     1     -19.012 -11.835 -37.214  1.00  0.00     0.119 A 
BRANCH  14  19
ATOM     19  O   UNL     1     -20.190 -10.029 -40.221  1.00  0.00    -0.507 OA
ATOM     20  H   UNL     1     -20.472  -9.127 -39.856  1.00  0.00     0.293 HD
ENDBRANCH  14  19
BRANCH  18  21
ATOM     21  O   UNL     1     -18.573 -11.563 -35.920  1.00  0.00    -0.508 OA
ATOM     22  H   UNL     1     -19.002 -10.838 -35.356  1.00  0.00     0.293 HD
ENDBRANCH  18  21
ENDBRANCH  11  13
ENDBRANCH   2  11
TORSDOF 6
ENDMDL
MODEL 6
REMARK VINA RESULT:    -6.140      4.858      8.137
REMARK INTER + INTRA:          -8.364
REMARK INTER:                  -7.755
REMARK INTRA:                  -0.609
REMARK UNBOUND:                -0.609
REMARK SMILES O=C(C=Cc1ccc(O)cc1)c1ccc(O)cc1O
REMARK SMILES IDX 4 1 3 2 5 3 6 4 7 5 8 6 11 7 10 8 9 9 2 11 1 12 12 13 18 14
REMARK SMILES IDX 13 15 17 16 14 17 15 18 19 19 16 21
REMARK H PARENT 9 10 19 20 16 22
REMARK Flexibility Score: inf
ROOT
ATOM      1  C   UNL     1     -19.887 -12.056 -41.490  1.00  0.00     0.012 C 
ATOM      2  C   UNL     1     -20.854 -11.344 -42.086  1.00  0.00     0.053 C 
ENDROOT
BRANCH   1   3
ATOM      3  C   UNL     1     -19.645 -12.051 -40.027  1.00  0.00    -0.025 A 
ATOM      4  C   UNL     1     -19.417 -13.232 -39.291  1.00  0.00     0.012 A 
ATOM      5  C   UNL     1     -19.205 -13.176 -37.910  1.00  0.00     0.047 A 
ATOM      6  C   UNL     1     -19.228 -11.945 -37.242  1.00  0.00     0.115 A 
ATOM      7  C   UNL     1     -19.682 -10.823 -39.342  1.00  0.00     0.012 A 
ATOM      8  C   UNL     1     -19.468 -10.771 -37.961  1.00  0.00     0.047 A 
BRANCH   6   9
ATOM      9  O   UNL     1     -19.017 -11.879 -35.866  1.00  0.00    -0.508 OA
ATOM     10  H   UNL     1     -19.765 -11.636 -35.227  1.00  0.00     0.293 HD
ENDBRANCH   6   9
ENDBRANCH   1   3
BRANCH   2  11
ATOM     11  C   UNL     1     -21.078 -11.389 -43.549  1.00  0.00     0.189 C 
ATOM     12  O   UNL     1     -20.310 -10.749 -44.319  1.00  0.00    -0.289 OA
BRANCH  11  13
ATOM     13  C   UNL     1     -22.189 -12.188 -44.128  1.00  0.00     0.064 A 
ATOM     14  C   UNL     1     -22.832 -11.780 -45.317  1.00  0.00     0.130 A 
ATOM     15  C   UNL     1     -22.632 -13.357 -43.480  1.00  0.00     0.020 A 
ATOM     16  C   UNL     1     -23.891 -12.540 -45.836  1.00  0.00     0.093 A 
ATOM     17  C   UNL     1     -23.685 -14.108 -44.007  1.00  0.00     0.047 A 
ATOM     18  C   UNL     1     -24.317 -13.703 -45.184  1.00  0.00     0.119 A 
BRANCH  14  19
ATOM     19  O   UNL     1     -22.413 -10.633 -45.990  1.00  0.00    -0.507 OA
ATOM     20  H   UNL     1     -21.466 -10.535 -46.336  1.00  0.00     0.293 HD
ENDBRANCH  14  19
BRANCH  18  21
ATOM     21  O   UNL     1     -25.367 -14.462 -45.696  1.00  0.00    -0.508 OA
ATOM     22  H   UNL     1     -26.150 -14.029 -46.173  1.00  0.00     0.293 HD
ENDBRANCH  18  21
ENDBRANCH  11  13
ENDBRANCH   2  11
TORSDOF 6
ENDMDL
MODEL 7
REMARK VINA RESULT:    -6.048      4.615      7.450
REMARK INTER + INTRA:          -8.248
REMARK INTER:                  -7.513
REMARK INTRA:                  -0.735
REMARK UNBOUND:                -0.609
REMARK SMILES O=C(C=Cc1ccc(O)cc1)c1ccc(O)cc1O
REMARK SMILES IDX 4 1 3 2 5 3 6 4 7 5 8 6 11 7 10 8 9 9 2 11 1 12 12 13 18 14
REMARK SMILES IDX 13 15 17 16 14 17 15 18 19 19 16 21
REMARK H PARENT 9 10 19 20 16 22
REMARK Flexibility Score: inf
ROOT
ATOM      1  C   UNL     1     -20.174 -13.297 -41.089  1.00  0.00     0.012 C 
ATOM      2  C   UNL     1     -19.557 -12.975 -42.234  1.00  0.00     0.053 C 
ENDROOT
BRANCH   1   3
ATOM      3  C   UNL     1     -19.809 -12.725 -39.769  1.00  0.00    -0.025 A 
ATOM      4  C   UNL     1     -19.833 -11.339 -39.511  1.00  0.00     0.012 A 
ATOM      5  C   UNL     1     -19.468 -10.847 -38.253  1.00  0.00     0.047 A 
ATOM      6  C   UNL     1     -19.066 -11.728 -37.242  1.00  0.00     0.115 A 
ATOM      7  C   UNL     1     -19.387 -13.597 -38.751  1.00  0.00     0.012 A 
ATOM      8  C   UNL     1     -19.024 -13.101 -37.494  1.00  0.00     0.047 A 
BRANCH   6   9
ATOM      9  O   UNL     1     -18.701 -11.248 -35.985  1.00  0.00    -0.508 OA
ATOM     10  H   UNL     1     -17.840 -10.732 -35.844  1.00  0.00     0.293 HD
ENDBRANCH   6   9
ENDBRANCH   1   3
BRANCH   2  11
ATOM     11  C   UNL     1     -19.961 -13.554 -43.536  1.00  0.00     0.189 C 
ATOM     12  O   UNL     1     -19.163 -14.305 -44.161  1.00  0.00    -0.289 OA
BRANCH  11  13
ATOM     13  C   UNL     1     -21.300 -13.272 -44.114  1.00  0.00     0.064 A 
ATOM     14  C   UNL     1     -22.229 -14.313 -44.333  1.00  0.00     0.130 A 
ATOM     15  C   UNL     1     -21.653 -11.958 -44.476  1.00  0.00     0.020 A 
ATOM     16  C   UNL     1     -23.482 -14.028 -44.897  1.00  0.00     0.093 A 
ATOM     17  C   UNL     1     -22.903 -11.684 -45.034  1.00  0.00     0.047 A 
ATOM     18  C   UNL     1     -23.820 -12.716 -45.246  1.00  0.00     0.119 A 
BRANCH  14  19
ATOM     19  O   UNL     1     -21.917 -15.625 -43.978  1.00  0.00    -0.507 OA
ATOM     20  H   UNL     1     -21.467 -15.846 -43.097  1.00  0.00     0.293 HD
ENDBRANCH  14  19
BRANCH  18  21
ATOM     21  O   UNL     1     -25.063 -12.426 -45.805  1.00  0.00    -0.508 OA
ATOM     22  H   UNL     1     -25.165 -12.221 -46.792  1.00  0.00     0.293 HD
ENDBRANCH  18  21
ENDBRANCH  11  13
ENDBRANCH   2  11
TORSDOF 6
ENDMDL
MODEL 8
REMARK VINA RESULT:    -6.035      4.879      8.728
REMARK INTER + INTRA:          -8.232
REMARK INTER:                  -7.559
REMARK INTRA:                  -0.673
REMARK UNBOUND:                -0.609
REMARK SMILES O=C(C=Cc1ccc(O)cc1)c1ccc(O)cc1O
REMARK SMILES IDX 4 1 3 2 5 3 6 4 7 5 8 6 11 7 10 8 9 9 2 11 1 12 12 13 18 14
REMARK SMILES IDX 13 15 17 16 14 17 15 18 19 19 16 21
REMARK H PARENT 9 10 19 20 16 22
REMARK Flexibility Score: inf
ROOT
ATOM      1  C   UNL     1     -20.274 -12.527 -41.168  1.00  0.00     0.012 C 
ATOM      2  C   UNL     1     -20.866 -11.582 -41.912  1.00  0.00     0.053 C 
ENDROOT
BRANCH   1   3
ATOM      3  C   UNL     1     -19.815 -12.309 -39.775  1.00  0.00    -0.025 A 
ATOM      4  C   UNL     1     -19.434 -13.371 -38.927  1.00  0.00     0.012 A 
ATOM      5  C   UNL     1     -19.020 -13.114 -37.616  1.00  0.00     0.047 A 
ATOM      6  C   UNL     1     -18.988 -11.802 -37.130  1.00  0.00     0.115 A 
ATOM      7  C   UNL     1     -19.795 -10.998 -39.269  1.00  0.00     0.012 A 
ATOM      8  C   UNL     1     -19.379 -10.747 -37.958  1.00  0.00     0.047 A 
BRANCH   6   9
ATOM      9  O   UNL     1     -18.576 -11.537 -35.825  1.00  0.00    -0.508 OA
ATOM     10  H   UNL     1     -18.121 -10.665 -35.581  1.00  0.00     0.293 HD
ENDBRANCH   6   9
ENDBRANCH   1   3
BRANCH   2  11
ATOM     11  C   UNL     1     -21.328 -11.842 -43.295  1.00  0.00     0.189 C 
ATOM     12  O   UNL     1     -22.316 -12.602 -43.491  1.00  0.00    -0.289 OA
BRANCH  11  13
ATOM     13  C   UNL     1     -20.652 -11.211 -44.458  1.00  0.00     0.064 A 
ATOM     14  C   UNL     1     -21.402 -10.659 -45.520  1.00  0.00     0.130 A 
ATOM     15  C   UNL     1     -19.246 -11.177 -44.527  1.00  0.00     0.020 A 
ATOM     16  C   UNL     1     -20.744 -10.084 -46.617  1.00  0.00     0.093 A 
ATOM     17  C   UNL     1     -18.601 -10.600 -45.622  1.00  0.00     0.047 A 
ATOM     18  C   UNL     1     -19.346 -10.052 -46.669  1.00  0.00     0.119 A 
BRANCH  14  19
ATOM     19  O   UNL     1     -22.796 -10.667 -45.480  1.00  0.00    -0.507 OA
ATOM     20  H   UNL     1     -23.315 -11.464 -45.132  1.00  0.00     0.293 HD
ENDBRANCH  14  19
BRANCH  18  21
ATOM     21  O   UNL     1     -18.687  -9.481 -47.756  1.00  0.00    -0.508 OA
ATOM     22  H   UNL     1     -18.138 -10.042 -48.397  1.00  0.00     0.293 HD
ENDBRANCH  18  21
ENDBRANCH  11  13
ENDBRANCH   2  11
TORSDOF 6
ENDMDL
MODEL 9
REMARK VINA RESULT:    -5.950      3.762      5.453
REMARK INTER + INTRA:          -8.123
REMARK INTER:                  -7.493
REMARK INTRA:                  -0.630
REMARK UNBOUND:                -0.609
REMARK SMILES O=C(C=Cc1ccc(O)cc1)c1ccc(O)cc1O
REMARK SMILES IDX 4 1 3 2 5 3 6 4 7 5 8 6 11 7 10 8 9 9 2 11 1 12 12 13 18 14
REMARK SMILES IDX 13 15 17 16 14 17 15 18 19 19 16 21
REMARK H PARENT 9 10 19 20 16 22
REMARK Flexibility Score: inf
ROOT
ATOM      1  C   UNL     1     -20.307 -14.295 -43.595  1.00  0.00     0.012 C 
ATOM      2  C   UNL     1     -19.611 -15.330 -44.087  1.00  0.00     0.053 C 
ENDROOT
BRANCH   1   3
ATOM      3  C   UNL     1     -19.762 -12.921 -43.472  1.00  0.00    -0.025 A 
ATOM      4  C   UNL     1     -19.452 -12.125 -44.595  1.00  0.00     0.012 A 
ATOM      5  C   UNL     1     -18.928 -10.839 -44.427  1.00  0.00     0.047 A 
ATOM      6  C   UNL     1     -18.697 -10.334 -43.142  1.00  0.00     0.115 A 
ATOM      7  C   UNL     1     -19.510 -12.408 -42.188  1.00  0.00     0.012 A 
ATOM      8  C   UNL     1     -18.987 -11.121 -42.025  1.00  0.00     0.047 A 
BRANCH   6   9
ATOM      9  O   UNL     1     -18.176  -9.053 -42.965  1.00  0.00    -0.508 OA
ATOM     10  H   UNL     1     -18.626  -8.238 -43.367  1.00  0.00     0.293 HD
ENDBRANCH   6   9
ENDBRANCH   1   3
BRANCH   2  11
ATOM     11  C   UNL     1     -20.196 -16.685 -44.211  1.00  0.00     0.189 C 
ATOM     12  O   UNL     1     -21.066 -16.911 -45.096  1.00  0.00    -0.289 OA
BRANCH  11  13
ATOM     13  C   UNL     1     -19.763 -17.788 -43.315  1.00  0.00     0.064 A 
ATOM     14  C   UNL     1     -19.703 -19.120 -43.782  1.00  0.00     0.130 A 
ATOM     15  C   UNL     1     -19.430 -17.520 -41.973  1.00  0.00     0.020 A 
ATOM     16  C   UNL     1     -19.309 -20.149 -42.914  1.00  0.00     0.093 A 
ATOM     17  C   UNL     1     -19.036 -18.552 -41.119  1.00  0.00     0.047 A 
ATOM     18  C   UNL     1     -18.975 -19.867 -41.585  1.00  0.00     0.119 A 
BRANCH  14  19
ATOM     19  O   UNL     1     -20.017 -19.419 -45.107  1.00  0.00    -0.507 OA
ATOM     20  H   UNL     1     -19.297 -19.590 -45.800  1.00  0.00     0.293 HD
ENDBRANCH  14  19
BRANCH  18  21
ATOM     21  O   UNL     1     -18.581 -20.885 -40.718  1.00  0.00    -0.508 OA
ATOM     22  H   UNL     1     -17.604 -21.048 -40.502  1.00  0.00     0.293 HD
ENDBRANCH  18  21
ENDBRANCH  11  13
ENDBRANCH   2  11
TORSDOF 6
ENDMDL
