MODEL 1
REMARK VINA RESULT:    -5.339      0.000      0.000
REMARK INTER + INTRA:         -11.674
REMARK INTER:                 -10.020
REMARK INTRA:                  -1.654
REMARK UNBOUND:                -1.654
REMARK SMILES O=C([O-])CCCCCCCCCCCCCCC(=O)[O-]
REMARK SMILES IDX 10 1 9 2 8 3 7 4 6 5 5 6 4 7 2 8 1 9 3 10 11 11 12 12 13 13
REMARK SMILES IDX 14 14 15 15 16 16 17 17 18 18 19 19 20 20
REMARK H PARENT
REMARK Flexibility Score: inf
ROOT
ATOM      1  C   UNL     1      -0.021  45.634   8.254  1.00  0.00     0.000 C 
ENDROOT
BRANCH   1   2
ATOM      2  C   UNL     1       0.410  46.742   7.280  1.00  0.00     0.000 C 
BRANCH   2   3
ATOM      3  C   UNL     1       1.601  47.563   7.805  1.00  0.00     0.000 C 
BRANCH   3   4
ATOM      4  C   UNL     1       1.562  47.754   9.329  1.00  0.00     0.000 C 
BRANCH   4   5
ATOM      5  C   UNL     1       2.694  47.004  10.048  1.00  0.00     0.000 C 
BRANCH   5   6
ATOM      6  C   UNL     1       3.900  46.811   9.118  1.00  0.00     0.006 C 
BRANCH   6   7
ATOM      7  C   UNL     1       5.231  46.817   9.882  1.00  0.00     0.053 C 
BRANCH   7   8
ATOM      8  C   UNL     1       6.260  47.667   9.199  1.00  0.00     0.041 C 
ATOM      9  O   UNL     1       5.907  48.549   8.373  1.00  0.00    -0.550 OA
ATOM     10  O   UNL     1       7.607  47.505   9.500  1.00  0.00    -0.550 OA
ENDBRANCH   7   8
ENDBRANCH   6   7
ENDBRANCH   5   6
ENDBRANCH   4   5
ENDBRANCH   3   4
ENDBRANCH   2   3
ENDBRANCH   1   2
BRANCH   1  11
ATOM     11  C   UNL     1       0.737  44.316   8.021  1.00  0.00     0.000 C 
BRANCH  11  12
ATOM     12  C   UNL     1       1.493  43.843   9.273  1.00  0.00     0.000 C 
BRANCH  12  13
ATOM     13  C   UNL     1       2.791  43.091   8.930  1.00  0.00     0.000 C 
BRANCH  13  14
ATOM     14  C   UNL     1       3.906  43.316   9.967  1.00  0.00     0.000 C 
BRANCH  14  15
ATOM     15  C   UNL     1       3.465  43.201  11.438  1.00  0.00     0.000 C 
BRANCH  15  16
ATOM     16  C   UNL     1       4.024  41.950  12.136  1.00  0.00     0.006 C 
BRANCH  16  17
ATOM     17  C   UNL     1       2.990  40.818  12.207  1.00  0.00     0.053 C 
BRANCH  17  18
ATOM     18  C   UNL     1       3.559  39.586  12.844  1.00  0.00     0.041 C 
ATOM     19  O   UNL     1       4.588  39.662  13.566  1.00  0.00    -0.550 OA
ATOM     20  O   UNL     1       2.934  38.358  12.662  1.00  0.00    -0.550 OA
ENDBRANCH  17  18
ENDBRANCH  16  17
ENDBRANCH  15  16
ENDBRANCH  14  15
ENDBRANCH  13  14
ENDBRANCH  12  13
ENDBRANCH  11  12
ENDBRANCH   1  11
TORSDOF 15
ENDMDL
MODEL 2
REMARK VINA RESULT:    -5.292      1.754      7.283
REMARK INTER + INTRA:         -11.586
REMARK INTER:                  -9.587
REMARK INTRA:                  -1.999
REMARK UNBOUND:                -1.654
REMARK SMILES O=C([O-])CCCCCCCCCCCCCCC(=O)[O-]
REMARK SMILES IDX 10 1 9 2 8 3 7 4 6 5 5 6 4 7 2 8 1 9 3 10 11 11 12 12 13 13
REMARK SMILES IDX 14 14 15 15 16 16 17 17 18 18 19 19 20 20
REMARK H PARENT
REMARK Flexibility Score: inf
ROOT
ATOM      1  C   UNL     1       3.907  45.065   8.889  1.00  0.00     0.000 C 
ENDROOT
BRANCH   1   2
ATOM      2  C   UNL     1       4.692  45.506  10.134  1.00  0.00     0.000 C 
BRANCH   2   3
ATOM      3  C   UNL     1       3.843  45.465  11.417  1.00  0.00     0.000 C 
BRANCH   3   4
ATOM      4  C   UNL     1       4.232  44.306  12.348  1.00  0.00     0.000 C 
BRANCH   4   5
ATOM      5  C   UNL     1       3.148  43.219  12.422  1.00  0.00     0.000 C 
BRANCH   5   6
ATOM      6  C   UNL     1       3.740  41.833  12.132  1.00  0.00     0.006 C 
BRANCH   6   7
ATOM      7  C   UNL     1       2.767  40.699  12.481  1.00  0.00     0.053 C 
BRANCH   7   8
ATOM      8  C   UNL     1       3.490  39.439  12.849  1.00  0.00     0.041 C 
ATOM      9  O   UNL     1       3.019  38.319  12.522  1.00  0.00    -0.550 OA
ATOM     10  O   UNL     1       4.703  39.506  13.524  1.00  0.00    -0.550 OA
ENDBRANCH   7   8
ENDBRANCH   6   7
ENDBRANCH   5   6
ENDBRANCH   4   5
ENDBRANCH   3   4
ENDBRANCH   2   3
ENDBRANCH   1   2
BRANCH   1  11
ATOM     11  C   UNL     1       3.730  43.539   8.812  1.00  0.00     0.000 C 
BRANCH  11  12
ATOM     12  C   UNL     1       2.276  43.102   9.051  1.00  0.00     0.000 C 
BRANCH  12  13
ATOM     13  C   UNL     1       1.268  44.230   8.769  1.00  0.00     0.000 C 
BRANCH  13  14
ATOM     14  C   UNL     1       0.619  44.788  10.049  1.00  0.00     0.000 C 
BRANCH  14  15
ATOM     15  C   UNL     1       0.508  46.323  10.111  1.00  0.00     0.000 C 
BRANCH  15  16
ATOM     16  C   UNL     1       0.904  47.006   8.792  1.00  0.00     0.006 C 
BRANCH  16  17
ATOM     17  C   UNL     1       1.504  48.400   9.021  1.00  0.00     0.053 C 
BRANCH  17  18
ATOM     18  C   UNL     1       2.273  48.878   7.826  1.00  0.00     0.041 C 
ATOM     19  O   UNL     1       1.997  49.986   7.296  1.00  0.00    -0.550 OA
ATOM     20  O   UNL     1       3.312  48.110   7.316  1.00  0.00    -0.550 OA
ENDBRANCH  17  18
ENDBRANCH  16  17
ENDBRANCH  15  16
ENDBRANCH  14  15
ENDBRANCH  13  14
ENDBRANCH  12  13
ENDBRANCH  11  12
ENDBRANCH   1  11
TORSDOF 15
ENDMDL
MODEL 3
REMARK VINA RESULT:    -5.204      3.420      5.950
REMARK INTER + INTRA:         -11.422
REMARK INTER:                  -9.308
REMARK INTRA:                  -2.114
REMARK UNBOUND:                -1.654
REMARK SMILES O=C([O-])CCCCCCCCCCCCCCC(=O)[O-]
REMARK SMILES IDX 10 1 9 2 8 3 7 4 6 5 5 6 4 7 2 8 1 9 3 10 11 11 12 12 13 13
REMARK SMILES IDX 14 14 15 15 16 16 17 17 18 18 19 19 20 20
REMARK H PARENT
REMARK Flexibility Score: inf
ROOT
ATOM      1  C   UNL     1       2.632  42.534  11.475  1.00  0.00     0.000 C 
ENDROOT
BRANCH   1   2
ATOM      2  C   UNL     1       2.721  42.677   9.947  1.00  0.00     0.000 C 
BRANCH   2   3
ATOM      3  C   UNL     1       4.052  43.296   9.485  1.00  0.00     0.000 C 
BRANCH   3   4
ATOM      4  C   UNL     1       3.970  44.821   9.321  1.00  0.00     0.000 C 
BRANCH   4   5
ATOM      5  C   UNL     1       4.458  45.577  10.567  1.00  0.00     0.000 C 
BRANCH   5   6
ATOM      6  C   UNL     1       4.591  47.079  10.280  1.00  0.00     0.006 C 
BRANCH   6   7
ATOM      7  C   UNL     1       5.250  47.356   8.922  1.00  0.00     0.053 C 
BRANCH   7   8
ATOM      8  C   UNL     1       6.571  48.048   9.077  1.00  0.00     0.041 C 
ATOM      9  O   UNL     1       7.550  47.439   9.582  1.00  0.00    -0.550 OA
ATOM     10  O   UNL     1       6.728  49.355   8.633  1.00  0.00    -0.550 OA
ENDBRANCH   7   8
ENDBRANCH   6   7
ENDBRANCH   5   6
ENDBRANCH   4   5
ENDBRANCH   3   4
ENDBRANCH   2   3
ENDBRANCH   1   2
BRANCH   1  11
ATOM     11  C   UNL     1       2.031  43.778  12.151  1.00  0.00     0.000 C 
BRANCH  11  12
ATOM     12  C   UNL     1       0.678  44.182  11.542  1.00  0.00     0.000 C 
BRANCH  12  13
ATOM     13  C   UNL     1       0.701  45.601  10.946  1.00  0.00     0.000 C 
BRANCH  13  14
ATOM     14  C   UNL     1      -0.254  45.765   9.751  1.00  0.00     0.000 C 
BRANCH  14  15
ATOM     15  C   UNL     1       0.351  45.421   8.377  1.00  0.00     0.000 C 
BRANCH  15  16
ATOM     16  C   UNL     1       0.483  46.646   7.457  1.00  0.00     0.006 C 
BRANCH  16  17
ATOM     17  C   UNL     1       1.811  47.386   7.666  1.00  0.00     0.053 C 
BRANCH  17  18
ATOM     18  C   UNL     1       1.603  48.752   8.244  1.00  0.00     0.041 C 
ATOM     19  O   UNL     1       1.344  48.890   9.469  1.00  0.00    -0.550 OA
ATOM     20  O   UNL     1       1.721  49.875   7.435  1.00  0.00    -0.550 OA
ENDBRANCH  17  18
ENDBRANCH  16  17
ENDBRANCH  15  16
ENDBRANCH  14  15
ENDBRANCH  13  14
ENDBRANCH  12  13
ENDBRANCH  11  12
ENDBRANCH   1  11
TORSDOF 15
ENDMDL
MODEL 4
REMARK VINA RESULT:    -5.198      1.696      3.038
REMARK INTER + INTRA:         -11.410
REMARK INTER:                  -9.575
REMARK INTRA:                  -1.835
REMARK UNBOUND:                -1.654
REMARK SMILES O=C([O-])CCCCCCCCCCCCCCC(=O)[O-]
REMARK SMILES IDX 10 1 9 2 8 3 7 4 6 5 5 6 4 7 2 8 1 9 3 10 11 11 12 12 13 13
REMARK SMILES IDX 14 14 15 15 16 16 17 17 18 18 19 19 20 20
REMARK H PARENT
REMARK Flexibility Score: inf
ROOT
ATOM      1  C   UNL     1       2.536  43.201   8.747  1.00  0.00     0.000 C 
ENDROOT
BRANCH   1   2
ATOM      2  C   UNL     1       1.330  44.032   9.212  1.00  0.00     0.000 C 
BRANCH   2   3
ATOM      3  C   UNL     1       0.524  44.619   8.039  1.00  0.00     0.000 C 
BRANCH   3   4
ATOM      4  C   UNL     1      -0.129  45.966   8.386  1.00  0.00     0.000 C 
BRANCH   4   5
ATOM      5  C   UNL     1       0.480  46.612   9.640  1.00  0.00     0.000 C 
BRANCH   5   6
ATOM      6  C   UNL     1       1.187  47.930   9.290  1.00  0.00     0.006 C 
BRANCH   6   7
ATOM      7  C   UNL     1       1.409  48.087   7.779  1.00  0.00     0.053 C 
BRANCH   7   8
ATOM      8  C   UNL     1       2.781  48.606   7.471  1.00  0.00     0.041 C 
ATOM      9  O   UNL     1       3.792  47.884   7.674  1.00  0.00    -0.550 OA
ATOM     10  O   UNL     1       2.939  49.875   6.927  1.00  0.00    -0.550 OA
ENDBRANCH   7   8
ENDBRANCH   6   7
ENDBRANCH   5   6
ENDBRANCH   4   5
ENDBRANCH   3   4
ENDBRANCH   2   3
ENDBRANCH   1   2
BRANCH   1  11
ATOM     11  C   UNL     1       3.873  43.766   9.255  1.00  0.00     0.000 C 
BRANCH  11  12
ATOM     12  C   UNL     1       3.725  45.168   9.868  1.00  0.00     0.000 C 
BRANCH  12  13
ATOM     13  C   UNL     1       4.380  45.277  11.256  1.00  0.00     0.000 C 
BRANCH  13  14
ATOM     14  C   UNL     1       4.122  44.043  12.139  1.00  0.00     0.000 C 
BRANCH  14  15
ATOM     15  C   UNL     1       2.642  43.772  12.469  1.00  0.00     0.000 C 
BRANCH  15  16
ATOM     16  C   UNL     1       2.250  42.296  12.293  1.00  0.00     0.006 C 
BRANCH  16  17
ATOM     17  C   UNL     1       3.474  41.392  12.092  1.00  0.00     0.053 C 
BRANCH  17  18
ATOM     18  C   UNL     1       3.329  40.090  12.820  1.00  0.00     0.041 C 
ATOM     19  O   UNL     1       2.203  39.535  12.909  1.00  0.00    -0.550 OA
ATOM     20  O   UNL     1       4.445  39.478  13.378  1.00  0.00    -0.550 OA
ENDBRANCH  17  18
ENDBRANCH  16  17
ENDBRANCH  15  16
ENDBRANCH  14  15
ENDBRANCH  13  14
ENDBRANCH  12  13
ENDBRANCH  11  12
ENDBRANCH   1  11
TORSDOF 15
ENDMDL
MODEL 5
REMARK VINA RESULT:    -5.148      0.909      7.058
REMARK INTER + INTRA:         -11.315
REMARK INTER:                  -9.743
REMARK INTRA:                  -1.572
REMARK UNBOUND:                -1.654
REMARK SMILES O=C([O-])CCCCCCCCCCCCCCC(=O)[O-]
REMARK SMILES IDX 10 1 9 2 8 3 7 4 6 5 5 6 4 7 2 8 1 9 3 10 11 11 12 12 13 13
REMARK SMILES IDX 14 14 15 15 16 16 17 17 18 18 19 19 20 20
REMARK H PARENT
REMARK Flexibility Score: inf
ROOT
ATOM      1  C   UNL     1       1.411  45.262  10.381  1.00  0.00     0.000 C 
ENDROOT
BRANCH   1   2
ATOM      2  C   UNL     1       1.639  44.113   9.386  1.00  0.00     0.000 C 
BRANCH   2   3
ATOM      3  C   UNL     1       2.935  43.332   9.667  1.00  0.00     0.000 C 
BRANCH   3   4
ATOM      4  C   UNL     1       3.673  43.842  10.915  1.00  0.00     0.000 C 
BRANCH   4   5
ATOM      5  C   UNL     1       3.769  42.780  12.021  1.00  0.00     0.000 C 
BRANCH   5   6
ATOM      6  C   UNL     1       2.982  41.518  11.638  1.00  0.00     0.006 C 
BRANCH   6   7
ATOM      7  C   UNL     1       2.667  40.637  12.855  1.00  0.00     0.053 C 
BRANCH   7   8
ATOM      8  C   UNL     1       3.509  39.398  12.877  1.00  0.00     0.041 C 
ATOM      9  O   UNL     1       3.025  38.296  12.508  1.00  0.00    -0.550 OA
ATOM     10  O   UNL     1       4.839  39.468  13.273  1.00  0.00    -0.550 OA
ENDBRANCH   7   8
ENDBRANCH   6   7
ENDBRANCH   5   6
ENDBRANCH   4   5
ENDBRANCH   3   4
ENDBRANCH   2   3
ENDBRANCH   1   2
BRANCH   1  11
ATOM     11  C   UNL     1       0.575  46.405   9.780  1.00  0.00     0.000 C 
BRANCH  11  12
ATOM     12  C   UNL     1       0.513  46.346   8.245  1.00  0.00     0.000 C 
BRANCH  12  13
ATOM     13  C   UNL     1       1.146  47.582   7.582  1.00  0.00     0.000 C 
BRANCH  13  14
ATOM     14  C   UNL     1       2.331  48.151   8.383  1.00  0.00     0.000 C 
BRANCH  14  15
ATOM     15  C   UNL     1       3.725  47.756   7.860  1.00  0.00     0.000 C 
BRANCH  15  16
ATOM     16  C   UNL     1       4.439  46.740   8.767  1.00  0.00     0.006 C 
BRANCH  16  17
ATOM     17  C   UNL     1       5.289  47.425   9.846  1.00  0.00     0.053 C 
BRANCH  17  18
ATOM     18  C   UNL     1       6.566  47.971   9.284  1.00  0.00     0.041 C 
ATOM     19  O   UNL     1       6.562  49.047   8.630  1.00  0.00    -0.550 OA
ATOM     20  O   UNL     1       7.765  47.305   9.507  1.00  0.00    -0.550 OA
ENDBRANCH  17  18
ENDBRANCH  16  17
ENDBRANCH  15  16
ENDBRANCH  14  15
ENDBRANCH  13  14
ENDBRANCH  12  13
ENDBRANCH  11  12
ENDBRANCH   1  11
TORSDOF 15
ENDMDL
MODEL 6
REMARK VINA RESULT:    -5.129      1.191      6.835
REMARK INTER + INTRA:         -11.281
REMARK INTER:                  -9.759
REMARK INTRA:                  -1.522
REMARK UNBOUND:                -1.654
REMARK SMILES O=C([O-])CCCCCCCCCCCCCCC(=O)[O-]
REMARK SMILES IDX 10 1 9 2 8 3 7 4 6 5 5 6 4 7 2 8 1 9 3 10 11 11 12 12 13 13
REMARK SMILES IDX 14 14 15 15 16 16 17 17 18 18 19 19 20 20
REMARK H PARENT
REMARK Flexibility Score: inf
ROOT
ATOM      1  C   UNL     1       1.103  43.997   8.265  1.00  0.00     0.000 C 
ENDROOT
BRANCH   1   2
ATOM      2  C   UNL     1       1.977  43.537   9.442  1.00  0.00     0.000 C 
BRANCH   2   3
ATOM      3  C   UNL     1       1.512  44.117  10.790  1.00  0.00     0.000 C 
BRANCH   3   4
ATOM      4  C   UNL     1       2.048  43.323  11.991  1.00  0.00     0.000 C 
BRANCH   4   5
ATOM      5  C   UNL     1       3.583  43.247  12.012  1.00  0.00     0.000 C 
BRANCH   5   6
ATOM      6  C   UNL     1       4.059  41.789  12.073  1.00  0.00     0.006 C 
BRANCH   6   7
ATOM      7  C   UNL     1       2.926  40.821  12.438  1.00  0.00     0.053 C 
BRANCH   7   8
ATOM      8  C   UNL     1       3.452  39.485  12.866  1.00  0.00     0.041 C 
ATOM      9  O   UNL     1       2.831  38.433  12.564  1.00  0.00    -0.550 OA
ATOM     10  O   UNL     1       4.648  39.402  13.571  1.00  0.00    -0.550 OA
ENDBRANCH   7   8
ENDBRANCH   6   7
ENDBRANCH   5   6
ENDBRANCH   4   5
ENDBRANCH   3   4
ENDBRANCH   2   3
ENDBRANCH   1   2
BRANCH   1  11
ATOM     11  C   UNL     1       0.298  45.268   8.589  1.00  0.00     0.000 C 
BRANCH  11  12
ATOM     12  C   UNL     1      -0.025  46.095   7.334  1.00  0.00     0.000 C 
BRANCH  12  13
ATOM     13  C   UNL     1      -0.070  47.606   7.620  1.00  0.00     0.000 C 
BRANCH  13  14
ATOM     14  C   UNL     1       1.146  48.100   8.424  1.00  0.00     0.000 C 
BRANCH  14  15
ATOM     15  C   UNL     1       2.236  48.806   7.595  1.00  0.00     0.000 C 
BRANCH  15  16
ATOM     16  C   UNL     1       3.591  48.082   7.647  1.00  0.00     0.006 C 
BRANCH  16  17
ATOM     17  C   UNL     1       3.574  46.891   8.615  1.00  0.00     0.053 C 
BRANCH  17  18
ATOM     18  C   UNL     1       4.744  46.917   9.551  1.00  0.00     0.041 C 
ATOM     19  O   UNL     1       4.677  46.337  10.666  1.00  0.00    -0.550 OA
ATOM     20  O   UNL     1       5.918  47.560   9.178  1.00  0.00    -0.550 OA
ENDBRANCH  17  18
ENDBRANCH  16  17
ENDBRANCH  15  16
ENDBRANCH  14  15
ENDBRANCH  13  14
ENDBRANCH  12  13
ENDBRANCH  11  12
ENDBRANCH   1  11
TORSDOF 15
ENDMDL
MODEL 7
REMARK VINA RESULT:    -5.080      1.174      1.688
REMARK INTER + INTRA:         -11.189
REMARK INTER:                  -9.745
REMARK INTRA:                  -1.444
REMARK UNBOUND:                -1.654
REMARK SMILES O=C([O-])CCCCCCCCCCCCCCC(=O)[O-]
REMARK SMILES IDX 10 1 9 2 8 3 7 4 6 5 5 6 4 7 2 8 1 9 3 10 11 11 12 12 13 13
REMARK SMILES IDX 14 14 15 15 16 16 17 17 18 18 19 19 20 20
REMARK H PARENT
REMARK Flexibility Score: inf
ROOT
ATOM      1  C   UNL     1       0.031  45.586   7.882  1.00  0.00     0.000 C 
ENDROOT
BRANCH   1   2
ATOM      2  C   UNL     1       0.155  46.986   7.261  1.00  0.00     0.000 C 
BRANCH   2   3
ATOM      3  C   UNL     1       0.049  48.111   8.307  1.00  0.00     0.000 C 
BRANCH   3   4
ATOM      4  C   UNL     1       1.423  48.627   8.761  1.00  0.00     0.000 C 
BRANCH   4   5
ATOM      5  C   UNL     1       2.350  48.958   7.581  1.00  0.00     0.000 C 
BRANCH   5   6
ATOM      6  C   UNL     1       3.627  48.109   7.631  1.00  0.00     0.006 C 
BRANCH   6   7
ATOM      7  C   UNL     1       3.566  47.029   8.720  1.00  0.00     0.053 C 
BRANCH   7   8
ATOM      8  C   UNL     1       4.889  46.848   9.399  1.00  0.00     0.041 C 
ATOM      9  O   UNL     1       5.879  47.545   9.053  1.00  0.00    -0.550 OA
ATOM     10  O   UNL     1       5.020  45.932  10.436  1.00  0.00    -0.550 OA
ENDBRANCH   7   8
ENDBRANCH   6   7
ENDBRANCH   5   6
ENDBRANCH   4   5
ENDBRANCH   3   4
ENDBRANCH   2   3
ENDBRANCH   1   2
BRANCH   1  11
ATOM     11  C   UNL     1      -0.010  45.624   9.419  1.00  0.00     0.000 C 
BRANCH  11  12
ATOM     12  C   UNL     1       1.054  44.717  10.059  1.00  0.00     0.000 C 
BRANCH  12  13
ATOM     13  C   UNL     1       1.712  43.771   9.039  1.00  0.00     0.000 C 
BRANCH  13  14
ATOM     14  C   UNL     1       2.764  42.844   9.673  1.00  0.00     0.000 C 
BRANCH  14  15
ATOM     15  C   UNL     1       2.915  42.973  11.201  1.00  0.00     0.000 C 
BRANCH  15  16
ATOM     16  C   UNL     1       3.721  41.820  11.822  1.00  0.00     0.006 C 
BRANCH  16  17
ATOM     17  C   UNL     1       2.822  40.811  12.549  1.00  0.00     0.053 C 
BRANCH  17  18
ATOM     18  C   UNL     1       3.555  39.545  12.872  1.00  0.00     0.041 C 
ATOM     19  O   UNL     1       3.091  38.432  12.508  1.00  0.00    -0.550 OA
ATOM     20  O   UNL     1       4.765  39.597  13.553  1.00  0.00    -0.550 OA
ENDBRANCH  17  18
ENDBRANCH  16  17
ENDBRANCH  15  16
ENDBRANCH  14  15
ENDBRANCH  13  14
ENDBRANCH  12  13
ENDBRANCH  11  12
ENDBRANCH   1  11
TORSDOF 15
ENDMDL
MODEL 8
REMARK VINA RESULT:    -5.059      2.539      3.870
REMARK INTER + INTRA:         -11.149
REMARK INTER:                  -9.513
REMARK INTRA:                  -1.636
REMARK UNBOUND:                -1.654
REMARK SMILES O=C([O-])CCCCCCCCCCCCCCC(=O)[O-]
REMARK SMILES IDX 10 1 9 2 8 3 7 4 6 5 5 6 4 7 2 8 1 9 3 10 11 11 12 12 13 13
REMARK SMILES IDX 14 14 15 15 16 16 17 17 18 18 19 19 20 20
REMARK H PARENT
REMARK Flexibility Score: inf
ROOT
ATOM      1  C   UNL     1       4.945  47.320   8.754  1.00  0.00     0.000 C 
ENDROOT
BRANCH   1   2
ATOM      2  C   UNL     1       4.146  48.276   7.855  1.00  0.00     0.000 C 
BRANCH   2   3
ATOM      3  C   UNL     1       2.684  47.832   7.666  1.00  0.00     0.000 C 
BRANCH   3   4
ATOM      4  C   UNL     1       1.691  48.996   7.806  1.00  0.00     0.000 C 
BRANCH   4   5
ATOM      5  C   UNL     1       0.392  48.581   8.515  1.00  0.00     0.000 C 
BRANCH   5   6
ATOM      6  C   UNL     1       0.267  47.052   8.581  1.00  0.00     0.006 C 
BRANCH   6   7
ATOM      7  C   UNL     1       0.122  46.542  10.021  1.00  0.00     0.053 C 
BRANCH   7   8
ATOM      8  C   UNL     1       0.505  45.098  10.140  1.00  0.00     0.041 C 
ATOM      9  O   UNL     1       0.794  44.432   9.112  1.00  0.00    -0.550 OA
ATOM     10  O   UNL     1       0.576  44.498  11.392  1.00  0.00    -0.550 OA
ENDBRANCH   7   8
ENDBRANCH   6   7
ENDBRANCH   5   6
ENDBRANCH   4   5
ENDBRANCH   3   4
ENDBRANCH   2   3
ENDBRANCH   1   2
BRANCH   1  11
ATOM     11  C   UNL     1       4.078  46.183   9.323  1.00  0.00     0.000 C 
BRANCH  11  12
ATOM     12  C   UNL     1       4.128  46.116  10.858  1.00  0.00     0.000 C 
BRANCH  12  13
ATOM     13  C   UNL     1       4.082  44.672  11.387  1.00  0.00     0.000 C 
BRANCH  13  14
ATOM     14  C   UNL     1       3.972  43.625  10.264  1.00  0.00     0.000 C 
BRANCH  14  15
ATOM     15  C   UNL     1       3.271  42.312  10.658  1.00  0.00     0.000 C 
BRANCH  15  16
ATOM     16  C   UNL     1       3.616  41.854  12.085  1.00  0.00     0.006 C 
BRANCH  16  17
ATOM     17  C   UNL     1       2.719  40.701  12.555  1.00  0.00     0.053 C 
BRANCH  17  18
ATOM     18  C   UNL     1       3.506  39.450  12.803  1.00  0.00     0.041 C 
ATOM     19  O   UNL     1       3.022  38.326  12.506  1.00  0.00    -0.550 OA
ATOM     20  O   UNL     1       4.786  39.528  13.338  1.00  0.00    -0.550 OA
ENDBRANCH  17  18
ENDBRANCH  16  17
ENDBRANCH  15  16
ENDBRANCH  14  15
ENDBRANCH  13  14
ENDBRANCH  12  13
ENDBRANCH  11  12
ENDBRANCH   1  11
TORSDOF 15
ENDMDL
MODEL 9
REMARK VINA RESULT:    -5.042      2.734      7.133
REMARK INTER + INTRA:         -11.118
REMARK INTER:                  -9.451
REMARK INTRA:                  -1.667
REMARK UNBOUND:                -1.654
REMARK SMILES O=C([O-])CCCCCCCCCCCCCCC(=O)[O-]
REMARK SMILES IDX 10 1 9 2 8 3 7 4 6 5 5 6 4 7 2 8 1 9 3 10 11 11 12 12 13 13
REMARK SMILES IDX 14 14 15 15 16 16 17 17 18 18 19 19 20 20
REMARK H PARENT
REMARK Flexibility Score: inf
ROOT
ATOM      1  C   UNL     1       4.136  45.467  10.708  1.00  0.00     0.000 C 
ENDROOT
BRANCH   1   2
ATOM      2  C   UNL     1       3.762  44.586   9.506  1.00  0.00     0.000 C 
BRANCH   2   3
ATOM      3  C   UNL     1       2.462  43.793   9.732  1.00  0.00     0.000 C 
BRANCH   3   4
ATOM      4  C   UNL     1       1.824  44.082  11.099  1.00  0.00     0.000 C 
BRANCH   4   5
ATOM      5  C   UNL     1       1.956  42.902  12.075  1.00  0.00     0.000 C 
BRANCH   5   6
ATOM      6  C   UNL     1       2.784  41.767  11.454  1.00  0.00     0.006 C 
BRANCH   6   7
ATOM      7  C   UNL     1       4.023  41.425  12.292  1.00  0.00     0.053 C 
BRANCH   7   8
ATOM      8  C   UNL     1       3.916  40.065  12.912  1.00  0.00     0.041 C 
ATOM      9  O   UNL     1       2.894  39.357  12.715  1.00  0.00    -0.550 OA
ATOM     10  O   UNL     1       4.962  39.566  13.679  1.00  0.00    -0.550 OA
ENDBRANCH   7   8
ENDBRANCH   6   7
ENDBRANCH   5   6
ENDBRANCH   4   5
ENDBRANCH   3   4
ENDBRANCH   2   3
ENDBRANCH   1   2
BRANCH   1  11
ATOM     11  C   UNL     1       4.247  46.956  10.336  1.00  0.00     0.000 C 
BRANCH  11  12
ATOM     12  C   UNL     1       5.187  47.196   9.144  1.00  0.00     0.000 C 
BRANCH  12  13
ATOM     13  C   UNL     1       4.581  48.148   8.099  1.00  0.00     0.000 C 
BRANCH  13  14
ATOM     14  C   UNL     1       3.170  47.728   7.651  1.00  0.00     0.000 C 
BRANCH  14  15
ATOM     15  C   UNL     1       2.098  48.830   7.745  1.00  0.00     0.000 C 
BRANCH  15  16
ATOM     16  C   UNL     1       0.683  48.273   7.973  1.00  0.00     0.006 C 
BRANCH  16  17
ATOM     17  C   UNL     1       0.694  46.761   8.237  1.00  0.00     0.053 C 
BRANCH  17  18
ATOM     18  C   UNL     1      -0.135  46.015   7.235  1.00  0.00     0.041 C 
ATOM     19  O   UNL     1      -0.969  46.630   6.519  1.00  0.00    -0.550 OA
ATOM     20  O   UNL     1       0.036  44.646   7.073  1.00  0.00    -0.550 OA
ENDBRANCH  17  18
ENDBRANCH  16  17
ENDBRANCH  15  16
ENDBRANCH  14  15
ENDBRANCH  13  14
ENDBRANCH  12  13
ENDBRANCH  11  12
ENDBRANCH   1  11
TORSDOF 15
ENDMDL
