MODEL 1
REMARK VINA RESULT:     7.354      0.000      0.000
REMARK INTER + INTRA:          12.773
REMARK INTER:                  13.802
REMARK INTRA:                  -1.029
REMARK UNBOUND:                -1.029
REMARK SMILES CCCCCCCCC=CCCCCCCCC(=O)[O-]
REMARK SMILES IDX 10 1 9 2 11 3 12 4 13 5 14 6 15 7 16 8 17 9 18 10 19 11
REMARK SMILES IDX 20 12 8 13 7 14 6 15 5 16 4 17 3 18 2 19 1 20
REMARK H PARENT
REMARK Flexibility Score: inf
ROOT
ATOM      1  C   UNL     1     -13.014  62.368  -6.175  1.00  0.00    -0.031 C 
ATOM      2  C   UNL     1     -13.062  61.890  -4.915  1.00  0.00    -0.031 C 
ENDROOT
BRANCH   1   3
ATOM      3  C   UNL     1     -13.972  63.366  -6.781  1.00  0.00     0.027 C 
BRANCH   3   4
ATOM      4  C   UNL     1     -13.804  63.474  -8.303  1.00  0.00     0.004 C 
BRANCH   4   5
ATOM      5  C   UNL     1     -14.876  62.691  -9.073  1.00  0.00     0.000 C 
BRANCH   5   6
ATOM      6  C   UNL     1     -14.239  61.743 -10.095  1.00  0.00     0.000 C 
BRANCH   6   7
ATOM      7  C   UNL     1     -12.733  61.589  -9.837  1.00  0.00     0.000 C 
BRANCH   7   8
ATOM      8  C   UNL     1     -12.229  60.162 -10.104  1.00  0.00     0.006 C 
BRANCH   8   9
ATOM      9  C   UNL     1     -13.345  59.113 -10.008  1.00  0.00     0.053 C 
BRANCH   9  10
ATOM     10  C   UNL     1     -12.828  57.856  -9.384  1.00  0.00     0.041 C 
ATOM     11  O   UNL     1     -12.258  57.893  -8.262  1.00  0.00    -0.550 OA
ATOM     12  O   UNL     1     -13.020  56.634 -10.018  1.00  0.00    -0.550 OA
ENDBRANCH   9  10
ENDBRANCH   8   9
ENDBRANCH   7   8
ENDBRANCH   6   7
ENDBRANCH   5   6
ENDBRANCH   4   5
ENDBRANCH   3   4
ENDBRANCH   1   3
BRANCH   2  13
ATOM     13  C   UNL     1     -14.102  62.237  -3.875  1.00  0.00     0.027 C 
BRANCH  13  14
ATOM     14  C   UNL     1     -13.811  61.559  -2.526  1.00  0.00     0.004 C 
BRANCH  14  15
ATOM     15  C   UNL     1     -15.077  61.144  -1.750  1.00  0.00     0.000 C 
BRANCH  15  16
ATOM     16  C   UNL     1     -16.403  61.287  -2.522  1.00  0.00     0.000 C 
BRANCH  16  17
ATOM     17  C   UNL     1     -17.638  61.588  -1.652  1.00  0.00    -0.000 C 
BRANCH  17  18
ATOM     18  C   UNL     1     -18.878  61.955  -2.481  1.00  0.00    -0.000 C 
BRANCH  18  19
ATOM     19  C   UNL     1     -20.024  62.421  -1.576  1.00  0.00    -0.003 C 
ATOM     20  C   UNL     1     -19.504  63.279  -0.425  1.00  0.00     0.004 C 
ENDBRANCH  18  19
ENDBRANCH  17  18
ENDBRANCH  16  17
ENDBRANCH  15  16
ENDBRANCH  14  15
ENDBRANCH  13  14
ENDBRANCH   2  13
TORSDOF 15
ENDMDL
MODEL 2
REMARK VINA RESULT:     7.917      2.603      3.513
REMARK INTER + INTRA:          13.831
REMARK INTER:                  14.043
REMARK INTRA:                  -0.212
REMARK UNBOUND:                -1.029
REMARK SMILES CCCCCCCCC=CCCCCCCCC(=O)[O-]
REMARK SMILES IDX 10 1 9 2 11 3 12 4 13 5 14 6 15 7 16 8 17 9 18 10 19 11
REMARK SMILES IDX 20 12 8 13 7 14 6 15 5 16 4 17 3 18 2 19 1 20
REMARK H PARENT
REMARK Flexibility Score: inf
ROOT
ATOM      1  C   UNL     1     -12.686  61.734  -2.733  1.00  0.00    -0.031 C 
ATOM      2  C   UNL     1     -13.334  61.122  -1.722  1.00  0.00    -0.031 C 
ENDROOT
BRANCH   1   3
ATOM      3  C   UNL     1     -13.208  61.917  -4.138  1.00  0.00     0.027 C 
BRANCH   3   4
ATOM      4  C   UNL     1     -12.132  61.629  -5.195  1.00  0.00     0.004 C 
BRANCH   4   5
ATOM      5  C   UNL     1     -12.497  62.185  -6.577  1.00  0.00     0.000 C 
BRANCH   5   6
ATOM      6  C   UNL     1     -12.489  61.077  -7.637  1.00  0.00     0.000 C 
BRANCH   6   7
ATOM      7  C   UNL     1     -11.875  61.580  -8.951  1.00  0.00     0.000 C 
BRANCH   7   8
ATOM      8  C   UNL     1     -12.867  61.532 -10.125  1.00  0.00     0.006 C 
BRANCH   8   9
ATOM      9  C   UNL     1     -14.322  61.721  -9.677  1.00  0.00     0.053 C 
BRANCH   9  10
ATOM     10  C   UNL     1     -14.723  63.157  -9.798  1.00  0.00     0.041 C 
ATOM     11  O   UNL     1     -13.848  64.063  -9.786  1.00  0.00    -0.550 OA
ATOM     12  O   UNL     1     -16.059  63.494  -9.977  1.00  0.00    -0.550 OA
ENDBRANCH   9  10
ENDBRANCH   8   9
ENDBRANCH   7   8
ENDBRANCH   6   7
ENDBRANCH   5   6
ENDBRANCH   4   5
ENDBRANCH   3   4
ENDBRANCH   1   3
BRANCH   2  13
ATOM     13  C   UNL     1     -14.696  60.472  -1.807  1.00  0.00     0.027 C 
BRANCH  13  14
ATOM     14  C   UNL     1     -15.783  61.474  -2.231  1.00  0.00     0.004 C 
BRANCH  14  15
ATOM     15  C   UNL     1     -17.220  60.970  -1.997  1.00  0.00     0.000 C 
BRANCH  15  16
ATOM     16  C   UNL     1     -18.339  61.957  -2.381  1.00  0.00     0.000 C 
BRANCH  16  17
ATOM     17  C   UNL     1     -19.768  61.493  -2.041  1.00  0.00    -0.000 C 
BRANCH  17  18
ATOM     18  C   UNL     1     -20.473  62.418  -1.037  1.00  0.00    -0.000 C 
BRANCH  18  19
ATOM     19  C   UNL     1     -20.022  63.872  -1.222  1.00  0.00    -0.003 C 
ATOM     20  C   UNL     1     -18.948  64.250  -0.205  1.00  0.00     0.004 C 
ENDBRANCH  18  19
ENDBRANCH  17  18
ENDBRANCH  16  17
ENDBRANCH  15  16
ENDBRANCH  14  15
ENDBRANCH  13  14
ENDBRANCH   2  13
TORSDOF 15
ENDMDL
MODEL 3
REMARK VINA RESULT:     8.122      5.538      8.220
REMARK INTER + INTRA:          14.215
REMARK INTER:                  15.173
REMARK INTRA:                  -0.958
REMARK UNBOUND:                -1.029
REMARK SMILES CCCCCCCCC=CCCCCCCCC(=O)[O-]
REMARK SMILES IDX 10 1 9 2 11 3 12 4 13 5 14 6 15 7 16 8 17 9 18 10 19 11
REMARK SMILES IDX 20 12 8 13 7 14 6 15 5 16 4 17 3 18 2 19 1 20
REMARK H PARENT
REMARK Flexibility Score: inf
ROOT
ATOM      1  C   UNL     1     -20.590  63.305  -0.450  1.00  0.00    -0.031 C 
ATOM      2  C   UNL     1     -19.860  64.433  -0.338  1.00  0.00    -0.031 C 
ENDROOT
BRANCH   1   3
ATOM      3  C   UNL     1     -20.042  61.910  -0.632  1.00  0.00     0.027 C 
BRANCH   3   4
ATOM      4  C   UNL     1     -20.236  61.397  -2.066  1.00  0.00     0.004 C 
BRANCH   4   5
ATOM      5  C   UNL     1     -18.931  61.388  -2.873  1.00  0.00     0.000 C 
BRANCH   5   6
ATOM      6  C   UNL     1     -17.731  61.739  -1.986  1.00  0.00     0.000 C 
BRANCH   6   7
ATOM      7  C   UNL     1     -16.410  61.376  -2.681  1.00  0.00     0.000 C 
BRANCH   7   8
ATOM      8  C   UNL     1     -15.177  61.807  -1.871  1.00  0.00     0.006 C 
BRANCH   8   9
ATOM      9  C   UNL     1     -13.890  61.121  -2.346  1.00  0.00     0.053 C 
BRANCH   9  10
ATOM     10  C   UNL     1     -13.033  60.752  -1.176  1.00  0.00     0.041 C 
ATOM     11  O   UNL     1     -12.108  61.520  -0.801  1.00  0.00    -0.550 OA
ATOM     12  O   UNL     1     -13.289  59.585  -0.466  1.00  0.00    -0.550 OA
ENDBRANCH   9  10
ENDBRANCH   8   9
ENDBRANCH   7   8
ENDBRANCH   6   7
ENDBRANCH   5   6
ENDBRANCH   4   5
ENDBRANCH   3   4
ENDBRANCH   1   3
BRANCH   2  13
ATOM     13  C   UNL     1     -18.353  64.523  -0.405  1.00  0.00     0.027 C 
BRANCH  13  14
ATOM     14  C   UNL     1     -17.888  65.803  -1.120  1.00  0.00     0.004 C 
BRANCH  14  15
ATOM     15  C   UNL     1     -16.362  66.016  -1.086  1.00  0.00     0.000 C 
BRANCH  15  16
ATOM     16  C   UNL     1     -15.849  67.257  -1.843  1.00  0.00     0.000 C 
BRANCH  16  17
ATOM     17  C   UNL     1     -14.340  67.533  -1.702  1.00  0.00    -0.000 C 
BRANCH  17  18
ATOM     18  C   UNL     1     -13.967  68.989  -2.021  1.00  0.00    -0.000 C 
BRANCH  18  19
ATOM     19  C   UNL     1     -12.509  69.275  -1.644  1.00  0.00    -0.003 C 
ATOM     20  C   UNL     1     -11.879  68.083  -0.929  1.00  0.00     0.004 C 
ENDBRANCH  18  19
ENDBRANCH  17  18
ENDBRANCH  16  17
ENDBRANCH  15  16
ENDBRANCH  14  15
ENDBRANCH  13  14
ENDBRANCH   2  13
TORSDOF 15
ENDMDL
MODEL 4
REMARK VINA RESULT:     8.184      6.275      9.029
REMARK INTER + INTRA:          14.330
REMARK INTER:                  15.645
REMARK INTRA:                  -1.315
REMARK UNBOUND:                -1.029
REMARK SMILES CCCCCCCCC=CCCCCCCCC(=O)[O-]
REMARK SMILES IDX 10 1 9 2 11 3 12 4 13 5 14 6 15 7 16 8 17 9 18 10 19 11
REMARK SMILES IDX 20 12 8 13 7 14 6 15 5 16 4 17 3 18 2 19 1 20
REMARK H PARENT
REMARK Flexibility Score: inf
ROOT
ATOM      1  C   UNL     1     -19.773  63.307  -0.025  1.00  0.00    -0.031 C 
ATOM      2  C   UNL     1     -19.922  62.272  -0.875  1.00  0.00    -0.031 C 
ENDROOT
BRANCH   1   3
ATOM      3  C   UNL     1     -19.435  64.727  -0.409  1.00  0.00     0.027 C 
BRANCH   3   4
ATOM      4  C   UNL     1     -17.924  64.997  -0.347  1.00  0.00     0.004 C 
BRANCH   4   5
ATOM      5  C   UNL     1     -17.387  65.651  -1.627  1.00  0.00     0.000 C 
BRANCH   5   6
ATOM      6  C   UNL     1     -16.154  66.512  -1.331  1.00  0.00     0.000 C 
BRANCH   6   7
ATOM      7  C   UNL     1     -15.942  67.564  -2.430  1.00  0.00     0.000 C 
BRANCH   7   8
ATOM      8  C   UNL     1     -14.717  68.454  -2.169  1.00  0.00     0.006 C 
BRANCH   8   9
ATOM      9  C   UNL     1     -14.050  68.162  -0.819  1.00  0.00     0.053 C 
BRANCH   9  10
ATOM     10  C   UNL     1     -12.571  68.019  -0.987  1.00  0.00     0.041 C 
ATOM     11  O   UNL     1     -11.875  67.505  -0.073  1.00  0.00    -0.550 OA
ATOM     12  O   UNL     1     -11.965  68.407  -2.177  1.00  0.00    -0.550 OA
ENDBRANCH   9  10
ENDBRANCH   8   9
ENDBRANCH   7   8
ENDBRANCH   6   7
ENDBRANCH   5   6
ENDBRANCH   4   5
ENDBRANCH   3   4
ENDBRANCH   1   3
BRANCH   2  13
ATOM     13  C   UNL     1     -19.748  62.325  -2.375  1.00  0.00     0.027 C 
BRANCH  13  14
ATOM     14  C   UNL     1     -18.579  61.444  -2.848  1.00  0.00     0.004 C 
BRANCH  14  15
ATOM     15  C   UNL     1     -17.341  61.506  -1.932  1.00  0.00     0.000 C 
BRANCH  15  16
ATOM     16  C   UNL     1     -16.000  61.757  -2.647  1.00  0.00     0.000 C 
BRANCH  16  17
ATOM     17  C   UNL     1     -14.825  60.888  -2.162  1.00  0.00    -0.000 C 
BRANCH  17  18
ATOM     18  C   UNL     1     -13.459  61.559  -2.370  1.00  0.00    -0.000 C 
BRANCH  18  19
ATOM     19  C   UNL     1     -12.394  60.924  -1.468  1.00  0.00    -0.003 C 
ATOM     20  C   UNL     1     -13.030  60.025  -0.412  1.00  0.00     0.004 C 
ENDBRANCH  18  19
ENDBRANCH  17  18
ENDBRANCH  16  17
ENDBRANCH  15  16
ENDBRANCH  14  15
ENDBRANCH  13  14
ENDBRANCH   2  13
TORSDOF 15
ENDMDL
MODEL 5
REMARK VINA RESULT:     8.385      5.530      8.154
REMARK INTER + INTRA:          14.709
REMARK INTER:                  14.920
REMARK INTRA:                  -0.211
REMARK UNBOUND:                -1.029
REMARK SMILES CCCCCCCCC=CCCCCCCCC(=O)[O-]
REMARK SMILES IDX 10 1 9 2 11 3 12 4 13 5 14 6 15 7 16 8 17 9 18 10 19 11
REMARK SMILES IDX 20 12 8 13 7 14 6 15 5 16 4 17 3 18 2 19 1 20
REMARK H PARENT
REMARK Flexibility Score: inf
ROOT
ATOM      1  C   UNL     1     -19.430  64.811  -0.327  1.00  0.00    -0.031 C 
ATOM      2  C   UNL     1     -18.144  64.410  -0.379  1.00  0.00    -0.031 C 
ENDROOT
BRANCH   1   3
ATOM      3  C   UNL     1     -20.611  63.953   0.056  1.00  0.00     0.027 C 
BRANCH   3   4
ATOM      4  C   UNL     1     -20.750  62.724  -0.855  1.00  0.00     0.004 C 
BRANCH   4   5
ATOM      5  C   UNL     1     -20.038  62.903  -2.202  1.00  0.00     0.000 C 
BRANCH   5   6
ATOM      6  C   UNL     1     -19.614  61.551  -2.785  1.00  0.00     0.000 C 
BRANCH   6   7
ATOM      7  C   UNL     1     -20.552  60.431  -2.313  1.00  0.00     0.000 C 
BRANCH   7   8
ATOM      8  C   UNL     1     -21.507  59.952  -3.419  1.00  0.00     0.006 C 
BRANCH   8   9
ATOM      9  C   UNL     1     -20.887  60.053  -4.819  1.00  0.00     0.053 C 
BRANCH   9  10
ATOM     10  C   UNL     1     -21.677  59.245  -5.798  1.00  0.00     0.041 C 
ATOM     11  O   UNL     1     -22.872  59.549  -6.055  1.00  0.00    -0.550 OA
ATOM     12  O   UNL     1     -21.079  58.185  -6.470  1.00  0.00    -0.550 OA
ENDBRANCH   9  10
ENDBRANCH   8   9
ENDBRANCH   7   8
ENDBRANCH   6   7
ENDBRANCH   5   6
ENDBRANCH   4   5
ENDBRANCH   3   4
ENDBRANCH   1   3
BRANCH   2  13
ATOM     13  C   UNL     1     -17.640  63.014  -0.095  1.00  0.00     0.027 C 
BRANCH  13  14
ATOM     14  C   UNL     1     -16.326  62.717  -0.838  1.00  0.00     0.004 C 
BRANCH  14  15
ATOM     15  C   UNL     1     -16.461  61.649  -1.941  1.00  0.00     0.000 C 
BRANCH  15  16
ATOM     16  C   UNL     1     -15.146  60.971  -2.371  1.00  0.00     0.000 C 
BRANCH  16  17
ATOM     17  C   UNL     1     -13.902  61.879  -2.349  1.00  0.00    -0.000 C 
BRANCH  17  18
ATOM     18  C   UNL     1     -12.605  61.108  -2.061  1.00  0.00    -0.000 C 
BRANCH  18  19
ATOM     19  C   UNL     1     -12.455  60.831  -0.560  1.00  0.00    -0.003 C 
ATOM     20  C   UNL     1     -12.892  59.411  -0.214  1.00  0.00     0.004 C 
ENDBRANCH  18  19
ENDBRANCH  17  18
ENDBRANCH  16  17
ENDBRANCH  15  16
ENDBRANCH  14  15
ENDBRANCH  13  14
ENDBRANCH   2  13
TORSDOF 15
ENDMDL
MODEL 6
REMARK VINA RESULT:     8.484      3.755      8.446
REMARK INTER + INTRA:          14.895
REMARK INTER:                  13.654
REMARK INTRA:                   1.241
REMARK UNBOUND:                -1.029
REMARK SMILES CCCCCCCCC=CCCCCCCCC(=O)[O-]
REMARK SMILES IDX 10 1 9 2 11 3 12 4 13 5 14 6 15 7 16 8 17 9 18 10 19 11
REMARK SMILES IDX 20 12 8 13 7 14 6 15 5 16 4 17 3 18 2 19 1 20
REMARK H PARENT
REMARK Flexibility Score: inf
ROOT
ATOM      1  C   UNL     1     -13.453  61.764  -3.716  1.00  0.00    -0.031 C 
ATOM      2  C   UNL     1     -13.356  61.888  -5.054  1.00  0.00    -0.031 C 
ENDROOT
BRANCH   1   3
ATOM      3  C   UNL     1     -12.304  61.549  -2.761  1.00  0.00     0.027 C 
BRANCH   3   4
ATOM      4  C   UNL     1     -12.742  60.807  -1.490  1.00  0.00     0.004 C 
BRANCH   4   5
ATOM      5  C   UNL     1     -14.200  60.335  -1.553  1.00  0.00     0.000 C 
BRANCH   5   6
ATOM      6  C   UNL     1     -15.167  61.525  -1.546  1.00  0.00     0.000 C 
BRANCH   6   7
ATOM      7  C   UNL     1     -16.405  61.231  -2.405  1.00  0.00     0.000 C 
BRANCH   7   8
ATOM      8  C   UNL     1     -17.716  61.644  -1.716  1.00  0.00     0.006 C 
BRANCH   8   9
ATOM      9  C   UNL     1     -18.826  61.988  -2.717  1.00  0.00     0.053 C 
BRANCH   9  10
ATOM     10  C   UNL     1     -20.142  61.466  -2.237  1.00  0.00     0.041 C 
ATOM     11  O   UNL     1     -20.736  60.558  -2.876  1.00  0.00    -0.550 OA
ATOM     12  O   UNL     1     -20.690  61.944  -1.052  1.00  0.00    -0.550 OA
ENDBRANCH   9  10
ENDBRANCH   8   9
ENDBRANCH   7   8
ENDBRANCH   6   7
ENDBRANCH   5   6
ENDBRANCH   4   5
ENDBRANCH   3   4
ENDBRANCH   1   3
BRANCH   2  13
ATOM     13  C   UNL     1     -12.082  61.804  -5.862  1.00  0.00     0.027 C 
BRANCH  13  14
ATOM     14  C   UNL     1     -12.308  62.198  -7.332  1.00  0.00     0.004 C 
BRANCH  14  15
ATOM     15  C   UNL     1     -11.875  61.118  -8.341  1.00  0.00     0.000 C 
BRANCH  15  16
ATOM     16  C   UNL     1     -11.877  61.552  -9.819  1.00  0.00     0.000 C 
BRANCH  16  17
ATOM     17  C   UNL     1     -12.000  63.069 -10.056  1.00  0.00    -0.000 C 
BRANCH  17  18
ATOM     18  C   UNL     1     -13.119  63.715  -9.226  1.00  0.00    -0.000 C 
BRANCH  18  19
ATOM     19  C   UNL     1     -14.360  63.975 -10.087  1.00  0.00    -0.003 C 
ATOM     20  C   UNL     1     -15.626  63.470  -9.400  1.00  0.00     0.004 C 
ENDBRANCH  18  19
ENDBRANCH  17  18
ENDBRANCH  16  17
ENDBRANCH  15  16
ENDBRANCH  14  15
ENDBRANCH  13  14
ENDBRANCH   2  13
TORSDOF 15
ENDMDL
MODEL 7
REMARK VINA RESULT:     8.543      5.252      7.451
REMARK INTER + INTRA:          15.004
REMARK INTER:                  14.346
REMARK INTRA:                   0.658
REMARK UNBOUND:                -1.029
REMARK SMILES CCCCCCCCC=CCCCCCCCC(=O)[O-]
REMARK SMILES IDX 10 1 9 2 11 3 12 4 13 5 14 6 15 7 16 8 17 9 18 10 19 11
REMARK SMILES IDX 20 12 8 13 7 14 6 15 5 16 4 17 3 18 2 19 1 20
REMARK H PARENT
REMARK Flexibility Score: inf
ROOT
ATOM      1  C   UNL     1     -18.467  64.334  -0.455  1.00  0.00    -0.031 C 
ATOM      2  C   UNL     1     -19.788  64.601  -0.460  1.00  0.00    -0.031 C 
ENDROOT
BRANCH   1   3
ATOM      3  C   UNL     1     -17.833  63.010  -0.102  1.00  0.00     0.027 C 
BRANCH   3   4
ATOM      4  C   UNL     1     -17.270  62.294  -1.337  1.00  0.00     0.004 C 
BRANCH   4   5
ATOM      5  C   UNL     1     -15.739  62.194  -1.317  1.00  0.00     0.000 C 
BRANCH   5   6
ATOM      6  C   UNL     1     -15.243  61.117  -2.288  1.00  0.00     0.000 C 
BRANCH   6   7
ATOM      7  C   UNL     1     -14.057  61.631  -3.118  1.00  0.00     0.000 C 
BRANCH   7   8
ATOM      8  C   UNL     1     -12.764  61.745  -2.296  1.00  0.00     0.006 C 
BRANCH   8   9
ATOM      9  C   UNL     1     -12.287  60.392  -1.753  1.00  0.00     0.053 C 
BRANCH   9  10
ATOM     10  C   UNL     1     -12.687  60.234  -0.321  1.00  0.00     0.041 C 
ATOM     11  O   UNL     1     -13.036  61.238   0.355  1.00  0.00    -0.550 OA
ATOM     12  O   UNL     1     -12.727  58.970   0.256  1.00  0.00    -0.550 OA
ENDBRANCH   9  10
ENDBRANCH   8   9
ENDBRANCH   7   8
ENDBRANCH   6   7
ENDBRANCH   5   6
ENDBRANCH   4   5
ENDBRANCH   3   4
ENDBRANCH   1   3
BRANCH   2  13
ATOM     13  C   UNL     1     -20.889  63.637  -0.083  1.00  0.00     0.027 C 
BRANCH  13  14
ATOM     14  C   UNL     1     -20.438  62.173  -0.214  1.00  0.00     0.004 C 
BRANCH  14  15
ATOM     15  C   UNL     1     -20.805  61.526  -1.563  1.00  0.00     0.000 C 
BRANCH  15  16
ATOM     16  C   UNL     1     -19.820  61.795  -2.718  1.00  0.00     0.000 C 
BRANCH  16  17
ATOM     17  C   UNL     1     -19.753  60.694  -3.792  1.00  0.00    -0.000 C 
BRANCH  17  18
ATOM     18  C   UNL     1     -21.120  60.056  -4.080  1.00  0.00    -0.000 C 
BRANCH  18  19
ATOM     19  C   UNL     1     -21.132  59.387  -5.459  1.00  0.00    -0.003 C 
ATOM     20  C   UNL     1     -22.552  59.282  -6.010  1.00  0.00     0.004 C 
ENDBRANCH  18  19
ENDBRANCH  17  18
ENDBRANCH  16  17
ENDBRANCH  15  16
ENDBRANCH  14  15
ENDBRANCH  13  14
ENDBRANCH   2  13
TORSDOF 15
ENDMDL
MODEL 8
REMARK VINA RESULT:     8.607      3.797      8.678
REMARK INTER + INTRA:          15.126
REMARK INTER:                  14.408
REMARK INTRA:                   0.718
REMARK UNBOUND:                -1.029
REMARK SMILES CCCCCCCCC=CCCCCCCCC(=O)[O-]
REMARK SMILES IDX 10 1 9 2 11 3 12 4 13 5 14 6 15 7 16 8 17 9 18 10 19 11
REMARK SMILES IDX 20 12 8 13 7 14 6 15 5 16 4 17 3 18 2 19 1 20
REMARK H PARENT
REMARK Flexibility Score: inf
ROOT
ATOM      1  C   UNL     1     -13.324  61.845  -3.784  1.00  0.00    -0.031 C 
ATOM      2  C   UNL     1     -13.167  61.953  -5.118  1.00  0.00    -0.031 C 
ENDROOT
BRANCH   1   3
ATOM      3  C   UNL     1     -12.232  61.543  -2.785  1.00  0.00     0.027 C 
BRANCH   3   4
ATOM      4  C   UNL     1     -12.745  60.700  -1.609  1.00  0.00     0.004 C 
BRANCH   4   5
ATOM      5  C   UNL     1     -14.142  61.127  -1.139  1.00  0.00     0.000 C 
BRANCH   5   6
ATOM      6  C   UNL     1     -15.219  60.675  -2.131  1.00  0.00     0.000 C 
BRANCH   6   7
ATOM      7  C   UNL     1     -16.254  61.787  -2.361  1.00  0.00     0.000 C 
BRANCH   7   8
ATOM      8  C   UNL     1     -17.617  61.468  -1.728  1.00  0.00     0.006 C 
BRANCH   8   9
ATOM      9  C   UNL     1     -18.784  61.679  -2.700  1.00  0.00     0.053 C 
BRANCH   9  10
ATOM     10  C   UNL     1     -20.090  61.582  -1.978  1.00  0.00     0.041 C 
ATOM     11  O   UNL     1     -20.960  60.750  -2.348  1.00  0.00    -0.550 OA
ATOM     12  O   UNL     1     -20.328  62.373  -0.860  1.00  0.00    -0.550 OA
ENDBRANCH   9  10
ENDBRANCH   8   9
ENDBRANCH   7   8
ENDBRANCH   6   7
ENDBRANCH   5   6
ENDBRANCH   4   5
ENDBRANCH   3   4
ENDBRANCH   1   3
BRANCH   2  13
ATOM     13  C   UNL     1     -11.875  61.761  -5.877  1.00  0.00     0.027 C 
BRANCH  13  14
ATOM     14  C   UNL     1     -12.124  61.424  -7.357  1.00  0.00     0.004 C 
BRANCH  14  15
ATOM     15  C   UNL     1     -12.129  62.655  -8.284  1.00  0.00     0.000 C 
BRANCH  15  16
ATOM     16  C   UNL     1     -12.579  62.391  -9.734  1.00  0.00     0.000 C 
BRANCH  16  17
ATOM     17  C   UNL     1     -13.043  60.951 -10.025  1.00  0.00    -0.000 C 
BRANCH  17  18
ATOM     18  C   UNL     1     -11.941  59.909  -9.783  1.00  0.00    -0.000 C 
BRANCH  18  19
ATOM     19  C   UNL     1     -12.524  58.491  -9.763  1.00  0.00    -0.003 C 
ATOM     20  C   UNL     1     -13.926  58.479  -9.159  1.00  0.00     0.004 C 
ENDBRANCH  18  19
ENDBRANCH  17  18
ENDBRANCH  16  17
ENDBRANCH  15  16
ENDBRANCH  14  15
ENDBRANCH  13  14
ENDBRANCH   2  13
TORSDOF 15
ENDMDL
