MODEL 1
REMARK VINA RESULT:    -6.743      0.000      0.000
REMARK INTER + INTRA:         -11.035
REMARK INTER:                  -9.502
REMARK INTRA:                  -1.533
REMARK UNBOUND:                -1.533
REMARK SMILES C[C@H](CO)CCC(=O)[C@@H](C)[C@@H]1C(=O)C[C@H]2[C@H]3CC=C4C[C@H](O)CC[C@]4(C)[C@@H]3CC[C@]21C
REMARK SMILES IDX 6 1 5 2 2 3 1 4 3 5 4 6 7 8 8 9 9 10 10 11 11 12 12 13 30 14
REMARK SMILES IDX 13 15 14 16 15 17 29 18 31 19 16 20 28 21 27 22 17 23 25 24
REMARK SMILES IDX 18 25 19 26 24 27 26 28 20 29 23 30 21 31 22 32
REMARK H PARENT 4 7 22 33
REMARK Flexibility Score: inf
ROOT
ATOM      1  C   UNL     1     114.738 117.854 130.005  1.00  0.00     0.076 C 
ENDROOT
BRANCH   1   2
ATOM      2  C   UNL     1     116.065 117.147 129.681  1.00  0.00     0.013 C 
BRANCH   2   3
ATOM      3  C   UNL     1     117.282 118.088 129.497  1.00  0.00     0.012 C 
ATOM      4  C   UNL     1     118.267 117.580 128.434  1.00  0.00     0.010 C 
BRANCH   3   5
ATOM      5  C   UNL     1     117.985 118.451 130.822  1.00  0.00     0.159 C 
BRANCH   5   6
ATOM      6  O   UNL     1     118.745 119.627 130.709  1.00  0.00    -0.396 OA
ATOM      7  H   UNL     1     119.053 119.861 131.624  1.00  0.00     0.210 HD
ENDBRANCH   5   6
ENDBRANCH   3   5
ENDBRANCH   2   3
ENDBRANCH   1   2
BRANCH   1   8
ATOM      8  C   UNL     1     113.572 116.939 129.723  1.00  0.00     0.136 C 
ATOM      9  O   UNL     1     113.086 116.315 130.655  1.00  0.00    -0.299 OA
BRANCH   8  10
ATOM     10  C   UNL     1     113.013 116.714 128.325  1.00  0.00     0.064 C 
ATOM     11  C   UNL     1     111.560 116.194 128.374  1.00  0.00     0.017 C 
BRANCH  10  12
ATOM     12  C   UNL     1     113.261 117.975 127.423  1.00  0.00     0.072 C 
ATOM     13  C   UNL     1     112.092 118.878 127.201  1.00  0.00     0.137 C 
ATOM     14  C   UNL     1     113.796 117.714 125.974  1.00  0.00    -0.019 C 
ATOM     15  O   UNL     1     111.340 119.253 128.087  1.00  0.00    -0.299 OA
ATOM     16  C   UNL     1     112.012 119.395 125.812  1.00  0.00     0.080 C 
ATOM     17  C   UNL     1     113.394 119.037 125.210  1.00  0.00     0.007 C 
ATOM     18  C   UNL     1     115.325 117.372 125.993  1.00  0.00     0.008 C 
ATOM     19  C   UNL     1     113.064 116.529 125.279  1.00  0.00     0.012 C 
ATOM     20  C   UNL     1     114.472 120.210 125.205  1.00  0.00     0.001 C 
ATOM     21  C   UNL     1     116.196 118.387 125.268  1.00  0.00     0.005 C 
ATOM     22  C   UNL     1     115.853 119.799 125.761  1.00  0.00     0.003 C 
ATOM     23  C   UNL     1     114.059 121.523 125.901  1.00  0.00     0.031 C 
ATOM     24  C   UNL     1     116.975 120.872 125.468  1.00  0.00    -0.008 C 
ATOM     25  C   UNL     1     115.125 122.576 125.790  1.00  0.00    -0.027 C 
ATOM     26  C   UNL     1     116.432 122.302 125.593  1.00  0.00    -0.065 C 
ATOM     27  C   UNL     1     117.562 120.721 124.029  1.00  0.00     0.014 C 
ATOM     28  C   UNL     1     118.103 120.680 126.520  1.00  0.00     0.016 C 
ATOM     29  C   UNL     1     117.367 123.442 125.238  1.00  0.00     0.063 C 
ATOM     30  C   UNL     1     118.519 121.862 123.624  1.00  0.00     0.033 C 
ATOM     31  C   UNL     1     117.888 123.253 123.805  1.00  0.00     0.118 C 
BRANCH  31  32
ATOM     32  O   UNL     1     116.841 123.414 122.881  1.00  0.00    -0.393 OA
ATOM     33  H   UNL     1     115.993 123.345 123.393  1.00  0.00     0.210 HD
ENDBRANCH  31  32
ENDBRANCH  10  12
ENDBRANCH   8  10
ENDBRANCH   1   8
TORSDOF 8
ENDMDL
MODEL 2
REMARK VINA RESULT:    -6.486      3.063      5.489
REMARK INTER + INTRA:         -10.673
REMARK INTER:                  -9.095
REMARK INTRA:                  -1.578
REMARK UNBOUND:                -1.533
REMARK SMILES C[C@H](CO)CCC(=O)[C@@H](C)[C@@H]1C(=O)C[C@H]2[C@H]3CC=C4C[C@H](O)CC[C@]4(C)[C@@H]3CC[C@]21C
REMARK SMILES IDX 6 1 5 2 2 3 1 4 3 5 4 6 7 8 8 9 9 10 10 11 11 12 12 13 30 14
REMARK SMILES IDX 13 15 14 16 15 17 29 18 31 19 16 20 28 21 27 22 17 23 25 24
REMARK SMILES IDX 18 25 19 26 24 27 26 28 20 29 23 30 21 31 22 32
REMARK H PARENT 4 7 22 33
REMARK Flexibility Score: inf
ROOT
ATOM      1  C   UNL     1     112.372 115.965 124.430  1.00  0.00     0.076 C 
ENDROOT
BRANCH   1   2
ATOM      2  C   UNL     1     111.965 117.082 123.454  1.00  0.00     0.013 C 
BRANCH   2   3
ATOM      3  C   UNL     1     111.904 118.501 124.070  1.00  0.00     0.012 C 
ATOM      4  C   UNL     1     111.610 118.479 125.577  1.00  0.00     0.010 C 
BRANCH   3   5
ATOM      5  C   UNL     1     110.972 119.465 123.305  1.00  0.00     0.159 C 
BRANCH   5   6
ATOM      6  O   UNL     1     111.235 119.467 121.926  1.00  0.00    -0.396 OA
ATOM      7  H   UNL     1     111.988 118.836 121.775  1.00  0.00     0.210 HD
ENDBRANCH   5   6
ENDBRANCH   3   5
ENDBRANCH   2   3
ENDBRANCH   1   2
BRANCH   1   8
ATOM      8  C   UNL     1     113.608 115.256 123.934  1.00  0.00     0.136 C 
ATOM      9  O   UNL     1     113.542 114.645 122.877  1.00  0.00    -0.299 OA
BRANCH   8  10
ATOM     10  C   UNL     1     114.913 115.218 124.717  1.00  0.00     0.064 C 
ATOM     11  C   UNL     1     115.738 113.957 124.378  1.00  0.00     0.017 C 
BRANCH  10  12
ATOM     12  C   UNL     1     115.669 116.588 124.594  1.00  0.00     0.072 C 
ATOM     13  C   UNL     1     116.893 116.601 123.736  1.00  0.00     0.137 C 
ATOM     14  C   UNL     1     116.157 117.249 125.928  1.00  0.00    -0.019 C 
ATOM     15  O   UNL     1     116.955 116.093 122.627  1.00  0.00    -0.299 OA
ATOM     16  C   UNL     1     117.992 117.420 124.303  1.00  0.00     0.080 C 
ATOM     17  C   UNL     1     117.303 118.220 125.438  1.00  0.00     0.007 C 
ATOM     18  C   UNL     1     114.965 117.925 126.688  1.00  0.00     0.008 C 
ATOM     19  C   UNL     1     116.800 116.215 126.898  1.00  0.00     0.012 C 
ATOM     20  C   UNL     1     116.864 119.706 125.069  1.00  0.00     0.001 C 
ATOM     21  C   UNL     1     115.097 119.433 126.830  1.00  0.00     0.005 C 
ATOM     22  C   UNL     1     115.410 120.051 125.460  1.00  0.00     0.003 C 
ATOM     23  C   UNL     1     117.068 120.138 123.602  1.00  0.00     0.031 C 
ATOM     24  C   UNL     1     115.100 121.597 125.366  1.00  0.00    -0.008 C 
ATOM     25  C   UNL     1     116.675 121.570 123.379  1.00  0.00    -0.027 C 
ATOM     26  C   UNL     1     115.799 122.238 124.159  1.00  0.00    -0.065 C 
ATOM     27  C   UNL     1     115.575 122.364 126.641  1.00  0.00     0.014 C 
ATOM     28  C   UNL     1     113.565 121.764 125.191  1.00  0.00     0.016 C 
ATOM     29  C   UNL     1     115.680 123.741 123.996  1.00  0.00     0.063 C 
ATOM     30  C   UNL     1     115.473 123.899 126.517  1.00  0.00     0.033 C 
ATOM     31  C   UNL     1     116.188 124.439 125.267  1.00  0.00     0.118 C 
BRANCH  31  32
ATOM     32  O   UNL     1     117.574 124.252 125.405  1.00  0.00    -0.393 OA
ATOM     33  H   UNL     1     117.889 123.816 124.571  1.00  0.00     0.210 HD
ENDBRANCH  31  32
ENDBRANCH  10  12
ENDBRANCH   8  10
ENDBRANCH   1   8
TORSDOF 8
ENDMDL
MODEL 3
REMARK VINA RESULT:    -6.459      2.079      4.093
REMARK INTER + INTRA:         -10.635
REMARK INTER:                  -8.685
REMARK INTRA:                  -1.950
REMARK UNBOUND:                -1.533
REMARK SMILES C[C@H](CO)CCC(=O)[C@@H](C)[C@@H]1C(=O)C[C@H]2[C@H]3CC=C4C[C@H](O)CC[C@]4(C)[C@@H]3CC[C@]21C
REMARK SMILES IDX 6 1 5 2 2 3 1 4 3 5 4 6 7 8 8 9 9 10 10 11 11 12 12 13 30 14
REMARK SMILES IDX 13 15 14 16 15 17 29 18 31 19 16 20 28 21 27 22 17 23 25 24
REMARK SMILES IDX 18 25 19 26 24 27 26 28 20 29 23 30 21 31 22 32
REMARK H PARENT 4 7 22 33
REMARK Flexibility Score: inf
ROOT
ATOM      1  C   UNL     1     114.301 117.516 130.782  1.00  0.00     0.076 C 
ENDROOT
BRANCH   1   2
ATOM      2  C   UNL     1     112.936 117.755 130.114  1.00  0.00     0.013 C 
BRANCH   2   3
ATOM      3  C   UNL     1     112.955 117.755 128.565  1.00  0.00     0.012 C 
ATOM      4  C   UNL     1     112.755 119.158 127.972  1.00  0.00     0.010 C 
BRANCH   3   5
ATOM      5  C   UNL     1     112.006 116.712 127.937  1.00  0.00     0.159 C 
BRANCH   5   6
ATOM      6  O   UNL     1     111.779 115.625 128.796  1.00  0.00    -0.396 OA
ATOM      7  H   UNL     1     112.080 114.809 128.315  1.00  0.00     0.210 HD
ENDBRANCH   5   6
ENDBRANCH   3   5
ENDBRANCH   2   3
ENDBRANCH   1   2
BRANCH   1   8
ATOM      8  C   UNL     1     114.955 116.281 130.214  1.00  0.00     0.136 C 
ATOM      9  O   UNL     1     114.393 115.206 130.363  1.00  0.00    -0.299 OA
BRANCH   8  10
ATOM     10  C   UNL     1     116.309 116.305 129.518  1.00  0.00     0.064 C 
ATOM     11  C   UNL     1     116.875 114.880 129.332  1.00  0.00     0.017 C 
BRANCH  10  12
ATOM     12  C   UNL     1     116.247 117.193 128.224  1.00  0.00     0.072 C 
ATOM     13  C   UNL     1     116.067 116.474 126.927  1.00  0.00     0.137 C 
ATOM     14  C   UNL     1     117.473 118.130 127.951  1.00  0.00    -0.019 C 
ATOM     15  O   UNL     1     115.254 115.580 126.749  1.00  0.00    -0.299 OA
ATOM     16  C   UNL     1     116.879 117.048 125.826  1.00  0.00     0.080 C 
ATOM     17  C   UNL     1     117.362 118.405 126.399  1.00  0.00     0.007 C 
ATOM     18  C   UNL     1     117.431 119.394 128.875  1.00  0.00     0.008 C 
ATOM     19  C   UNL     1     118.831 117.414 128.206  1.00  0.00     0.012 C 
ATOM     20  C   UNL     1     116.515 119.681 125.962  1.00  0.00     0.001 C 
ATOM     21  C   UNL     1     117.280 120.707 128.122  1.00  0.00     0.005 C 
ATOM     22  C   UNL     1     116.108 120.600 127.136  1.00  0.00     0.003 C 
ATOM     23  C   UNL     1     115.251 119.410 125.121  1.00  0.00     0.031 C 
ATOM     24  C   UNL     1     115.543 121.994 126.655  1.00  0.00    -0.008 C 
ATOM     25  C   UNL     1     114.561 120.683 124.719  1.00  0.00    -0.027 C 
ATOM     26  C   UNL     1     114.683 121.847 125.392  1.00  0.00    -0.065 C 
ATOM     27  C   UNL     1     116.689 123.003 126.324  1.00  0.00     0.014 C 
ATOM     28  C   UNL     1     114.651 122.564 127.793  1.00  0.00     0.016 C 
ATOM     29  C   UNL     1     114.156 123.115 124.750  1.00  0.00     0.063 C 
ATOM     30  C   UNL     1     116.196 124.309 125.667  1.00  0.00     0.033 C 
ATOM     31  C   UNL     1     115.329 124.053 124.422  1.00  0.00     0.118 C 
BRANCH  31  32
ATOM     32  O   UNL     1     116.125 123.500 123.405  1.00  0.00    -0.393 OA
ATOM     33  H   UNL     1     116.999 123.968 123.438  1.00  0.00     0.210 HD
ENDBRANCH  31  32
ENDBRANCH  10  12
ENDBRANCH   8  10
ENDBRANCH   1   8
TORSDOF 8
ENDMDL
MODEL 4
REMARK VINA RESULT:    -6.419      2.012      7.167
REMARK INTER + INTRA:         -10.578
REMARK INTER:                  -8.926
REMARK INTRA:                  -1.653
REMARK UNBOUND:                -1.533
REMARK SMILES C[C@H](CO)CCC(=O)[C@@H](C)[C@@H]1C(=O)C[C@H]2[C@H]3CC=C4C[C@H](O)CC[C@]4(C)[C@@H]3CC[C@]21C
REMARK SMILES IDX 6 1 5 2 2 3 1 4 3 5 4 6 7 8 8 9 9 10 10 11 11 12 12 13 30 14
REMARK SMILES IDX 13 15 14 16 15 17 29 18 31 19 16 20 28 21 27 22 17 23 25 24
REMARK SMILES IDX 18 25 19 26 24 27 26 28 20 29 23 30 21 31 22 32
REMARK H PARENT 4 7 22 33
REMARK Flexibility Score: inf
ROOT
ATOM      1  C   UNL     1     116.619 121.647 122.910  1.00  0.00     0.076 C 
ENDROOT
BRANCH   1   2
ATOM      2  C   UNL     1     115.327 121.365 123.697  1.00  0.00     0.013 C 
BRANCH   2   3
ATOM      3  C   UNL     1     115.197 122.130 125.038  1.00  0.00     0.012 C 
ATOM      4  C   UNL     1     115.503 121.245 126.255  1.00  0.00     0.010 C 
BRANCH   3   5
ATOM      5  C   UNL     1     113.862 122.890 125.186  1.00  0.00     0.159 C 
BRANCH   5   6
ATOM      6  O   UNL     1     112.755 122.034 125.071  1.00  0.00    -0.396 OA
ATOM      7  H   UNL     1     112.889 121.498 124.246  1.00  0.00     0.210 HD
ENDBRANCH   5   6
ENDBRANCH   3   5
ENDBRANCH   2   3
ENDBRANCH   1   2
BRANCH   1   8
ATOM      8  C   UNL     1     117.757 120.818 123.452  1.00  0.00     0.136 C 
ATOM      9  O   UNL     1     118.659 121.390 124.046  1.00  0.00    -0.299 OA
BRANCH   8  10
ATOM     10  C   UNL     1     117.862 119.314 123.239  1.00  0.00     0.064 C 
ATOM     11  C   UNL     1     119.188 118.933 122.544  1.00  0.00     0.017 C 
BRANCH  10  12
ATOM     12  C   UNL     1     117.539 118.546 124.570  1.00  0.00     0.072 C 
ATOM     13  C   UNL     1     118.708 118.038 125.349  1.00  0.00     0.137 C 
ATOM     14  C   UNL     1     116.609 117.290 124.453  1.00  0.00    -0.019 C 
ATOM     15  O   UNL     1     119.709 118.697 125.587  1.00  0.00    -0.299 OA
ATOM     16  C   UNL     1     118.478 116.694 125.934  1.00  0.00     0.080 C 
ATOM     17  C   UNL     1     116.952 116.480 125.765  1.00  0.00     0.007 C 
ATOM     18  C   UNL     1     115.111 117.714 124.281  1.00  0.00     0.008 C 
ATOM     19  C   UNL     1     116.980 116.393 123.236  1.00  0.00     0.012 C 
ATOM     20  C   UNL     1     116.064 116.798 127.049  1.00  0.00     0.001 C 
ATOM     21  C   UNL     1     114.209 117.279 125.426  1.00  0.00     0.005 C 
ATOM     22  C   UNL     1     114.840 117.697 126.762  1.00  0.00     0.003 C 
ATOM     23  C   UNL     1     116.803 117.389 128.266  1.00  0.00     0.031 C 
ATOM     24  C   UNL     1     113.820 117.747 127.967  1.00  0.00    -0.008 C 
ATOM     25  C   UNL     1     115.883 117.598 129.435  1.00  0.00    -0.027 C 
ATOM     26  C   UNL     1     114.547 117.757 129.319  1.00  0.00    -0.065 C 
ATOM     27  C   UNL     1     112.857 116.517 127.965  1.00  0.00     0.014 C 
ATOM     28  C   UNL     1     112.999 119.060 127.841  1.00  0.00     0.016 C 
ATOM     29  C   UNL     1     113.698 117.698 130.573  1.00  0.00     0.063 C 
ATOM     30  C   UNL     1     111.974 116.417 129.226  1.00  0.00     0.033 C 
ATOM     31  C   UNL     1     112.795 116.455 130.526  1.00  0.00     0.118 C 
BRANCH  31  32
ATOM     32  O   UNL     1     113.570 115.286 130.623  1.00  0.00    -0.393 OA
ATOM     33  H   UNL     1     114.216 115.431 131.362  1.00  0.00     0.210 HD
ENDBRANCH  31  32
ENDBRANCH  10  12
ENDBRANCH   8  10
ENDBRANCH   1   8
TORSDOF 8
ENDMDL
MODEL 5
REMARK VINA RESULT:    -6.354      2.079      2.605
REMARK INTER + INTRA:         -10.486
REMARK INTER:                  -9.129
REMARK INTRA:                  -1.357
REMARK UNBOUND:                -1.533
REMARK SMILES C[C@H](CO)CCC(=O)[C@@H](C)[C@@H]1C(=O)C[C@H]2[C@H]3CC=C4C[C@H](O)CC[C@]4(C)[C@@H]3CC[C@]21C
REMARK SMILES IDX 6 1 5 2 2 3 1 4 3 5 4 6 7 8 8 9 9 10 10 11 11 12 12 13 30 14
REMARK SMILES IDX 13 15 14 16 15 17 29 18 31 19 16 20 28 21 27 22 17 23 25 24
REMARK SMILES IDX 18 25 19 26 24 27 26 28 20 29 23 30 21 31 22 32
REMARK H PARENT 4 7 22 33
REMARK Flexibility Score: inf
ROOT
ATOM      1  C   UNL     1     112.344 117.867 128.720  1.00  0.00     0.076 C 
ENDROOT
BRANCH   1   2
ATOM      2  C   UNL     1     112.638 117.499 130.184  1.00  0.00     0.013 C 
BRANCH   2   3
ATOM      3  C   UNL     1     114.135 117.525 130.579  1.00  0.00     0.012 C 
ATOM      4  C   UNL     1     115.005 118.257 129.546  1.00  0.00     0.010 C 
BRANCH   3   5
ATOM      5  C   UNL     1     114.701 116.137 130.944  1.00  0.00     0.159 C 
BRANCH   5   6
ATOM      6  O   UNL     1     113.885 115.096 130.472  1.00  0.00    -0.396 OA
ATOM      7  H   UNL     1     114.110 114.288 131.004  1.00  0.00     0.210 HD
ENDBRANCH   5   6
ENDBRANCH   3   5
ENDBRANCH   2   3
ENDBRANCH   1   2
BRANCH   1   8
ATOM      8  C   UNL     1     112.355 116.631 127.854  1.00  0.00     0.136 C 
ATOM      9  O   UNL     1     111.800 115.625 128.272  1.00  0.00    -0.299 OA
BRANCH   8  10
ATOM     10  C   UNL     1     113.076 116.564 126.515  1.00  0.00     0.064 C 
ATOM     11  C   UNL     1     112.342 115.632 125.525  1.00  0.00     0.017 C 
BRANCH  10  12
ATOM     12  C   UNL     1     113.398 118.008 125.989  1.00  0.00     0.072 C 
ATOM     13  C   UNL     1     112.358 118.654 125.132  1.00  0.00     0.137 C 
ATOM     14  C   UNL     1     114.712 118.179 125.153  1.00  0.00    -0.019 C 
ATOM     15  O   UNL     1     111.165 118.660 125.393  1.00  0.00    -0.299 OA
ATOM     16  C   UNL     1     112.933 119.418 123.998  1.00  0.00     0.080 C 
ATOM     17  C   UNL     1     114.440 119.509 124.345  1.00  0.00     0.007 C 
ATOM     18  C   UNL     1     115.972 118.189 126.085  1.00  0.00     0.008 C 
ATOM     19  C   UNL     1     114.908 117.032 124.120  1.00  0.00     0.012 C 
ATOM     20  C   UNL     1     114.910 120.867 125.033  1.00  0.00     0.001 C 
ATOM     21  C   UNL     1     116.743 119.500 126.070  1.00  0.00     0.005 C 
ATOM     22  C   UNL     1     115.772 120.667 126.299  1.00  0.00     0.003 C 
ATOM     23  C   UNL     1     113.801 121.881 125.378  1.00  0.00     0.031 C 
ATOM     24  C   UNL     1     116.472 121.999 126.780  1.00  0.00    -0.008 C 
ATOM     25  C   UNL     1     114.360 123.144 125.969  1.00  0.00    -0.027 C 
ATOM     26  C   UNL     1     115.553 123.214 126.597  1.00  0.00    -0.065 C 
ATOM     27  C   UNL     1     117.787 122.285 125.988  1.00  0.00     0.014 C 
ATOM     28  C   UNL     1     116.791 121.848 128.294  1.00  0.00     0.016 C 
ATOM     29  C   UNL     1     116.124 124.582 126.918  1.00  0.00     0.063 C 
ATOM     30  C   UNL     1     118.403 123.669 126.283  1.00  0.00     0.033 C 
ATOM     31  C   UNL     1     117.396 124.816 126.089  1.00  0.00     0.118 C 
BRANCH  31  32
ATOM     32  O   UNL     1     117.075 124.928 124.725  1.00  0.00    -0.393 OA
ATOM     33  H   UNL     1     116.120 125.194 124.676  1.00  0.00     0.210 HD
ENDBRANCH  31  32
ENDBRANCH  10  12
ENDBRANCH   8  10
ENDBRANCH   1   8
TORSDOF 8
ENDMDL
MODEL 6
REMARK VINA RESULT:    -6.322      2.416      4.301
REMARK INTER + INTRA:         -10.441
REMARK INTER:                  -9.126
REMARK INTRA:                  -1.315
REMARK UNBOUND:                -1.533
REMARK SMILES C[C@H](CO)CCC(=O)[C@@H](C)[C@@H]1C(=O)C[C@H]2[C@H]3CC=C4C[C@H](O)CC[C@]4(C)[C@@H]3CC[C@]21C
REMARK SMILES IDX 6 1 5 2 2 3 1 4 3 5 4 6 7 8 8 9 9 10 10 11 11 12 12 13 30 14
REMARK SMILES IDX 13 15 14 16 15 17 29 18 31 19 16 20 28 21 27 22 17 23 25 24
REMARK SMILES IDX 18 25 19 26 24 27 26 28 20 29 23 30 21 31 22 32
REMARK H PARENT 4 7 22 33
REMARK Flexibility Score: inf
ROOT
ATOM      1  C   UNL     1     113.630 115.241 124.904  1.00  0.00     0.076 C 
ENDROOT
BRANCH   1   2
ATOM      2  C   UNL     1     114.352 115.707 123.628  1.00  0.00     0.013 C 
BRANCH   2   3
ATOM      3  C   UNL     1     115.835 116.112 123.823  1.00  0.00     0.012 C 
ATOM      4  C   UNL     1     115.989 117.494 124.474  1.00  0.00     0.010 C 
BRANCH   3   5
ATOM      5  C   UNL     1     116.686 115.968 122.544  1.00  0.00     0.159 C 
BRANCH   5   6
ATOM      6  O   UNL     1     116.208 114.946 121.707  1.00  0.00    -0.396 OA
ATOM      7  H   UNL     1     116.699 115.025 120.847  1.00  0.00     0.210 HD
ENDBRANCH   5   6
ENDBRANCH   3   5
ENDBRANCH   2   3
ENDBRANCH   1   2
BRANCH   1   8
ATOM      8  C   UNL     1     112.428 116.111 125.176  1.00  0.00     0.136 C 
ATOM      9  O   UNL     1     111.676 116.368 124.248  1.00  0.00    -0.299 OA
BRANCH   8  10
ATOM     10  C   UNL     1     112.144 116.731 126.537  1.00  0.00     0.064 C 
ATOM     11  C   UNL     1     111.981 115.648 127.628  1.00  0.00     0.017 C 
BRANCH  10  12
ATOM     12  C   UNL     1     113.177 117.871 126.850  1.00  0.00     0.072 C 
ATOM     13  C   UNL     1     113.971 117.727 128.107  1.00  0.00     0.137 C 
ATOM     14  C   UNL     1     112.612 119.330 126.945  1.00  0.00    -0.019 C 
ATOM     15  O   UNL     1     114.513 116.690 128.458  1.00  0.00    -0.299 OA
ATOM     16  C   UNL     1     114.160 119.011 128.826  1.00  0.00     0.080 C 
ATOM     17  C   UNL     1     113.716 120.076 127.792  1.00  0.00     0.007 C 
ATOM     18  C   UNL     1     112.329 119.916 125.520  1.00  0.00     0.008 C 
ATOM     19  C   UNL     1     111.280 119.395 127.747  1.00  0.00     0.012 C 
ATOM     20  C   UNL     1     114.891 120.774 126.971  1.00  0.00     0.001 C 
ATOM     21  C   UNL     1     113.180 121.126 125.168  1.00  0.00     0.005 C 
ATOM     22  C   UNL     1     114.657 120.810 125.445  1.00  0.00     0.003 C 
ATOM     23  C   UNL     1     116.313 120.231 127.213  1.00  0.00     0.031 C 
ATOM     24  C   UNL     1     115.669 121.762 124.693  1.00  0.00    -0.008 C 
ATOM     25  C   UNL     1     117.346 120.994 126.433  1.00  0.00    -0.027 C 
ATOM     26  C   UNL     1     117.074 121.686 125.306  1.00  0.00    -0.065 C 
ATOM     27  C   UNL     1     115.215 123.255 124.751  1.00  0.00     0.014 C 
ATOM     28  C   UNL     1     115.753 121.293 123.213  1.00  0.00     0.016 C 
ATOM     29  C   UNL     1     118.132 122.623 124.757  1.00  0.00     0.063 C 
ATOM     30  C   UNL     1     116.265 124.246 124.202  1.00  0.00     0.033 C 
ATOM     31  C   UNL     1     117.641 124.075 124.867  1.00  0.00     0.118 C 
BRANCH  31  32
ATOM     32  O   UNL     1     117.559 124.460 126.216  1.00  0.00    -0.393 OA
ATOM     33  H   UNL     1     117.258 123.662 126.724  1.00  0.00     0.210 HD
ENDBRANCH  31  32
ENDBRANCH  10  12
ENDBRANCH   8  10
ENDBRANCH   1   8
TORSDOF 8
ENDMDL
MODEL 7
REMARK VINA RESULT:    -6.310      2.295      4.867
REMARK INTER + INTRA:         -10.426
REMARK INTER:                  -9.366
REMARK INTRA:                  -1.059
REMARK UNBOUND:                -1.533
REMARK SMILES C[C@H](CO)CCC(=O)[C@@H](C)[C@@H]1C(=O)C[C@H]2[C@H]3CC=C4C[C@H](O)CC[C@]4(C)[C@@H]3CC[C@]21C
REMARK SMILES IDX 6 1 5 2 2 3 1 4 3 5 4 6 7 8 8 9 9 10 10 11 11 12 12 13 30 14
REMARK SMILES IDX 13 15 14 16 15 17 29 18 31 19 16 20 28 21 27 22 17 23 25 24
REMARK SMILES IDX 18 25 19 26 24 27 26 28 20 29 23 30 21 31 22 32
REMARK H PARENT 4 7 22 33
REMARK Flexibility Score: inf
ROOT
ATOM      1  C   UNL     1     113.250 117.076 124.135  1.00  0.00     0.076 C 
ENDROOT
BRANCH   1   2
ATOM      2  C   UNL     1     112.125 117.725 123.310  1.00  0.00     0.013 C 
BRANCH   2   3
ATOM      3  C   UNL     1     111.970 119.254 123.500  1.00  0.00     0.012 C 
ATOM      4  C   UNL     1     113.307 119.951 123.789  1.00  0.00     0.010 C 
BRANCH   3   5
ATOM      5  C   UNL     1     110.875 119.640 124.517  1.00  0.00     0.159 C 
BRANCH   5   6
ATOM      6  O   UNL     1     111.070 120.932 125.033  1.00  0.00    -0.396 OA
ATOM      7  H   UNL     1     110.611 121.561 124.417  1.00  0.00     0.210 HD
ENDBRANCH   5   6
ENDBRANCH   3   5
ENDBRANCH   2   3
ENDBRANCH   1   2
BRANCH   1   8
ATOM      8  C   UNL     1     112.687 116.434 125.379  1.00  0.00     0.136 C 
ATOM      9  O   UNL     1     112.065 115.389 125.262  1.00  0.00    -0.299 OA
BRANCH   8  10
ATOM     10  C   UNL     1     112.808 117.059 126.762  1.00  0.00     0.064 C 
ATOM     11  C   UNL     1     112.689 115.995 127.876  1.00  0.00     0.017 C 
BRANCH  10  12
ATOM     12  C   UNL     1     114.068 117.993 126.836  1.00  0.00     0.072 C 
ATOM     13  C   UNL     1     115.398 117.316 126.915  1.00  0.00     0.137 C 
ATOM     14  C   UNL     1     114.117 119.022 128.017  1.00  0.00    -0.019 C 
ATOM     15  O   UNL     1     115.728 116.376 126.209  1.00  0.00    -0.299 OA
ATOM     16  C   UNL     1     116.339 117.989 127.843  1.00  0.00     0.080 C 
ATOM     17  C   UNL     1     115.658 119.351 128.129  1.00  0.00     0.007 C 
ATOM     18  C   UNL     1     113.174 120.242 127.737  1.00  0.00     0.008 C 
ATOM     19  C   UNL     1     113.671 118.391 129.368  1.00  0.00     0.012 C 
ATOM     20  C   UNL     1     116.186 120.583 127.267  1.00  0.00     0.001 C 
ATOM     21  C   UNL     1     113.903 121.570 127.608  1.00  0.00     0.005 C 
ATOM     22  C   UNL     1     115.065 121.423 126.616  1.00  0.00     0.003 C 
ATOM     23  C   UNL     1     117.224 120.260 126.174  1.00  0.00     0.031 C 
ATOM     24  C   UNL     1     115.588 122.793 126.030  1.00  0.00    -0.008 C 
ATOM     25  C   UNL     1     117.693 121.498 125.462  1.00  0.00    -0.027 C 
ATOM     26  C   UNL     1     116.975 122.639 125.391  1.00  0.00    -0.065 C 
ATOM     27  C   UNL     1     115.704 123.891 127.135  1.00  0.00     0.014 C 
ATOM     28  C   UNL     1     114.589 123.254 124.932  1.00  0.00     0.016 C 
ATOM     29  C   UNL     1     117.655 123.893 124.877  1.00  0.00     0.063 C 
ATOM     30  C   UNL     1     116.393 125.186 126.655  1.00  0.00     0.033 C 
ATOM     31  C   UNL     1     117.765 124.921 126.013  1.00  0.00     0.118 C 
BRANCH  31  32
ATOM     32  O   UNL     1     118.660 124.466 126.997  1.00  0.00    -0.393 OA
ATOM     33  H   UNL     1     118.230 123.687 127.437  1.00  0.00     0.210 HD
ENDBRANCH  31  32
ENDBRANCH  10  12
ENDBRANCH   8  10
ENDBRANCH   1   8
TORSDOF 8
ENDMDL
MODEL 8
REMARK VINA RESULT:    -6.297      2.409      4.837
REMARK INTER + INTRA:         -10.407
REMARK INTER:                  -8.980
REMARK INTRA:                  -1.427
REMARK UNBOUND:                -1.533
REMARK SMILES C[C@H](CO)CCC(=O)[C@@H](C)[C@@H]1C(=O)C[C@H]2[C@H]3CC=C4C[C@H](O)CC[C@]4(C)[C@@H]3CC[C@]21C
REMARK SMILES IDX 6 1 5 2 2 3 1 4 3 5 4 6 7 8 8 9 9 10 10 11 11 12 12 13 30 14
REMARK SMILES IDX 13 15 14 16 15 17 29 18 31 19 16 20 28 21 27 22 17 23 25 24
REMARK SMILES IDX 18 25 19 26 24 27 26 28 20 29 23 30 21 31 22 32
REMARK H PARENT 4 7 22 33
REMARK Flexibility Score: inf
ROOT
ATOM      1  C   UNL     1     112.412 115.607 125.420  1.00  0.00     0.076 C 
ENDROOT
BRANCH   1   2
ATOM      2  C   UNL     1     112.147 117.110 125.619  1.00  0.00     0.013 C 
BRANCH   2   3
ATOM      3  C   UNL     1     111.693 117.512 127.044  1.00  0.00     0.012 C 
ATOM      4  C   UNL     1     111.952 118.995 127.350  1.00  0.00     0.010 C 
BRANCH   3   5
ATOM      5  C   UNL     1     112.235 116.582 128.150  1.00  0.00     0.159 C 
BRANCH   5   6
ATOM      6  O   UNL     1     111.201 115.949 128.858  1.00  0.00    -0.396 OA
ATOM      7  H   UNL     1     111.014 115.092 128.392  1.00  0.00     0.210 HD
ENDBRANCH   5   6
ENDBRANCH   3   5
ENDBRANCH   2   3
ENDBRANCH   1   2
BRANCH   1   8
ATOM      8  C   UNL     1     113.588 115.398 124.498  1.00  0.00     0.136 C 
ATOM      9  O   UNL     1     113.369 115.235 123.307  1.00  0.00    -0.299 OA
BRANCH   8  10
ATOM     10  C   UNL     1     115.026 115.322 124.992  1.00  0.00     0.064 C 
ATOM     11  C   UNL     1     115.739 114.058 124.463  1.00  0.00     0.017 C 
BRANCH  10  12
ATOM     12  C   UNL     1     115.767 116.684 124.742  1.00  0.00     0.072 C 
ATOM     13  C   UNL     1     116.820 116.687 123.683  1.00  0.00     0.137 C 
ATOM     14  C   UNL     1     116.491 117.331 125.972  1.00  0.00    -0.019 C 
ATOM     15  O   UNL     1     116.680 116.184 122.578  1.00  0.00    -0.299 OA
ATOM     16  C   UNL     1     118.013 117.489 124.050  1.00  0.00     0.080 C 
ATOM     17  C   UNL     1     117.545 118.290 125.292  1.00  0.00     0.007 C 
ATOM     18  C   UNL     1     115.460 118.016 126.933  1.00  0.00     0.008 C 
ATOM     19  C   UNL     1     117.281 116.283 126.810  1.00  0.00     0.012 C 
ATOM     20  C   UNL     1     117.068 119.784 125.011  1.00  0.00     0.001 C 
ATOM     21  C   UNL     1     115.635 119.522 127.056  1.00  0.00     0.005 C 
ATOM     22  C   UNL     1     115.710 120.144 125.654  1.00  0.00     0.003 C 
ATOM     23  C   UNL     1     117.016 120.222 123.533  1.00  0.00     0.031 C 
ATOM     24  C   UNL     1     115.408 121.694 125.622  1.00  0.00    -0.008 C 
ATOM     25  C   UNL     1     116.608 121.660 123.388  1.00  0.00    -0.027 C 
ATOM     26  C   UNL     1     115.892 122.334 124.313  1.00  0.00    -0.065 C 
ATOM     27  C   UNL     1     116.111 122.447 126.796  1.00  0.00     0.014 C 
ATOM     28  C   UNL     1     113.869 121.881 125.721  1.00  0.00     0.016 C 
ATOM     29  C   UNL     1     115.766 123.839 124.179  1.00  0.00     0.063 C 
ATOM     30  C   UNL     1     116.008 123.984 126.698  1.00  0.00     0.033 C 
ATOM     31  C   UNL     1     116.499 124.523 125.344  1.00  0.00     0.118 C 
BRANCH  31  32
ATOM     32  O   UNL     1     117.885 124.318 125.234  1.00  0.00    -0.393 OA
ATOM     33  H   UNL     1     118.189 124.833 124.443  1.00  0.00     0.210 HD
ENDBRANCH  31  32
ENDBRANCH  10  12
ENDBRANCH   8  10
ENDBRANCH   1   8
TORSDOF 8
ENDMDL
MODEL 9
REMARK VINA RESULT:    -6.215      2.241      6.132
REMARK INTER + INTRA:         -10.291
REMARK INTER:                  -8.245
REMARK INTRA:                  -2.046
REMARK UNBOUND:                -1.533
REMARK SMILES C[C@H](CO)CCC(=O)[C@@H](C)[C@@H]1C(=O)C[C@H]2[C@H]3CC=C4C[C@H](O)CC[C@]4(C)[C@@H]3CC[C@]21C
REMARK SMILES IDX 6 1 5 2 2 3 1 4 3 5 4 6 7 8 8 9 9 10 10 11 11 12 12 13 30 14
REMARK SMILES IDX 13 15 14 16 15 17 29 18 31 19 16 20 28 21 27 22 17 23 25 24
REMARK SMILES IDX 18 25 19 26 24 27 26 28 20 29 23 30 21 31 22 32
REMARK H PARENT 4 7 22 33
REMARK Flexibility Score: inf
ROOT
ATOM      1  C   UNL     1     114.586 120.866 123.967  1.00  0.00     0.076 C 
ENDROOT
BRANCH   1   2
ATOM      2  C   UNL     1     115.872 121.486 124.541  1.00  0.00     0.013 C 
BRANCH   2   3
ATOM      3  C   UNL     1     116.565 120.653 125.648  1.00  0.00     0.012 C 
ATOM      4  C   UNL     1     116.468 119.141 125.397  1.00  0.00     0.010 C 
BRANCH   3   5
ATOM      5  C   UNL     1     116.125 121.039 127.076  1.00  0.00     0.159 C 
BRANCH   5   6
ATOM      6  O   UNL     1     115.772 122.395 127.168  1.00  0.00    -0.396 OA
ATOM      7  H   UNL     1     115.484 122.555 128.106  1.00  0.00     0.210 HD
ENDBRANCH   5   6
ENDBRANCH   3   5
ENDBRANCH   2   3
ENDBRANCH   1   2
BRANCH   1   8
ATOM      8  C   UNL     1     113.390 121.282 124.787  1.00  0.00     0.136 C 
ATOM      9  O   UNL     1     113.334 122.436 125.188  1.00  0.00    -0.299 OA
BRANCH   8  10
ATOM     10  C   UNL     1     112.283 120.317 125.187  1.00  0.00     0.064 C 
ATOM     11  C   UNL     1     111.202 120.211 124.088  1.00  0.00     0.017 C 
BRANCH  10  12
ATOM     12  C   UNL     1     112.890 118.959 125.687  1.00  0.00     0.072 C 
ATOM     13  C   UNL     1     112.682 117.769 124.807  1.00  0.00     0.137 C 
ATOM     14  C   UNL     1     112.424 118.452 127.095  1.00  0.00    -0.019 C 
ATOM     15  O   UNL     1     112.851 117.777 123.598  1.00  0.00    -0.299 OA
ATOM     16  C   UNL     1     112.385 116.529 125.566  1.00  0.00     0.080 C 
ATOM     17  C   UNL     1     112.734 116.905 127.029  1.00  0.00     0.007 C 
ATOM     18  C   UNL     1     113.139 119.245 128.242  1.00  0.00     0.008 C 
ATOM     19  C   UNL     1     110.890 118.616 127.303  1.00  0.00     0.012 C 
ATOM     20  C   UNL     1     114.173 116.446 127.536  1.00  0.00     0.001 C 
ATOM     21  C   UNL     1     114.038 118.389 129.119  1.00  0.00     0.005 C 
ATOM     22  C   UNL     1     114.981 117.562 128.234  1.00  0.00     0.003 C 
ATOM     23  C   UNL     1     115.093 115.789 126.487  1.00  0.00     0.031 C 
ATOM     24  C   UNL     1     116.256 117.016 128.988  1.00  0.00    -0.008 C 
ATOM     25  C   UNL     1     116.399 115.347 127.084  1.00  0.00    -0.027 C 
ATOM     26  C   UNL     1     116.932 115.883 128.203  1.00  0.00    -0.065 C 
ATOM     27  C   UNL     1     115.900 116.454 130.402  1.00  0.00     0.014 C 
ATOM     28  C   UNL     1     117.267 118.188 129.125  1.00  0.00     0.016 C 
ATOM     29  C   UNL     1     118.111 115.184 128.851  1.00  0.00     0.063 C 
ATOM     30  C   UNL     1     117.073 115.733 131.098  1.00  0.00     0.033 C 
ATOM     31  C   UNL     1     117.692 114.630 130.222  1.00  0.00     0.118 C 
BRANCH  31  32
ATOM     32  O   UNL     1     116.765 113.586 130.062  1.00  0.00    -0.393 OA
ATOM     33  H   UNL     1     116.290 113.752 129.207  1.00  0.00     0.210 HD
ENDBRANCH  31  32
ENDBRANCH  10  12
ENDBRANCH   8  10
ENDBRANCH   1   8
TORSDOF 8
ENDMDL
