MODEL 1
REMARK VINA RESULT:    -7.605      0.000      0.000
REMARK INTER + INTRA:          -8.007
REMARK INTER:                  -8.272
REMARK INTRA:                   0.265
REMARK UNBOUND:                 0.265
REMARK SMILES CC1(C)CC[C@]2(C(=O)[O-])CC[C@@]3(C)C(=CC[C@@H]4[C@@]5(C)CC[C@H](O)C(C)(C)[C@H]5CC[C@@]43C)[C@H]2C1
REMARK SMILES IDX 6 1 5 2 10 3 32 4 4 5 11 6 14 7 33 8 2 9 12 10 15 11 1 12
REMARK SMILES IDX 3 13 13 14 30 15 16 16 17 17 29 18 31 19 18 20 28 21 27 22
REMARK SMILES IDX 20 23 19 24 24 25 21 26 22 27 25 28 26 29 7 30 8 31 9 32
REMARK SMILES IDX 23 33
REMARK H PARENT 23 34
REMARK Flexibility Score: inf
ROOT
ATOM      1  C   UNL     1     -12.274  10.736 -25.318  1.00  0.00     0.017 C 
ATOM      2  C   UNL     1     -13.068   9.407 -25.385  1.00  0.00     0.014 C 
ATOM      3  C   UNL     1     -12.576  11.508 -24.008  1.00  0.00     0.014 C 
ATOM      4  C   UNL     1     -12.824  11.634 -26.464  1.00  0.00     0.028 C 
ATOM      5  C   UNL     1     -12.876   8.707 -26.754  1.00  0.00     0.007 C 
ATOM      6  C   UNL     1     -11.852  12.887 -23.915  1.00  0.00     0.013 C 
ATOM      7  C   UNL     1     -12.590  13.147 -26.307  1.00  0.00    -0.064 C 
ATOM      8  C   UNL     1     -12.617  11.049 -27.874  1.00  0.00     0.015 C 
ATOM      9  C   UNL     1     -13.209   9.603 -27.996  1.00  0.00    -0.035 C 
ATOM     10  C   UNL     1     -11.605  13.697 -25.262  1.00  0.00    -0.006 C 
ATOM     11  C   UNL     1     -13.550  13.922 -26.832  1.00  0.00    -0.027 C 
ATOM     12  C   UNL     1     -12.611   8.940 -29.254  1.00  0.00     0.011 C 
ATOM     13  C   UNL     1     -14.745   9.665 -28.186  1.00  0.00     0.011 C 
ATOM     14  C   UNL     1     -10.154  13.413 -25.783  1.00  0.00     0.017 C 
ATOM     15  C   UNL     1     -11.741  15.304 -25.027  1.00  0.00    -0.020 C 
ATOM     16  C   UNL     1     -13.956  15.250 -26.295  1.00  0.00     0.032 C 
ATOM     17  C   UNL     1     -13.257  15.730 -24.975  1.00  0.00     0.006 C 
ATOM     18  C   UNL     1     -11.124  16.144 -26.195  1.00  0.00     0.008 C 
ATOM     19  C   UNL     1     -10.958  15.640 -23.710  1.00  0.00     0.012 C 
ATOM     20  C   UNL     1     -13.579  17.295 -24.747  1.00  0.00    -0.025 C 
ATOM     21  C   UNL     1     -11.313  17.667 -26.048  1.00  0.00     0.005 C 
ATOM     22  C   UNL     1     -12.755  18.200 -25.758  1.00  0.00     0.003 C 
ATOM     23  C   UNL     1     -13.381  17.771 -23.256  1.00  0.00     0.010 C 
ATOM     24  C   UNL     1     -15.124  17.462 -25.014  1.00  0.00     0.012 C 
ATOM     25  C   UNL     1     -12.705  19.739 -25.351  1.00  0.00    -0.006 C 
ATOM     26  C   UNL     1     -12.218  18.739 -22.964  1.00  0.00     0.033 C 
ATOM     27  C   UNL     1     -12.042  19.928 -23.939  1.00  0.00     0.120 C 
ATOM     28  C   UNL     1     -11.877  20.539 -26.401  1.00  0.00     0.014 C 
ATOM     29  C   UNL     1     -14.121  20.382 -25.369  1.00  0.00     0.014 C 
ENDROOT
BRANCH   1  30
ATOM     30  C   UNL     1     -10.797  10.346 -25.356  1.00  0.00     0.048 C 
ATOM     31  O   UNL     1     -10.245   9.884 -24.321  1.00  0.00    -0.550 OA
ATOM     32  O   UNL     1     -10.055  10.382 -26.530  1.00  0.00    -0.550 OA
ENDBRANCH   1  30
BRANCH  27  33
ATOM     33  O   UNL     1     -12.494  21.105 -23.313  1.00  0.00    -0.393 OA
ATOM     34  H   UNL     1     -11.847  21.323 -22.593  1.00  0.00     0.210 HD
ENDBRANCH  27  33
TORSDOF 2
ENDMDL
MODEL 2
REMARK VINA RESULT:    -7.363      2.081      8.220
REMARK INTER + INTRA:          -7.743
REMARK INTER:                  -8.033
REMARK INTRA:                   0.290
REMARK UNBOUND:                 0.265
REMARK SMILES CC1(C)CC[C@]2(C(=O)[O-])CC[C@@]3(C)C(=CC[C@@H]4[C@@]5(C)CC[C@H](O)C(C)(C)[C@H]5CC[C@@]43C)[C@H]2C1
REMARK SMILES IDX 6 1 5 2 10 3 32 4 4 5 11 6 14 7 33 8 2 9 12 10 15 11 1 12
REMARK SMILES IDX 3 13 13 14 30 15 16 16 17 17 29 18 31 19 18 20 28 21 27 22
REMARK SMILES IDX 20 23 19 24 24 25 21 26 22 27 25 28 26 29 7 30 8 31 9 32
REMARK SMILES IDX 23 33
REMARK H PARENT 23 34
REMARK Flexibility Score: inf
ROOT
ATOM      1  C   UNL     1     -12.246  15.844 -22.913  1.00  0.00     0.017 C 
ATOM      2  C   UNL     1     -11.375  16.938 -22.245  1.00  0.00     0.014 C 
ATOM      3  C   UNL     1     -11.766  14.423 -22.520  1.00  0.00     0.014 C 
ATOM      4  C   UNL     1     -11.996  15.958 -24.445  1.00  0.00     0.028 C 
ATOM      5  C   UNL     1     -11.765  18.350 -22.749  1.00  0.00     0.007 C 
ATOM      6  C   UNL     1     -12.568  13.279 -23.214  1.00  0.00     0.013 C 
ATOM      7  C   UNL     1     -12.317  14.702 -25.275  1.00  0.00    -0.064 C 
ATOM      8  C   UNL     1     -12.417  17.310 -25.050  1.00  0.00     0.015 C 
ATOM      9  C   UNL     1     -11.744  18.515 -24.307  1.00  0.00    -0.035 C 
ATOM     10  C   UNL     1     -13.128  13.540 -24.681  1.00  0.00    -0.006 C 
ATOM     11  C   UNL     1     -11.538  14.527 -26.353  1.00  0.00    -0.027 C 
ATOM     12  C   UNL     1     -12.514  19.801 -24.676  1.00  0.00     0.011 C 
ATOM     13  C   UNL     1     -10.282  18.692 -24.785  1.00  0.00     0.011 C 
ATOM     14  C   UNL     1     -14.624  14.000 -24.594  1.00  0.00     0.017 C 
ATOM     15  C   UNL     1     -13.080  12.186 -25.589  1.00  0.00    -0.020 C 
ATOM     16  C   UNL     1     -11.146  13.204 -26.909  1.00  0.00     0.032 C 
ATOM     17  C   UNL     1     -11.620  11.930 -26.124  1.00  0.00     0.006 C 
ATOM     18  C   UNL     1     -13.971  12.283 -26.872  1.00  0.00     0.008 C 
ATOM     19  C   UNL     1     -13.625  11.018 -24.695  1.00  0.00     0.012 C 
ATOM     20  C   UNL     1     -11.388  10.626 -27.046  1.00  0.00    -0.025 C 
ATOM     21  C   UNL     1     -13.881  11.053 -27.799  1.00  0.00     0.005 C 
ATOM     22  C   UNL     1     -12.457  10.556 -28.216  1.00  0.00     0.003 C 
ATOM     23  C   UNL     1     -11.338   9.276 -26.230  1.00  0.00     0.010 C 
ATOM     24  C   UNL     1      -9.939  10.775 -27.650  1.00  0.00     0.012 C 
ATOM     25  C   UNL     1     -12.553   9.130 -28.918  1.00  0.00    -0.006 C 
ATOM     26  C   UNL     1     -12.500   8.282 -26.425  1.00  0.00     0.033 C 
ATOM     27  C   UNL     1     -12.951   8.017 -27.881  1.00  0.00     0.120 C 
ATOM     28  C   UNL     1     -13.625   9.164 -30.047  1.00  0.00     0.014 C 
ATOM     29  C   UNL     1     -11.221   8.750 -29.627  1.00  0.00     0.014 C 
ENDROOT
BRANCH   1  30
ATOM     30  C   UNL     1     -13.668  16.066 -22.397  1.00  0.00     0.048 C 
ATOM     31  O   UNL     1     -14.012  15.587 -21.283  1.00  0.00    -0.550 OA
ATOM     32  O   UNL     1     -14.577  16.874 -23.069  1.00  0.00    -0.550 OA
ENDBRANCH   1  30
BRANCH  27  33
ATOM     33  O   UNL     1     -12.485   6.751 -28.283  1.00  0.00    -0.393 OA
ATOM     34  H   UNL     1     -12.450   6.179 -27.473  1.00  0.00     0.210 HD
ENDBRANCH  27  33
TORSDOF 2
ENDMDL
MODEL 3
REMARK VINA RESULT:    -7.341      1.626      8.281
REMARK INTER + INTRA:          -7.720
REMARK INTER:                  -7.990
REMARK INTRA:                   0.270
REMARK UNBOUND:                 0.265
REMARK SMILES CC1(C)CC[C@]2(C(=O)[O-])CC[C@@]3(C)C(=CC[C@@H]4[C@@]5(C)CC[C@H](O)C(C)(C)[C@H]5CC[C@@]43C)[C@H]2C1
REMARK SMILES IDX 6 1 5 2 10 3 32 4 4 5 11 6 14 7 33 8 2 9 12 10 15 11 1 12
REMARK SMILES IDX 3 13 13 14 30 15 16 16 17 17 29 18 31 19 18 20 28 21 27 22
REMARK SMILES IDX 20 23 19 24 24 25 21 26 22 27 25 28 26 29 7 30 8 31 9 32
REMARK SMILES IDX 23 33
REMARK H PARENT 23 34
REMARK Flexibility Score: inf
ROOT
ATOM      1  C   UNL     1     -12.505  17.828 -23.742  1.00  0.00     0.017 C 
ATOM      2  C   UNL     1     -11.799  18.974 -22.974  1.00  0.00     0.014 C 
ATOM      3  C   UNL     1     -12.577  16.537 -22.887  1.00  0.00     0.014 C 
ATOM      4  C   UNL     1     -11.587  17.477 -24.949  1.00  0.00     0.028 C 
ATOM      5  C   UNL     1     -11.602  20.217 -23.879  1.00  0.00     0.007 C 
ATOM      6  C   UNL     1     -13.222  15.328 -23.634  1.00  0.00     0.013 C 
ATOM      7  C   UNL     1     -11.780  16.076 -25.556  1.00  0.00    -0.064 C 
ATOM      8  C   UNL     1     -11.387  18.636 -25.943  1.00  0.00     0.015 C 
ATOM      9  C   UNL     1     -10.862  19.929 -25.229  1.00  0.00    -0.035 C 
ATOM     10  C   UNL     1     -13.005  15.216 -25.207  1.00  0.00    -0.006 C 
ATOM     11  C   UNL     1     -10.666  15.525 -26.062  1.00  0.00    -0.027 C 
ATOM     12  C   UNL     1     -11.083  21.128 -26.175  1.00  0.00     0.011 C 
ATOM     13  C   UNL     1      -9.339  19.817 -24.965  1.00  0.00     0.011 C 
ATOM     14  C   UNL     1     -14.242  15.830 -25.949  1.00  0.00     0.017 C 
ATOM     15  C   UNL     1     -12.864  13.664 -25.682  1.00  0.00    -0.020 C 
ATOM     16  C   UNL     1     -10.374  14.066 -26.079  1.00  0.00     0.032 C 
ATOM     17  C   UNL     1     -11.415  13.122 -25.381  1.00  0.00     0.006 C 
ATOM     18  C   UNL     1     -13.051  13.480 -27.225  1.00  0.00     0.008 C 
ATOM     19  C   UNL     1     -13.991  12.857 -24.948  1.00  0.00     0.012 C 
ATOM     20  C   UNL     1     -11.097  11.593 -25.789  1.00  0.00    -0.025 C 
ATOM     21  C   UNL     1     -12.838  12.036 -27.722  1.00  0.00     0.005 C 
ATOM     22  C   UNL     1     -11.526  11.301 -27.288  1.00  0.00     0.003 C 
ATOM     23  C   UNL     1     -11.713  10.532 -24.796  1.00  0.00     0.010 C 
ATOM     24  C   UNL     1      -9.537  11.420 -25.634  1.00  0.00     0.012 C 
ATOM     25  C   UNL     1     -11.617   9.752 -27.642  1.00  0.00    -0.006 C 
ATOM     26  C   UNL     1     -12.858   9.644 -25.322  1.00  0.00     0.033 C 
ATOM     27  C   UNL     1     -12.667   9.024 -26.726  1.00  0.00     0.120 C 
ATOM     28  C   UNL     1     -12.044   9.570 -29.130  1.00  0.00     0.014 C 
ATOM     29  C   UNL     1     -10.231   9.055 -27.526  1.00  0.00     0.014 C 
ENDROOT
BRANCH   1  30
ATOM     30  C   UNL     1     -13.920  18.328 -24.035  1.00  0.00     0.048 C 
ATOM     31  O   UNL     1     -14.784  18.335 -23.118  1.00  0.00    -0.550 OA
ATOM     32  O   UNL     1     -14.266  18.880 -25.262  1.00  0.00    -0.550 OA
ENDBRANCH   1  30
BRANCH  27  33
ATOM     33  O   UNL     1     -12.366   7.656 -26.587  1.00  0.00    -0.393 OA
ATOM     34  H   UNL     1     -13.122   7.147 -26.979  1.00  0.00     0.210 HD
ENDBRANCH  27  33
TORSDOF 2
ENDMDL
MODEL 4
REMARK VINA RESULT:    -7.338      1.669      3.441
REMARK INTER + INTRA:          -7.716
REMARK INTER:                  -8.024
REMARK INTRA:                   0.308
REMARK UNBOUND:                 0.265
REMARK SMILES CC1(C)CC[C@]2(C(=O)[O-])CC[C@@]3(C)C(=CC[C@@H]4[C@@]5(C)CC[C@H](O)C(C)(C)[C@H]5CC[C@@]43C)[C@H]2C1
REMARK SMILES IDX 6 1 5 2 10 3 32 4 4 5 11 6 14 7 33 8 2 9 12 10 15 11 1 12
REMARK SMILES IDX 3 13 13 14 30 15 16 16 17 17 29 18 31 19 18 20 28 21 27 22
REMARK SMILES IDX 20 23 19 24 24 25 21 26 22 27 25 28 26 29 7 30 8 31 9 32
REMARK SMILES IDX 23 33
REMARK H PARENT 23 34
REMARK Flexibility Score: inf
ROOT
ATOM      1  C   UNL     1     -12.152  11.107 -26.659  1.00  0.00     0.017 C 
ATOM      2  C   UNL     1     -11.306   9.974 -27.296  1.00  0.00     0.014 C 
ATOM      3  C   UNL     1     -12.560  12.167 -27.714  1.00  0.00     0.014 C 
ATOM      4  C   UNL     1     -11.212  11.850 -25.666  1.00  0.00     0.028 C 
ATOM      5  C   UNL     1     -10.780   8.993 -26.218  1.00  0.00     0.007 C 
ATOM      6  C   UNL     1     -13.360  13.366 -27.117  1.00  0.00     0.013 C 
ATOM      7  C   UNL     1     -11.622  13.287 -25.298  1.00  0.00    -0.064 C 
ATOM      8  C   UNL     1     -10.691  10.968 -24.516  1.00  0.00     0.015 C 
ATOM      9  C   UNL     1      -9.988   9.672 -25.050  1.00  0.00    -0.035 C 
ATOM     10  C   UNL     1     -13.022  13.827 -25.631  1.00  0.00    -0.006 C 
ATOM     11  C   UNL     1     -10.598  14.118 -25.049  1.00  0.00    -0.027 C 
ATOM     12  C   UNL     1      -9.875   8.668 -23.884  1.00  0.00     0.011 C 
ATOM     13  C   UNL     1      -8.551   9.999 -25.527  1.00  0.00     0.011 C 
ATOM     14  C   UNL     1     -14.036  13.165 -24.636  1.00  0.00     0.017 C 
ATOM     15  C   UNL     1     -13.150  15.443 -25.464  1.00  0.00    -0.020 C 
ATOM     16  C   UNL     1     -10.604  15.578 -25.332  1.00  0.00     0.032 C 
ATOM     17  C   UNL     1     -11.874  16.163 -26.044  1.00  0.00     0.006 C 
ATOM     18  C   UNL     1     -13.224  15.896 -23.967  1.00  0.00     0.008 C 
ATOM     19  C   UNL     1     -14.480  15.872 -26.176  1.00  0.00     0.012 C 
ATOM     20  C   UNL     1     -11.830  17.774 -25.961  1.00  0.00    -0.025 C 
ATOM     21  C   UNL     1     -13.257  17.425 -23.769  1.00  0.00     0.005 C 
ATOM     22  C   UNL     1     -12.165  18.279 -24.495  1.00  0.00     0.003 C 
ATOM     23  C   UNL     1     -12.737  18.488 -27.038  1.00  0.00     0.010 C 
ATOM     24  C   UNL     1     -10.358  18.188 -26.348  1.00  0.00     0.012 C 
ATOM     25  C   UNL     1     -12.530  19.827 -24.414  1.00  0.00    -0.006 C 
ATOM     26  C   UNL     1     -13.981  19.244 -26.533  1.00  0.00     0.033 C 
ATOM     27  C   UNL     1     -13.786  20.157 -25.299  1.00  0.00     0.120 C 
ATOM     28  C   UNL     1     -12.842  20.223 -22.940  1.00  0.00     0.014 C 
ATOM     29  C   UNL     1     -11.329  20.721 -24.834  1.00  0.00     0.014 C 
ENDROOT
BRANCH   1  30
ATOM     30  C   UNL     1     -13.404  10.432 -26.098  1.00  0.00     0.048 C 
ATOM     31  O   UNL     1     -14.257   9.943 -26.886  1.00  0.00    -0.550 OA
ATOM     32  O   UNL     1     -13.589  10.242 -24.735  1.00  0.00    -0.550 OA
ENDBRANCH   1  30
BRANCH  27  33
ATOM     33  O   UNL     1     -13.780  21.502 -25.719  1.00  0.00    -0.393 OA
ATOM     34  H   UNL     1     -14.631  21.909 -25.414  1.00  0.00     0.210 HD
ENDBRANCH  27  33
TORSDOF 2
ENDMDL
MODEL 5
REMARK VINA RESULT:    -7.180     12.198     17.221
REMARK INTER + INTRA:          -7.544
REMARK INTER:                  -7.810
REMARK INTRA:                   0.266
REMARK UNBOUND:                 0.265
REMARK SMILES CC1(C)CC[C@]2(C(=O)[O-])CC[C@@]3(C)C(=CC[C@@H]4[C@@]5(C)CC[C@H](O)C(C)(C)[C@H]5CC[C@@]43C)[C@H]2C1
REMARK SMILES IDX 6 1 5 2 10 3 32 4 4 5 11 6 14 7 33 8 2 9 12 10 15 11 1 12
REMARK SMILES IDX 3 13 13 14 30 15 16 16 17 17 29 18 31 19 18 20 28 21 27 22
REMARK SMILES IDX 20 23 19 24 24 25 21 26 22 27 25 28 26 29 7 30 8 31 9 32
REMARK SMILES IDX 23 33
REMARK H PARENT 23 34
REMARK Flexibility Score: inf
ROOT
ATOM      1  C   UNL     1      -8.247   9.108 -38.904  1.00  0.00     0.017 C 
ATOM      2  C   UNL     1      -9.743   8.865 -39.231  1.00  0.00     0.014 C 
ATOM      3  C   UNL     1      -7.324   8.426 -39.947  1.00  0.00     0.014 C 
ATOM      4  C   UNL     1      -7.967   8.376 -37.560  1.00  0.00     0.028 C 
ATOM      5  C   UNL     1     -10.659   9.424 -38.114  1.00  0.00     0.007 C 
ATOM      6  C   UNL     1      -5.804   8.584 -39.632  1.00  0.00     0.013 C 
ATOM      7  C   UNL     1      -6.495   8.025 -37.278  1.00  0.00    -0.064 C 
ATOM      8  C   UNL     1      -8.787   8.911 -36.371  1.00  0.00     0.015 C 
ATOM      9  C   UNL     1     -10.325   8.903 -36.675  1.00  0.00    -0.035 C 
ATOM     10  C   UNL     1      -5.356   8.640 -38.106  1.00  0.00    -0.006 C 
ATOM     11  C   UNL     1      -6.311   6.900 -36.570  1.00  0.00    -0.027 C 
ATOM     12  C   UNL     1     -11.026   9.815 -35.647  1.00  0.00     0.011 C 
ATOM     13  C   UNL     1     -10.899   7.475 -36.501  1.00  0.00     0.011 C 
ATOM     14  C   UNL     1      -5.201  10.136 -37.663  1.00  0.00     0.017 C 
ATOM     15  C   UNL     1      -3.919   7.905 -37.877  1.00  0.00    -0.020 C 
ATOM     16  C   UNL     1      -5.143   5.990 -36.714  1.00  0.00     0.032 C 
ATOM     17  C   UNL     1      -4.098   6.340 -37.832  1.00  0.00     0.006 C 
ATOM     18  C   UNL     1      -3.257   8.277 -36.508  1.00  0.00     0.008 C 
ATOM     19  C   UNL     1      -2.972   8.386 -39.031  1.00  0.00     0.012 C 
ATOM     20  C   UNL     1      -2.771   5.449 -37.611  1.00  0.00    -0.025 C 
ATOM     21  C   UNL     1      -1.938   7.532 -36.220  1.00  0.00     0.005 C 
ATOM     22  C   UNL     1      -1.931   5.974 -36.372  1.00  0.00     0.003 C 
ATOM     23  C   UNL     1      -1.873   5.321 -38.903  1.00  0.00     0.010 C 
ATOM     24  C   UNL     1      -3.277   3.981 -37.334  1.00  0.00     0.012 C 
ATOM     25  C   UNL     1      -0.439   5.420 -36.323  1.00  0.00    -0.006 C 
ATOM     26  C   UNL     1      -0.499   6.018 -38.888  1.00  0.00     0.033 C 
ATOM     27  C   UNL     1       0.359   5.835 -37.613  1.00  0.00     0.120 C 
ATOM     28  C   UNL     1       0.300   5.991 -35.076  1.00  0.00     0.014 C 
ATOM     29  C   UNL     1      -0.407   3.875 -36.147  1.00  0.00     0.014 C 
ENDROOT
BRANCH   1  30
ATOM     30  C   UNL     1      -8.047  10.623 -38.955  1.00  0.00     0.048 C 
ATOM     31  O   UNL     1      -7.981  11.208 -40.069  1.00  0.00    -0.550 OA
ATOM     32  O   UNL     1      -8.040  11.402 -37.805  1.00  0.00    -0.550 OA
ENDBRANCH   1  30
BRANCH  27  33
ATOM     33  O   UNL     1       1.401   4.929 -37.886  1.00  0.00    -0.393 OA
ATOM     34  H   UNL     1       2.136   5.126 -37.250  1.00  0.00     0.210 HD
ENDBRANCH  27  33
TORSDOF 2
ENDMDL
MODEL 6
REMARK VINA RESULT:    -6.902      5.102      8.162
REMARK INTER + INTRA:          -7.242
REMARK INTER:                  -7.512
REMARK INTRA:                   0.270
REMARK UNBOUND:                 0.265
REMARK SMILES CC1(C)CC[C@]2(C(=O)[O-])CC[C@@]3(C)C(=CC[C@@H]4[C@@]5(C)CC[C@H](O)C(C)(C)[C@H]5CC[C@@]43C)[C@H]2C1
REMARK SMILES IDX 6 1 5 2 10 3 32 4 4 5 11 6 14 7 33 8 2 9 12 10 15 11 1 12
REMARK SMILES IDX 3 13 13 14 30 15 16 16 17 17 29 18 31 19 18 20 28 21 27 22
REMARK SMILES IDX 20 23 19 24 24 25 21 26 22 27 25 28 26 29 7 30 8 31 9 32
REMARK SMILES IDX 23 33
REMARK H PARENT 23 34
REMARK Flexibility Score: inf
ROOT
ATOM      1  C   UNL     1      -4.997  16.175 -21.767  1.00  0.00     0.017 C 
ATOM      2  C   UNL     1      -3.760  15.887 -20.879  1.00  0.00     0.014 C 
ATOM      3  C   UNL     1      -6.273  16.379 -20.910  1.00  0.00     0.014 C 
ATOM      4  C   UNL     1      -5.255  14.881 -22.593  1.00  0.00     0.028 C 
ATOM      5  C   UNL     1      -2.519  15.544 -21.740  1.00  0.00     0.007 C 
ATOM      6  C   UNL     1      -7.563  16.608 -21.755  1.00  0.00     0.013 C 
ATOM      7  C   UNL     1      -6.679  14.710 -23.151  1.00  0.00    -0.064 C 
ATOM      8  C   UNL     1      -4.097  14.496 -23.533  1.00  0.00     0.015 C 
ATOM      9  C   UNL     1      -2.737  14.378 -22.762  1.00  0.00    -0.035 C 
ATOM     10  C   UNL     1      -7.676  15.880 -23.166  1.00  0.00    -0.006 C 
ATOM     11  C   UNL     1      -7.099  13.439 -23.240  1.00  0.00    -0.027 C 
ATOM     12  C   UNL     1      -1.592  14.409 -23.796  1.00  0.00     0.011 C 
ATOM     13  C   UNL     1      -2.658  13.022 -22.018  1.00  0.00     0.011 C 
ATOM     14  C   UNL     1      -7.231  16.868 -24.299  1.00  0.00     0.017 C 
ATOM     15  C   UNL     1      -9.208  15.422 -23.482  1.00  0.00    -0.020 C 
ATOM     16  C   UNL     1      -8.511  12.999 -23.080  1.00  0.00     0.032 C 
ATOM     17  C   UNL     1      -9.563  14.101 -22.701  1.00  0.00     0.006 C 
ATOM     18  C   UNL     1      -9.440  15.076 -24.991  1.00  0.00     0.008 C 
ATOM     19  C   UNL     1     -10.132  16.632 -23.105  1.00  0.00     0.012 C 
ATOM     20  C   UNL     1     -11.049  13.501 -22.899  1.00  0.00    -0.025 C 
ATOM     21  C   UNL     1     -10.855  14.555 -25.311  1.00  0.00     0.005 C 
ATOM     22  C   UNL     1     -11.417  13.384 -24.438  1.00  0.00     0.003 C 
ATOM     23  C   UNL     1     -12.160  14.286 -22.099  1.00  0.00     0.010 C 
ATOM     24  C   UNL     1     -11.027  12.067 -22.241  1.00  0.00     0.012 C 
ATOM     25  C   UNL     1     -12.972  13.183 -24.715  1.00  0.00    -0.006 C 
ATOM     26  C   UNL     1     -13.189  15.093 -22.914  1.00  0.00     0.033 C 
ATOM     27  C   UNL     1     -13.806  14.388 -24.146  1.00  0.00     0.120 C 
ATOM     28  C   UNL     1     -13.230  13.080 -26.248  1.00  0.00     0.014 C 
ATOM     29  C   UNL     1     -13.492  11.843 -24.120  1.00  0.00     0.014 C 
ENDROOT
BRANCH   1  30
ATOM     30  C   UNL     1      -4.679  17.463 -22.527  1.00  0.00     0.048 C 
ATOM     31  O   UNL     1      -4.762  18.574 -21.938  1.00  0.00    -0.550 OA
ATOM     32  O   UNL     1      -4.195  17.448 -23.829  1.00  0.00    -0.550 OA
ENDBRANCH   1  30
BRANCH  27  33
ATOM     33  O   UNL     1     -15.125  14.001 -23.840  1.00  0.00    -0.393 OA
ATOM     34  H   UNL     1     -15.392  14.489 -23.019  1.00  0.00     0.210 HD
ENDBRANCH  27  33
TORSDOF 2
ENDMDL
MODEL 7
REMARK VINA RESULT:    -6.848     13.591     16.413
REMARK INTER + INTRA:          -7.184
REMARK INTER:                  -7.447
REMARK INTRA:                   0.263
REMARK UNBOUND:                 0.265
REMARK SMILES CC1(C)CC[C@]2(C(=O)[O-])CC[C@@]3(C)C(=CC[C@@H]4[C@@]5(C)CC[C@H](O)C(C)(C)[C@H]5CC[C@@]43C)[C@H]2C1
REMARK SMILES IDX 6 1 5 2 10 3 32 4 4 5 11 6 14 7 33 8 2 9 12 10 15 11 1 12
REMARK SMILES IDX 3 13 13 14 30 15 16 16 17 17 29 18 31 19 18 20 28 21 27 22
REMARK SMILES IDX 20 23 19 24 24 25 21 26 22 27 25 28 26 29 7 30 8 31 9 32
REMARK SMILES IDX 23 33
REMARK H PARENT 23 34
REMARK Flexibility Score: inf
ROOT
ATOM      1  C   UNL     1      -6.089  17.967 -34.619  1.00  0.00     0.017 C 
ATOM      2  C   UNL     1      -6.705  18.672 -33.385  1.00  0.00     0.014 C 
ATOM      3  C   UNL     1      -5.435  16.616 -34.229  1.00  0.00     0.014 C 
ATOM      4  C   UNL     1      -4.917  18.871 -35.102  1.00  0.00     0.028 C 
ATOM      5  C   UNL     1      -7.231  20.083 -33.749  1.00  0.00     0.007 C 
ATOM      6  C   UNL     1      -4.740  15.891 -35.424  1.00  0.00     0.013 C 
ATOM      7  C   UNL     1      -3.841  18.180 -35.958  1.00  0.00    -0.064 C 
ATOM      8  C   UNL     1      -5.355  20.278 -35.551  1.00  0.00     0.015 C 
ATOM      9  C   UNL     1      -6.176  21.014 -34.437  1.00  0.00    -0.035 C 
ATOM     10  C   UNL     1      -4.075  16.785 -36.560  1.00  0.00    -0.006 C 
ATOM     11  C   UNL     1      -2.603  18.674 -35.811  1.00  0.00    -0.027 C 
ATOM     12  C   UNL     1      -6.918  22.201 -35.088  1.00  0.00     0.011 C 
ATOM     13  C   UNL     1      -5.224  21.592 -33.361  1.00  0.00     0.011 C 
ATOM     14  C   UNL     1      -5.080  16.945 -37.753  1.00  0.00     0.017 C 
ATOM     15  C   UNL     1      -2.719  16.096 -37.145  1.00  0.00    -0.020 C 
ATOM     16  C   UNL     1      -1.352  17.877 -35.928  1.00  0.00     0.032 C 
ATOM     17  C   UNL     1      -1.509  16.333 -36.163  1.00  0.00     0.006 C 
ATOM     18  C   UNL     1      -2.261  16.716 -38.508  1.00  0.00     0.008 C 
ATOM     19  C   UNL     1      -3.040  14.579 -37.376  1.00  0.00     0.012 C 
ATOM     20  C   UNL     1      -0.079  15.716 -36.587  1.00  0.00    -0.025 C 
ATOM     21  C   UNL     1      -0.933  16.148 -39.047  1.00  0.00     0.005 C 
ATOM     22  C   UNL     1       0.295  16.115 -38.077  1.00  0.00     0.003 C 
ATOM     23  C   UNL     1       0.029  14.158 -36.364  1.00  0.00     0.010 C 
ATOM     24  C   UNL     1       0.972  16.333 -35.586  1.00  0.00     0.012 C 
ATOM     25  C   UNL     1       1.470  15.241 -38.702  1.00  0.00    -0.006 C 
ATOM     26  C   UNL     1       0.115  13.262 -37.615  1.00  0.00     0.033 C 
ATOM     27  C   UNL     1       1.087  13.717 -38.729  1.00  0.00     0.120 C 
ATOM     28  C   UNL     1       1.762  15.707 -40.160  1.00  0.00     0.014 C 
ATOM     29  C   UNL     1       2.806  15.444 -37.932  1.00  0.00     0.014 C 
ENDROOT
BRANCH   1  30
ATOM     30  C   UNL     1      -7.249  17.716 -35.583  1.00  0.00     0.048 C 
ATOM     31  O   UNL     1      -8.062  16.781 -35.353  1.00  0.00    -0.550 OA
ATOM     32  O   UNL     1      -7.505  18.555 -36.660  1.00  0.00    -0.550 OA
ENDBRANCH   1  30
BRANCH  27  33
ATOM     33  O   UNL     1       2.233  12.899 -38.701  1.00  0.00    -0.393 OA
ATOM     34  H   UNL     1       2.464  12.684 -39.641  1.00  0.00     0.210 HD
ENDBRANCH  27  33
TORSDOF 2
ENDMDL
MODEL 8
REMARK VINA RESULT:    -6.717      1.965      4.044
REMARK INTER + INTRA:          -7.041
REMARK INTER:                  -7.307
REMARK INTRA:                   0.266
REMARK UNBOUND:                 0.265
REMARK SMILES CC1(C)CC[C@]2(C(=O)[O-])CC[C@@]3(C)C(=CC[C@@H]4[C@@]5(C)CC[C@H](O)C(C)(C)[C@H]5CC[C@@]43C)[C@H]2C1
REMARK SMILES IDX 6 1 5 2 10 3 32 4 4 5 11 6 14 7 33 8 2 9 12 10 15 11 1 12
REMARK SMILES IDX 3 13 13 14 30 15 16 16 17 17 29 18 31 19 18 20 28 21 27 22
REMARK SMILES IDX 20 23 19 24 24 25 21 26 22 27 25 28 26 29 7 30 8 31 9 32
REMARK SMILES IDX 23 33
REMARK H PARENT 23 34
REMARK Flexibility Score: inf
ROOT
ATOM      1  C   UNL     1     -10.536   9.924 -26.399  1.00  0.00     0.017 C 
ATOM      2  C   UNL     1      -9.235   9.121 -26.660  1.00  0.00     0.014 C 
ATOM      3  C   UNL     1     -10.698  11.082 -27.416  1.00  0.00     0.014 C 
ATOM      4  C   UNL     1     -10.357  10.610 -25.013  1.00  0.00     0.028 C 
ATOM      5  C   UNL     1      -9.003   8.057 -25.559  1.00  0.00     0.007 C 
ATOM      6  C   UNL     1     -11.959  11.965 -27.162  1.00  0.00     0.013 C 
ATOM      7  C   UNL     1     -11.243  11.841 -24.752  1.00  0.00    -0.064 C 
ATOM      8  C   UNL     1     -10.185   9.625 -23.842  1.00  0.00     0.015 C 
ATOM      9  C   UNL     1      -9.011   8.619 -24.097  1.00  0.00    -0.035 C 
ATOM     10  C   UNL     1     -12.440  12.169 -25.658  1.00  0.00    -0.006 C 
ATOM     11  C   UNL     1     -10.687  12.779 -23.970  1.00  0.00    -0.027 C 
ATOM     12  C   UNL     1      -9.166   7.437 -23.117  1.00  0.00     0.011 C 
ATOM     13  C   UNL     1      -7.649   9.296 -23.800  1.00  0.00     0.011 C 
ATOM     14  C   UNL     1     -13.578  11.142 -25.332  1.00  0.00     0.017 C 
ATOM     15  C   UNL     1     -13.042  13.665 -25.421  1.00  0.00    -0.020 C 
ATOM     16  C   UNL     1     -10.945  14.239 -24.083  1.00  0.00     0.032 C 
ATOM     17  C   UNL     1     -11.876  14.711 -25.255  1.00  0.00     0.006 C 
ATOM     18  C   UNL     1     -13.881  13.782 -24.105  1.00  0.00     0.008 C 
ATOM     19  C   UNL     1     -13.984  13.976 -26.636  1.00  0.00     0.012 C 
ATOM     20  C   UNL     1     -12.292  16.252 -25.011  1.00  0.00    -0.025 C 
ATOM     21  C   UNL     1     -14.392  15.205 -23.804  1.00  0.00     0.005 C 
ATOM     22  C   UNL     1     -13.355  16.376 -23.840  1.00  0.00     0.003 C 
ATOM     23  C   UNL     1     -12.783  16.989 -26.317  1.00  0.00     0.010 C 
ATOM     24  C   UNL     1     -10.963  17.001 -24.611  1.00  0.00     0.012 C 
ATOM     25  C   UNL     1     -14.105  17.780 -23.798  1.00  0.00    -0.006 C 
ATOM     26  C   UNL     1     -14.271  17.383 -26.397  1.00  0.00     0.033 C 
ATOM     27  C   UNL     1     -14.882  18.045 -25.139  1.00  0.00     0.120 C 
ATOM     28  C   UNL     1     -15.125  17.804 -22.620  1.00  0.00     0.014 C 
ATOM     29  C   UNL     1     -13.119  18.948 -23.510  1.00  0.00     0.014 C 
ENDROOT
BRANCH   1  30
ATOM     30  C   UNL     1     -11.684   8.929 -26.566  1.00  0.00     0.048 C 
ATOM     31  O   UNL     1     -12.058   8.594 -27.722  1.00  0.00    -0.550 OA
ATOM     32  O   UNL     1     -12.270   8.292 -25.479  1.00  0.00    -0.550 OA
ENDBRANCH   1  30
BRANCH  27  33
ATOM     33  O   UNL     1     -15.040  19.424 -25.377  1.00  0.00    -0.393 OA
ATOM     34  H   UNL     1     -15.812  19.530 -25.991  1.00  0.00     0.210 HD
ENDBRANCH  27  33
TORSDOF 2
ENDMDL
MODEL 9
REMARK VINA RESULT:    -6.701      4.178      7.490
REMARK INTER + INTRA:          -7.024
REMARK INTER:                  -7.292
REMARK INTRA:                   0.268
REMARK UNBOUND:                 0.265
REMARK SMILES CC1(C)CC[C@]2(C(=O)[O-])CC[C@@]3(C)C(=CC[C@@H]4[C@@]5(C)CC[C@H](O)C(C)(C)[C@H]5CC[C@@]43C)[C@H]2C1
REMARK SMILES IDX 6 1 5 2 10 3 32 4 4 5 11 6 14 7 33 8 2 9 12 10 15 11 1 12
REMARK SMILES IDX 3 13 13 14 30 15 16 16 17 17 29 18 31 19 18 20 28 21 27 22
REMARK SMILES IDX 20 23 19 24 24 25 21 26 22 27 25 28 26 29 7 30 8 31 9 32
REMARK SMILES IDX 23 33
REMARK H PARENT 23 34
REMARK Flexibility Score: inf
ROOT
ATOM      1  C   UNL     1     -13.524  18.204 -25.959  1.00  0.00     0.017 C 
ATOM      2  C   UNL     1     -14.708  17.370 -26.510  1.00  0.00     0.014 C 
ATOM      3  C   UNL     1     -13.012  19.221 -27.012  1.00  0.00     0.014 C 
ATOM      4  C   UNL     1     -12.349  17.208 -25.739  1.00  0.00     0.028 C 
ATOM      5  C   UNL     1     -15.124  16.260 -25.512  1.00  0.00     0.007 C 
ATOM      6  C   UNL     1     -11.777  20.046 -26.534  1.00  0.00     0.013 C 
ATOM      7  C   UNL     1     -10.940  17.826 -25.696  1.00  0.00    -0.064 C 
ATOM      8  C   UNL     1     -12.648  16.103 -24.709  1.00  0.00     0.015 C 
ATOM      9  C   UNL     1     -13.958  15.317 -25.062  1.00  0.00    -0.035 C 
ATOM     10  C   UNL     1     -10.739  19.343 -25.554  1.00  0.00    -0.006 C 
ATOM     11  C   UNL     1      -9.965  17.037 -26.173  1.00  0.00    -0.027 C 
ATOM     12  C   UNL     1     -14.409  14.541 -23.807  1.00  0.00     0.011 C 
ATOM     13  C   UNL     1     -13.678  14.279 -26.177  1.00  0.00     0.011 C 
ATOM     14  C   UNL     1     -11.076  19.730 -24.073  1.00  0.00     0.017 C 
ATOM     15  C   UNL     1      -9.212  19.825 -25.855  1.00  0.00    -0.020 C 
ATOM     16  C   UNL     1      -8.741  17.526 -26.862  1.00  0.00     0.032 C 
ATOM     17  C   UNL     1      -8.631  19.072 -27.112  1.00  0.00     0.006 C 
ATOM     18  C   UNL     1      -8.225  19.485 -24.689  1.00  0.00     0.008 C 
ATOM     19  C   UNL     1      -9.251  21.383 -26.031  1.00  0.00     0.012 C 
ATOM     20  C   UNL     1      -7.121  19.428 -27.556  1.00  0.00    -0.025 C 
ATOM     21  C   UNL     1      -6.754  19.848 -24.977  1.00  0.00     0.005 C 
ATOM     22  C   UNL     1      -6.128  19.347 -26.321  1.00  0.00     0.003 C 
ATOM     23  C   UNL     1      -6.992  20.809 -28.310  1.00  0.00     0.010 C 
ATOM     24  C   UNL     1      -6.722  18.350 -28.637  1.00  0.00     0.012 C 
ATOM     25  C   UNL     1      -4.725  20.055 -26.575  1.00  0.00    -0.006 C 
ATOM     26  C   UNL     1      -6.249  21.949 -27.586  1.00  0.00     0.033 C 
ATOM     27  C   UNL     1      -4.913  21.582 -26.899  1.00  0.00     0.120 C 
ATOM     28  C   UNL     1      -3.826  19.923 -25.309  1.00  0.00     0.014 C 
ATOM     29  C   UNL     1      -3.930  19.358 -27.716  1.00  0.00     0.014 C 
ENDROOT
BRANCH   1  30
ATOM     30  C   UNL     1     -14.068  18.954 -24.743  1.00  0.00     0.048 C 
ATOM     31  O   UNL     1     -14.791  19.974 -24.909  1.00  0.00    -0.550 OA
ATOM     32  O   UNL     1     -13.882  18.489 -23.448  1.00  0.00    -0.550 OA
ENDBRANCH   1  30
BRANCH  27  33
ATOM     33  O   UNL     1      -3.847  22.077 -27.674  1.00  0.00    -0.393 OA
ATOM     34  H   UNL     1      -3.547  22.925 -27.254  1.00  0.00     0.210 HD
ENDBRANCH  27  33
TORSDOF 2
ENDMDL
