MODEL 1
REMARK VINA RESULT:    -5.494      0.000      0.000
REMARK INTER + INTRA:          -6.090
REMARK INTER:                  -5.976
REMARK INTRA:                  -0.114
REMARK UNBOUND:                -0.114
REMARK SMILES Cc1ccc(C(C)C)cc1O
REMARK SMILES IDX 1 1 2 2 10 3 9 4 5 5 4 6 3 7 11 8 6 10 7 11 8 12
REMARK H PARENT 11 9
REMARK Flexibility Score: inf
ROOT
ATOM      1  C   UNL     1      17.631  27.769 -14.603  1.00  0.00     0.048 C 
ATOM      2  C   UNL     1      18.490  27.965 -13.385  1.00  0.00    -0.009 A 
ATOM      3  C   UNL     1      18.295  27.190 -12.220  1.00  0.00     0.118 A 
ATOM      4  C   UNL     1      19.112  27.398 -11.103  1.00  0.00     0.050 A 
ATOM      5  C   UNL     1      20.128  28.367 -11.119  1.00  0.00    -0.042 A 
ATOM      6  C   UNL     1      20.316  29.134 -12.283  1.00  0.00     0.004 A 
ATOM      7  C   UNL     1      19.505  28.934 -13.402  1.00  0.00     0.007 A 
ENDROOT
BRANCH   3   8
ATOM      8  O   UNL     1      17.302  26.211 -12.141  1.00  0.00    -0.508 OA
ATOM      9  H   UNL     1      16.514  26.274 -11.509  1.00  0.00     0.293 HD
ENDBRANCH   3   8
BRANCH   5  10
ATOM     10  C   UNL     1      21.001  28.574  -9.895  1.00  0.00     0.013 C 
ATOM     11  C   UNL     1      20.459  27.793  -8.692  1.00  0.00     0.012 C 
ATOM     12  C   UNL     1      22.458  28.198 -10.186  1.00  0.00     0.012 C 
ENDBRANCH   5  10
TORSDOF 2
ENDMDL
MODEL 2
REMARK VINA RESULT:    -5.260      8.002      9.363
REMARK INTER + INTRA:          -5.835
REMARK INTER:                  -5.710
REMARK INTRA:                  -0.125
REMARK UNBOUND:                -0.114
REMARK SMILES Cc1ccc(C(C)C)cc1O
REMARK SMILES IDX 1 1 2 2 10 3 9 4 5 5 4 6 3 7 11 8 6 10 7 11 8 12
REMARK H PARENT 11 9
REMARK Flexibility Score: inf
ROOT
ATOM      1  C   UNL     1      21.388  28.080 -23.449  1.00  0.00     0.048 C 
ATOM      2  C   UNL     1      21.765  28.625 -22.100  1.00  0.00    -0.009 A 
ATOM      3  C   UNL     1      21.418  29.940 -21.719  1.00  0.00     0.118 A 
ATOM      4  C   UNL     1      21.783  30.417 -20.455  1.00  0.00     0.050 A 
ATOM      5  C   UNL     1      22.493  29.608 -19.553  1.00  0.00    -0.042 A 
ATOM      6  C   UNL     1      22.834  28.300 -19.940  1.00  0.00     0.004 A 
ATOM      7  C   UNL     1      22.474  27.815 -21.199  1.00  0.00     0.007 A 
ENDROOT
BRANCH   3   8
ATOM      8  O   UNL     1      20.713  30.795 -22.570  1.00  0.00    -0.508 OA
ATOM      9  H   UNL     1      20.347  31.690 -22.274  1.00  0.00     0.293 HD
ENDBRANCH   3   8
BRANCH   5  10
ATOM     10  C   UNL     1      22.879  30.147 -18.188  1.00  0.00     0.013 C 
ATOM     11  C   UNL     1      22.042  29.495 -17.080  1.00  0.00     0.012 C 
ATOM     12  C   UNL     1      24.378  29.966 -17.927  1.00  0.00     0.012 C 
ENDBRANCH   5  10
TORSDOF 2
ENDMDL
MODEL 3
REMARK VINA RESULT:    -5.215     13.547     15.610
REMARK INTER + INTRA:          -5.786
REMARK INTER:                  -5.677
REMARK INTRA:                  -0.109
REMARK UNBOUND:                -0.114
REMARK SMILES Cc1ccc(C(C)C)cc1O
REMARK SMILES IDX 1 1 2 2 10 3 9 4 5 5 4 6 3 7 11 8 6 10 7 11 8 12
REMARK H PARENT 11 9
REMARK Flexibility Score: inf
ROOT
ATOM      1  C   UNL     1      36.099  31.983 -14.356  1.00  0.00     0.048 C 
ATOM      2  C   UNL     1      35.307  31.584 -13.141  1.00  0.00    -0.009 A 
ATOM      3  C   UNL     1      35.614  32.104 -11.864  1.00  0.00     0.118 A 
ATOM      4  C   UNL     1      34.858  31.713 -10.754  1.00  0.00     0.050 A 
ATOM      5  C   UNL     1      33.793  30.808 -10.886  1.00  0.00    -0.042 A 
ATOM      6  C   UNL     1      33.493  30.294 -12.161  1.00  0.00     0.004 A 
ATOM      7  C   UNL     1      34.242  30.679 -13.274  1.00  0.00     0.007 A 
ENDROOT
BRANCH   3   8
ATOM      8  O   UNL     1      36.661  33.008 -11.667  1.00  0.00    -0.508 OA
ATOM      9  H   UNL     1      37.044  33.217 -10.754  1.00  0.00     0.293 HD
ENDBRANCH   3   8
BRANCH   5  10
ATOM     10  C   UNL     1      32.987  30.398  -9.667  1.00  0.00     0.013 C 
ATOM     11  C   UNL     1      33.775  30.647  -8.375  1.00  0.00     0.012 C 
ATOM     12  C   UNL     1      31.632  31.114  -9.634  1.00  0.00     0.012 C 
ENDBRANCH   5  10
TORSDOF 2
ENDMDL
MODEL 4
REMARK VINA RESULT:    -5.158      1.780      4.449
REMARK INTER + INTRA:          -5.724
REMARK INTER:                  -5.598
REMARK INTRA:                  -0.126
REMARK UNBOUND:                -0.114
REMARK SMILES Cc1ccc(C(C)C)cc1O
REMARK SMILES IDX 1 1 2 2 10 3 9 4 5 5 4 6 3 7 11 8 6 10 7 11 8 12
REMARK H PARENT 11 9
REMARK Flexibility Score: inf
ROOT
ATOM      1  C   UNL     1      22.702  28.493  -8.440  1.00  0.00     0.048 C 
ATOM      2  C   UNL     1      21.772  28.501  -9.622  1.00  0.00    -0.009 A 
ATOM      3  C   UNL     1      20.406  28.170  -9.480  1.00  0.00     0.118 A 
ATOM      4  C   UNL     1      19.567  28.186 -10.599  1.00  0.00     0.050 A 
ATOM      5  C   UNL     1      20.061  28.528 -11.869  1.00  0.00    -0.042 A 
ATOM      6  C   UNL     1      21.421  28.856 -12.002  1.00  0.00     0.004 A 
ATOM      7  C   UNL     1      22.266  28.843 -10.890  1.00  0.00     0.007 A 
ENDROOT
BRANCH   3   8
ATOM      8  O   UNL     1      19.855  27.821  -8.244  1.00  0.00    -0.508 OA
ATOM      9  H   UNL     1      20.299  27.174  -7.605  1.00  0.00     0.293 HD
ENDBRANCH   3   8
BRANCH   5  10
ATOM     10  C   UNL     1      19.131  28.539 -13.068  1.00  0.00     0.013 C 
ATOM     11  C   UNL     1      19.919  28.410 -14.378  1.00  0.00     0.012 C 
ATOM     12  C   UNL     1      18.068  27.441 -12.953  1.00  0.00     0.012 C 
ENDBRANCH   5  10
TORSDOF 2
ENDMDL
MODEL 5
REMARK VINA RESULT:    -5.095      8.040     10.115
REMARK INTER + INTRA:          -5.656
REMARK INTER:                  -5.555
REMARK INTRA:                  -0.101
REMARK UNBOUND:                -0.114
REMARK SMILES Cc1ccc(C(C)C)cc1O
REMARK SMILES IDX 1 1 2 2 10 3 9 4 5 5 4 6 3 7 11 8 6 10 7 11 8 12
REMARK H PARENT 11 9
REMARK Flexibility Score: inf
ROOT
ATOM      1  C   UNL     1      24.304  29.669 -17.472  1.00  0.00     0.048 C 
ATOM      2  C   UNL     1      23.473  29.408 -18.698  1.00  0.00    -0.009 A 
ATOM      3  C   UNL     1      23.504  28.155 -19.350  1.00  0.00     0.118 A 
ATOM      4  C   UNL     1      22.718  27.945 -20.488  1.00  0.00     0.050 A 
ATOM      5  C   UNL     1      21.895  28.962 -20.998  1.00  0.00    -0.042 A 
ATOM      6  C   UNL     1      21.871  30.207 -20.344  1.00  0.00     0.004 A 
ATOM      7  C   UNL     1      22.651  30.426 -19.207  1.00  0.00     0.007 A 
ENDROOT
BRANCH   3   8
ATOM      8  O   UNL     1      24.301  27.104 -18.892  1.00  0.00    -0.508 OA
ATOM      9  H   UNL     1      24.087  26.571 -18.059  1.00  0.00     0.293 HD
ENDBRANCH   3   8
BRANCH   5  10
ATOM     10  C   UNL     1      21.053  28.711 -22.235  1.00  0.00     0.013 C 
ATOM     11  C   UNL     1      21.906  28.776 -23.507  1.00  0.00     0.012 C 
ATOM     12  C   UNL     1      20.311  27.373 -22.135  1.00  0.00     0.012 C 
ENDBRANCH   5  10
TORSDOF 2
ENDMDL
MODEL 6
REMARK VINA RESULT:    -5.065      4.866      6.178
REMARK INTER + INTRA:          -5.624
REMARK INTER:                  -5.497
REMARK INTRA:                  -0.126
REMARK UNBOUND:                -0.114
REMARK SMILES Cc1ccc(C(C)C)cc1O
REMARK SMILES IDX 1 1 2 2 10 3 9 4 5 5 4 6 3 7 11 8 6 10 7 11 8 12
REMARK H PARENT 11 9
REMARK Flexibility Score: inf
ROOT
ATOM      1  C   UNL     1      24.342  28.607 -18.778  1.00  0.00     0.048 C 
ATOM      2  C   UNL     1      23.253  28.448 -17.755  1.00  0.00    -0.009 A 
ATOM      3  C   UNL     1      23.505  27.837 -16.506  1.00  0.00     0.118 A 
ATOM      4  C   UNL     1      22.470  27.704 -15.575  1.00  0.00     0.050 A 
ATOM      5  C   UNL     1      21.176  28.170 -15.860  1.00  0.00    -0.042 A 
ATOM      6  C   UNL     1      20.932  28.777 -17.105  1.00  0.00     0.004 A 
ATOM      7  C   UNL     1      21.959  28.914 -18.041  1.00  0.00     0.007 A 
ENDROOT
BRANCH   3   8
ATOM      8  O   UNL     1      24.770  27.354 -16.163  1.00  0.00    -0.508 OA
ATOM      9  H   UNL     1      25.302  27.708 -15.378  1.00  0.00     0.293 HD
ENDBRANCH   3   8
BRANCH   5  10
ATOM     10  C   UNL     1      20.068  28.014 -14.834  1.00  0.00     0.013 C 
ATOM     11  C   UNL     1      20.494  28.576 -13.472  1.00  0.00     0.012 C 
ATOM     12  C   UNL     1      18.770  28.669 -15.320  1.00  0.00     0.012 C 
ENDBRANCH   5  10
TORSDOF 2
ENDMDL
MODEL 7
REMARK VINA RESULT:    -5.041      7.744      9.079
REMARK INTER + INTRA:          -5.597
REMARK INTER:                  -5.498
REMARK INTRA:                  -0.099
REMARK UNBOUND:                -0.114
REMARK SMILES Cc1ccc(C(C)C)cc1O
REMARK SMILES IDX 1 1 2 2 10 3 9 4 5 5 4 6 3 7 11 8 6 10 7 11 8 12
REMARK H PARENT 11 9
REMARK Flexibility Score: inf
ROOT
ATOM      1  C   UNL     1      21.364  28.076 -23.467  1.00  0.00     0.048 C 
ATOM      2  C   UNL     1      21.692  28.567 -22.084  1.00  0.00    -0.009 A 
ATOM      3  C   UNL     1      22.240  27.702 -21.111  1.00  0.00     0.118 A 
ATOM      4  C   UNL     1      22.534  28.190 -19.833  1.00  0.00     0.050 A 
ATOM      5  C   UNL     1      22.295  29.533 -19.499  1.00  0.00    -0.042 A 
ATOM      6  C   UNL     1      21.750  30.388 -20.473  1.00  0.00     0.004 A 
ATOM      7  C   UNL     1      21.453  29.910 -21.751  1.00  0.00     0.007 A 
ENDROOT
BRANCH   3   8
ATOM      8  O   UNL     1      22.501  26.357 -21.382  1.00  0.00    -0.508 OA
ATOM      9  H   UNL     1      23.308  26.046 -21.906  1.00  0.00     0.293 HD
ENDBRANCH   3   8
BRANCH   5  10
ATOM     10  C   UNL     1      22.622  30.040 -18.106  1.00  0.00     0.013 C 
ATOM     11  C   UNL     1      21.855  29.251 -17.037  1.00  0.00     0.012 C 
ATOM     12  C   UNL     1      24.132  30.000 -17.845  1.00  0.00     0.012 C 
ENDBRANCH   5  10
TORSDOF 2
ENDMDL
MODEL 8
REMARK VINA RESULT:    -4.982     17.592     18.609
REMARK INTER + INTRA:          -5.533
REMARK INTER:                  -5.407
REMARK INTRA:                  -0.126
REMARK UNBOUND:                -0.114
REMARK SMILES Cc1ccc(C(C)C)cc1O
REMARK SMILES IDX 1 1 2 2 10 3 9 4 5 5 4 6 3 7 11 8 6 10 7 11 8 12
REMARK H PARENT 11 9
REMARK Flexibility Score: inf
ROOT
ATOM      1  C   UNL     1      28.161  39.491 -24.147  1.00  0.00     0.048 C 
ATOM      2  C   UNL     1      29.361  38.813 -23.544  1.00  0.00    -0.009 A 
ATOM      3  C   UNL     1      29.315  38.268 -22.241  1.00  0.00     0.118 A 
ATOM      4  C   UNL     1      30.449  37.644 -21.709  1.00  0.00     0.050 A 
ATOM      5  C   UNL     1      31.638  37.548 -22.451  1.00  0.00    -0.042 A 
ATOM      6  C   UNL     1      31.675  38.092 -23.747  1.00  0.00     0.004 A 
ATOM      7  C   UNL     1      30.549  38.718 -24.286  1.00  0.00     0.007 A 
ENDROOT
BRANCH   3   8
ATOM      8  O   UNL     1      28.163  38.332 -21.454  1.00  0.00    -0.508 OA
ATOM      9  H   UNL     1      27.974  37.684 -20.700  1.00  0.00     0.293 HD
ENDBRANCH   3   8
BRANCH   5  10
ATOM     10  C   UNL     1      32.854  36.866 -21.853  1.00  0.00     0.013 C 
ATOM     11  C   UNL     1      32.443  35.721 -20.920  1.00  0.00     0.012 C 
ATOM     12  C   UNL     1      33.805  36.371 -22.948  1.00  0.00     0.012 C 
ENDBRANCH   5  10
TORSDOF 2
ENDMDL
MODEL 9
REMARK VINA RESULT:    -4.960     13.314     15.026
REMARK INTER + INTRA:          -5.510
REMARK INTER:                  -5.383
REMARK INTRA:                  -0.126
REMARK UNBOUND:                -0.114
REMARK SMILES Cc1ccc(C(C)C)cc1O
REMARK SMILES IDX 1 1 2 2 10 3 9 4 5 5 4 6 3 7 11 8 6 10 7 11 8 12
REMARK H PARENT 11 9
REMARK Flexibility Score: inf
ROOT
ATOM      1  C   UNL     1      32.656  30.336  -8.996  1.00  0.00     0.048 C 
ATOM      2  C   UNL     1      33.237  30.539 -10.368  1.00  0.00    -0.009 A 
ATOM      3  C   UNL     1      32.618  29.989 -11.513  1.00  0.00     0.118 A 
ATOM      4  C   UNL     1      33.184  30.196 -12.776  1.00  0.00     0.050 A 
ATOM      5  C   UNL     1      34.362  30.945 -12.927  1.00  0.00    -0.042 A 
ATOM      6  C   UNL     1      34.972  31.490 -11.783  1.00  0.00     0.004 A 
ATOM      7  C   UNL     1      34.415  31.288 -10.519  1.00  0.00     0.007 A 
ENDROOT
BRANCH   3   8
ATOM      8  O   UNL     1      31.446  29.234 -11.428  1.00  0.00    -0.508 OA
ATOM      9  H   UNL     1      30.557  29.555 -11.788  1.00  0.00     0.293 HD
ENDBRANCH   3   8
BRANCH   5  10
ATOM     10  C   UNL     1      34.957  31.156 -14.307  1.00  0.00     0.013 C 
ATOM     11  C   UNL     1      33.997  31.941 -15.209  1.00  0.00     0.012 C 
ATOM     12  C   UNL     1      36.322  31.848 -14.220  1.00  0.00     0.012 C 
ENDBRANCH   5  10
TORSDOF 2
ENDMDL
