MODEL 1
REMARK VINA RESULT:    -6.968      0.000      0.000
REMARK INTER + INTRA:          -6.968
REMARK INTER:                  -6.968
REMARK INTRA:                   0.000
REMARK UNBOUND:                 0.000
REMARK SMILES O=c1ccc2ccccc2o1
REMARK SMILES IDX 7 1 8 2 9 3 10 4 5 5 6 6 4 7 3 8 2 9 1 10 11 11
REMARK H PARENT
REMARK Flexibility Score: inf
ROOT
ATOM      1  C   UNL     1     -22.373 -13.925 -15.132  1.00  0.00     0.001 A 
ATOM      2  C   UNL     1     -23.476 -13.875 -15.992  1.00  0.00     0.004 A 
ATOM      3  C   UNL     1     -24.461 -14.867 -15.931  1.00  0.00     0.048 A 
ATOM      4  C   UNL     1     -24.345 -15.913 -15.009  1.00  0.00     0.138 A 
ATOM      5  C   UNL     1     -23.231 -15.964 -14.142  1.00  0.00     0.018 A 
ATOM      6  C   UNL     1     -22.247 -14.967 -14.208  1.00  0.00     0.012 A 
ATOM      7  C   UNL     1     -23.143 -17.021 -13.232  1.00  0.00     0.019 A 
ATOM      8  C   UNL     1     -24.147 -17.989 -13.206  1.00  0.00     0.094 A 
ATOM      9  C   UNL     1     -25.222 -17.873 -14.095  1.00  0.00     0.336 A 
ATOM     10  O   UNL     1     -26.139 -18.736 -14.087  1.00  0.00    -0.246 OA
ATOM     11  O   UNL     1     -25.282 -16.857 -14.952  1.00  0.00    -0.423 OA
ENDROOT
TORSDOF 0
ENDMDL
MODEL 2
REMARK VINA RESULT:    -6.819      1.117      2.289
REMARK INTER + INTRA:          -6.819
REMARK INTER:                  -6.819
REMARK INTRA:                   0.000
REMARK UNBOUND:                 0.000
REMARK SMILES O=c1ccc2ccccc2o1
REMARK SMILES IDX 7 1 8 2 9 3 10 4 5 5 6 6 4 7 3 8 2 9 1 10 11 11
REMARK H PARENT
REMARK Flexibility Score: inf
ROOT
ATOM      1  C   UNL     1     -21.501 -13.877 -14.513  1.00  0.00     0.001 A 
ATOM      2  C   UNL     1     -20.999 -15.010 -13.863  1.00  0.00     0.004 A 
ATOM      3  C   UNL     1     -21.797 -16.150 -13.719  1.00  0.00     0.048 A 
ATOM      4  C   UNL     1     -23.102 -16.161 -14.225  1.00  0.00     0.138 A 
ATOM      5  C   UNL     1     -23.609 -15.016 -14.880  1.00  0.00     0.018 A 
ATOM      6  C   UNL     1     -22.804 -13.876 -15.022  1.00  0.00     0.012 A 
ATOM      7  C   UNL     1     -24.916 -15.056 -15.375  1.00  0.00     0.019 A 
ATOM      8  C   UNL     1     -25.676 -16.214 -15.208  1.00  0.00     0.094 A 
ATOM      9  C   UNL     1     -25.107 -17.309 -14.549  1.00  0.00     0.336 A 
ATOM     10  O   UNL     1     -25.777 -18.363 -14.389  1.00  0.00    -0.246 OA
ATOM     11  O   UNL     1     -23.860 -17.244 -14.087  1.00  0.00    -0.423 OA
ENDROOT
TORSDOF 0
ENDMDL
MODEL 3
REMARK VINA RESULT:    -6.680      1.342      3.747
REMARK INTER + INTRA:          -6.680
REMARK INTER:                  -6.680
REMARK INTRA:                   0.000
REMARK UNBOUND:                 0.000
REMARK SMILES O=c1ccc2ccccc2o1
REMARK SMILES IDX 7 1 8 2 9 3 10 4 5 5 6 6 4 7 3 8 2 9 1 10 11 11
REMARK H PARENT
REMARK Flexibility Score: inf
ROOT
ATOM      1  C   UNL     1     -24.251 -18.346 -12.607  1.00  0.00     0.001 A 
ATOM      2  C   UNL     1     -25.353 -18.525 -13.451  1.00  0.00     0.004 A 
ATOM      3  C   UNL     1     -25.558 -17.661 -14.532  1.00  0.00     0.048 A 
ATOM      4  C   UNL     1     -24.661 -16.614 -14.773  1.00  0.00     0.138 A 
ATOM      5  C   UNL     1     -23.550 -16.434 -13.921  1.00  0.00     0.018 A 
ATOM      6  C   UNL     1     -23.349 -17.303 -12.839  1.00  0.00     0.012 A 
ATOM      7  C   UNL     1     -22.670 -15.380 -14.186  1.00  0.00     0.019 A 
ATOM      8  C   UNL     1     -22.914 -14.542 -15.275  1.00  0.00     0.094 A 
ATOM      9  C   UNL     1     -24.036 -14.782 -16.076  1.00  0.00     0.336 A 
ATOM     10  O   UNL     1     -24.273 -14.038 -17.064  1.00  0.00    -0.246 OA
ATOM     11  O   UNL     1     -24.857 -15.793 -15.801  1.00  0.00    -0.423 OA
ENDROOT
TORSDOF 0
ENDMDL
MODEL 4
REMARK VINA RESULT:    -6.547      1.056      2.081
REMARK INTER + INTRA:          -6.547
REMARK INTER:                  -6.547
REMARK INTRA:                   0.000
REMARK UNBOUND:                 0.000
REMARK SMILES O=c1ccc2ccccc2o1
REMARK SMILES IDX 7 1 8 2 9 3 10 4 5 5 6 6 4 7 3 8 2 9 1 10 11 11
REMARK H PARENT
REMARK Flexibility Score: inf
ROOT
ATOM      1  C   UNL     1     -23.154 -13.875 -15.987  1.00  0.00     0.001 A 
ATOM      2  C   UNL     1     -22.252 -14.090 -14.939  1.00  0.00     0.004 A 
ATOM      3  C   UNL     1     -22.445 -15.153 -14.050  1.00  0.00     0.048 A 
ATOM      4  C   UNL     1     -23.543 -16.007 -14.208  1.00  0.00     0.138 A 
ATOM      5  C   UNL     1     -24.454 -15.789 -15.265  1.00  0.00     0.018 A 
ATOM      6  C   UNL     1     -24.255 -14.722 -16.153  1.00  0.00     0.012 A 
ATOM      7  C   UNL     1     -25.541 -16.658 -15.398  1.00  0.00     0.019 A 
ATOM      8  C   UNL     1     -25.696 -17.705 -14.489  1.00  0.00     0.094 A 
ATOM      9  C   UNL     1     -24.753 -17.859 -13.466  1.00  0.00     0.336 A 
ATOM     10  O   UNL     1     -24.875 -18.798 -12.636  1.00  0.00    -0.246 OA
ATOM     11  O   UNL     1     -23.727 -17.017 -13.362  1.00  0.00    -0.423 OA
ENDROOT
TORSDOF 0
ENDMDL
MODEL 5
REMARK VINA RESULT:    -6.227      1.614      3.841
REMARK INTER + INTRA:          -6.227
REMARK INTER:                  -6.227
REMARK INTRA:                   0.000
REMARK UNBOUND:                 0.000
REMARK SMILES O=c1ccc2ccccc2o1
REMARK SMILES IDX 7 1 8 2 9 3 10 4 5 5 6 6 4 7 3 8 2 9 1 10 11 11
REMARK H PARENT
REMARK Flexibility Score: inf
ROOT
ATOM      1  C   UNL     1     -25.050 -18.748 -13.001  1.00  0.00     0.001 A 
ATOM      2  C   UNL     1     -25.896 -18.374 -14.052  1.00  0.00     0.004 A 
ATOM      3  C   UNL     1     -25.561 -17.292 -14.874  1.00  0.00     0.048 A 
ATOM      4  C   UNL     1     -24.378 -16.580 -14.647  1.00  0.00     0.138 A 
ATOM      5  C   UNL     1     -23.525 -16.957 -13.585  1.00  0.00     0.018 A 
ATOM      6  C   UNL     1     -23.866 -18.042 -12.765  1.00  0.00     0.012 A 
ATOM      7  C   UNL     1     -22.351 -16.226 -13.383  1.00  0.00     0.019 A 
ATOM      8  C   UNL     1     -22.057 -15.154 -14.226  1.00  0.00     0.094 A 
ATOM      9  C   UNL     1     -22.949 -14.839 -15.257  1.00  0.00     0.336 A 
ATOM     10  O   UNL     1     -22.702 -13.875 -16.028  1.00  0.00    -0.246 OA
ATOM     11  O   UNL     1     -24.061 -15.550 -15.427  1.00  0.00    -0.423 OA
ENDROOT
TORSDOF 0
ENDMDL
MODEL 6
REMARK VINA RESULT:    -6.196      2.249      4.253
REMARK INTER + INTRA:          -6.196
REMARK INTER:                  -6.196
REMARK INTRA:                   0.000
REMARK UNBOUND:                 0.000
REMARK SMILES O=c1ccc2ccccc2o1
REMARK SMILES IDX 7 1 8 2 9 3 10 4 5 5 6 6 4 7 3 8 2 9 1 10 11 11
REMARK H PARENT
REMARK Flexibility Score: inf
ROOT
ATOM      1  C   UNL     1     -25.549 -17.073 -14.893  1.00  0.00     0.001 A 
ATOM      2  C   UNL     1     -24.794 -17.964 -14.122  1.00  0.00     0.004 A 
ATOM      3  C   UNL     1     -23.520 -17.601 -13.672  1.00  0.00     0.048 A 
ATOM      4  C   UNL     1     -22.996 -16.343 -13.992  1.00  0.00     0.138 A 
ATOM      5  C   UNL     1     -23.758 -15.444 -14.772  1.00  0.00     0.018 A 
ATOM      6  C   UNL     1     -25.034 -15.814 -15.220  1.00  0.00     0.012 A 
ATOM      7  C   UNL     1     -23.208 -14.195 -15.076  1.00  0.00     0.019 A 
ATOM      8  C   UNL     1     -21.934 -13.875 -14.607  1.00  0.00     0.094 A 
ATOM      9  C   UNL     1     -21.238 -14.816 -13.840  1.00  0.00     0.336 A 
ATOM     10  O   UNL     1     -20.087 -14.546 -13.407  1.00  0.00    -0.246 OA
ATOM     11  O   UNL     1     -21.784 -15.998 -13.565  1.00  0.00    -0.423 OA
ENDROOT
TORSDOF 0
ENDMDL
MODEL 7
REMARK VINA RESULT:    -6.009      2.010      3.743
REMARK INTER + INTRA:          -6.009
REMARK INTER:                  -6.009
REMARK INTRA:                   0.000
REMARK UNBOUND:                 0.000
REMARK SMILES O=c1ccc2ccccc2o1
REMARK SMILES IDX 7 1 8 2 9 3 10 4 5 5 6 6 4 7 3 8 2 9 1 10 11 11
REMARK H PARENT
REMARK Flexibility Score: inf
ROOT
ATOM      1  C   UNL     1     -25.794 -17.990 -14.302  1.00  0.00     0.001 A 
ATOM      2  C   UNL     1     -26.188 -16.939 -15.138  1.00  0.00     0.004 A 
ATOM      3  C   UNL     1     -25.302 -15.892 -15.417  1.00  0.00     0.048 A 
ATOM      4  C   UNL     1     -24.019 -15.892 -14.858  1.00  0.00     0.138 A 
ATOM      5  C   UNL     1     -23.622 -16.953 -14.013  1.00  0.00     0.018 A 
ATOM      6  C   UNL     1     -24.514 -18.000 -13.738  1.00  0.00     0.012 A 
ATOM      7  C   UNL     1     -22.334 -16.926 -13.471  1.00  0.00     0.019 A 
ATOM      8  C   UNL     1     -21.485 -15.862 -13.774  1.00  0.00     0.094 A 
ATOM      9  C   UNL     1     -21.946 -14.847 -14.620  1.00  0.00     0.336 A 
ATOM     10  O   UNL     1     -21.195 -13.878 -14.906  1.00  0.00    -0.246 OA
ATOM     11  O   UNL     1     -23.178 -14.896 -15.123  1.00  0.00    -0.423 OA
ENDROOT
TORSDOF 0
ENDMDL
MODEL 8
REMARK VINA RESULT:    -5.467      1.977      2.655
REMARK INTER + INTRA:          -5.467
REMARK INTER:                  -5.467
REMARK INTRA:                   0.000
REMARK UNBOUND:                 0.000
REMARK SMILES O=c1ccc2ccccc2o1
REMARK SMILES IDX 7 1 8 2 9 3 10 4 5 5 6 6 4 7 3 8 2 9 1 10 11 11
REMARK H PARENT
REMARK Flexibility Score: inf
ROOT
ATOM      1  C   UNL     1     -25.285 -14.528 -15.032  1.00  0.00     0.001 A 
ATOM      2  C   UNL     1     -26.023 -15.709 -15.163  1.00  0.00     0.004 A 
ATOM      3  C   UNL     1     -25.412 -16.949 -14.946  1.00  0.00     0.048 A 
ATOM      4  C   UNL     1     -24.058 -17.011 -14.597  1.00  0.00     0.138 A 
ATOM      5  C   UNL     1     -23.313 -15.818 -14.466  1.00  0.00     0.018 A 
ATOM      6  C   UNL     1     -23.931 -14.579 -14.684  1.00  0.00     0.012 A 
ATOM      7  C   UNL     1     -21.962 -15.912 -14.117  1.00  0.00     0.019 A 
ATOM      8  C   UNL     1     -21.393 -17.169 -13.911  1.00  0.00     0.094 A 
ATOM      9  C   UNL     1     -22.194 -18.308 -14.058  1.00  0.00     0.336 A 
ATOM     10  O   UNL     1     -21.700 -19.451 -13.877  1.00  0.00    -0.246 OA
ATOM     11  O   UNL     1     -23.477 -18.190 -14.392  1.00  0.00    -0.423 OA
ENDROOT
TORSDOF 0
ENDMDL
MODEL 9
REMARK VINA RESULT:    -4.986      1.884      4.347
REMARK INTER + INTRA:          -4.986
REMARK INTER:                  -4.986
REMARK INTRA:                   0.000
REMARK UNBOUND:                 0.000
REMARK SMILES O=c1ccc2ccccc2o1
REMARK SMILES IDX 7 1 8 2 9 3 10 4 5 5 6 6 4 7 3 8 2 9 1 10 11 11
REMARK H PARENT
REMARK Flexibility Score: inf
ROOT
ATOM      1  C   UNL     1     -25.605 -18.266 -13.900  1.00  0.00     0.001 A 
ATOM      2  C   UNL     1     -24.572 -18.374 -12.962  1.00  0.00     0.004 A 
ATOM      3  C   UNL     1     -23.496 -17.480 -12.994  1.00  0.00     0.048 A 
ATOM      4  C   UNL     1     -23.450 -16.474 -13.965  1.00  0.00     0.138 A 
ATOM      5  C   UNL     1     -24.493 -16.365 -14.912  1.00  0.00     0.018 A 
ATOM      6  C   UNL     1     -25.569 -17.264 -14.875  1.00  0.00     0.012 A 
ATOM      7  C   UNL     1     -24.420 -15.349 -15.870  1.00  0.00     0.019 A 
ATOM      8  C   UNL     1     -23.329 -14.481 -15.866  1.00  0.00     0.094 A 
ATOM      9  C   UNL     1     -22.333 -14.649 -14.897  1.00  0.00     0.336 A 
ATOM     10  O   UNL     1     -21.340 -13.875 -14.876  1.00  0.00    -0.246 OA
ATOM     11  O   UNL     1     -22.427 -15.624 -13.996  1.00  0.00    -0.423 OA
ENDROOT
TORSDOF 0
ENDMDL
