MODEL 1
REMARK VINA RESULT:    -2.975      0.000      0.000
REMARK INTER + INTRA:         -13.421
REMARK INTER:                  -7.846
REMARK INTRA:                  -5.576
REMARK UNBOUND:                -5.576
REMARK SMILES CCCCCCCCCCCCCCCCCCCCCCCCCCCCCC(=O)[O-]
REMARK SMILES IDX 16 1 17 2 18 3 19 4 20 5 21 6 22 7 23 8 24 9 25 10 26 11
REMARK SMILES IDX 27 12 28 13 29 14 30 15 31 16 32 17 15 18 14 19 13 20 12 21
REMARK SMILES IDX 11 22 10 23 9 24 8 25 7 26 6 27 5 28 4 29 3 30 2 31 1 32
REMARK H PARENT
REMARK Flexibility Score: inf
ROOT
ATOM      1  C   UNL     1     -16.062 -14.595  26.307  1.00  0.00     0.000 C 
ENDROOT
BRANCH   1   2
ATOM      2  C   UNL     1     -15.417 -15.918  26.757  1.00  0.00     0.000 C 
BRANCH   2   3
ATOM      3  C   UNL     1     -15.887 -16.365  28.153  1.00  0.00     0.000 C 
BRANCH   3   4
ATOM      4  C   UNL     1     -15.060 -17.497  28.792  1.00  0.00     0.000 C 
BRANCH   4   5
ATOM      5  C   UNL     1     -14.056 -17.048  29.875  1.00  0.00     0.000 C 
BRANCH   5   6
ATOM      6  C   UNL     1     -12.657 -16.670  29.353  1.00  0.00     0.000 C 
BRANCH   6   7
ATOM      7  C   UNL     1     -12.229 -15.216  29.630  1.00  0.00     0.000 C 
BRANCH   7   8
ATOM      8  C   UNL     1     -13.064 -14.166  28.867  1.00  0.00     0.000 C 
BRANCH   8   9
ATOM      9  C   UNL     1     -13.722 -13.142  29.808  1.00  0.00     0.000 C 
BRANCH   9  10
ATOM     10  C   UNL     1     -14.880 -13.742  30.620  1.00  0.00     0.000 C 
BRANCH  10  11
ATOM     11  C   UNL     1     -16.187 -12.948  30.466  1.00  0.00     0.000 C 
BRANCH  11  12
ATOM     12  C   UNL     1     -16.077 -11.928  29.323  1.00  0.00     0.000 C 
BRANCH  12  13
ATOM     13  C   UNL     1     -16.928 -10.671  29.563  1.00  0.00     0.006 C 
BRANCH  13  14
ATOM     14  C   UNL     1     -18.155 -10.600  28.642  1.00  0.00     0.053 C 
BRANCH  14  15
ATOM     15  C   UNL     1     -17.955  -9.579  27.565  1.00  0.00     0.041 C 
ATOM     16  O   UNL     1     -16.816  -9.078  27.371  1.00  0.00    -0.550 OA
ATOM     17  O   UNL     1     -19.019  -9.202  26.754  1.00  0.00    -0.550 OA
ENDBRANCH  14  15
ENDBRANCH  13  14
ENDBRANCH  12  13
ENDBRANCH  11  12
ENDBRANCH  10  11
ENDBRANCH   9  10
ENDBRANCH   8   9
ENDBRANCH   7   8
ENDBRANCH   6   7
ENDBRANCH   5   6
ENDBRANCH   4   5
ENDBRANCH   3   4
ENDBRANCH   2   3
ENDBRANCH   1   2
BRANCH   1  18
ATOM     18  C   UNL     1     -17.399 -14.306  27.018  1.00  0.00     0.000 C 
BRANCH  18  19
ATOM     19  C   UNL     1     -18.277 -13.228  26.359  1.00  0.00     0.000 C 
BRANCH  19  20
ATOM     20  C   UNL     1     -17.577 -12.511  25.192  1.00  0.00     0.000 C 
BRANCH  20  21
ATOM     21  C   UNL     1     -18.577 -11.860  24.219  1.00  0.00     0.000 C 
BRANCH  21  22
ATOM     22  C   UNL     1     -18.552 -12.453  22.798  1.00  0.00     0.000 C 
BRANCH  22  23
ATOM     23  C   UNL     1     -17.766 -13.776  22.724  1.00  0.00     0.000 C 
BRANCH  23  24
ATOM     24  C   UNL     1     -18.688 -15.004  22.569  1.00  0.00    -0.000 C 
BRANCH  24  25
ATOM     25  C   UNL     1     -18.949 -15.774  23.880  1.00  0.00    -0.000 C 
BRANCH  25  26
ATOM     26  C   UNL     1     -18.171 -17.090  24.035  1.00  0.00    -0.000 C 
BRANCH  26  27
ATOM     27  C   UNL     1     -18.284 -17.693  25.443  1.00  0.00    -0.000 C 
BRANCH  27  28
ATOM     28  C   UNL     1     -19.597 -17.269  26.117  1.00  0.00    -0.000 C 
BRANCH  28  29
ATOM     29  C   UNL     1     -19.458 -17.135  27.643  1.00  0.00    -0.000 C 
BRANCH  29  30
ATOM     30  C   UNL     1     -20.034 -18.353  28.391  1.00  0.00    -0.000 C 
BRANCH  30  31
ATOM     31  C   UNL     1     -19.839 -18.257  29.911  1.00  0.00    -0.003 C 
ATOM     32  C   UNL     1     -18.761 -17.246  30.299  1.00  0.00     0.004 C 
ENDBRANCH  30  31
ENDBRANCH  29  30
ENDBRANCH  28  29
ENDBRANCH  27  28
ENDBRANCH  26  27
ENDBRANCH  25  26
ENDBRANCH  24  25
ENDBRANCH  23  24
ENDBRANCH  22  23
ENDBRANCH  21  22
ENDBRANCH  20  21
ENDBRANCH  19  20
ENDBRANCH  18  19
ENDBRANCH   1  18
TORSDOF 28
ENDMDL
MODEL 2
REMARK VINA RESULT:    -2.951     10.071     13.022
REMARK INTER + INTRA:         -13.358
REMARK INTER:                  -8.541
REMARK INTRA:                  -4.817
REMARK UNBOUND:                -5.576
REMARK SMILES CCCCCCCCCCCCCCCCCCCCCCCCCCCCCC(=O)[O-]
REMARK SMILES IDX 16 1 17 2 18 3 19 4 20 5 21 6 22 7 23 8 24 9 25 10 26 11
REMARK SMILES IDX 27 12 28 13 29 14 30 15 31 16 32 17 15 18 14 19 13 20 12 21
REMARK SMILES IDX 11 22 10 23 9 24 8 25 7 26 6 27 5 28 4 29 3 30 2 31 1 32
REMARK H PARENT
REMARK Flexibility Score: inf
ROOT
ATOM      1  C   UNL     1     -11.014 -19.841  20.647  1.00  0.00     0.000 C 
ENDROOT
BRANCH   1   2
ATOM      2  C   UNL     1     -10.510 -21.196  20.118  1.00  0.00     0.000 C 
BRANCH   2   3
ATOM      3  C   UNL     1     -11.610 -22.272  20.095  1.00  0.00     0.000 C 
BRANCH   3   4
ATOM      4  C   UNL     1     -11.314 -23.531  20.933  1.00  0.00     0.000 C 
BRANCH   4   5
ATOM      5  C   UNL     1     -12.322 -23.819  22.066  1.00  0.00     0.000 C 
BRANCH   5   6
ATOM      6  C   UNL     1     -11.854 -23.413  23.477  1.00  0.00     0.000 C 
BRANCH   6   7
ATOM      7  C   UNL     1     -12.696 -22.313  24.150  1.00  0.00     0.000 C 
BRANCH   7   8
ATOM      8  C   UNL     1     -12.898 -21.059  23.273  1.00  0.00     0.000 C 
BRANCH   8   9
ATOM      9  C   UNL     1     -14.383 -20.771  22.992  1.00  0.00     0.000 C 
BRANCH   9  10
ATOM     10  C   UNL     1     -14.926 -21.571  21.797  1.00  0.00     0.000 C 
BRANCH  10  11
ATOM     11  C   UNL     1     -15.893 -22.688  22.221  1.00  0.00     0.000 C 
BRANCH  11  12
ATOM     12  C   UNL     1     -16.410 -22.452  23.649  1.00  0.00     0.000 C 
BRANCH  12  13
ATOM     13  C   UNL     1     -16.111 -23.629  24.592  1.00  0.00     0.006 C 
BRANCH  13  14
ATOM     14  C   UNL     1     -15.478 -24.825  23.866  1.00  0.00     0.053 C 
BRANCH  14  15
ATOM     15  C   UNL     1     -14.552 -25.572  24.776  1.00  0.00     0.041 C 
ATOM     16  O   UNL     1     -13.668 -26.330  24.297  1.00  0.00    -0.550 OA
ATOM     17  O   UNL     1     -14.644 -25.407  26.154  1.00  0.00    -0.550 OA
ENDBRANCH  14  15
ENDBRANCH  13  14
ENDBRANCH  12  13
ENDBRANCH  11  12
ENDBRANCH  10  11
ENDBRANCH   9  10
ENDBRANCH   8   9
ENDBRANCH   7   8
ENDBRANCH   6   7
ENDBRANCH   5   6
ENDBRANCH   4   5
ENDBRANCH   3   4
ENDBRANCH   2   3
ENDBRANCH   1   2
BRANCH   1  18
ATOM     18  C   UNL     1     -12.426 -19.488  20.144  1.00  0.00     0.000 C 
BRANCH  18  19
ATOM     19  C   UNL     1     -12.552 -18.130  19.431  1.00  0.00     0.000 C 
BRANCH  19  20
ATOM     20  C   UNL     1     -12.780 -18.263  17.915  1.00  0.00     0.000 C 
BRANCH  20  21
ATOM     21  C   UNL     1     -11.477 -18.101  17.110  1.00  0.00     0.000 C 
BRANCH  21  22
ATOM     22  C   UNL     1     -10.752 -19.426  16.810  1.00  0.00     0.000 C 
BRANCH  22  23
ATOM     23  C   UNL     1      -9.221 -19.300  16.923  1.00  0.00     0.000 C 
BRANCH  23  24
ATOM     24  C   UNL     1      -8.783 -18.497  18.166  1.00  0.00    -0.000 C 
BRANCH  24  25
ATOM     25  C   UNL     1      -7.559 -19.080  18.903  1.00  0.00    -0.000 C 
BRANCH  25  26
ATOM     26  C   UNL     1      -7.593 -18.956  20.434  1.00  0.00    -0.000 C 
BRANCH  26  27
ATOM     27  C   UNL     1      -6.313 -18.338  21.016  1.00  0.00    -0.000 C 
BRANCH  27  28
ATOM     28  C   UNL     1      -5.901 -19.050  22.312  1.00  0.00    -0.000 C 
BRANCH  28  29
ATOM     29  C   UNL     1      -4.556 -19.783  22.179  1.00  0.00    -0.000 C 
BRANCH  29  30
ATOM     30  C   UNL     1      -3.739 -19.289  20.968  1.00  0.00    -0.000 C 
BRANCH  30  31
ATOM     31  C   UNL     1      -3.334 -20.432  20.026  1.00  0.00    -0.003 C 
ATOM     32  C   UNL     1      -4.507 -21.348  19.679  1.00  0.00     0.004 C 
ENDBRANCH  30  31
ENDBRANCH  29  30
ENDBRANCH  28  29
ENDBRANCH  27  28
ENDBRANCH  26  27
ENDBRANCH  25  26
ENDBRANCH  24  25
ENDBRANCH  23  24
ENDBRANCH  22  23
ENDBRANCH  21  22
ENDBRANCH  20  21
ENDBRANCH  19  20
ENDBRANCH  18  19
ENDBRANCH   1  18
TORSDOF 28
ENDMDL
MODEL 3
REMARK VINA RESULT:    -2.939      2.748      8.503
REMARK INTER + INTRA:         -13.326
REMARK INTER:                  -7.393
REMARK INTRA:                  -5.933
REMARK UNBOUND:                -5.576
REMARK SMILES CCCCCCCCCCCCCCCCCCCCCCCCCCCCCC(=O)[O-]
REMARK SMILES IDX 16 1 17 2 18 3 19 4 20 5 21 6 22 7 23 8 24 9 25 10 26 11
REMARK SMILES IDX 27 12 28 13 29 14 30 15 31 16 32 17 15 18 14 19 13 20 12 21
REMARK SMILES IDX 11 22 10 23 9 24 8 25 7 26 6 27 5 28 4 29 3 30 2 31 1 32
REMARK H PARENT
REMARK Flexibility Score: inf
ROOT
ATOM      1  C   UNL     1     -13.819 -14.183  30.492  1.00  0.00     0.000 C 
ENDROOT
BRANCH   1   2
ATOM      2  C   UNL     1     -14.538 -12.860  30.812  1.00  0.00     0.000 C 
BRANCH   2   3
ATOM      3  C   UNL     1     -14.884 -12.050  29.550  1.00  0.00     0.000 C 
BRANCH   3   4
ATOM      4  C   UNL     1     -16.383 -11.995  29.197  1.00  0.00     0.000 C 
BRANCH   4   5
ATOM      5  C   UNL     1     -16.830 -12.955  28.073  1.00  0.00     0.000 C 
BRANCH   5   6
ATOM      6  C   UNL     1     -17.942 -13.946  28.464  1.00  0.00     0.000 C 
BRANCH   6   7
ATOM      7  C   UNL     1     -17.674 -14.753  29.748  1.00  0.00     0.000 C 
BRANCH   7   8
ATOM      8  C   UNL     1     -16.701 -15.934  29.548  1.00  0.00     0.000 C 
BRANCH   8   9
ATOM      9  C   UNL     1     -16.962 -16.696  28.237  1.00  0.00     0.000 C 
BRANCH   9  10
ATOM     10  C   UNL     1     -15.742 -16.703  27.303  1.00  0.00     0.000 C 
BRANCH  10  11
ATOM     11  C   UNL     1     -15.962 -15.867  26.032  1.00  0.00     0.000 C 
BRANCH  11  12
ATOM     12  C   UNL     1     -17.255 -16.288  25.317  1.00  0.00     0.000 C 
BRANCH  12  13
ATOM     13  C   UNL     1     -18.096 -15.088  24.852  1.00  0.00     0.006 C 
BRANCH  13  14
ATOM     14  C   UNL     1     -17.240 -13.858  24.517  1.00  0.00     0.053 C 
BRANCH  14  15
ATOM     15  C   UNL     1     -18.104 -12.700  24.121  1.00  0.00     0.041 C 
ATOM     16  O   UNL     1     -18.581 -11.936  25.002  1.00  0.00    -0.550 OA
ATOM     17  O   UNL     1     -18.357 -12.444  22.779  1.00  0.00    -0.550 OA
ENDBRANCH  14  15
ENDBRANCH  13  14
ENDBRANCH  12  13
ENDBRANCH  11  12
ENDBRANCH  10  11
ENDBRANCH   9  10
ENDBRANCH   8   9
ENDBRANCH   7   8
ENDBRANCH   6   7
ENDBRANCH   5   6
ENDBRANCH   4   5
ENDBRANCH   3   4
ENDBRANCH   2   3
ENDBRANCH   1   2
BRANCH   1  18
ATOM     18  C   UNL     1     -13.367 -14.280  29.022  1.00  0.00     0.000 C 
BRANCH  18  19
ATOM     19  C   UNL     1     -12.598 -15.560  28.652  1.00  0.00     0.000 C 
BRANCH  19  20
ATOM     20  C   UNL     1     -12.931 -16.750  29.568  1.00  0.00     0.000 C 
BRANCH  20  21
ATOM     21  C   UNL     1     -11.728 -17.690  29.771  1.00  0.00     0.000 C 
BRANCH  21  22
ATOM     22  C   UNL     1     -10.587 -17.082  30.607  1.00  0.00     0.000 C 
BRANCH  22  23
ATOM     23  C   UNL     1     -11.051 -16.646  32.010  1.00  0.00     0.000 C 
BRANCH  23  24
ATOM     24  C   UNL     1      -9.872 -16.274  32.934  1.00  0.00    -0.000 C 
BRANCH  24  25
ATOM     25  C   UNL     1      -8.520 -16.892  32.522  1.00  0.00    -0.000 C 
BRANCH  25  26
ATOM     26  C   UNL     1      -7.452 -15.889  32.061  1.00  0.00    -0.000 C 
BRANCH  26  27
ATOM     27  C   UNL     1      -7.994 -14.459  31.914  1.00  0.00    -0.000 C 
BRANCH  27  28
ATOM     28  C   UNL     1      -8.098 -14.062  30.434  1.00  0.00    -0.000 C 
BRANCH  28  29
ATOM     29  C   UNL     1      -9.545 -13.768  30.004  1.00  0.00    -0.000 C 
BRANCH  29  30
ATOM     30  C   UNL     1     -10.334 -13.009  31.088  1.00  0.00    -0.000 C 
BRANCH  30  31
ATOM     31  C   UNL     1     -11.005 -11.739  30.546  1.00  0.00    -0.003 C 
ATOM     32  C   UNL     1     -10.855 -11.598  29.032  1.00  0.00     0.004 C 
ENDBRANCH  30  31
ENDBRANCH  29  30
ENDBRANCH  28  29
ENDBRANCH  27  28
ENDBRANCH  26  27
ENDBRANCH  25  26
ENDBRANCH  24  25
ENDBRANCH  23  24
ENDBRANCH  22  23
ENDBRANCH  21  22
ENDBRANCH  20  21
ENDBRANCH  19  20
ENDBRANCH  18  19
ENDBRANCH   1  18
TORSDOF 28
ENDMDL
MODEL 4
REMARK VINA RESULT:    -2.919      4.311      9.312
REMARK INTER + INTRA:         -13.273
REMARK INTER:                  -9.102
REMARK INTRA:                  -4.171
REMARK UNBOUND:                -5.576
REMARK SMILES CCCCCCCCCCCCCCCCCCCCCCCCCCCCCC(=O)[O-]
REMARK SMILES IDX 16 1 17 2 18 3 19 4 20 5 21 6 22 7 23 8 24 9 25 10 26 11
REMARK SMILES IDX 27 12 28 13 29 14 30 15 31 16 32 17 15 18 14 19 13 20 12 21
REMARK SMILES IDX 11 22 10 23 9 24 8 25 7 26 6 27 5 28 4 29 3 30 2 31 1 32
REMARK H PARENT
REMARK Flexibility Score: inf
ROOT
ATOM      1  C   UNL     1      -6.359 -16.083  30.310  1.00  0.00     0.000 C 
ENDROOT
BRANCH   1   2
ATOM      2  C   UNL     1      -7.432 -17.147  30.601  1.00  0.00     0.000 C 
BRANCH   2   3
ATOM      3  C   UNL     1      -8.286 -16.809  31.836  1.00  0.00     0.000 C 
BRANCH   3   4
ATOM      4  C   UNL     1      -9.810 -16.908  31.627  1.00  0.00     0.000 C 
BRANCH   4   5
ATOM      5  C   UNL     1     -10.269 -16.973  30.154  1.00  0.00     0.000 C 
BRANCH   5   6
ATOM      6  C   UNL     1     -11.795 -16.953  29.943  1.00  0.00     0.000 C 
BRANCH   6   7
ATOM      7  C   UNL     1     -12.298 -15.911  28.927  1.00  0.00     0.000 C 
BRANCH   7   8
ATOM      8  C   UNL     1     -13.828 -15.706  28.951  1.00  0.00     0.000 C 
BRANCH   8   9
ATOM      9  C   UNL     1     -14.599 -17.011  28.688  1.00  0.00     0.000 C 
BRANCH   9  10
ATOM     10  C   UNL     1     -15.871 -16.789  27.854  1.00  0.00     0.000 C 
BRANCH  10  11
ATOM     11  C   UNL     1     -15.575 -16.198  26.466  1.00  0.00     0.000 C 
BRANCH  11  12
ATOM     12  C   UNL     1     -16.377 -14.907  26.238  1.00  0.00     0.000 C 
BRANCH  12  13
ATOM     13  C   UNL     1     -17.127 -14.903  24.897  1.00  0.00     0.006 C 
BRANCH  13  14
ATOM     14  C   UNL     1     -17.067 -13.542  24.187  1.00  0.00     0.053 C 
BRANCH  14  15
ATOM     15  C   UNL     1     -18.310 -12.748  24.450  1.00  0.00     0.041 C 
ATOM     16  O   UNL     1     -18.994 -12.967  25.485  1.00  0.00    -0.550 OA
ATOM     17  O   UNL     1     -18.697 -11.745  23.569  1.00  0.00    -0.550 OA
ENDBRANCH  14  15
ENDBRANCH  13  14
ENDBRANCH  12  13
ENDBRANCH  11  12
ENDBRANCH  10  11
ENDBRANCH   9  10
ENDBRANCH   8   9
ENDBRANCH   7   8
ENDBRANCH   6   7
ENDBRANCH   5   6
ENDBRANCH   4   5
ENDBRANCH   3   4
ENDBRANCH   2   3
ENDBRANCH   1   2
BRANCH   1  18
ATOM     18  C   UNL     1      -6.941 -14.795  29.695  1.00  0.00     0.000 C 
BRANCH  18  19
ATOM     19  C   UNL     1      -6.772 -13.523  30.545  1.00  0.00     0.000 C 
BRANCH  19  20
ATOM     20  C   UNL     1      -8.105 -12.973  31.080  1.00  0.00     0.000 C 
BRANCH  20  21
ATOM     21  C   UNL     1      -9.317 -13.506  30.293  1.00  0.00     0.000 C 
BRANCH  21  22
ATOM     22  C   UNL     1     -10.673 -12.956  30.775  1.00  0.00     0.000 C 
BRANCH  22  23
ATOM     23  C   UNL     1     -11.518 -12.377  29.624  1.00  0.00     0.000 C 
BRANCH  23  24
ATOM     24  C   UNL     1     -10.664 -11.992  28.398  1.00  0.00    -0.000 C 
BRANCH  24  25
ATOM     25  C   UNL     1     -10.766 -10.507  27.993  1.00  0.00    -0.000 C 
BRANCH  25  26
ATOM     26  C   UNL     1      -9.860  -9.547  28.779  1.00  0.00    -0.000 C 
BRANCH  26  27
ATOM     27  C   UNL     1      -8.491 -10.156  29.118  1.00  0.00    -0.000 C 
BRANCH  27  28
ATOM     28  C   UNL     1      -7.531 -10.046  27.924  1.00  0.00    -0.000 C 
BRANCH  28  29
ATOM     29  C   UNL     1      -7.086 -11.421  27.399  1.00  0.00    -0.000 C 
BRANCH  29  30
ATOM     30  C   UNL     1      -7.160 -11.511  25.862  1.00  0.00    -0.000 C 
BRANCH  30  31
ATOM     31  C   UNL     1      -8.602 -11.448  25.338  1.00  0.00    -0.003 C 
ATOM     32  C   UNL     1      -8.850 -10.227  24.454  1.00  0.00     0.004 C 
ENDBRANCH  30  31
ENDBRANCH  29  30
ENDBRANCH  28  29
ENDBRANCH  27  28
ENDBRANCH  26  27
ENDBRANCH  25  26
ENDBRANCH  24  25
ENDBRANCH  23  24
ENDBRANCH  22  23
ENDBRANCH  21  22
ENDBRANCH  20  21
ENDBRANCH  19  20
ENDBRANCH  18  19
ENDBRANCH   1  18
TORSDOF 28
ENDMDL
MODEL 5
REMARK VINA RESULT:    -2.912     10.346     13.167
REMARK INTER + INTRA:         -13.253
REMARK INTER:                  -7.741
REMARK INTRA:                  -5.512
REMARK UNBOUND:                -5.576
REMARK SMILES CCCCCCCCCCCCCCCCCCCCCCCCCCCCCC(=O)[O-]
REMARK SMILES IDX 16 1 17 2 18 3 19 4 20 5 21 6 22 7 23 8 24 9 25 10 26 11
REMARK SMILES IDX 27 12 28 13 29 14 30 15 31 16 32 17 15 18 14 19 13 20 12 21
REMARK SMILES IDX 11 22 10 23 9 24 8 25 7 26 6 27 5 28 4 29 3 30 2 31 1 32
REMARK H PARENT
REMARK Flexibility Score: inf
ROOT
ATOM      1  C   UNL     1     -12.353 -19.436  20.457  1.00  0.00     0.000 C 
ENDROOT
BRANCH   1   2
ATOM      2  C   UNL     1     -12.588 -18.144  19.654  1.00  0.00     0.000 C 
BRANCH   2   3
ATOM      3  C   UNL     1     -13.170 -18.411  18.255  1.00  0.00     0.000 C 
BRANCH   3   4
ATOM      4  C   UNL     1     -12.447 -17.694  17.097  1.00  0.00     0.000 C 
BRANCH   4   5
ATOM      5  C   UNL     1     -10.955 -18.054  16.930  1.00  0.00     0.000 C 
BRANCH   5   6
ATOM      6  C   UNL     1     -10.678 -19.335  16.120  1.00  0.00     0.000 C 
BRANCH   6   7
ATOM      7  C   UNL     1     -10.357 -20.582  16.964  1.00  0.00     0.000 C 
BRANCH   7   8
ATOM      8  C   UNL     1      -8.889 -21.046  16.856  1.00  0.00     0.000 C 
BRANCH   8   9
ATOM      9  C   UNL     1      -8.107 -20.833  18.164  1.00  0.00     0.000 C 
BRANCH   9  10
ATOM     10  C   UNL     1      -9.016 -20.437  19.339  1.00  0.00     0.000 C 
BRANCH  10  11
ATOM     11  C   UNL     1      -8.639 -19.077  19.948  1.00  0.00     0.000 C 
BRANCH  11  12
ATOM     12  C   UNL     1      -7.467 -18.441  19.185  1.00  0.00     0.000 C 
BRANCH  12  13
ATOM     13  C   UNL     1      -6.155 -18.459  19.987  1.00  0.00     0.006 C 
BRANCH  13  14
ATOM     14  C   UNL     1      -6.363 -18.852  21.457  1.00  0.00     0.053 C 
BRANCH  14  15
ATOM     15  C   UNL     1      -5.062 -19.228  22.097  1.00  0.00     0.041 C 
ATOM     16  O   UNL     1      -4.030 -18.539  21.884  1.00  0.00    -0.550 OA
ATOM     17  O   UNL     1      -4.995 -20.321  22.953  1.00  0.00    -0.550 OA
ENDBRANCH  14  15
ENDBRANCH  13  14
ENDBRANCH  12  13
ENDBRANCH  11  12
ENDBRANCH  10  11
ENDBRANCH   9  10
ENDBRANCH   8   9
ENDBRANCH   7   8
ENDBRANCH   6   7
ENDBRANCH   5   6
ENDBRANCH   4   5
ENDBRANCH   3   4
ENDBRANCH   2   3
ENDBRANCH   1   2
BRANCH   1  18
ATOM     18  C   UNL     1     -12.860 -20.696  19.729  1.00  0.00     0.000 C 
BRANCH  18  19
ATOM     19  C   UNL     1     -13.804 -21.595  20.547  1.00  0.00     0.000 C 
BRANCH  19  20
ATOM     20  C   UNL     1     -14.506 -20.847  21.694  1.00  0.00     0.000 C 
BRANCH  20  21
ATOM     21  C   UNL     1     -14.161 -21.434  23.075  1.00  0.00     0.000 C 
BRANCH  21  22
ATOM     22  C   UNL     1     -12.650 -21.546  23.353  1.00  0.00     0.000 C 
BRANCH  22  23
ATOM     23  C   UNL     1     -12.257 -22.918  23.933  1.00  0.00     0.000 C 
BRANCH  23  24
ATOM     24  C   UNL     1     -13.484 -23.769  24.324  1.00  0.00    -0.000 C 
BRANCH  24  25
ATOM     25  C   UNL     1     -13.548 -25.148  23.634  1.00  0.00    -0.000 C 
BRANCH  25  26
ATOM     26  C   UNL     1     -14.279 -25.173  22.283  1.00  0.00    -0.000 C 
BRANCH  26  27
ATOM     27  C   UNL     1     -13.322 -25.128  21.081  1.00  0.00    -0.000 C 
BRANCH  27  28
ATOM     28  C   UNL     1     -12.112 -26.045  21.310  1.00  0.00    -0.000 C 
BRANCH  28  29
ATOM     29  C   UNL     1     -10.774 -25.311  21.118  1.00  0.00    -0.000 C 
BRANCH  29  30
ATOM     30  C   UNL     1     -10.967 -23.865  20.620  1.00  0.00    -0.000 C 
BRANCH  30  31
ATOM     31  C   UNL     1     -10.412 -23.651  19.205  1.00  0.00    -0.003 C 
ATOM     32  C   UNL     1      -9.192 -24.525  18.916  1.00  0.00     0.004 C 
ENDBRANCH  30  31
ENDBRANCH  29  30
ENDBRANCH  28  29
ENDBRANCH  27  28
ENDBRANCH  26  27
ENDBRANCH  25  26
ENDBRANCH  24  25
ENDBRANCH  23  24
ENDBRANCH  22  23
ENDBRANCH  21  22
ENDBRANCH  20  21
ENDBRANCH  19  20
ENDBRANCH  18  19
ENDBRANCH   1  18
TORSDOF 28
ENDMDL
MODEL 6
REMARK VINA RESULT:    -2.902      3.267      5.296
REMARK INTER + INTRA:         -13.227
REMARK INTER:                  -7.698
REMARK INTRA:                  -5.529
REMARK UNBOUND:                -5.576
REMARK SMILES CCCCCCCCCCCCCCCCCCCCCCCCCCCCCC(=O)[O-]
REMARK SMILES IDX 16 1 17 2 18 3 19 4 20 5 21 6 22 7 23 8 24 9 25 10 26 11
REMARK SMILES IDX 27 12 28 13 29 14 30 15 31 16 32 17 15 18 14 19 13 20 12 21
REMARK SMILES IDX 11 22 10 23 9 24 8 25 7 26 6 27 5 28 4 29 3 30 2 31 1 32
REMARK H PARENT
REMARK Flexibility Score: inf
ROOT
ATOM      1  C   UNL     1     -17.118 -17.134  26.899  1.00  0.00     0.000 C 
ENDROOT
BRANCH   1   2
ATOM      2  C   UNL     1     -16.242 -16.658  28.071  1.00  0.00     0.000 C 
BRANCH   2   3
ATOM      3  C   UNL     1     -14.851 -16.178  27.620  1.00  0.00     0.000 C 
BRANCH   3   4
ATOM      4  C   UNL     1     -14.102 -15.291  28.634  1.00  0.00     0.000 C 
BRANCH   4   5
ATOM      5  C   UNL     1     -14.753 -15.195  30.030  1.00  0.00     0.000 C 
BRANCH   5   6
ATOM      6  C   UNL     1     -14.186 -14.089  30.941  1.00  0.00     0.000 C 
BRANCH   6   7
ATOM      7  C   UNL     1     -14.808 -12.695  30.737  1.00  0.00     0.000 C 
BRANCH   7   8
ATOM      8  C   UNL     1     -14.079 -11.838  29.681  1.00  0.00     0.000 C 
BRANCH   8   9
ATOM      9  C   UNL     1     -12.771 -11.231  30.217  1.00  0.00     0.000 C 
BRANCH   9  10
ATOM     10  C   UNL     1     -11.601 -11.382  29.231  1.00  0.00     0.000 C 
BRANCH  10  11
ATOM     11  C   UNL     1     -11.316 -12.848  28.868  1.00  0.00     0.000 C 
BRANCH  11  12
ATOM     12  C   UNL     1     -10.232 -13.438  29.783  1.00  0.00     0.000 C 
BRANCH  12  13
ATOM     13  C   UNL     1     -10.751 -14.596  30.649  1.00  0.00     0.006 C 
BRANCH  13  14
ATOM     14  C   UNL     1     -10.648 -15.957  29.945  1.00  0.00     0.053 C 
BRANCH  14  15
ATOM     15  C   UNL     1     -11.492 -16.982  30.639  1.00  0.00     0.041 C 
ATOM     16  O   UNL     1     -11.916 -17.985  30.007  1.00  0.00    -0.550 OA
ATOM     17  O   UNL     1     -11.786 -16.845  31.990  1.00  0.00    -0.550 OA
ENDBRANCH  14  15
ENDBRANCH  13  14
ENDBRANCH  12  13
ENDBRANCH  11  12
ENDBRANCH  10  11
ENDBRANCH   9  10
ENDBRANCH   8   9
ENDBRANCH   7   8
ENDBRANCH   6   7
ENDBRANCH   5   6
ENDBRANCH   4   5
ENDBRANCH   3   4
ENDBRANCH   2   3
ENDBRANCH   1   2
BRANCH   1  18
ATOM     18  C   UNL     1     -18.599 -16.742  27.057  1.00  0.00     0.000 C 
BRANCH  18  19
ATOM     19  C   UNL     1     -19.505 -17.091  25.863  1.00  0.00     0.000 C 
BRANCH  19  20
ATOM     20  C   UNL     1     -19.485 -16.021  24.758  1.00  0.00     0.000 C 
BRANCH  20  21
ATOM     21  C   UNL     1     -18.642 -16.449  23.543  1.00  0.00     0.000 C 
BRANCH  21  22
ATOM     22  C   UNL     1     -19.391 -16.380  22.199  1.00  0.00     0.000 C 
BRANCH  22  23
ATOM     23  C   UNL     1     -19.846 -14.950  21.850  1.00  0.00     0.000 C 
BRANCH  23  24
ATOM     24  C   UNL     1     -18.663 -13.971  21.704  1.00  0.00    -0.000 C 
BRANCH  24  25
ATOM     25  C   UNL     1     -18.849 -12.630  22.445  1.00  0.00    -0.000 C 
BRANCH  25  26
ATOM     26  C   UNL     1     -18.236 -12.568  23.853  1.00  0.00    -0.000 C 
BRANCH  26  27
ATOM     27  C   UNL     1     -16.901 -13.320  23.961  1.00  0.00    -0.000 C 
BRANCH  27  28
ATOM     28  C   UNL     1     -16.657 -13.799  25.399  1.00  0.00    -0.000 C 
BRANCH  28  29
ATOM     29  C   UNL     1     -17.691 -13.238  26.389  1.00  0.00    -0.000 C 
BRANCH  29  30
ATOM     30  C   UNL     1     -17.160 -13.210  27.836  1.00  0.00    -0.000 C 
BRANCH  30  31
ATOM     31  C   UNL     1     -18.273 -12.975  28.867  1.00  0.00    -0.003 C 
ATOM     32  C   UNL     1     -18.226 -13.977  30.019  1.00  0.00     0.004 C 
ENDBRANCH  30  31
ENDBRANCH  29  30
ENDBRANCH  28  29
ENDBRANCH  27  28
ENDBRANCH  26  27
ENDBRANCH  25  26
ENDBRANCH  24  25
ENDBRANCH  23  24
ENDBRANCH  22  23
ENDBRANCH  21  22
ENDBRANCH  20  21
ENDBRANCH  19  20
ENDBRANCH  18  19
ENDBRANCH   1  18
TORSDOF 28
ENDMDL
MODEL 7
REMARK VINA RESULT:    -2.873      4.068      6.473
REMARK INTER + INTRA:         -13.151
REMARK INTER:                  -9.107
REMARK INTRA:                  -4.044
REMARK UNBOUND:                -5.576
REMARK SMILES CCCCCCCCCCCCCCCCCCCCCCCCCCCCCC(=O)[O-]
REMARK SMILES IDX 16 1 17 2 18 3 19 4 20 5 21 6 22 7 23 8 24 9 25 10 26 11
REMARK SMILES IDX 27 12 28 13 29 14 30 15 31 16 32 17 15 18 14 19 13 20 12 21
REMARK SMILES IDX 11 22 10 23 9 24 8 25 7 26 6 27 5 28 4 29 3 30 2 31 1 32
REMARK H PARENT
REMARK Flexibility Score: inf
ROOT
ATOM      1  C   UNL     1     -16.735 -13.626  24.950  1.00  0.00     0.000 C 
ENDROOT
BRANCH   1   2
ATOM      2  C   UNL     1     -17.422 -12.522  25.773  1.00  0.00     0.000 C 
BRANCH   2   3
ATOM      3  C   UNL     1     -18.065 -13.055  27.065  1.00  0.00     0.000 C 
BRANCH   3   4
ATOM      4  C   UNL     1     -19.112 -14.169  26.866  1.00  0.00     0.000 C 
BRANCH   4   5
ATOM      5  C   UNL     1     -19.082 -15.295  27.921  1.00  0.00     0.000 C 
BRANCH   5   6
ATOM      6  C   UNL     1     -18.802 -16.704  27.365  1.00  0.00     0.000 C 
BRANCH   6   7
ATOM      7  C   UNL     1     -17.362 -17.211  27.572  1.00  0.00     0.000 C 
BRANCH   7   8
ATOM      8  C   UNL     1     -16.386 -16.784  26.456  1.00  0.00     0.000 C 
BRANCH   8   9
ATOM      9  C   UNL     1     -15.082 -16.185  27.012  1.00  0.00     0.000 C 
BRANCH   9  10
ATOM     10  C   UNL     1     -15.274 -15.523  28.386  1.00  0.00     0.000 C 
BRANCH  10  11
ATOM     11  C   UNL     1     -14.369 -14.296  28.584  1.00  0.00     0.000 C 
BRANCH  11  12
ATOM     12  C   UNL     1     -13.193 -14.629  29.516  1.00  0.00     0.000 C 
BRANCH  12  13
ATOM     13  C   UNL     1     -12.010 -15.271  28.774  1.00  0.00     0.006 C 
BRANCH  13  14
ATOM     14  C   UNL     1     -11.034 -15.988  29.720  1.00  0.00     0.053 C 
BRANCH  14  15
ATOM     15  C   UNL     1     -11.747 -17.017  30.541  1.00  0.00     0.041 C 
ATOM     16  O   UNL     1     -11.741 -16.939  31.798  1.00  0.00    -0.550 OA
ATOM     17  O   UNL     1     -12.445 -18.046  29.920  1.00  0.00    -0.550 OA
ENDBRANCH  14  15
ENDBRANCH  13  14
ENDBRANCH  12  13
ENDBRANCH  11  12
ENDBRANCH  10  11
ENDBRANCH   9  10
ENDBRANCH   8   9
ENDBRANCH   7   8
ENDBRANCH   6   7
ENDBRANCH   5   6
ENDBRANCH   4   5
ENDBRANCH   3   4
ENDBRANCH   2   3
ENDBRANCH   1   2
BRANCH   1  18
ATOM     18  C   UNL     1     -17.206 -13.662  23.483  1.00  0.00     0.000 C 
BRANCH  18  19
ATOM     19  C   UNL     1     -18.632 -13.141  23.235  1.00  0.00     0.000 C 
BRANCH  19  20
ATOM     20  C   UNL     1     -19.648 -14.266  22.974  1.00  0.00     0.000 C 
BRANCH  20  21
ATOM     21  C   UNL     1     -18.970 -15.632  22.761  1.00  0.00     0.000 C 
BRANCH  21  22
ATOM     22  C   UNL     1     -19.362 -16.699  23.799  1.00  0.00     0.000 C 
BRANCH  22  23
ATOM     23  C   UNL     1     -18.435 -17.930  23.761  1.00  0.00     0.000 C 
BRANCH  23  24
ATOM     24  C   UNL     1     -19.022 -19.137  24.521  1.00  0.00    -0.000 C 
BRANCH  24  25
ATOM     25  C   UNL     1     -18.253 -20.458  24.310  1.00  0.00    -0.000 C 
BRANCH  25  26
ATOM     26  C   UNL     1     -17.409 -20.529  23.028  1.00  0.00    -0.000 C 
BRANCH  26  27
ATOM     27  C   UNL     1     -16.076 -21.268  23.225  1.00  0.00    -0.000 C 
BRANCH  27  28
ATOM     28  C   UNL     1     -15.437 -21.613  21.873  1.00  0.00    -0.000 C 
BRANCH  28  29
ATOM     29  C   UNL     1     -13.909 -21.439  21.884  1.00  0.00    -0.000 C 
BRANCH  29  30
ATOM     30  C   UNL     1     -13.377 -21.034  23.273  1.00  0.00    -0.000 C 
BRANCH  30  31
ATOM     31  C   UNL     1     -12.573 -22.157  23.945  1.00  0.00    -0.003 C 
ATOM     32  C   UNL     1     -12.175 -23.259  22.964  1.00  0.00     0.004 C 
ENDBRANCH  30  31
ENDBRANCH  29  30
ENDBRANCH  28  29
ENDBRANCH  27  28
ENDBRANCH  26  27
ENDBRANCH  25  26
ENDBRANCH  24  25
ENDBRANCH  23  24
ENDBRANCH  22  23
ENDBRANCH  21  22
ENDBRANCH  20  21
ENDBRANCH  19  20
ENDBRANCH  18  19
ENDBRANCH   1  18
TORSDOF 28
ENDMDL
MODEL 8
REMARK VINA RESULT:    -2.783     10.101     12.943
REMARK INTER + INTRA:         -12.913
REMARK INTER:                  -7.869
REMARK INTRA:                  -5.045
REMARK UNBOUND:                -5.576
REMARK SMILES CCCCCCCCCCCCCCCCCCCCCCCCCCCCCC(=O)[O-]
REMARK SMILES IDX 16 1 17 2 18 3 19 4 20 5 21 6 22 7 23 8 24 9 25 10 26 11
REMARK SMILES IDX 27 12 28 13 29 14 30 15 31 16 32 17 15 18 14 19 13 20 12 21
REMARK SMILES IDX 11 22 10 23 9 24 8 25 7 26 6 27 5 28 4 29 3 30 2 31 1 32
REMARK H PARENT
REMARK Flexibility Score: inf
ROOT
ATOM      1  C   UNL     1     -11.018 -21.133  19.625  1.00  0.00     0.000 C 
ENDROOT
BRANCH   1   2
ATOM      2  C   UNL     1     -10.837 -19.854  20.462  1.00  0.00     0.000 C 
BRANCH   2   3
ATOM      3  C   UNL     1     -12.109 -18.988  20.507  1.00  0.00     0.000 C 
BRANCH   3   4
ATOM      4  C   UNL     1     -13.010 -19.080  19.260  1.00  0.00     0.000 C 
BRANCH   4   5
ATOM      5  C   UNL     1     -13.083 -17.796  18.405  1.00  0.00     0.000 C 
BRANCH   5   6
ATOM      6  C   UNL     1     -12.365 -17.874  17.045  1.00  0.00     0.000 C 
BRANCH   6   7
ATOM      7  C   UNL     1     -10.828 -17.934  17.123  1.00  0.00     0.000 C 
BRANCH   7   8
ATOM      8  C   UNL     1     -10.224 -19.218  16.515  1.00  0.00     0.000 C 
BRANCH   8   9
ATOM      9  C   UNL     1      -8.831 -19.539  17.085  1.00  0.00     0.000 C 
BRANCH   9  10
ATOM     10  C   UNL     1      -8.447 -18.626  18.261  1.00  0.00     0.000 C 
BRANCH  10  11
ATOM     11  C   UNL     1      -6.928 -18.436  18.393  1.00  0.00     0.000 C 
BRANCH  11  12
ATOM     12  C   UNL     1      -6.596 -17.038  18.937  1.00  0.00     0.000 C 
BRANCH  12  13
ATOM     13  C   UNL     1      -5.775 -17.084  20.235  1.00  0.00     0.006 C 
BRANCH  13  14
ATOM     14  C   UNL     1      -6.365 -18.046  21.277  1.00  0.00     0.053 C 
BRANCH  14  15
ATOM     15  C   UNL     1      -5.346 -19.057  21.706  1.00  0.00     0.041 C 
ATOM     16  O   UNL     1      -5.529 -19.735  22.751  1.00  0.00    -0.550 OA
ATOM     17  O   UNL     1      -4.208 -19.272  20.937  1.00  0.00    -0.550 OA
ENDBRANCH  14  15
ENDBRANCH  13  14
ENDBRANCH  12  13
ENDBRANCH  11  12
ENDBRANCH  10  11
ENDBRANCH   9  10
ENDBRANCH   8   9
ENDBRANCH   7   8
ENDBRANCH   6   7
ENDBRANCH   5   6
ENDBRANCH   4   5
ENDBRANCH   3   4
ENDBRANCH   2   3
ENDBRANCH   1   2
BRANCH   1  18
ATOM     18  C   UNL     1     -10.786 -22.420  20.439  1.00  0.00     0.000 C 
BRANCH  18  19
ATOM     19  C   UNL     1     -11.001 -23.735  19.668  1.00  0.00     0.000 C 
BRANCH  19  20
ATOM     20  C   UNL     1     -10.387 -24.956  20.375  1.00  0.00     0.000 C 
BRANCH  20  21
ATOM     21  C   UNL     1     -11.457 -25.898  20.955  1.00  0.00     0.000 C 
BRANCH  21  22
ATOM     22  C   UNL     1     -12.902 -25.519  20.580  1.00  0.00     0.000 C 
BRANCH  22  23
ATOM     23  C   UNL     1     -13.823 -25.410  21.810  1.00  0.00     0.000 C 
BRANCH  23  24
ATOM     24  C   UNL     1     -13.035 -25.266  23.129  1.00  0.00    -0.000 C 
BRANCH  24  25
ATOM     25  C   UNL     1     -13.867 -24.733  24.313  1.00  0.00    -0.000 C 
BRANCH  25  26
ATOM     26  C   UNL     1     -13.655 -23.249  24.649  1.00  0.00    -0.000 C 
BRANCH  26  27
ATOM     27  C   UNL     1     -12.358 -22.677  24.057  1.00  0.00    -0.000 C 
BRANCH  27  28
ATOM     28  C   UNL     1     -12.624 -21.346  23.339  1.00  0.00    -0.000 C 
BRANCH  28  29
ATOM     29  C   UNL     1     -14.067 -21.237  22.817  1.00  0.00    -0.000 C 
BRANCH  29  30
ATOM     30  C   UNL     1     -14.225 -21.840  21.408  1.00  0.00    -0.000 C 
BRANCH  30  31
ATOM     31  C   UNL     1     -15.693 -22.105  21.043  1.00  0.00    -0.003 C 
ATOM     32  C   UNL     1     -16.425 -22.913  22.113  1.00  0.00     0.004 C 
ENDBRANCH  30  31
ENDBRANCH  29  30
ENDBRANCH  28  29
ENDBRANCH  27  28
ENDBRANCH  26  27
ENDBRANCH  25  26
ENDBRANCH  24  25
ENDBRANCH  23  24
ENDBRANCH  22  23
ENDBRANCH  21  22
ENDBRANCH  20  21
ENDBRANCH  19  20
ENDBRANCH  18  19
ENDBRANCH   1  18
TORSDOF 28
ENDMDL
MODEL 9
REMARK VINA RESULT:    -2.775      4.622     10.211
REMARK INTER + INTRA:         -12.892
REMARK INTER:                  -9.298
REMARK INTRA:                  -3.594
REMARK UNBOUND:                -5.576
REMARK SMILES CCCCCCCCCCCCCCCCCCCCCCCCCCCCCC(=O)[O-]
REMARK SMILES IDX 16 1 17 2 18 3 19 4 20 5 21 6 22 7 23 8 24 9 25 10 26 11
REMARK SMILES IDX 27 12 28 13 29 14 30 15 31 16 32 17 15 18 14 19 13 20 12 21
REMARK SMILES IDX 11 22 10 23 9 24 8 25 7 26 6 27 5 28 4 29 3 30 2 31 1 32
REMARK H PARENT
REMARK Flexibility Score: inf
ROOT
ATOM      1  C   UNL     1     -12.174 -15.997  28.974  1.00  0.00     0.000 C 
ENDROOT
BRANCH   1   2
ATOM      2  C   UNL     1     -13.147 -17.033  29.565  1.00  0.00     0.000 C 
BRANCH   2   3
ATOM      3  C   UNL     1     -14.623 -16.666  29.331  1.00  0.00     0.000 C 
BRANCH   3   4
ATOM      4  C   UNL     1     -14.866 -15.254  28.764  1.00  0.00     0.000 C 
BRANCH   4   5
ATOM      5  C   UNL     1     -15.785 -15.191  27.525  1.00  0.00     0.000 C 
BRANCH   5   6
ATOM      6  C   UNL     1     -15.616 -16.352  26.526  1.00  0.00     0.000 C 
BRANCH   6   7
ATOM      7  C   UNL     1     -16.705 -16.440  25.441  1.00  0.00     0.000 C 
BRANCH   7   8
ATOM      8  C   UNL     1     -18.125 -16.125  25.957  1.00  0.00     0.000 C 
BRANCH   8   9
ATOM      9  C   UNL     1     -19.162 -16.060  24.822  1.00  0.00     0.000 C 
BRANCH   9  10
ATOM     10  C   UNL     1     -18.548 -16.347  23.442  1.00  0.00     0.000 C 
BRANCH  10  11
ATOM     11  C   UNL     1     -18.590 -15.125  22.509  1.00  0.00     0.000 C 
BRANCH  11  12
ATOM     12  C   UNL     1     -19.414 -13.989  23.132  1.00  0.00     0.000 C 
BRANCH  12  13
ATOM     13  C   UNL     1     -18.847 -12.597  22.810  1.00  0.00     0.006 C 
BRANCH  13  14
ATOM     14  C   UNL     1     -18.661 -11.727  24.062  1.00  0.00     0.053 C 
BRANCH  14  15
ATOM     15  C   UNL     1     -17.969 -12.494  25.146  1.00  0.00     0.041 C 
ATOM     16  O   UNL     1     -16.816 -12.963  24.952  1.00  0.00    -0.550 OA
ATOM     17  O   UNL     1     -18.583 -12.667  26.381  1.00  0.00    -0.550 OA
ENDBRANCH  14  15
ENDBRANCH  13  14
ENDBRANCH  12  13
ENDBRANCH  11  12
ENDBRANCH  10  11
ENDBRANCH   9  10
ENDBRANCH   8   9
ENDBRANCH   7   8
ENDBRANCH   6   7
ENDBRANCH   5   6
ENDBRANCH   4   5
ENDBRANCH   3   4
ENDBRANCH   2   3
ENDBRANCH   1   2
BRANCH   1  18
ATOM     18  C   UNL     1     -10.830 -15.939  29.724  1.00  0.00     0.000 C 
BRANCH  18  19
ATOM     19  C   UNL     1     -10.569 -17.098  30.702  1.00  0.00     0.000 C 
BRANCH  19  20
ATOM     20  C   UNL     1     -10.132 -16.623  32.098  1.00  0.00     0.000 C 
BRANCH  20  21
ATOM     21  C   UNL     1     -10.182 -15.091  32.239  1.00  0.00     0.000 C 
BRANCH  21  22
ATOM     22  C   UNL     1      -8.812 -14.436  32.495  1.00  0.00     0.000 C 
BRANCH  22  23
ATOM     23  C   UNL     1      -8.157 -13.911  31.203  1.00  0.00     0.000 C 
BRANCH  23  24
ATOM     24  C   UNL     1      -6.892 -14.706  30.816  1.00  0.00    -0.000 C 
BRANCH  24  25
ATOM     25  C   UNL     1      -7.128 -15.803  29.757  1.00  0.00    -0.000 C 
BRANCH  25  26
ATOM     26  C   UNL     1      -6.755 -17.228  30.194  1.00  0.00    -0.000 C 
BRANCH  26  27
ATOM     27  C   UNL     1      -6.571 -17.363  31.713  1.00  0.00    -0.000 C 
BRANCH  27  28
ATOM     28  C   UNL     1      -5.950 -18.721  32.071  1.00  0.00    -0.000 C 
BRANCH  28  29
ATOM     29  C   UNL     1      -4.435 -18.630  32.314  1.00  0.00    -0.000 C 
BRANCH  29  30
ATOM     30  C   UNL     1      -3.626 -19.399  31.251  1.00  0.00    -0.000 C 
BRANCH  30  31
ATOM     31  C   UNL     1      -3.296 -18.536  30.025  1.00  0.00    -0.003 C 
ATOM     32  C   UNL     1      -2.109 -17.604  30.266  1.00  0.00     0.004 C 
ENDBRANCH  30  31
ENDBRANCH  29  30
ENDBRANCH  28  29
ENDBRANCH  27  28
ENDBRANCH  26  27
ENDBRANCH  25  26
ENDBRANCH  24  25
ENDBRANCH  23  24
ENDBRANCH  22  23
ENDBRANCH  21  22
ENDBRANCH  20  21
ENDBRANCH  19  20
ENDBRANCH  18  19
ENDBRANCH   1  18
TORSDOF 28
ENDMDL
