MODEL 1
REMARK VINA RESULT:    -3.869      0.000      0.000
REMARK INTER + INTRA:          -5.993
REMARK INTER:                  -5.678
REMARK INTRA:                  -0.315
REMARK UNBOUND:                -0.315
REMARK SMILES O=C([O-])CCCCCCCC(=O)[O-]
REMARK SMILES IDX 7 1 6 2 5 3 4 4 2 5 1 6 3 7 8 8 9 9 10 10 11 11 12 12 13 13
REMARK H PARENT
REMARK Flexibility Score: inf
ROOT
ATOM      1  C   UNL     1      -0.941   6.001   8.789  1.00  0.00     0.000 C 
ENDROOT
BRANCH   1   2
ATOM      2  C   UNL     1      -0.357   5.288  10.018  1.00  0.00     0.000 C 
BRANCH   2   3
ATOM      3  C   UNL     1      -0.806   3.818  10.125  1.00  0.00     0.006 C 
BRANCH   3   4
ATOM      4  C   UNL     1      -2.318   3.604   9.954  1.00  0.00     0.053 C 
BRANCH   4   5
ATOM      5  C   UNL     1      -2.637   2.234   9.438  1.00  0.00     0.041 C 
ATOM      6  O   UNL     1      -1.880   1.681   8.599  1.00  0.00    -0.550 OA
ATOM      7  O   UNL     1      -3.754   1.555   9.912  1.00  0.00    -0.550 OA
ENDBRANCH   4   5
ENDBRANCH   3   4
ENDBRANCH   2   3
ENDBRANCH   1   2
BRANCH   1   8
ATOM      8  C   UNL     1      -0.382   7.427   8.665  1.00  0.00     0.000 C 
BRANCH   8   9
ATOM      9  C   UNL     1       1.094   7.523   9.082  1.00  0.00     0.006 C 
BRANCH   9  10
ATOM     10  C   UNL     1       1.824   8.693   8.411  1.00  0.00     0.053 C 
BRANCH  10  11
ATOM     11  C   UNL     1       2.466   8.247   7.136  1.00  0.00     0.041 C 
ATOM     12  O   UNL     1       3.540   7.589   7.164  1.00  0.00    -0.550 OA
ATOM     13  O   UNL     1       1.906   8.598   5.914  1.00  0.00    -0.550 OA
ENDBRANCH  10  11
ENDBRANCH   9  10
ENDBRANCH   8   9
ENDBRANCH   1   8
TORSDOF 8
ENDMDL
MODEL 2
REMARK VINA RESULT:    -3.840      1.114      6.370
REMARK INTER + INTRA:          -5.951
REMARK INTER:                  -5.561
REMARK INTRA:                  -0.390
REMARK UNBOUND:                -0.315
REMARK SMILES O=C([O-])CCCCCCCC(=O)[O-]
REMARK SMILES IDX 7 1 6 2 5 3 4 4 2 5 1 6 3 7 8 8 9 9 10 10 11 11 12 12 13 13
REMARK H PARENT
REMARK Flexibility Score: inf
ROOT
ATOM      1  C   UNL     1      -0.690   7.041   9.469  1.00  0.00     0.000 C 
ENDROOT
BRANCH   1   2
ATOM      2  C   UNL     1       0.627   6.412   9.947  1.00  0.00     0.000 C 
BRANCH   2   3
ATOM      3  C   UNL     1       1.869   7.110   9.360  1.00  0.00     0.006 C 
BRANCH   3   4
ATOM      4  C   UNL     1       1.552   8.222   8.348  1.00  0.00     0.053 C 
BRANCH   4   5
ATOM      5  C   UNL     1       2.407   8.126   7.121  1.00  0.00     0.041 C 
ATOM      6  O   UNL     1       3.579   7.675   7.198  1.00  0.00    -0.550 OA
ATOM      7  O   UNL     1       1.894   8.503   5.885  1.00  0.00    -0.550 OA
ENDBRANCH   4   5
ENDBRANCH   3   4
ENDBRANCH   2   3
ENDBRANCH   1   2
BRANCH   1   8
ATOM      8  C   UNL     1      -1.896   6.227   9.961  1.00  0.00     0.000 C 
BRANCH   8   9
ATOM      9  C   UNL     1      -2.375   5.193   8.930  1.00  0.00     0.006 C 
BRANCH   9  10
ATOM     10  C   UNL     1      -2.796   3.866   9.573  1.00  0.00     0.053 C 
BRANCH  10  11
ATOM     11  C   UNL     1      -1.725   2.837   9.398  1.00  0.00     0.041 C 
ATOM     12  O   UNL     1      -0.559   3.058   9.820  1.00  0.00    -0.550 OA
ATOM     13  O   UNL     1      -2.001   1.654   8.725  1.00  0.00    -0.550 OA
ENDBRANCH  10  11
ENDBRANCH   9  10
ENDBRANCH   8   9
ENDBRANCH   1   8
TORSDOF 8
ENDMDL
MODEL 3
REMARK VINA RESULT:    -3.836     15.688     17.651
REMARK INTER + INTRA:          -5.945
REMARK INTER:                  -5.693
REMARK INTRA:                  -0.252
REMARK UNBOUND:                -0.315
REMARK SMILES O=C([O-])CCCCCCCC(=O)[O-]
REMARK SMILES IDX 7 1 6 2 5 3 4 4 2 5 1 6 3 7 8 8 9 9 10 10 11 11 12 12 13 13
REMARK H PARENT
REMARK Flexibility Score: inf
ROOT
ATOM      1  C   UNL     1     -10.022  -1.025  -2.930  1.00  0.00     0.000 C 
ENDROOT
BRANCH   1   2
ATOM      2  C   UNL     1     -10.117   0.413  -2.399  1.00  0.00     0.000 C 
BRANCH   2   3
ATOM      3  C   UNL     1     -10.125   1.466  -3.524  1.00  0.00     0.006 C 
BRANCH   3   4
ATOM      4  C   UNL     1      -9.104   2.599  -3.339  1.00  0.00     0.053 C 
BRANCH   4   5
ATOM      5  C   UNL     1      -9.415   3.783  -4.203  1.00  0.00     0.041 C 
ATOM      6  O   UNL     1     -10.123   3.646  -5.235  1.00  0.00    -0.550 OA
ATOM      7  O   UNL     1      -8.952   5.044  -3.848  1.00  0.00    -0.550 OA
ENDBRANCH   4   5
ENDBRANCH   3   4
ENDBRANCH   2   3
ENDBRANCH   1   2
BRANCH   1   8
ATOM      8  C   UNL     1      -9.295  -1.933  -1.926  1.00  0.00     0.000 C 
BRANCH   8   9
ATOM      9  C   UNL     1      -9.617  -3.421  -2.131  1.00  0.00     0.006 C 
BRANCH   9  10
ATOM     10  C   UNL     1      -8.410  -4.223  -2.636  1.00  0.00     0.053 C 
BRANCH  10  11
ATOM     11  C   UNL     1      -8.507  -4.440  -4.113  1.00  0.00     0.041 C 
ATOM     12  O   UNL     1      -8.029  -3.592  -4.911  1.00  0.00    -0.550 OA
ATOM     13  O   UNL     1      -9.170  -5.556  -4.609  1.00  0.00    -0.550 OA
ENDBRANCH  10  11
ENDBRANCH   9  10
ENDBRANCH   8   9
ENDBRANCH   1   8
TORSDOF 8
ENDMDL
MODEL 4
REMARK VINA RESULT:    -3.830      0.321      1.297
REMARK INTER + INTRA:          -5.937
REMARK INTER:                  -5.592
REMARK INTRA:                  -0.345
REMARK UNBOUND:                -0.315
REMARK SMILES O=C([O-])CCCCCCCC(=O)[O-]
REMARK SMILES IDX 7 1 6 2 5 3 4 4 2 5 1 6 3 7 8 8 9 9 10 10 11 11 12 12 13 13
REMARK H PARENT
REMARK Flexibility Score: inf
ROOT
ATOM      1  C   UNL     1      -1.157   5.853   8.987  1.00  0.00     0.000 C 
ENDROOT
BRANCH   1   2
ATOM      2  C   UNL     1      -0.240   5.022   9.896  1.00  0.00     0.000 C 
BRANCH   2   3
ATOM      3  C   UNL     1      -0.748   3.582  10.100  1.00  0.00     0.006 C 
BRANCH   3   4
ATOM      4  C   UNL     1      -2.278   3.448  10.125  1.00  0.00     0.053 C 
BRANCH   4   5
ATOM      5  C   UNL     1      -2.743   2.190   9.457  1.00  0.00     0.041 C 
ATOM      6  O   UNL     1      -3.862   1.693   9.750  1.00  0.00    -0.550 OA
ATOM      7  O   UNL     1      -1.954   1.585   8.485  1.00  0.00    -0.550 OA
ENDBRANCH   4   5
ENDBRANCH   3   4
ENDBRANCH   2   3
ENDBRANCH   1   2
BRANCH   1   8
ATOM      8  C   UNL     1      -0.684   7.314   8.919  1.00  0.00     0.000 C 
BRANCH   8   9
ATOM      9  C   UNL     1       0.833   7.456   9.122  1.00  0.00     0.006 C 
BRANCH   9  10
ATOM     10  C   UNL     1       1.413   8.681   8.404  1.00  0.00     0.053 C 
BRANCH  10  11
ATOM     11  C   UNL     1       2.102   8.269   7.142  1.00  0.00     0.041 C 
ATOM     12  O   UNL     1       1.479   8.277   6.048  1.00  0.00    -0.550 OA
ATOM     13  O   UNL     1       3.419   7.830   7.180  1.00  0.00    -0.550 OA
ENDBRANCH  10  11
ENDBRANCH   9  10
ENDBRANCH   8   9
ENDBRANCH   1   8
TORSDOF 8
ENDMDL
MODEL 5
REMARK VINA RESULT:    -3.791      1.338      2.084
REMARK INTER + INTRA:          -5.880
REMARK INTER:                  -5.545
REMARK INTRA:                  -0.335
REMARK UNBOUND:                -0.315
REMARK SMILES O=C([O-])CCCCCCCC(=O)[O-]
REMARK SMILES IDX 7 1 6 2 5 3 4 4 2 5 1 6 3 7 8 8 9 9 10 10 11 11 12 12 13 13
REMARK H PARENT
REMARK Flexibility Score: inf
ROOT
ATOM      1  C   UNL     1       0.331   6.976   9.105  1.00  0.00     0.000 C 
ENDROOT
BRANCH   1   2
ATOM      2  C   UNL     1      -1.040   6.466   9.574  1.00  0.00     0.000 C 
BRANCH   2   3
ATOM      3  C   UNL     1      -1.613   5.367   8.659  1.00  0.00     0.006 C 
BRANCH   3   4
ATOM      4  C   UNL     1      -2.345   4.240   9.403  1.00  0.00     0.053 C 
BRANCH   4   5
ATOM      5  C   UNL     1      -1.506   3.003   9.515  1.00  0.00     0.041 C 
ATOM      6  O   UNL     1      -1.987   1.881   9.208  1.00  0.00    -0.550 OA
ATOM      7  O   UNL     1      -0.182   3.096   9.926  1.00  0.00    -0.550 OA
ENDBRANCH   4   5
ENDBRANCH   3   4
ENDBRANCH   2   3
ENDBRANCH   1   2
BRANCH   1   8
ATOM      8  C   UNL     1       0.190   8.305   8.347  1.00  0.00     0.000 C 
BRANCH   8   9
ATOM      9  C   UNL     1       1.529   8.815   7.790  1.00  0.00     0.006 C 
BRANCH   9  10
ATOM     10  C   UNL     1       2.657   8.767   8.828  1.00  0.00     0.053 C 
BRANCH  10  11
ATOM     11  C   UNL     1       3.868   8.101   8.253  1.00  0.00     0.041 C 
ATOM     12  O   UNL     1       3.793   7.488   7.156  1.00  0.00    -0.550 OA
ATOM     13  O   UNL     1       5.067   8.115   8.953  1.00  0.00    -0.550 OA
ENDBRANCH  10  11
ENDBRANCH   9  10
ENDBRANCH   8   9
ENDBRANCH   1   8
TORSDOF 8
ENDMDL
MODEL 6
REMARK VINA RESULT:    -3.665     15.828     16.892
REMARK INTER + INTRA:          -5.694
REMARK INTER:                  -5.374
REMARK INTRA:                  -0.319
REMARK UNBOUND:                -0.315
REMARK SMILES O=C([O-])CCCCCCCC(=O)[O-]
REMARK SMILES IDX 7 1 6 2 5 3 4 4 2 5 1 6 3 7 8 8 9 9 10 10 11 11 12 12 13 13
REMARK H PARENT
REMARK Flexibility Score: inf
ROOT
ATOM      1  C   UNL     1      -9.851  -1.738  -2.348  1.00  0.00     0.000 C 
ENDROOT
BRANCH   1   2
ATOM      2  C   UNL     1      -8.443  -2.147  -1.890  1.00  0.00     0.000 C 
BRANCH   2   3
ATOM      3  C   UNL     1      -8.109  -3.612  -2.228  1.00  0.00     0.006 C 
BRANCH   3   4
ATOM      4  C   UNL     1      -9.109  -4.287  -3.180  1.00  0.00     0.053 C 
BRANCH   4   5
ATOM      5  C   UNL     1      -8.595  -4.346  -4.586  1.00  0.00     0.041 C 
ATOM      6  O   UNL     1      -8.999  -5.242  -5.372  1.00  0.00    -0.550 OA
ATOM      7  O   UNL     1      -7.694  -3.389  -5.038  1.00  0.00    -0.550 OA
ENDBRANCH   4   5
ENDBRANCH   3   4
ENDBRANCH   2   3
ENDBRANCH   1   2
BRANCH   1   8
ATOM      8  C   UNL     1     -10.112  -0.251  -2.056  1.00  0.00     0.000 C 
BRANCH   8   9
ATOM      9  C   UNL     1     -10.058   0.619  -3.322  1.00  0.00     0.006 C 
BRANCH   9  10
ATOM     10  C   UNL     1      -9.304   1.937  -3.102  1.00  0.00     0.053 C 
BRANCH  10  11
ATOM     11  C   UNL     1      -9.569   2.884  -4.229  1.00  0.00     0.041 C 
ATOM     12  O   UNL     1      -9.759   2.446  -5.394  1.00  0.00    -0.550 OA
ATOM     13  O   UNL     1      -9.557   4.254  -4.002  1.00  0.00    -0.550 OA
ENDBRANCH  10  11
ENDBRANCH   9  10
ENDBRANCH   8   9
ENDBRANCH   1   8
TORSDOF 8
ENDMDL
MODEL 7
REMARK VINA RESULT:    -3.604      1.843      2.634
REMARK INTER + INTRA:          -5.605
REMARK INTER:                  -5.421
REMARK INTRA:                  -0.183
REMARK UNBOUND:                -0.315
REMARK SMILES O=C([O-])CCCCCCCC(=O)[O-]
REMARK SMILES IDX 7 1 6 2 5 3 4 4 2 5 1 6 3 7 8 8 9 9 10 10 11 11 12 12 13 13
REMARK H PARENT
REMARK Flexibility Score: inf
ROOT
ATOM      1  C   UNL     1       0.314   7.850   7.965  1.00  0.00     0.000 C 
ENDROOT
BRANCH   1   2
ATOM      2  C   UNL     1       0.143   6.978   9.218  1.00  0.00     0.000 C 
BRANCH   2   3
ATOM      3  C   UNL     1      -0.981   5.935   9.071  1.00  0.00     0.006 C 
BRANCH   3   4
ATOM      4  C   UNL     1      -0.674   4.576   9.720  1.00  0.00     0.053 C 
BRANCH   4   5
ATOM      5  C   UNL     1      -1.755   3.572   9.461  1.00  0.00     0.041 C 
ATOM      6  O   UNL     1      -2.946   3.948   9.305  1.00  0.00    -0.550 OA
ATOM      7  O   UNL     1      -1.440   2.222   9.357  1.00  0.00    -0.550 OA
ENDBRANCH   4   5
ENDBRANCH   3   4
ENDBRANCH   2   3
ENDBRANCH   1   2
BRANCH   1   8
ATOM      8  C   UNL     1       1.431   8.885   8.166  1.00  0.00     0.000 C 
BRANCH   8   9
ATOM      9  C   UNL     1       2.796   8.390   7.660  1.00  0.00     0.006 C 
BRANCH   9  10
ATOM     10  C   UNL     1       3.946   9.329   8.047  1.00  0.00     0.053 C 
BRANCH  10  11
ATOM     11  C   UNL     1       5.143   8.539   8.472  1.00  0.00     0.041 C 
ATOM     12  O   UNL     1       5.193   8.033   9.624  1.00  0.00    -0.550 OA
ATOM     13  O   UNL     1       6.227   8.403   7.613  1.00  0.00    -0.550 OA
ENDBRANCH  10  11
ENDBRANCH   9  10
ENDBRANCH   8   9
ENDBRANCH   1   8
TORSDOF 8
ENDMDL
MODEL 8
REMARK VINA RESULT:    -3.563      1.650      7.035
REMARK INTER + INTRA:          -5.544
REMARK INTER:                  -5.250
REMARK INTRA:                  -0.294
REMARK UNBOUND:                -0.315
REMARK SMILES O=C([O-])CCCCCCCC(=O)[O-]
REMARK SMILES IDX 7 1 6 2 5 3 4 4 2 5 1 6 3 7 8 8 9 9 10 10 11 11 12 12 13 13
REMARK H PARENT
REMARK Flexibility Score: inf
ROOT
ATOM      1  C   UNL     1       0.100   7.425   8.237  1.00  0.00     0.000 C 
ENDROOT
BRANCH   1   2
ATOM      2  C   UNL     1       1.022   8.644   8.395  1.00  0.00     0.000 C 
BRANCH   2   3
ATOM      3  C   UNL     1       2.132   8.695   7.328  1.00  0.00     0.006 C 
BRANCH   3   4
ATOM      4  C   UNL     1       3.375   7.858   7.667  1.00  0.00     0.053 C 
BRANCH   4   5
ATOM      5  C   UNL     1       4.488   8.701   8.211  1.00  0.00     0.041 C 
ATOM      6  O   UNL     1       4.540   9.930   7.947  1.00  0.00    -0.550 OA
ATOM      7  O   UNL     1       5.451   8.133   9.037  1.00  0.00    -0.550 OA
ENDBRANCH   4   5
ENDBRANCH   3   4
ENDBRANCH   2   3
ENDBRANCH   1   2
BRANCH   1   8
ATOM      8  C   UNL     1       0.355   6.398   9.352  1.00  0.00     0.000 C 
BRANCH   8   9
ATOM      9  C   UNL     1      -0.944   5.808   9.922  1.00  0.00     0.006 C 
BRANCH   9  10
ATOM     10  C   UNL     1      -1.707   4.959   8.898  1.00  0.00     0.053 C 
BRANCH  10  11
ATOM     11  C   UNL     1      -1.750   3.528   9.335  1.00  0.00     0.041 C 
ATOM     12  O   UNL     1      -0.692   2.938   9.677  1.00  0.00    -0.550 OA
ATOM     13  O   UNL     1      -2.952   2.832   9.317  1.00  0.00    -0.550 OA
ENDBRANCH  10  11
ENDBRANCH   9  10
ENDBRANCH   8   9
ENDBRANCH   1   8
TORSDOF 8
ENDMDL
