MODEL 1
REMARK VINA RESULT:    -4.024      0.000      0.000
REMARK INTER + INTRA:          -5.119
REMARK INTER:                  -4.847
REMARK INTRA:                  -0.272
REMARK UNBOUND:                -0.272
REMARK SMILES NC(=O)C[C@H]([NH3+])C(=O)[O-]
REMARK SMILES IDX 4 1 5 2 6 3 7 7 8 8 9 9 2 10 3 11 1 12
REMARK H PARENT 6 4 6 5 6 6 1 13 1 14
REMARK Flexibility Score: inf
ROOT
ATOM      1  C   UNL     1     -48.709  11.219 -28.712  1.00  0.00     0.171 C 
ENDROOT
BRANCH   1   2
ATOM      2  C   UNL     1     -49.825  11.843 -29.578  1.00  0.00     0.237 C 
BRANCH   2   3
ATOM      3  N   UNL     1     -49.766  11.371 -30.968  1.00  0.00    -0.350 N 
ATOM      4  H   UNL     1     -49.497  10.360 -30.985  1.00  0.00     0.345 HD
ATOM      5  H   UNL     1     -50.689  11.482 -31.446  1.00  0.00     0.345 HD
ATOM      6  H   UNL     1     -49.041  11.910 -31.496  1.00  0.00     0.345 HD
ENDBRANCH   2   3
BRANCH   2   7
ATOM      7  C   UNL     1     -49.802  13.349 -29.508  1.00  0.00     0.100 C 
ATOM      8  O   UNL     1     -50.358  13.959 -28.557  1.00  0.00    -0.544 OA
ATOM      9  O   UNL     1     -49.206  14.077 -30.530  1.00  0.00    -0.544 OA
ENDBRANCH   2   7
ENDBRANCH   1   2
BRANCH   1  10
ATOM     10  C   UNL     1     -48.090   9.996 -29.329  1.00  0.00     0.223 C 
ATOM     11  O   UNL     1     -48.812   9.001 -29.608  1.00  0.00    -0.275 OA
ATOM     12  N   UNL     1     -46.686   9.944 -29.584  1.00  0.00    -0.369 N 
ATOM     13  H   UNL     1     -46.071  10.755 -29.352  1.00  0.00     0.159 HD
ATOM     14  H   UNL     1     -46.258   9.089 -30.003  1.00  0.00     0.159 HD
ENDBRANCH   1  10
TORSDOF 4
ENDMDL
MODEL 2
REMARK VINA RESULT:    -3.995     12.323     13.220
REMARK INTER + INTRA:          -5.085
REMARK INTER:                  -4.806
REMARK INTRA:                  -0.279
REMARK UNBOUND:                -0.272
REMARK SMILES NC(=O)C[C@H]([NH3+])C(=O)[O-]
REMARK SMILES IDX 4 1 5 2 6 3 7 7 8 8 9 9 2 10 3 11 1 12
REMARK H PARENT 6 4 6 5 6 6 1 13 1 14
REMARK Flexibility Score: inf
ROOT
ATOM      1  C   UNL     1     -39.218  19.146 -29.047  1.00  0.00     0.171 C 
ENDROOT
BRANCH   1   2
ATOM      2  C   UNL     1     -38.220  18.679 -30.129  1.00  0.00     0.237 C 
BRANCH   2   3
ATOM      3  N   UNL     1     -38.323  19.484 -31.353  1.00  0.00    -0.350 N 
ATOM      4  H   UNL     1     -39.292  19.409 -31.742  1.00  0.00     0.345 HD
ATOM      5  H   UNL     1     -38.114  20.492 -31.163  1.00  0.00     0.345 HD
ATOM      6  H   UNL     1     -37.653  19.125 -32.071  1.00  0.00     0.345 HD
ENDBRANCH   2   3
BRANCH   2   7
ATOM      7  C   UNL     1     -38.374  17.208 -30.424  1.00  0.00     0.100 C 
ATOM      8  O   UNL     1     -37.529  16.373 -30.004  1.00  0.00    -0.544 OA
ATOM      9  O   UNL     1     -39.432  16.772 -31.212  1.00  0.00    -0.544 OA
ENDBRANCH   2   7
ENDBRANCH   1   2
BRANCH   1  10
ATOM     10  C   UNL     1     -39.336  20.642 -28.952  1.00  0.00     0.223 C 
ATOM     11  O   UNL     1     -38.295  21.348 -28.871  1.00  0.00    -0.275 OA
ATOM     12  N   UNL     1     -40.619  21.268 -28.934  1.00  0.00    -0.369 N 
ATOM     13  H   UNL     1     -41.492  20.698 -28.993  1.00  0.00     0.159 HD
ATOM     14  H   UNL     1     -40.696  22.307 -28.858  1.00  0.00     0.159 HD
ENDBRANCH   1  10
TORSDOF 4
ENDMDL
MODEL 3
REMARK VINA RESULT:    -3.871     12.871     13.481
REMARK INTER + INTRA:          -4.936
REMARK INTER:                  -4.686
REMARK INTRA:                  -0.249
REMARK UNBOUND:                -0.272
REMARK SMILES NC(=O)C[C@H]([NH3+])C(=O)[O-]
REMARK SMILES IDX 4 1 5 2 6 3 7 7 8 8 9 9 2 10 3 11 1 12
REMARK H PARENT 6 4 6 5 6 6 1 13 1 14
REMARK Flexibility Score: inf
ROOT
ATOM      1  C   UNL     1     -37.458  17.522 -29.758  1.00  0.00     0.171 C 
ENDROOT
BRANCH   1   2
ATOM      2  C   UNL     1     -37.580  18.694 -28.759  1.00  0.00     0.237 C 
BRANCH   2   3
ATOM      3  N   UNL     1     -37.378  18.253 -27.373  1.00  0.00    -0.350 N 
ATOM      4  H   UNL     1     -38.018  18.787 -26.738  1.00  0.00     0.345 HD
ATOM      5  H   UNL     1     -37.574  17.231 -27.267  1.00  0.00     0.345 HD
ATOM      6  H   UNL     1     -36.393  18.445 -27.079  1.00  0.00     0.345 HD
ENDBRANCH   2   3
BRANCH   2   7
ATOM      7  C   UNL     1     -38.891  19.422 -28.920  1.00  0.00     0.100 C 
ATOM      8  O   UNL     1     -39.972  18.785 -29.039  1.00  0.00    -0.544 OA
ATOM      9  O   UNL     1     -38.904  20.809 -28.991  1.00  0.00    -0.544 OA
ENDBRANCH   2   7
ENDBRANCH   1   2
BRANCH   1  10
ATOM     10  C   UNL     1     -36.042  17.057 -29.959  1.00  0.00     0.223 C 
ATOM     11  O   UNL     1     -35.089  17.729 -29.483  1.00  0.00    -0.275 OA
ATOM     12  N   UNL     1     -35.768  15.869 -30.702  1.00  0.00    -0.369 N 
ATOM     13  H   UNL     1     -36.546  15.303 -31.110  1.00  0.00     0.159 HD
ATOM     14  H   UNL     1     -34.783  15.554 -30.847  1.00  0.00     0.159 HD
ENDBRANCH   1  10
TORSDOF 4
ENDMDL
MODEL 4
REMARK VINA RESULT:    -3.867     13.125     14.060
REMARK INTER + INTRA:          -4.930
REMARK INTER:                  -4.677
REMARK INTRA:                  -0.253
REMARK UNBOUND:                -0.272
REMARK SMILES NC(=O)C[C@H]([NH3+])C(=O)[O-]
REMARK SMILES IDX 4 1 5 2 6 3 7 7 8 8 9 9 2 10 3 11 1 12
REMARK H PARENT 6 4 6 5 6 6 1 13 1 14
REMARK Flexibility Score: inf
ROOT
ATOM      1  C   UNL     1     -39.563  21.279 -28.964  1.00  0.00     0.171 C 
ENDROOT
BRANCH   1   2
ATOM      2  C   UNL     1     -38.703  20.262 -29.744  1.00  0.00     0.237 C 
BRANCH   2   3
ATOM      3  N   UNL     1     -38.553  20.641 -31.155  1.00  0.00    -0.350 N 
ATOM      4  H   UNL     1     -37.547  20.846 -31.359  1.00  0.00     0.345 HD
ATOM      5  H   UNL     1     -38.877  19.876 -31.790  1.00  0.00     0.345 HD
ATOM      6  H   UNL     1     -39.107  21.506 -31.351  1.00  0.00     0.345 HD
ENDBRANCH   2   3
BRANCH   2   7
ATOM      7  C   UNL     1     -39.243  18.861 -29.606  1.00  0.00     0.100 C 
ATOM      8  O   UNL     1     -40.282  18.634 -28.930  1.00  0.00    -0.544 OA
ATOM      9  O   UNL     1     -38.560  17.800 -30.185  1.00  0.00    -0.544 OA
ENDBRANCH   2   7
ENDBRANCH   1   2
BRANCH   1  10
ATOM     10  C   UNL     1     -38.794  22.493 -28.520  1.00  0.00     0.223 C 
ATOM     11  O   UNL     1     -37.601  22.649 -28.894  1.00  0.00    -0.275 OA
ATOM     12  N   UNL     1     -39.399  23.460 -27.661  1.00  0.00    -0.369 N 
ATOM     13  H   UNL     1     -40.384  23.343 -27.335  1.00  0.00     0.159 HD
ATOM     14  H   UNL     1     -38.858  24.296 -27.347  1.00  0.00     0.159 HD
ENDBRANCH   1  10
TORSDOF 4
ENDMDL
MODEL 5
REMARK VINA RESULT:    -3.846      1.558      1.918
REMARK INTER + INTRA:          -4.905
REMARK INTER:                  -4.429
REMARK INTRA:                  -0.477
REMARK UNBOUND:                -0.272
REMARK SMILES NC(=O)C[C@H]([NH3+])C(=O)[O-]
REMARK SMILES IDX 4 1 5 2 6 3 7 7 8 8 9 9 2 10 3 11 1 12
REMARK H PARENT 6 4 6 5 6 6 1 13 1 14
REMARK Flexibility Score: inf
ROOT
ATOM      1  C   UNL     1     -49.112   9.228 -29.698  1.00  0.00     0.171 C 
ENDROOT
BRANCH   1   2
ATOM      2  C   UNL     1     -49.924  10.349 -30.381  1.00  0.00     0.237 C 
BRANCH   2   3
ATOM      3  N   UNL     1     -49.619  10.450 -31.815  1.00  0.00    -0.350 N 
ATOM      4  H   UNL     1     -48.605  10.673 -31.943  1.00  0.00     0.345 HD
ATOM      5  H   UNL     1     -49.834   9.555 -32.312  1.00  0.00     0.345 HD
ATOM      6  H   UNL     1     -50.180  11.222 -32.244  1.00  0.00     0.345 HD
ENDBRANCH   2   3
BRANCH   2   7
ATOM      7  C   UNL     1     -49.731  11.673 -29.684  1.00  0.00     0.100 C 
ATOM      8  O   UNL     1     -50.076  12.750 -30.239  1.00  0.00    -0.544 OA
ATOM      9  O   UNL     1     -49.118  11.712 -28.439  1.00  0.00    -0.544 OA
ENDBRANCH   2   7
ENDBRANCH   1   2
BRANCH   1  10
ATOM     10  C   UNL     1     -47.692   9.141 -30.184  1.00  0.00     0.223 C 
ATOM     11  O   UNL     1     -47.404   8.376 -31.143  1.00  0.00    -0.275 OA
ATOM     12  N   UNL     1     -46.662   9.903 -29.553  1.00  0.00    -0.369 N 
ATOM     13  H   UNL     1     -46.881  10.535 -28.751  1.00  0.00     0.159 HD
ATOM     14  H   UNL     1     -45.675   9.832 -29.887  1.00  0.00     0.159 HD
ENDBRANCH   1  10
TORSDOF 4
ENDMDL
MODEL 6
REMARK VINA RESULT:    -3.839     12.642     13.220
REMARK INTER + INTRA:          -4.897
REMARK INTER:                  -4.372
REMARK INTRA:                  -0.525
REMARK UNBOUND:                -0.272
REMARK SMILES NC(=O)C[C@H]([NH3+])C(=O)[O-]
REMARK SMILES IDX 4 1 5 2 6 3 7 7 8 8 9 9 2 10 3 11 1 12
REMARK H PARENT 6 4 6 5 6 6 1 13 1 14
REMARK Flexibility Score: inf
ROOT
ATOM      1  C   UNL     1     -39.109  18.253 -29.664  1.00  0.00     0.171 C 
ENDROOT
BRANCH   1   2
ATOM      2  C   UNL     1     -38.514  19.617 -30.075  1.00  0.00     0.237 C 
BRANCH   2   3
ATOM      3  N   UNL     1     -38.255  19.688 -31.519  1.00  0.00    -0.350 N 
ATOM      4  H   UNL     1     -37.885  18.769 -31.855  1.00  0.00     0.345 HD
ATOM      5  H   UNL     1     -39.127  19.914 -32.050  1.00  0.00     0.345 HD
ATOM      6  H   UNL     1     -37.535  20.421 -31.715  1.00  0.00     0.345 HD
ENDBRANCH   2   3
BRANCH   2   7
ATOM      7  C   UNL     1     -37.276  19.942 -29.278  1.00  0.00     0.100 C 
ATOM      8  O   UNL     1     -37.243  20.946 -28.517  1.00  0.00    -0.544 OA
ATOM      9  O   UNL     1     -36.139  19.157 -29.421  1.00  0.00    -0.544 OA
ENDBRANCH   2   7
ENDBRANCH   1   2
BRANCH   1  10
ATOM     10  C   UNL     1     -38.681  17.123 -30.559  1.00  0.00     0.223 C 
ATOM     11  O   UNL     1     -39.422  16.766 -31.514  1.00  0.00    -0.275 OA
ATOM     12  N   UNL     1     -37.452  16.437 -30.324  1.00  0.00    -0.369 N 
ATOM     13  H   UNL     1     -36.829  16.714 -29.532  1.00  0.00     0.159 HD
ATOM     14  H   UNL     1     -37.163  15.647 -30.942  1.00  0.00     0.159 HD
ENDBRANCH   1  10
TORSDOF 4
ENDMDL
MODEL 7
REMARK VINA RESULT:    -3.807     11.887     12.535
REMARK INTER + INTRA:          -4.858
REMARK INTER:                  -4.540
REMARK INTRA:                  -0.318
REMARK UNBOUND:                -0.272
REMARK SMILES NC(=O)C[C@H]([NH3+])C(=O)[O-]
REMARK SMILES IDX 4 1 5 2 6 3 7 7 8 8 9 9 2 10 3 11 1 12
REMARK H PARENT 6 4 6 5 6 6 1 13 1 14
REMARK Flexibility Score: inf
ROOT
ATOM      1  C   UNL     1     -38.151  18.895 -30.473  1.00  0.00     0.171 C 
ENDROOT
BRANCH   1   2
ATOM      2  C   UNL     1     -38.396  19.522 -29.083  1.00  0.00     0.237 C 
BRANCH   2   3
ATOM      3  N   UNL     1     -37.977  18.626 -27.997  1.00  0.00    -0.350 N 
ATOM      4  H   UNL     1     -38.814  18.135 -27.605  1.00  0.00     0.345 HD
ATOM      5  H   UNL     1     -37.295  17.909 -28.338  1.00  0.00     0.345 HD
ATOM      6  H   UNL     1     -37.535  19.181 -27.229  1.00  0.00     0.345 HD
ENDBRANCH   2   3
BRANCH   2   7
ATOM      7  C   UNL     1     -39.831  19.953 -28.917  1.00  0.00     0.100 C 
ATOM      8  O   UNL     1     -40.214  21.088 -29.310  1.00  0.00    -0.544 OA
ATOM      9  O   UNL     1     -40.733  19.112 -28.278  1.00  0.00    -0.544 OA
ENDBRANCH   2   7
ENDBRANCH   1   2
BRANCH   1  10
ATOM     10  C   UNL     1     -38.188  17.392 -30.463  1.00  0.00     0.223 C 
ATOM     11  O   UNL     1     -37.230  16.746 -29.960  1.00  0.00    -0.275 OA
ATOM     12  N   UNL     1     -39.290  16.690 -31.036  1.00  0.00    -0.369 N 
ATOM     13  H   UNL     1     -40.089  17.209 -31.465  1.00  0.00     0.159 HD
ATOM     14  H   UNL     1     -39.308  15.646 -31.036  1.00  0.00     0.159 HD
ENDBRANCH   1  10
TORSDOF 4
ENDMDL
MODEL 8
REMARK VINA RESULT:    -3.758      3.632      4.337
REMARK INTER + INTRA:          -4.799
REMARK INTER:                  -4.459
REMARK INTRA:                  -0.340
REMARK UNBOUND:                -0.272
REMARK SMILES NC(=O)C[C@H]([NH3+])C(=O)[O-]
REMARK SMILES IDX 4 1 5 2 6 3 7 7 8 8 9 9 2 10 3 11 1 12
REMARK H PARENT 6 4 6 5 6 6 1 13 1 14
REMARK Flexibility Score: inf
ROOT
ATOM      1  C   UNL     1     -48.840   8.593 -29.981  1.00  0.00     0.171 C 
ENDROOT
BRANCH   1   2
ATOM      2  C   UNL     1     -49.043   7.803 -31.292  1.00  0.00     0.237 C 
BRANCH   2   3
ATOM      3  N   UNL     1     -48.070   6.711 -31.429  1.00  0.00    -0.350 N 
ATOM      4  H   UNL     1     -48.155   6.060 -30.614  1.00  0.00     0.345 HD
ATOM      5  H   UNL     1     -48.228   6.170 -32.311  1.00  0.00     0.345 HD
ATOM      6  H   UNL     1     -47.099   7.100 -31.436  1.00  0.00     0.345 HD
ENDBRANCH   2   3
BRANCH   2   7
ATOM      7  C   UNL     1     -49.020   8.714 -32.494  1.00  0.00     0.100 C 
ATOM      8  O   UNL     1     -49.497   9.878 -32.431  1.00  0.00    -0.544 OA
ATOM      9  O   UNL     1     -48.514   8.248 -33.701  1.00  0.00    -0.544 OA
ENDBRANCH   2   7
ENDBRANCH   1   2
BRANCH   1  10
ATOM     10  C   UNL     1     -47.396   8.724 -29.583  1.00  0.00     0.223 C 
ATOM     11  O   UNL     1     -46.790   7.735 -29.090  1.00  0.00    -0.275 OA
ATOM     12  N   UNL     1     -46.711   9.966 -29.740  1.00  0.00    -0.369 N 
ATOM     13  H   UNL     1     -47.199  10.799 -30.140  1.00  0.00     0.159 HD
ATOM     14  H   UNL     1     -45.711  10.056 -29.453  1.00  0.00     0.159 HD
ENDBRANCH   1  10
TORSDOF 4
ENDMDL
MODEL 9
REMARK VINA RESULT:    -3.738      3.999      5.227
REMARK INTER + INTRA:          -4.774
REMARK INTER:                  -4.524
REMARK INTRA:                  -0.250
REMARK UNBOUND:                -0.272
REMARK SMILES NC(=O)C[C@H]([NH3+])C(=O)[O-]
REMARK SMILES IDX 4 1 5 2 6 3 7 7 8 8 9 9 2 10 3 11 1 12
REMARK H PARENT 6 4 6 5 6 6 1 13 1 14
REMARK Flexibility Score: inf
ROOT
ATOM      1  C   UNL     1     -50.488  15.930 -30.730  1.00  0.00     0.171 C 
ENDROOT
BRANCH   1   2
ATOM      2  C   UNL     1     -51.954  16.326 -30.449  1.00  0.00     0.237 C 
BRANCH   2   3
ATOM      3  N   UNL     1     -52.843  15.952 -31.556  1.00  0.00    -0.350 N 
ATOM      4  H   UNL     1     -52.581  16.491 -32.415  1.00  0.00     0.345 HD
ATOM      5  H   UNL     1     -52.778  14.929 -31.767  1.00  0.00     0.345 HD
ATOM      6  H   UNL     1     -53.833  16.189 -31.312  1.00  0.00     0.345 HD
ENDBRANCH   2   3
BRANCH   2   7
ATOM      7  C   UNL     1     -52.075  17.792 -30.117  1.00  0.00     0.100 C 
ATOM      8  O   UNL     1     -52.117  18.659 -31.030  1.00  0.00    -0.544 OA
ATOM      9  O   UNL     1     -52.089  18.198 -28.788  1.00  0.00    -0.544 OA
ENDBRANCH   2   7
ENDBRANCH   1   2
BRANCH   1  10
ATOM     10  C   UNL     1     -50.191  14.489 -30.420  1.00  0.00     0.223 C 
ATOM     11  O   UNL     1     -51.139  13.682 -30.227  1.00  0.00    -0.275 OA
ATOM     12  N   UNL     1     -48.842  14.031 -30.324  1.00  0.00    -0.369 N 
ATOM     13  H   UNL     1     -48.044  14.688 -30.473  1.00  0.00     0.159 HD
ATOM     14  H   UNL     1     -48.640  13.032 -30.098  1.00  0.00     0.159 HD
ENDBRANCH   1  10
TORSDOF 4
ENDMDL
