MODEL 1
REMARK VINA RESULT:    -4.304      0.000      0.000
REMARK INTER + INTRA:          -6.430
REMARK INTER:                  -6.066
REMARK INTRA:                  -0.364
REMARK UNBOUND:                -0.364
REMARK SMILES CCCCCCCCC(=O)[O-]
REMARK SMILES IDX 6 1 7 2 8 3 9 4 10 5 11 6 5 7 4 8 3 9 2 10 1 11
REMARK H PARENT
REMARK Flexibility Score: inf
ROOT
ATOM      1  C   UNL     1      36.469 106.294 262.281  1.00  0.00     0.000 C 
ENDROOT
BRANCH   1   2
ATOM      2  C   UNL     1      35.954 106.718 263.664  1.00  0.00     0.006 C 
BRANCH   2   3
ATOM      3  C   UNL     1      35.244 105.572 264.397  1.00  0.00     0.053 C 
BRANCH   3   4
ATOM      4  C   UNL     1      35.148 105.830 265.869  1.00  0.00     0.041 C 
ATOM      5  O   UNL     1      35.110 104.868 266.681  1.00  0.00    -0.550 OA
ATOM      6  O   UNL     1      35.069 107.133 266.343  1.00  0.00    -0.550 OA
ENDBRANCH   3   4
ENDBRANCH   2   3
ENDBRANCH   1   2
BRANCH   1   7
ATOM      7  C   UNL     1      37.825 106.942 261.976  1.00  0.00     0.000 C 
BRANCH   7   8
ATOM      8  C   UNL     1      38.450 106.339 260.710  1.00  0.00    -0.000 C 
BRANCH   8   9
ATOM      9  C   UNL     1      37.444 105.529 259.872  1.00  0.00    -0.000 C 
BRANCH   9  10
ATOM     10  C   UNL     1      37.176 106.089 258.463  1.00  0.00    -0.003 C 
ATOM     11  C   UNL     1      36.310 107.348 258.476  1.00  0.00     0.004 C 
ENDBRANCH   9  10
ENDBRANCH   8   9
ENDBRANCH   7   8
ENDBRANCH   1   7
TORSDOF 7
ENDMDL
MODEL 2
REMARK VINA RESULT:    -4.215      1.209      1.903
REMARK INTER + INTRA:          -6.304
REMARK INTER:                  -6.037
REMARK INTRA:                  -0.268
REMARK UNBOUND:                -0.364
REMARK SMILES CCCCCCCCC(=O)[O-]
REMARK SMILES IDX 6 1 7 2 8 3 9 4 10 5 11 6 5 7 4 8 3 9 2 10 1 11
REMARK H PARENT
REMARK Flexibility Score: inf
ROOT
ATOM      1  C   UNL     1      35.763 105.384 263.865  1.00  0.00     0.000 C 
ENDROOT
BRANCH   1   2
ATOM      2  C   UNL     1      34.903 105.829 265.057  1.00  0.00     0.006 C 
BRANCH   2   3
ATOM      3  C   UNL     1      35.220 107.265 265.497  1.00  0.00     0.053 C 
BRANCH   3   4
ATOM      4  C   UNL     1      35.160 107.414 266.987  1.00  0.00     0.041 C 
ATOM      5  O   UNL     1      35.240 106.401 267.730  1.00  0.00    -0.550 OA
ATOM      6  O   UNL     1      34.984 108.670 267.554  1.00  0.00    -0.550 OA
ENDBRANCH   3   4
ENDBRANCH   2   3
ENDBRANCH   1   2
BRANCH   1   7
ATOM      7  C   UNL     1      36.664 106.526 263.379  1.00  0.00     0.000 C 
BRANCH   7   8
ATOM      8  C   UNL     1      36.756 106.539 261.846  1.00  0.00    -0.000 C 
BRANCH   8   9
ATOM      9  C   UNL     1      38.207 106.509 261.332  1.00  0.00    -0.000 C 
BRANCH   9  10
ATOM     10  C   UNL     1      38.367 106.050 259.871  1.00  0.00    -0.003 C 
ATOM     11  C   UNL     1      37.081 106.189 259.058  1.00  0.00     0.004 C 
ENDBRANCH   9  10
ENDBRANCH   8   9
ENDBRANCH   7   8
ENDBRANCH   1   7
TORSDOF 7
ENDMDL
MODEL 3
REMARK VINA RESULT:    -4.164      3.408      6.595
REMARK INTER + INTRA:          -6.232
REMARK INTER:                  -6.001
REMARK INTRA:                  -0.232
REMARK UNBOUND:                -0.364
REMARK SMILES CCCCCCCCC(=O)[O-]
REMARK SMILES IDX 6 1 7 2 8 3 9 4 10 5 11 6 5 7 4 8 3 9 2 10 1 11
REMARK H PARENT
REMARK Flexibility Score: inf
ROOT
ATOM      1  C   UNL     1      36.169 106.463 263.887  1.00  0.00     0.000 C 
ENDROOT
BRANCH   1   2
ATOM      2  C   UNL     1      36.374 106.045 262.423  1.00  0.00     0.006 C 
BRANCH   2   3
ATOM      3  C   UNL     1      37.463 106.875 261.729  1.00  0.00     0.053 C 
BRANCH   3   4
ATOM      4  C   UNL     1      37.622 106.489 260.290  1.00  0.00     0.041 C 
ATOM      5  O   UNL     1      38.562 105.730 259.937  1.00  0.00    -0.550 OA
ATOM      6  O   UNL     1      36.750 106.994 259.334  1.00  0.00    -0.550 OA
ENDBRANCH   3   4
ENDBRANCH   2   3
ENDBRANCH   1   2
BRANCH   1   7
ATOM      7  C   UNL     1      35.258 105.470 264.619  1.00  0.00     0.000 C 
BRANCH   7   8
ATOM      8  C   UNL     1      35.189 105.792 266.119  1.00  0.00    -0.000 C 
BRANCH   8   9
ATOM      9  C   UNL     1      35.228 107.303 266.411  1.00  0.00    -0.000 C 
BRANCH   9  10
ATOM     10  C   UNL     1      35.113 107.678 267.900  1.00  0.00    -0.003 C 
ATOM     11  C   UNL     1      34.875 106.469 268.803  1.00  0.00     0.004 C 
ENDBRANCH   9  10
ENDBRANCH   8   9
ENDBRANCH   7   8
ENDBRANCH   1   7
TORSDOF 7
ENDMDL
MODEL 4
REMARK VINA RESULT:    -3.955      2.135      3.277
REMARK INTER + INTRA:          -5.938
REMARK INTER:                  -5.704
REMARK INTRA:                  -0.234
REMARK UNBOUND:                -0.364
REMARK SMILES CCCCCCCCC(=O)[O-]
REMARK SMILES IDX 6 1 7 2 8 3 9 4 10 5 11 6 5 7 4 8 3 9 2 10 1 11
REMARK H PARENT
REMARK Flexibility Score: inf
ROOT
ATOM      1  C   UNL     1      34.963 105.884 265.056  1.00  0.00     0.000 C 
ENDROOT
BRANCH   1   2
ATOM      2  C   UNL     1      35.179 106.936 266.155  1.00  0.00     0.006 C 
BRANCH   2   3
ATOM      3  C   UNL     1      35.112 106.328 267.562  1.00  0.00     0.053 C 
BRANCH   3   4
ATOM      4  C   UNL     1      35.236 107.377 268.625  1.00  0.00     0.041 C 
ATOM      5  O   UNL     1      35.462 107.048 269.819  1.00  0.00    -0.550 OA
ATOM      6  O   UNL     1      35.068 108.718 268.302  1.00  0.00    -0.550 OA
ENDBRANCH   3   4
ENDBRANCH   2   3
ENDBRANCH   1   2
BRANCH   1   7
ATOM      7  C   UNL     1      35.181 106.489 263.664  1.00  0.00     0.000 C 
BRANCH   7   8
ATOM      8  C   UNL     1      36.345 105.798 262.941  1.00  0.00    -0.000 C 
BRANCH   8   9
ATOM      9  C   UNL     1      36.722 106.487 261.616  1.00  0.00    -0.000 C 
BRANCH   9  10
ATOM     10  C   UNL     1      38.231 106.717 261.413  1.00  0.00    -0.003 C 
ATOM     11  C   UNL     1      38.964 107.051 262.710  1.00  0.00     0.004 C 
ENDBRANCH   9  10
ENDBRANCH   8   9
ENDBRANCH   7   8
ENDBRANCH   1   7
TORSDOF 7
ENDMDL
MODEL 5
REMARK VINA RESULT:    -3.894      3.532      6.222
REMARK INTER + INTRA:          -5.852
REMARK INTER:                  -5.551
REMARK INTRA:                  -0.300
REMARK UNBOUND:                -0.364
REMARK SMILES CCCCCCCCC(=O)[O-]
REMARK SMILES IDX 6 1 7 2 8 3 9 4 10 5 11 6 5 7 4 8 3 9 2 10 1 11
REMARK H PARENT
REMARK Flexibility Score: inf
ROOT
ATOM      1  C   UNL     1      37.368 106.671 263.328  1.00  0.00     0.000 C 
ENDROOT
BRANCH   1   2
ATOM      2  C   UNL     1      37.963 107.023 261.956  1.00  0.00     0.006 C 
BRANCH   2   3
ATOM      3  C   UNL     1      36.996 106.712 260.806  1.00  0.00     0.053 C 
BRANCH   3   4
ATOM      4  C   UNL     1      37.619 105.807 259.787  1.00  0.00     0.041 C 
ATOM      5  O   UNL     1      37.079 105.652 258.660  1.00  0.00    -0.550 OA
ATOM      6  O   UNL     1      38.781 105.110 260.093  1.00  0.00    -0.550 OA
ENDBRANCH   3   4
ENDBRANCH   2   3
ENDBRANCH   1   2
BRANCH   1   7
ATOM      7  C   UNL     1      36.047 105.906 263.175  1.00  0.00     0.000 C 
BRANCH   7   8
ATOM      8  C   UNL     1      35.470 105.528 264.546  1.00  0.00    -0.000 C 
BRANCH   8   9
ATOM      9  C   UNL     1      35.015 106.751 265.363  1.00  0.00    -0.000 C 
BRANCH   9  10
ATOM     10  C   UNL     1      34.875 106.504 266.876  1.00  0.00    -0.003 C 
ATOM     11  C   UNL     1      35.138 107.755 267.713  1.00  0.00     0.004 C 
ENDBRANCH   9  10
ENDBRANCH   8   9
ENDBRANCH   7   8
ENDBRANCH   1   7
TORSDOF 7
ENDMDL
MODEL 6
REMARK VINA RESULT:    -3.061      1.546      2.562
REMARK INTER + INTRA:          -4.678
REMARK INTER:                  -4.147
REMARK INTRA:                  -0.531
REMARK UNBOUND:                -0.364
REMARK SMILES CCCCCCCCC(=O)[O-]
REMARK SMILES IDX 6 1 7 2 8 3 9 4 10 5 11 6 5 7 4 8 3 9 2 10 1 11
REMARK H PARENT
REMARK Flexibility Score: inf
ROOT
ATOM      1  C   UNL     1      35.870 104.794 262.384  1.00  0.00     0.000 C 
ENDROOT
BRANCH   1   2
ATOM      2  C   UNL     1      35.499 105.931 263.348  1.00  0.00     0.006 C 
BRANCH   2   3
ATOM      3  C   UNL     1      35.300 105.432 264.786  1.00  0.00     0.053 C 
BRANCH   3   4
ATOM      4  C   UNL     1      35.352 106.557 265.775  1.00  0.00     0.041 C 
ATOM      5  O   UNL     1      35.553 107.737 265.384  1.00  0.00    -0.550 OA
ATOM      6  O   UNL     1      35.210 106.297 267.132  1.00  0.00    -0.550 OA
ENDBRANCH   3   4
ENDBRANCH   2   3
ENDBRANCH   1   2
BRANCH   1   7
ATOM      7  C   UNL     1      36.175 105.337 260.983  1.00  0.00     0.000 C 
BRANCH   7   8
ATOM      8  C   UNL     1      37.070 106.582 261.060  1.00  0.00    -0.000 C 
BRANCH   8   9
ATOM      9  C   UNL     1      38.557 106.267 260.813  1.00  0.00    -0.000 C 
BRANCH   9  10
ATOM     10  C   UNL     1      39.522 106.822 261.877  1.00  0.00    -0.003 C 
ATOM     11  C   UNL     1      38.803 107.354 263.116  1.00  0.00     0.004 C 
ENDBRANCH   9  10
ENDBRANCH   8   9
ENDBRANCH   7   8
ENDBRANCH   1   7
TORSDOF 7
ENDMDL
MODEL 7
REMARK VINA RESULT:    -2.649      3.164      6.858
REMARK INTER + INTRA:          -4.097
REMARK INTER:                  -3.865
REMARK INTRA:                  -0.232
REMARK UNBOUND:                -0.364
REMARK SMILES CCCCCCCCC(=O)[O-]
REMARK SMILES IDX 6 1 7 2 8 3 9 4 10 5 11 6 5 7 4 8 3 9 2 10 1 11
REMARK H PARENT
REMARK Flexibility Score: inf
ROOT
ATOM      1  C   UNL     1      36.110 105.451 265.284  1.00  0.00     0.000 C 
ENDROOT
BRANCH   1   2
ATOM      2  C   UNL     1      36.090 105.357 263.751  1.00  0.00     0.006 C 
BRANCH   2   3
ATOM      3  C   UNL     1      36.231 106.731 263.082  1.00  0.00     0.053 C 
BRANCH   3   4
ATOM      4  C   UNL     1      36.971 106.642 261.783  1.00  0.00     0.041 C 
ATOM      5  O   UNL     1      38.103 107.181 261.658  1.00  0.00    -0.550 OA
ATOM      6  O   UNL     1      36.397 105.990 260.699  1.00  0.00    -0.550 OA
ENDBRANCH   3   4
ENDBRANCH   2   3
ENDBRANCH   1   2
BRANCH   1   7
ATOM      7  C   UNL     1      35.493 104.199 265.920  1.00  0.00     0.000 C 
BRANCH   7   8
ATOM      8  C   UNL     1      34.875 104.526 267.287  1.00  0.00    -0.000 C 
BRANCH   8   9
ATOM      9  C   UNL     1      35.261 105.925 267.801  1.00  0.00    -0.000 C 
BRANCH   9  10
ATOM     10  C   UNL     1      34.875 106.207 269.264  1.00  0.00    -0.003 C 
ATOM     11  C   UNL     1      35.449 107.522 269.790  1.00  0.00     0.004 C 
ENDBRANCH   9  10
ENDBRANCH   8   9
ENDBRANCH   7   8
ENDBRANCH   1   7
TORSDOF 7
ENDMDL
MODEL 8
REMARK VINA RESULT:    -2.572      2.569      4.363
REMARK INTER + INTRA:          -3.988
REMARK INTER:                  -3.861
REMARK INTRA:                  -0.128
REMARK UNBOUND:                -0.364
REMARK SMILES CCCCCCCCC(=O)[O-]
REMARK SMILES IDX 6 1 7 2 8 3 9 4 10 5 11 6 5 7 4 8 3 9 2 10 1 11
REMARK H PARENT
REMARK Flexibility Score: inf
ROOT
ATOM      1  C   UNL     1      35.803 108.705 266.567  1.00  0.00     0.000 C 
ENDROOT
BRANCH   1   2
ATOM      2  C   UNL     1      34.875 108.689 267.791  1.00  0.00     0.006 C 
BRANCH   2   3
ATOM      3  C   UNL     1      35.534 108.030 269.011  1.00  0.00     0.053 C 
BRANCH   3   4
ATOM      4  C   UNL     1      35.162 106.584 269.127  1.00  0.00     0.041 C 
ATOM      5  O   UNL     1      35.135 106.024 270.255  1.00  0.00    -0.550 OA
ATOM      6  O   UNL     1      34.876 105.845 267.986  1.00  0.00    -0.550 OA
ENDBRANCH   3   4
ENDBRANCH   2   3
ENDBRANCH   1   2
BRANCH   1   7
ATOM      7  C   UNL     1      35.151 107.995 265.374  1.00  0.00     0.000 C 
BRANCH   7   8
ATOM      8  C   UNL     1      35.838 106.651 265.092  1.00  0.00    -0.000 C 
BRANCH   8   9
ATOM      9  C   UNL     1      35.476 106.071 263.713  1.00  0.00    -0.000 C 
BRANCH   9  10
ATOM     10  C   UNL     1      36.405 106.505 262.564  1.00  0.00    -0.003 C 
ATOM     11  C   UNL     1      37.773 106.981 263.050  1.00  0.00     0.004 C 
ENDBRANCH   9  10
ENDBRANCH   8   9
ENDBRANCH   7   8
ENDBRANCH   1   7
TORSDOF 7
ENDMDL
MODEL 9
REMARK VINA RESULT:    -2.512      3.690      5.328
REMARK INTER + INTRA:          -3.903
REMARK INTER:                  -3.499
REMARK INTRA:                  -0.404
REMARK UNBOUND:                -0.364
REMARK SMILES CCCCCCCCC(=O)[O-]
REMARK SMILES IDX 6 1 7 2 8 3 9 4 10 5 11 6 5 7 4 8 3 9 2 10 1 11
REMARK H PARENT
REMARK Flexibility Score: inf
ROOT
ATOM      1  C   UNL     1      35.124 104.653 262.248  1.00  0.00     0.000 C 
ENDROOT
BRANCH   1   2
ATOM      2  C   UNL     1      36.374 104.629 261.354  1.00  0.00     0.006 C 
BRANCH   2   3
ATOM      3  C   UNL     1      36.375 105.768 260.327  1.00  0.00     0.053 C 
BRANCH   3   4
ATOM      4  C   UNL     1      37.580 105.712 259.438  1.00  0.00     0.041 C 
ATOM      5  O   UNL     1      38.710 105.430 259.917  1.00  0.00    -0.550 OA
ATOM      6  O   UNL     1      37.461 106.002 258.085  1.00  0.00    -0.550 OA
ENDBRANCH   3   4
ENDBRANCH   2   3
ENDBRANCH   1   2
BRANCH   1   7
ATOM      7  C   UNL     1      35.472 105.116 263.668  1.00  0.00     0.000 C 
BRANCH   7   8
ATOM      8  C   UNL     1      35.759 106.624 263.698  1.00  0.00    -0.000 C 
BRANCH   8   9
ATOM      9  C   UNL     1      37.232 106.948 264.006  1.00  0.00    -0.000 C 
BRANCH   9  10
ATOM     10  C   UNL     1      38.065 107.394 262.790  1.00  0.00    -0.003 C 
ATOM     11  C   UNL     1      39.537 106.999 262.897  1.00  0.00     0.004 C 
ENDBRANCH   9  10
ENDBRANCH   8   9
ENDBRANCH   7   8
ENDBRANCH   1   7
TORSDOF 7
ENDMDL
