MODEL 1
REMARK VINA RESULT:    -4.327      0.000      0.000
REMARK INTER + INTRA:          -6.820
REMARK INTER:                  -6.351
REMARK INTRA:                  -0.470
REMARK UNBOUND:                -0.470
REMARK SMILES O=C([O-])CCCCCCCC(=O)[O-]
REMARK SMILES IDX 7 1 6 2 5 3 4 4 2 5 1 6 3 7 8 8 9 9 10 10 11 11 12 12 13 13
REMARK H PARENT
REMARK Flexibility Score: inf
ROOT
ATOM      1  C   UNL     1      14.039  12.665 -21.654  1.00  0.00     0.000 C 
ENDROOT
BRANCH   1   2
ATOM      2  C   UNL     1      13.216  11.372 -21.532  1.00  0.00     0.000 C 
BRANCH   2   3
ATOM      3  C   UNL     1      12.429  11.294 -20.214  1.00  0.00     0.006 C 
BRANCH   3   4
ATOM      4  C   UNL     1      11.931  12.680 -19.792  1.00  0.00     0.053 C 
BRANCH   4   5
ATOM      5  C   UNL     1      11.903  12.795 -18.301  1.00  0.00     0.041 C 
ATOM      6  O   UNL     1      12.934  13.153 -17.673  1.00  0.00    -0.550 OA
ATOM      7  O   UNL     1      10.752  12.459 -17.600  1.00  0.00    -0.550 OA
ENDBRANCH   4   5
ENDBRANCH   3   4
ENDBRANCH   2   3
ENDBRANCH   1   2
BRANCH   1   8
ATOM      8  C   UNL     1      15.441  12.535 -21.043  1.00  0.00     0.000 C 
BRANCH   8   9
ATOM      9  C   UNL     1      15.645  13.552 -19.914  1.00  0.00     0.006 C 
BRANCH   9  10
ATOM     10  C   UNL     1      17.115  13.617 -19.489  1.00  0.00     0.053 C 
BRANCH  10  11
ATOM     11  C   UNL     1      17.237  14.167 -18.104  1.00  0.00     0.041 C 
ATOM     12  O   UNL     1      17.533  13.408 -17.144  1.00  0.00    -0.550 OA
ATOM     13  O   UNL     1      17.073  15.528 -17.880  1.00  0.00    -0.550 OA
ENDBRANCH  10  11
ENDBRANCH   9  10
ENDBRANCH   8   9
ENDBRANCH   1   8
TORSDOF 8
ENDMDL
MODEL 2
REMARK VINA RESULT:    -4.324      0.943      5.137
REMARK INTER + INTRA:          -6.816
REMARK INTER:                  -6.356
REMARK INTRA:                  -0.460
REMARK UNBOUND:                -0.470
REMARK SMILES O=C([O-])CCCCCCCC(=O)[O-]
REMARK SMILES IDX 7 1 6 2 5 3 4 4 2 5 1 6 3 7 8 8 9 9 10 10 11 11 12 12 13 13
REMARK H PARENT
REMARK Flexibility Score: inf
ROOT
ATOM      1  C   UNL     1      14.622  12.779 -21.077  1.00  0.00     0.000 C 
ENDROOT
BRANCH   1   2
ATOM      2  C   UNL     1      16.105  12.373 -21.062  1.00  0.00     0.000 C 
BRANCH   2   3
ATOM      3  C   UNL     1      16.937  13.209 -20.078  1.00  0.00     0.006 C 
BRANCH   3   4
ATOM      4  C   UNL     1      16.058  14.231 -19.349  1.00  0.00     0.053 C 
BRANCH   4   5
ATOM      5  C   UNL     1      16.832  14.908 -18.263  1.00  0.00     0.041 C 
ATOM      6  O   UNL     1      17.575  14.235 -17.500  1.00  0.00    -0.550 OA
ATOM      7  O   UNL     1      16.696  16.275 -18.061  1.00  0.00    -0.550 OA
ENDBRANCH   4   5
ENDBRANCH   3   4
ENDBRANCH   2   3
ENDBRANCH   1   2
BRANCH   1   8
ATOM      8  C   UNL     1      13.708  11.667 -21.611  1.00  0.00     0.000 C 
BRANCH   8   9
ATOM      9  C   UNL     1      12.613  11.321 -20.596  1.00  0.00     0.006 C 
BRANCH   9  10
ATOM     10  C   UNL     1      12.483  12.415 -19.532  1.00  0.00     0.053 C 
BRANCH  10  11
ATOM     11  C   UNL     1      11.168  12.308 -18.827  1.00  0.00     0.041 C 
ATOM     12  O   UNL     1      11.129  12.106 -17.585  1.00  0.00    -0.550 OA
ATOM     13  O   UNL     1       9.985  12.481 -19.534  1.00  0.00    -0.550 OA
ENDBRANCH  10  11
ENDBRANCH   9  10
ENDBRANCH   8   9
ENDBRANCH   1   8
TORSDOF 8
ENDMDL
MODEL 3
REMARK VINA RESULT:    -4.217      3.881      5.032
REMARK INTER + INTRA:          -6.659
REMARK INTER:                  -6.124
REMARK INTRA:                  -0.535
REMARK UNBOUND:                -0.470
REMARK SMILES O=C([O-])CCCCCCCC(=O)[O-]
REMARK SMILES IDX 7 1 6 2 5 3 4 4 2 5 1 6 3 7 8 8 9 9 10 10 11 11 12 12 13 13
REMARK H PARENT
REMARK Flexibility Score: inf
ROOT
ATOM      1  C   UNL     1      14.302  17.939 -17.098  1.00  0.00     0.000 C 
ENDROOT
BRANCH   1   2
ATOM      2  C   UNL     1      13.763  17.799 -15.664  1.00  0.00     0.000 C 
BRANCH   2   3
ATOM      3  C   UNL     1      12.669  16.726 -15.546  1.00  0.00     0.006 C 
BRANCH   3   4
ATOM      4  C   UNL     1      11.940  16.540 -16.881  1.00  0.00     0.053 C 
BRANCH   4   5
ATOM      5  C   UNL     1      10.572  15.977 -16.656  1.00  0.00     0.041 C 
ATOM      6  O   UNL     1       9.804  16.496 -15.804  1.00  0.00    -0.550 OA
ATOM      7  O   UNL     1      10.164  14.846 -17.352  1.00  0.00    -0.550 OA
ENDBRANCH   4   5
ENDBRANCH   3   4
ENDBRANCH   2   3
ENDBRANCH   1   2
BRANCH   1   8
ATOM      8  C   UNL     1      15.819  17.721 -17.184  1.00  0.00     0.000 C 
BRANCH   8   9
ATOM      9  C   UNL     1      16.251  16.524 -16.329  1.00  0.00     0.006 C 
BRANCH   9  10
ATOM     10  C   UNL     1      15.930  15.201 -17.031  1.00  0.00     0.053 C 
BRANCH  10  11
ATOM     11  C   UNL     1      17.158  14.634 -17.669  1.00  0.00     0.041 C 
ATOM     12  O   UNL     1      17.513  15.017 -18.814  1.00  0.00    -0.550 OA
ATOM     13  O   UNL     1      17.940  13.718 -16.976  1.00  0.00    -0.550 OA
ENDBRANCH  10  11
ENDBRANCH   9  10
ENDBRANCH   8   9
ENDBRANCH   1   8
TORSDOF 8
ENDMDL
MODEL 4
REMARK VINA RESULT:    -4.168      3.939      6.888
REMARK INTER + INTRA:          -6.587
REMARK INTER:                  -6.000
REMARK INTRA:                  -0.587
REMARK UNBOUND:                -0.470
REMARK SMILES O=C([O-])CCCCCCCC(=O)[O-]
REMARK SMILES IDX 7 1 6 2 5 3 4 4 2 5 1 6 3 7 8 8 9 9 10 10 11 11 12 12 13 13
REMARK H PARENT
REMARK Flexibility Score: inf
ROOT
ATOM      1  C   UNL     1      14.226  17.481 -17.428  1.00  0.00     0.000 C 
ENDROOT
BRANCH   1   2
ATOM      2  C   UNL     1      15.727  17.727 -17.199  1.00  0.00     0.000 C 
BRANCH   2   3
ATOM      3  C   UNL     1      16.365  16.673 -16.281  1.00  0.00     0.006 C 
BRANCH   3   4
ATOM      4  C   UNL     1      16.018  15.257 -16.751  1.00  0.00     0.053 C 
BRANCH   4   5
ATOM      5  C   UNL     1      17.166  14.659 -17.501  1.00  0.00     0.041 C 
ATOM      6  O   UNL     1      17.887  13.778 -16.962  1.00  0.00    -0.550 OA
ATOM      7  O   UNL     1      17.470  15.109 -18.779  1.00  0.00    -0.550 OA
ENDBRANCH   4   5
ENDBRANCH   3   4
ENDBRANCH   2   3
ENDBRANCH   1   2
BRANCH   1   8
ATOM      8  C   UNL     1      13.376  17.814 -16.193  1.00  0.00     0.000 C 
BRANCH   8   9
ATOM      9  C   UNL     1      12.621  16.576 -15.696  1.00  0.00     0.006 C 
BRANCH   9  10
ATOM     10  C   UNL     1      11.922  15.856 -16.853  1.00  0.00     0.053 C 
BRANCH  10  11
ATOM     11  C   UNL     1      10.437  16.003 -16.741  1.00  0.00     0.041 C 
ATOM     12  O   UNL     1       9.923  16.470 -15.691  1.00  0.00    -0.550 OA
ATOM     13  O   UNL     1       9.624  15.671 -17.817  1.00  0.00    -0.550 OA
ENDBRANCH  10  11
ENDBRANCH   9  10
ENDBRANCH   8   9
ENDBRANCH   1   8
TORSDOF 8
ENDMDL
MODEL 5
REMARK VINA RESULT:    -4.148      3.077      4.550
REMARK INTER + INTRA:          -6.558
REMARK INTER:                  -5.729
REMARK INTRA:                  -0.829
REMARK UNBOUND:                -0.470
REMARK SMILES O=C([O-])CCCCCCCC(=O)[O-]
REMARK SMILES IDX 7 1 6 2 5 3 4 4 2 5 1 6 3 7 8 8 9 9 10 10 11 11 12 12 13 13
REMARK H PARENT
REMARK Flexibility Score: inf
ROOT
ATOM      1  C   UNL     1      14.458  17.887 -17.138  1.00  0.00     0.000 C 
ENDROOT
BRANCH   1   2
ATOM      2  C   UNL     1      13.900  17.514 -15.755  1.00  0.00     0.000 C 
BRANCH   2   3
ATOM      3  C   UNL     1      13.150  16.174 -15.762  1.00  0.00     0.006 C 
BRANCH   3   4
ATOM      4  C   UNL     1      12.788  15.757 -17.192  1.00  0.00     0.053 C 
BRANCH   4   5
ATOM      5  C   UNL     1      13.387  14.425 -17.515  1.00  0.00     0.041 C 
ATOM      6  O   UNL     1      13.345  13.979 -18.692  1.00  0.00    -0.550 OA
ATOM      7  O   UNL     1      13.948  13.652 -16.507  1.00  0.00    -0.550 OA
ENDBRANCH   4   5
ENDBRANCH   3   4
ENDBRANCH   2   3
ENDBRANCH   1   2
BRANCH   1   8
ATOM      8  C   UNL     1      15.986  17.748 -17.218  1.00  0.00     0.000 C 
BRANCH   8   9
ATOM      9  C   UNL     1      16.382  16.484 -17.988  1.00  0.00     0.006 C 
BRANCH   9  10
ATOM     10  C   UNL     1      16.907  15.403 -17.039  1.00  0.00     0.053 C 
BRANCH  10  11
ATOM     11  C   UNL     1      17.211  14.146 -17.791  1.00  0.00     0.041 C 
ATOM     12  O   UNL     1      17.865  13.220 -17.242  1.00  0.00    -0.550 OA
ATOM     13  O   UNL     1      16.728  13.975 -19.082  1.00  0.00    -0.550 OA
ENDBRANCH  10  11
ENDBRANCH   9  10
ENDBRANCH   8   9
ENDBRANCH   1   8
TORSDOF 8
ENDMDL
MODEL 6
REMARK VINA RESULT:    -4.102      3.005      6.068
REMARK INTER + INTRA:          -6.490
REMARK INTER:                  -5.598
REMARK INTRA:                  -0.893
REMARK UNBOUND:                -0.470
REMARK SMILES O=C([O-])CCCCCCCC(=O)[O-]
REMARK SMILES IDX 7 1 6 2 5 3 4 4 2 5 1 6 3 7 8 8 9 9 10 10 11 11 12 12 13 13
REMARK H PARENT
REMARK Flexibility Score: inf
ROOT
ATOM      1  C   UNL     1      14.980  17.325 -15.928  1.00  0.00     0.000 C 
ENDROOT
BRANCH   1   2
ATOM      2  C   UNL     1      15.722  17.761 -17.203  1.00  0.00     0.000 C 
BRANCH   2   3
ATOM      3  C   UNL     1      16.390  16.584 -17.930  1.00  0.00     0.006 C 
BRANCH   3   4
ATOM      4  C   UNL     1      16.698  15.443 -16.955  1.00  0.00     0.053 C 
BRANCH   4   5
ATOM      5  C   UNL     1      17.180  14.236 -17.697  1.00  0.00     0.041 C 
ATOM      6  O   UNL     1      16.953  14.117 -18.930  1.00  0.00    -0.550 OA
ATOM      7  O   UNL     1      17.838  13.220 -17.017  1.00  0.00    -0.550 OA
ENDBRANCH   4   5
ENDBRANCH   3   4
ENDBRANCH   2   3
ENDBRANCH   1   2
BRANCH   1   8
ATOM      8  C   UNL     1      13.462  17.531 -16.026  1.00  0.00     0.000 C 
BRANCH   8   9
ATOM      9  C   UNL     1      12.725  16.186 -16.035  1.00  0.00     0.006 C 
BRANCH   9  10
ATOM     10  C   UNL     1      12.326  15.786 -17.459  1.00  0.00     0.053 C 
BRANCH  10  11
ATOM     11  C   UNL     1      13.196  14.675 -17.955  1.00  0.00     0.041 C 
ATOM     12  O   UNL     1      13.574  14.653 -19.156  1.00  0.00    -0.550 OA
ATOM     13  O   UNL     1      13.632  13.690 -17.078  1.00  0.00    -0.550 OA
ENDBRANCH  10  11
ENDBRANCH   9  10
ENDBRANCH   8   9
ENDBRANCH   1   8
TORSDOF 8
ENDMDL
MODEL 7
REMARK VINA RESULT:    -4.038      2.354      3.602
REMARK INTER + INTRA:          -6.397
REMARK INTER:                  -5.770
REMARK INTRA:                  -0.626
REMARK UNBOUND:                -0.470
REMARK SMILES O=C([O-])CCCCCCCC(=O)[O-]
REMARK SMILES IDX 7 1 6 2 5 3 4 4 2 5 1 6 3 7 8 8 9 9 10 10 11 11 12 12 13 13
REMARK H PARENT
REMARK Flexibility Score: inf
ROOT
ATOM      1  C   UNL     1      11.064  12.372 -18.637  1.00  0.00     0.000 C 
ENDROOT
BRANCH   1   2
ATOM      2  C   UNL     1      11.243  11.812 -20.058  1.00  0.00     0.000 C 
BRANCH   2   3
ATOM      3  C   UNL     1      12.624  11.174 -20.272  1.00  0.00     0.006 C 
BRANCH   3   4
ATOM      4  C   UNL     1      13.122  11.415 -21.700  1.00  0.00     0.053 C 
BRANCH   4   5
ATOM      5  C   UNL     1      14.026  12.607 -21.745  1.00  0.00     0.041 C 
ATOM      6  O   UNL     1      15.257  12.478 -21.516  1.00  0.00    -0.550 OA
ATOM      7  O   UNL     1      13.500  13.868 -21.993  1.00  0.00    -0.550 OA
ENDBRANCH   4   5
ENDBRANCH   3   4
ENDBRANCH   2   3
ENDBRANCH   1   2
BRANCH   1   8
ATOM      8  C   UNL     1      12.399  12.723 -17.965  1.00  0.00     0.000 C 
BRANCH   8   9
ATOM      9  C   UNL     1      12.805  14.169 -18.273  1.00  0.00     0.006 C 
BRANCH   9  10
ATOM     10  C   UNL     1      14.322  14.351 -18.159  1.00  0.00     0.053 C 
BRANCH  10  11
ATOM     11  C   UNL     1      14.680  14.948 -16.835  1.00  0.00     0.041 C 
ATOM     12  O   UNL     1      13.786  15.442 -16.099  1.00  0.00    -0.550 OA
ATOM     13  O   UNL     1      15.995  14.912 -16.390  1.00  0.00    -0.550 OA
ENDBRANCH  10  11
ENDBRANCH   9  10
ENDBRANCH   8   9
ENDBRANCH   1   8
TORSDOF 8
ENDMDL
MODEL 8
REMARK VINA RESULT:    -4.026      2.926      5.257
REMARK INTER + INTRA:          -6.379
REMARK INTER:                  -6.023
REMARK INTRA:                  -0.356
REMARK UNBOUND:                -0.470
REMARK SMILES O=C([O-])CCCCCCCC(=O)[O-]
REMARK SMILES IDX 7 1 6 2 5 3 4 4 2 5 1 6 3 7 8 8 9 9 10 10 11 11 12 12 13 13
REMARK H PARENT
REMARK Flexibility Score: inf
ROOT
ATOM      1  C   UNL     1      17.504  13.514 -18.126  1.00  0.00     0.000 C 
ENDROOT
BRANCH   1   2
ATOM      2  C   UNL     1      17.104  14.455 -16.977  1.00  0.00     0.000 C 
BRANCH   2   3
ATOM      3  C   UNL     1      16.461  15.757 -17.477  1.00  0.00     0.006 C 
BRANCH   3   4
ATOM      4  C   UNL     1      16.047  16.648 -16.301  1.00  0.00     0.053 C 
BRANCH   4   5
ATOM      5  C   UNL     1      14.560  16.637 -16.134  1.00  0.00     0.041 C 
ATOM      6  O   UNL     1      13.883  15.656 -16.542  1.00  0.00    -0.550 OA
ATOM      7  O   UNL     1      13.915  17.731 -15.572  1.00  0.00    -0.550 OA
ENDBRANCH   4   5
ENDBRANCH   3   4
ENDBRANCH   2   3
ENDBRANCH   1   2
BRANCH   1   8
ATOM      8  C   UNL     1      17.023  14.013 -19.496  1.00  0.00     0.000 C 
BRANCH   8   9
ATOM      9  C   UNL     1      16.398  12.873 -20.307  1.00  0.00     0.006 C 
BRANCH   9  10
ATOM     10  C   UNL     1      14.920  13.150 -20.599  1.00  0.00     0.053 C 
BRANCH  10  11
ATOM     11  C   UNL     1      14.380  12.147 -21.568  1.00  0.00     0.041 C 
ATOM     12  O   UNL     1      14.443  12.363 -22.806  1.00  0.00    -0.550 OA
ATOM     13  O   UNL     1      13.851  10.949 -21.104  1.00  0.00    -0.550 OA
ENDBRANCH  10  11
ENDBRANCH   9  10
ENDBRANCH   8   9
ENDBRANCH   1   8
TORSDOF 8
ENDMDL
MODEL 9
REMARK VINA RESULT:    -4.008      2.291      4.972
REMARK INTER + INTRA:          -6.352
REMARK INTER:                  -5.915
REMARK INTRA:                  -0.437
REMARK UNBOUND:                -0.470
REMARK SMILES O=C([O-])CCCCCCCC(=O)[O-]
REMARK SMILES IDX 7 1 6 2 5 3 4 4 2 5 1 6 3 7 8 8 9 9 10 10 11 11 12 12 13 13
REMARK H PARENT
REMARK Flexibility Score: inf
ROOT
ATOM      1  C   UNL     1      12.430  13.310 -18.376  1.00  0.00     0.000 C 
ENDROOT
BRANCH   1   2
ATOM      2  C   UNL     1      13.726  14.138 -18.394  1.00  0.00     0.000 C 
BRANCH   2   3
ATOM      3  C   UNL     1      14.527  14.010 -17.090  1.00  0.00     0.006 C 
BRANCH   3   4
ATOM      4  C   UNL     1      15.719  14.972 -17.085  1.00  0.00     0.053 C 
BRANCH   4   5
ATOM      5  C   UNL     1      16.928  14.312 -17.669  1.00  0.00     0.041 C 
ATOM      6  O   UNL     1      17.165  14.400 -18.902  1.00  0.00    -0.550 OA
ATOM      7  O   UNL     1      17.767  13.558 -16.859  1.00  0.00    -0.550 OA
ENDBRANCH   4   5
ENDBRANCH   3   4
ENDBRANCH   2   3
ENDBRANCH   1   2
BRANCH   1   8
ATOM      8  C   UNL     1      12.008  12.838 -19.775  1.00  0.00     0.000 C 
BRANCH   8   9
ATOM      9  C   UNL     1      12.540  11.429 -20.063  1.00  0.00     0.006 C 
BRANCH   9  10
ATOM     10  C   UNL     1      13.059  11.319 -21.499  1.00  0.00     0.053 C 
BRANCH  10  11
ATOM     11  C   UNL     1      14.075  12.382 -21.773  1.00  0.00     0.041 C 
ATOM     12  O   UNL     1      15.221  12.313 -21.256  1.00  0.00    -0.550 OA
ATOM     13  O   UNL     1      13.773  13.424 -22.641  1.00  0.00    -0.550 OA
ENDBRANCH  10  11
ENDBRANCH   9  10
ENDBRANCH   8   9
ENDBRANCH   1   8
TORSDOF 8
ENDMDL
