MODEL 1
REMARK VINA RESULT:    -2.732      0.000      0.000
REMARK INTER + INTRA:          -4.834
REMARK INTER:                  -3.929
REMARK INTRA:                  -0.905
REMARK UNBOUND:                -0.905
REMARK SMILES O=C(CO)[C@@H](O)[C@H](O)[C@@H](O)CO
REMARK SMILES IDX 7 1 9 2 11 3 12 4 10 6 5 8 2 9 1 10 3 11 4 12 6 14 8 16
REMARK H PARENT 12 5 10 7 4 13 6 15 8 17
REMARK Flexibility Score: inf
ROOT
ATOM      1  C   UNL     1      11.602  16.848  20.740  1.00  0.00     0.181 C 
ENDROOT
BRANCH   1   2
ATOM      2  C   UNL     1      12.017  17.437  19.369  1.00  0.00     0.171 C 
BRANCH   2   3
ATOM      3  C   UNL     1      11.202  16.799  18.230  1.00  0.00     0.190 C 
BRANCH   3   4
ATOM      4  O   UNL     1      11.626  15.483  17.997  1.00  0.00    -0.394 OA
ATOM      5  H   UNL     1      11.445  15.291  17.040  1.00  0.00     0.210 HD
ENDBRANCH   3   4
ENDBRANCH   2   3
BRANCH   2   6
ATOM      6  O   UNL     1      13.388  17.229  19.144  1.00  0.00    -0.388 OA
ATOM      7  H   UNL     1      13.480  16.340  18.711  1.00  0.00     0.211 HD
ENDBRANCH   2   6
ENDBRANCH   1   2
BRANCH   1   8
ATOM      8  C   UNL     1      12.092  17.712  21.928  1.00  0.00     0.214 C 
BRANCH   8   9
ATOM      9  C   UNL     1      11.592  17.136  23.238  1.00  0.00     0.189 C 
ATOM     10  O   UNL     1      10.875  16.146  23.214  1.00  0.00    -0.294 OA
BRANCH   9  11
ATOM     11  C   UNL     1      11.939  17.779  24.559  1.00  0.00     0.234 C 
BRANCH  11  12
ATOM     12  O   UNL     1      13.322  17.751  24.790  1.00  0.00    -0.388 OA
ATOM     13  H   UNL     1      13.506  16.928  25.315  1.00  0.00     0.211 HD
ENDBRANCH  11  12
ENDBRANCH   9  11
ENDBRANCH   8   9
BRANCH   8  14
ATOM     14  O   UNL     1      13.495  17.797  21.923  1.00  0.00    -0.382 OA
ATOM     15  H   UNL     1      13.734  18.646  22.379  1.00  0.00     0.211 HD
ENDBRANCH   8  14
ENDBRANCH   1   8
BRANCH   1  16
ATOM     16  O   UNL     1      12.021  15.509  20.874  1.00  0.00    -0.387 OA
ATOM     17  H   UNL     1      12.713  15.334  20.185  1.00  0.00     0.211 HD
ENDBRANCH   1  16
TORSDOF 10
ENDMDL
MODEL 2
REMARK VINA RESULT:    -1.841      1.755      2.445
REMARK INTER + INTRA:          -3.553
REMARK INTER:                  -2.857
REMARK INTRA:                  -0.695
REMARK UNBOUND:                -0.905
REMARK SMILES O=C(CO)[C@@H](O)[C@H](O)[C@@H](O)CO
REMARK SMILES IDX 7 1 9 2 11 3 12 4 10 6 5 8 2 9 1 10 3 11 4 12 6 14 8 16
REMARK H PARENT 12 5 10 7 4 13 6 15 8 17
REMARK Flexibility Score: inf
ROOT
ATOM      1  C   UNL     1      11.895  16.825  22.483  1.00  0.00     0.181 C 
ENDROOT
BRANCH   1   2
ATOM      2  C   UNL     1      11.252  17.079  21.096  1.00  0.00     0.171 C 
BRANCH   2   3
ATOM      3  C   UNL     1      11.223  15.788  20.260  1.00  0.00     0.190 C 
BRANCH   3   4
ATOM      4  O   UNL     1      11.586  14.684  21.045  1.00  0.00    -0.394 OA
ATOM      5  H   UNL     1      11.141  13.892  20.645  1.00  0.00     0.210 HD
ENDBRANCH   3   4
ENDBRANCH   2   3
BRANCH   2   6
ATOM      6  O   UNL     1      11.963  18.075  20.405  1.00  0.00    -0.388 OA
ATOM      7  H   UNL     1      12.928  17.914  20.575  1.00  0.00     0.211 HD
ENDBRANCH   2   6
ENDBRANCH   1   2
BRANCH   1   8
ATOM      8  C   UNL     1      10.882  16.977  23.643  1.00  0.00     0.214 C 
BRANCH   8   9
ATOM      9  C   UNL     1      10.893  15.739  24.516  1.00  0.00     0.189 C 
ATOM     10  O   UNL     1      10.876  14.639  23.984  1.00  0.00    -0.294 OA
BRANCH   9  11
ATOM     11  C   UNL     1      10.894  15.843  26.023  1.00  0.00     0.234 C 
BRANCH  11  12
ATOM     12  O   UNL     1      12.085  16.417  26.491  1.00  0.00    -0.388 OA
ATOM     13  H   UNL     1      11.863  17.343  26.772  1.00  0.00     0.211 HD
ENDBRANCH  11  12
ENDBRANCH   9  11
ENDBRANCH   8   9
BRANCH   8  14
ATOM     14  O   UNL     1      11.176  18.125  24.399  1.00  0.00    -0.382 OA
ATOM     15  H   UNL     1      10.452  18.219  25.073  1.00  0.00     0.211 HD
ENDBRANCH   8  14
ENDBRANCH   1   8
BRANCH   1  16
ATOM     16  O   UNL     1      13.028  17.638  22.682  1.00  0.00    -0.387 OA
ATOM     17  H   UNL     1      13.378  17.458  23.594  1.00  0.00     0.211 HD
ENDBRANCH   1  16
TORSDOF 10
ENDMDL
MODEL 3
REMARK VINA RESULT:    -1.792      1.554      2.182
REMARK INTER + INTRA:          -3.482
REMARK INTER:                  -3.073
REMARK INTRA:                  -0.410
REMARK UNBOUND:                -0.905
REMARK SMILES O=C(CO)[C@@H](O)[C@H](O)[C@@H](O)CO
REMARK SMILES IDX 7 1 9 2 11 3 12 4 10 6 5 8 2 9 1 10 3 11 4 12 6 14 8 16
REMARK H PARENT 12 5 10 7 4 13 6 15 8 17
REMARK Flexibility Score: inf
ROOT
ATOM      1  C   UNL     1      13.160  17.383  21.161  1.00  0.00     0.181 C 
ENDROOT
BRANCH   1   2
ATOM      2  C   UNL     1      13.568  17.995  19.797  1.00  0.00     0.171 C 
BRANCH   2   3
ATOM      3  C   UNL     1      12.479  17.749  18.738  1.00  0.00     0.190 C 
BRANCH   3   4
ATOM      4  O   UNL     1      12.407  16.386  18.413  1.00  0.00    -0.394 OA
ATOM      5  H   UNL     1      11.960  16.329  17.528  1.00  0.00     0.210 HD
ENDBRANCH   3   4
ENDBRANCH   2   3
BRANCH   2   6
ATOM      6  O   UNL     1      14.786  17.444  19.362  1.00  0.00    -0.388 OA
ATOM      7  H   UNL     1      15.474  17.694  20.033  1.00  0.00     0.211 HD
ENDBRANCH   2   6
ENDBRANCH   1   2
BRANCH   1   8
ATOM      8  C   UNL     1      11.628  17.206  21.296  1.00  0.00     0.214 C 
BRANCH   8   9
ATOM      9  C   UNL     1      11.296  15.779  21.681  1.00  0.00     0.189 C 
ATOM     10  O   UNL     1      11.342  14.908  20.824  1.00  0.00    -0.294 OA
BRANCH   9  11
ATOM     11  C   UNL     1      10.883  15.423  23.089  1.00  0.00     0.234 C 
BRANCH  11  12
ATOM     12  O   UNL     1      11.550  16.221  24.030  1.00  0.00    -0.388 OA
ATOM     13  H   UNL     1      11.137  16.025  24.912  1.00  0.00     0.211 HD
ENDBRANCH  11  12
ENDBRANCH   9  11
ENDBRANCH   8   9
BRANCH   8  14
ATOM     14  O   UNL     1      11.115  18.111  22.241  1.00  0.00    -0.382 OA
ATOM     15  H   UNL     1      10.388  17.639  22.727  1.00  0.00     0.211 HD
ENDBRANCH   8  14
ENDBRANCH   1   8
BRANCH   1  16
ATOM     16  O   UNL     1      13.687  18.125  22.237  1.00  0.00    -0.387 OA
ATOM     17  H   UNL     1      13.107  18.918  22.375  1.00  0.00     0.211 HD
ENDBRANCH   1  16
TORSDOF 10
ENDMDL
MODEL 4
REMARK VINA RESULT:    -1.060      2.028      3.235
REMARK INTER + INTRA:          -2.430
REMARK INTER:                  -2.234
REMARK INTRA:                  -0.196
REMARK UNBOUND:                -0.905
REMARK SMILES O=C(CO)[C@@H](O)[C@H](O)[C@@H](O)CO
REMARK SMILES IDX 7 1 9 2 11 3 12 4 10 6 5 8 2 9 1 10 3 11 4 12 6 14 8 16
REMARK H PARENT 12 5 10 7 4 13 6 15 8 17
REMARK Flexibility Score: inf
ROOT
ATOM      1  C   UNL     1      12.053  17.150  21.264  1.00  0.00     0.181 C 
ENDROOT
BRANCH   1   2
ATOM      2  C   UNL     1      13.242  17.857  20.566  1.00  0.00     0.171 C 
BRANCH   2   3
ATOM      3  C   UNL     1      13.709  17.058  19.337  1.00  0.00     0.190 C 
BRANCH   3   4
ATOM      4  O   UNL     1      13.016  17.469  18.189  1.00  0.00    -0.394 OA
ATOM      5  H   UNL     1      12.253  16.843  18.080  1.00  0.00     0.210 HD
ENDBRANCH   3   4
ENDBRANCH   2   3
BRANCH   2   6
ATOM      6  O   UNL     1      14.311  18.013  21.465  1.00  0.00    -0.388 OA
ATOM      7  H   UNL     1      15.135  18.112  20.920  1.00  0.00     0.211 HD
ENDBRANCH   2   6
ENDBRANCH   1   2
BRANCH   1   8
ATOM      8  C   UNL     1      11.825  15.713  20.736  1.00  0.00     0.214 C 
BRANCH   8   9
ATOM      9  C   UNL     1      11.161  14.861  21.798  1.00  0.00     0.189 C 
ATOM     10  O   UNL     1      10.875  15.370  22.872  1.00  0.00    -0.294 OA
BRANCH   9  11
ATOM     11  C   UNL     1      10.876  13.397  21.563  1.00  0.00     0.234 C 
BRANCH  11  12
ATOM     12  O   UNL     1      11.838  12.587  22.184  1.00  0.00    -0.388 OA
ATOM     13  H   UNL     1      11.970  11.799  21.593  1.00  0.00     0.211 HD
ENDBRANCH  11  12
ENDBRANCH   9  11
ENDBRANCH   8   9
BRANCH   8  14
ATOM     14  O   UNL     1      11.051  15.743  19.563  1.00  0.00    -0.382 OA
ATOM     15  H   UNL     1      11.579  15.286  18.857  1.00  0.00     0.211 HD
ENDBRANCH   8  14
ENDBRANCH   1   8
BRANCH   1  16
ATOM     16  O   UNL     1      10.875  17.919  21.181  1.00  0.00    -0.387 OA
ATOM     17  H   UNL     1      10.114  17.299  21.040  1.00  0.00     0.211 HD
ENDBRANCH   1  16
TORSDOF 10
ENDMDL
MODEL 5
REMARK VINA RESULT:    -0.973     16.007     16.971
REMARK INTER + INTRA:          -2.304
REMARK INTER:                  -1.807
REMARK INTRA:                  -0.497
REMARK UNBOUND:                -0.905
REMARK SMILES O=C(CO)[C@@H](O)[C@H](O)[C@@H](O)CO
REMARK SMILES IDX 7 1 9 2 11 3 12 4 10 6 5 8 2 9 1 10 3 11 4 12 6 14 8 16
REMARK H PARENT 12 5 10 7 4 13 6 15 8 17
REMARK Flexibility Score: inf
ROOT
ATOM      1  C   UNL     1      18.436   2.277  26.316  1.00  0.00     0.181 C 
ENDROOT
BRANCH   1   2
ATOM      2  C   UNL     1      19.120   1.026  26.922  1.00  0.00     0.171 C 
BRANCH   2   3
ATOM      3  C   UNL     1      19.479   1.259  28.400  1.00  0.00     0.190 C 
BRANCH   3   4
ATOM      4  O   UNL     1      19.112   2.553  28.798  1.00  0.00    -0.394 OA
ATOM      5  H   UNL     1      19.843   3.158  28.506  1.00  0.00     0.210 HD
ENDBRANCH   3   4
ENDBRANCH   2   3
BRANCH   2   6
ATOM      6  O   UNL     1      20.281   0.707  26.197  1.00  0.00    -0.388 OA
ATOM      7  H   UNL     1      20.755  -0.002  26.706  1.00  0.00     0.211 HD
ENDBRANCH   2   6
ENDBRANCH   1   2
BRANCH   1   8
ATOM      8  C   UNL     1      17.235   1.914  25.408  1.00  0.00     0.214 C 
BRANCH   8   9
ATOM      9  C   UNL     1      16.094   2.884  25.634  1.00  0.00     0.189 C 
ATOM     10  O   UNL     1      16.334   3.978  26.124  1.00  0.00    -0.294 OA
BRANCH   9  11
ATOM     11  C   UNL     1      14.670   2.512  25.292  1.00  0.00     0.234 C 
BRANCH  11  12
ATOM     12  O   UNL     1      14.269   3.100  24.083  1.00  0.00    -0.388 OA
ATOM     13  H   UNL     1      14.552   2.481  23.359  1.00  0.00     0.211 HD
ENDBRANCH  11  12
ENDBRANCH   9  11
ENDBRANCH   8   9
BRANCH   8  14
ATOM     14  O   UNL     1      17.629   1.910  24.059  1.00  0.00    -0.382 OA
ATOM     15  H   UNL     1      17.859   2.848  23.823  1.00  0.00     0.211 HD
ENDBRANCH   8  14
ENDBRANCH   1   8
BRANCH   1  16
ATOM     16  O   UNL     1      19.362   3.093  25.638  1.00  0.00    -0.387 OA
ATOM     17  H   UNL     1      18.871   3.874  25.270  1.00  0.00     0.211 HD
ENDBRANCH   1  16
TORSDOF 10
ENDMDL
MODEL 6
REMARK VINA RESULT:    -0.592     16.518     17.327
REMARK INTER + INTRA:          -1.756
REMARK INTER:                  -1.151
REMARK INTRA:                  -0.605
REMARK UNBOUND:                -0.905
REMARK SMILES O=C(CO)[C@@H](O)[C@H](O)[C@@H](O)CO
REMARK SMILES IDX 7 1 9 2 11 3 12 4 10 6 5 8 2 9 1 10 3 11 4 12 6 14 8 16
REMARK H PARENT 12 5 10 7 4 13 6 15 8 17
REMARK Flexibility Score: inf
ROOT
ATOM      1  C   UNL     1      18.864   1.344  26.334  1.00  0.00     0.181 C 
ENDROOT
BRANCH   1   2
ATOM      2  C   UNL     1      20.148   1.289  25.469  1.00  0.00     0.171 C 
BRANCH   2   3
ATOM      3  C   UNL     1      21.246   0.470  26.171  1.00  0.00     0.190 C 
BRANCH   3   4
ATOM      4  O   UNL     1      22.518   0.936  25.805  1.00  0.00    -0.394 OA
ATOM      5  H   UNL     1      22.956   0.201  25.302  1.00  0.00     0.210 HD
ENDBRANCH   3   4
ENDBRANCH   2   3
BRANCH   2   6
ATOM      6  O   UNL     1      20.617   2.588  25.211  1.00  0.00    -0.388 OA
ATOM      7  H   UNL     1      20.868   2.985  26.086  1.00  0.00     0.211 HD
ENDBRANCH   2   6
ENDBRANCH   1   2
BRANCH   1   8
ATOM      8  C   UNL     1      17.573   1.304  25.480  1.00  0.00     0.214 C 
BRANCH   8   9
ATOM      9  C   UNL     1      16.982   2.694  25.355  1.00  0.00     0.189 C 
ATOM     10  O   UNL     1      17.705   3.615  25.002  1.00  0.00    -0.294 OA
BRANCH   9  11
ATOM     11  C   UNL     1      15.534   2.963  25.686  1.00  0.00     0.234 C 
BRANCH  11  12
ATOM     12  O   UNL     1      14.730   2.894  24.538  1.00  0.00    -0.388 OA
ATOM     13  H   UNL     1      15.099   3.555  23.894  1.00  0.00     0.211 HD
ENDBRANCH  11  12
ENDBRANCH   9  11
ENDBRANCH   8   9
BRANCH   8  14
ATOM     14  O   UNL     1      17.844   0.761  24.212  1.00  0.00    -0.382 OA
ATOM     15  H   UNL     1      17.069   0.187  23.973  1.00  0.00     0.211 HD
ENDBRANCH   8  14
ENDBRANCH   1   8
BRANCH   1  16
ATOM     16  O   UNL     1      18.872   2.456  27.198  1.00  0.00    -0.387 OA
ATOM     17  H   UNL     1      18.289   3.155  26.804  1.00  0.00     0.211 HD
ENDBRANCH   1  16
TORSDOF 10
ENDMDL
MODEL 7
REMARK VINA RESULT:    -0.500      2.401      3.220
REMARK INTER + INTRA:          -1.624
REMARK INTER:                  -3.315
REMARK INTRA:                   1.691
REMARK UNBOUND:                -0.905
REMARK SMILES O=C(CO)[C@@H](O)[C@H](O)[C@@H](O)CO
REMARK SMILES IDX 7 1 9 2 11 3 12 4 10 6 5 8 2 9 1 10 3 11 4 12 6 14 8 16
REMARK H PARENT 12 5 10 7 4 13 6 15 8 17
REMARK Flexibility Score: inf
ROOT
ATOM      1  C   UNL     1      10.941  16.019  23.709  1.00  0.00     0.181 C 
ENDROOT
BRANCH   1   2
ATOM      2  C   UNL     1      10.877  15.478  22.258  1.00  0.00     0.171 C 
BRANCH   2   3
ATOM      3  C   UNL     1      10.976  13.942  22.241  1.00  0.00     0.190 C 
BRANCH   3   4
ATOM      4  O   UNL     1      11.560  13.500  21.045  1.00  0.00    -0.394 OA
ATOM      5  H   UNL     1      10.825  13.413  20.385  1.00  0.00     0.210 HD
ENDBRANCH   3   4
ENDBRANCH   2   3
BRANCH   2   6
ATOM      6  O   UNL     1      11.914  16.029  21.487  1.00  0.00    -0.388 OA
ATOM      7  H   UNL     1      12.291  15.291  20.939  1.00  0.00     0.211 HD
ENDBRANCH   2   6
ENDBRANCH   1   2
BRANCH   1   8
ATOM      8  C   UNL     1      11.833  17.278  23.832  1.00  0.00     0.214 C 
BRANCH   8   9
ATOM      9  C   UNL     1      12.424  17.369  25.225  1.00  0.00     0.189 C 
ATOM     10  O   UNL     1      13.497  17.934  25.377  1.00  0.00    -0.294 OA
BRANCH   9  11
ATOM     11  C   UNL     1      11.728  16.750  26.413  1.00  0.00     0.234 C 
BRANCH  11  12
ATOM     12  O   UNL     1      11.510  17.699  27.423  1.00  0.00    -0.388 OA
ATOM     13  H   UNL     1      11.619  18.592  27.003  1.00  0.00     0.211 HD
ENDBRANCH  11  12
ENDBRANCH   9  11
ENDBRANCH   8   9
BRANCH   8  14
ATOM     14  O   UNL     1      12.848  17.253  22.860  1.00  0.00    -0.382 OA
ATOM     15  H   UNL     1      12.844  16.342  22.463  1.00  0.00     0.211 HD
ENDBRANCH   8  14
ENDBRANCH   1   8
BRANCH   1  16
ATOM     16  O   UNL     1      11.340  15.017  24.615  1.00  0.00    -0.387 OA
ATOM     17  H   UNL     1      10.964  15.241  25.505  1.00  0.00     0.211 HD
ENDBRANCH   1  16
TORSDOF 10
ENDMDL
MODEL 8
REMARK VINA RESULT:    -0.456     16.487     17.181
REMARK INTER + INTRA:          -1.561
REMARK INTER:                  -1.081
REMARK INTRA:                  -0.480
REMARK UNBOUND:                -0.905
REMARK SMILES O=C(CO)[C@@H](O)[C@H](O)[C@@H](O)CO
REMARK SMILES IDX 7 1 9 2 11 3 12 4 10 6 5 8 2 9 1 10 3 11 4 12 6 14 8 16
REMARK H PARENT 12 5 10 7 4 13 6 15 8 17
REMARK Flexibility Score: inf
ROOT
ATOM      1  C   UNL     1      17.621   1.408  25.809  1.00  0.00     0.181 C 
ENDROOT
BRANCH   1   2
ATOM      2  C   UNL     1      17.028   2.808  25.509  1.00  0.00     0.171 C 
BRANCH   2   3
ATOM      3  C   UNL     1      15.516   2.835  25.796  1.00  0.00     0.190 C 
BRANCH   3   4
ATOM      4  O   UNL     1      14.788   2.893  24.599  1.00  0.00    -0.394 OA
ATOM      5  H   UNL     1      15.432   3.143  23.887  1.00  0.00     0.210 HD
ENDBRANCH   3   4
ENDBRANCH   2   3
BRANCH   2   6
ATOM      6  O   UNL     1      17.262   3.159  24.169  1.00  0.00    -0.388 OA
ATOM      7  H   UNL     1      16.385   3.127  23.703  1.00  0.00     0.211 HD
ENDBRANCH   2   6
ENDBRANCH   1   2
BRANCH   1   8
ATOM      8  C   UNL     1      18.898   1.481  26.681  1.00  0.00     0.214 C 
BRANCH   8   9
ATOM      9  C   UNL     1      20.130   1.572  25.803  1.00  0.00     0.189 C 
ATOM     10  O   UNL     1      20.297   2.572  25.119  1.00  0.00    -0.294 OA
BRANCH   9  11
ATOM     11  C   UNL     1      21.131   0.444  25.738  1.00  0.00     0.234 C 
BRANCH  11  12
ATOM     12  O   UNL     1      22.446   0.929  25.794  1.00  0.00    -0.388 OA
ATOM     13  H   UNL     1      23.040   0.134  25.853  1.00  0.00     0.211 HD
ENDBRANCH  11  12
ENDBRANCH   9  11
ENDBRANCH   8   9
BRANCH   8  14
ATOM     14  O   UNL     1      18.827   2.578  27.558  1.00  0.00    -0.382 OA
ATOM     15  H   UNL     1      19.167   3.367  27.060  1.00  0.00     0.211 HD
ENDBRANCH   8  14
ENDBRANCH   1   8
BRANCH   1  16
ATOM     16  O   UNL     1      17.851   0.682  24.624  1.00  0.00    -0.387 OA
ATOM     17  H   UNL     1      18.812   0.768  24.393  1.00  0.00     0.211 HD
ENDBRANCH   1  16
TORSDOF 10
ENDMDL
MODEL 9
REMARK VINA RESULT:    -0.367     16.381     16.978
REMARK INTER + INTRA:          -1.433
REMARK INTER:                  -1.268
REMARK INTRA:                  -0.165
REMARK UNBOUND:                -0.905
REMARK SMILES O=C(CO)[C@@H](O)[C@H](O)[C@@H](O)CO
REMARK SMILES IDX 7 1 9 2 11 3 12 4 10 6 5 8 2 9 1 10 3 11 4 12 6 14 8 16
REMARK H PARENT 12 5 10 7 4 13 6 15 8 17
REMARK Flexibility Score: inf
ROOT
ATOM      1  C   UNL     1      17.814   1.571  25.790  1.00  0.00     0.181 C 
ENDROOT
BRANCH   1   2
ATOM      2  C   UNL     1      17.075   2.871  25.383  1.00  0.00     0.171 C 
BRANCH   2   3
ATOM      3  C   UNL     1      15.593   2.810  25.795  1.00  0.00     0.190 C 
BRANCH   3   4
ATOM      4  O   UNL     1      14.765   2.848  24.663  1.00  0.00    -0.394 OA
ATOM      5  H   UNL     1      14.682   1.912  24.341  1.00  0.00     0.210 HD
ENDBRANCH   3   4
ENDBRANCH   2   3
BRANCH   2   6
ATOM      6  O   UNL     1      17.173   3.073  23.996  1.00  0.00    -0.388 OA
ATOM      7  H   UNL     1      17.644   3.937  23.862  1.00  0.00     0.211 HD
ENDBRANCH   2   6
ENDBRANCH   1   2
BRANCH   1   8
ATOM      8  C   UNL     1      19.213   1.850  26.392  1.00  0.00     0.214 C 
BRANCH   8   9
ATOM      9  C   UNL     1      19.169   1.730  27.902  1.00  0.00     0.189 C 
ATOM     10  O   UNL     1      19.404   0.647  28.417  1.00  0.00    -0.294 OA
BRANCH   9  11
ATOM     11  C   UNL     1      18.812   2.912  28.771  1.00  0.00     0.234 C 
BRANCH  11  12
ATOM     12  O   UNL     1      19.566   2.917  29.954  1.00  0.00    -0.388 OA
ATOM     13  H   UNL     1      19.334   2.084  30.443  1.00  0.00     0.211 HD
ENDBRANCH  11  12
ENDBRANCH   9  11
ENDBRANCH   8   9
BRANCH   8  14
ATOM     14  O   UNL     1      20.161   0.966  25.848  1.00  0.00    -0.382 OA
ATOM     15  H   UNL     1      20.891   0.879  26.517  1.00  0.00     0.211 HD
ENDBRANCH   8  14
ENDBRANCH   1   8
BRANCH   1  16
ATOM     16  O   UNL     1      17.890   0.664  24.715  1.00  0.00    -0.387 OA
ATOM     17  H   UNL     1      18.832   0.362  24.635  1.00  0.00     0.211 HD
ENDBRANCH   1  16
TORSDOF 10
ENDMDL
