MODEL 1
REMARK VINA RESULT:    -3.736      0.000      0.000
REMARK INTER + INTRA:          -4.770
REMARK INTER:                  -4.609
REMARK INTRA:                  -0.161
REMARK UNBOUND:                -0.161
REMARK SMILES CCCCCC(=O)[O-]
REMARK SMILES IDX 4 1 5 2 6 3 7 4 8 5 3 6 2 7 1 8
REMARK H PARENT
REMARK Flexibility Score: inf
ROOT
ATOM      1  C   UNL     1       7.317  -0.677  46.970  1.00  0.00     0.006 C 
ENDROOT
BRANCH   1   2
ATOM      2  C   UNL     1       5.896  -0.809  47.527  1.00  0.00     0.053 C 
BRANCH   2   3
ATOM      3  C   UNL     1       5.205  -1.992  46.924  1.00  0.00     0.041 C 
ATOM      4  O   UNL     1       4.773  -2.916  47.661  1.00  0.00    -0.550 OA
ATOM      5  O   UNL     1       4.995  -2.049  45.552  1.00  0.00    -0.550 OA
ENDBRANCH   2   3
ENDBRANCH   1   2
BRANCH   1   6
ATOM      6  C   UNL     1       8.133  -1.947  47.239  1.00  0.00     0.000 C 
BRANCH   6   7
ATOM      7  C   UNL     1       8.476  -2.074  48.728  1.00  0.00    -0.003 C 
ATOM      8  C   UNL     1       9.820  -2.770  48.927  1.00  0.00     0.004 C 
ENDBRANCH   6   7
ENDBRANCH   1   6
TORSDOF 4
ENDMDL
MODEL 2
REMARK VINA RESULT:    -3.716     11.806     13.163
REMARK INTER + INTRA:          -4.746
REMARK INTER:                  -4.659
REMARK INTRA:                  -0.087
REMARK UNBOUND:                -0.161
REMARK SMILES CCCCCC(=O)[O-]
REMARK SMILES IDX 4 1 5 2 6 3 7 4 8 5 3 6 2 7 1 8
REMARK H PARENT
REMARK Flexibility Score: inf
ROOT
ATOM      1  C   UNL     1      -2.786   0.830  38.166  1.00  0.00     0.006 C 
ENDROOT
BRANCH   1   2
ATOM      2  C   UNL     1      -2.833   0.333  39.614  1.00  0.00     0.053 C 
BRANCH   2   3
ATOM      3  C   UNL     1      -2.036  -0.925  39.762  1.00  0.00     0.041 C 
ATOM      4  O   UNL     1      -0.779  -0.887  39.713  1.00  0.00    -0.550 OA
ATOM      5  O   UNL     1      -2.680  -2.132  40.004  1.00  0.00    -0.550 OA
ENDBRANCH   2   3
ENDBRANCH   1   2
BRANCH   1   6
ATOM      6  C   UNL     1      -3.125   2.323  38.086  1.00  0.00     0.000 C 
BRANCH   6   7
ATOM      7  C   UNL     1      -1.853   3.178  38.119  1.00  0.00    -0.003 C 
ATOM      8  C   UNL     1      -2.090   4.492  38.858  1.00  0.00     0.004 C 
ENDBRANCH   6   7
ENDBRANCH   1   6
TORSDOF 4
ENDMDL
MODEL 3
REMARK VINA RESULT:    -3.692      1.508      2.049
REMARK INTER + INTRA:          -4.717
REMARK INTER:                  -4.546
REMARK INTRA:                  -0.171
REMARK UNBOUND:                -0.161
REMARK SMILES CCCCCC(=O)[O-]
REMARK SMILES IDX 4 1 5 2 6 3 7 4 8 5 3 6 2 7 1 8
REMARK H PARENT
REMARK Flexibility Score: inf
ROOT
ATOM      1  C   UNL     1       6.848  -2.573  48.532  1.00  0.00     0.006 C 
ENDROOT
BRANCH   1   2
ATOM      2  C   UNL     1       5.917  -1.370  48.356  1.00  0.00     0.053 C 
BRANCH   2   3
ATOM      3  C   UNL     1       6.047  -0.805  46.976  1.00  0.00     0.041 C 
ATOM      4  O   UNL     1       6.632   0.295  46.795  1.00  0.00    -0.550 OA
ATOM      5  O   UNL     1       5.565  -1.516  45.885  1.00  0.00    -0.550 OA
ENDBRANCH   2   3
ENDBRANCH   1   2
BRANCH   1   6
ATOM      6  C   UNL     1       7.925  -2.285  49.584  1.00  0.00     0.000 C 
BRANCH   6   7
ATOM      7  C   UNL     1       9.328  -2.533  49.017  1.00  0.00    -0.003 C 
ATOM      8  C   UNL     1       9.277  -2.793  47.514  1.00  0.00     0.004 C 
ENDBRANCH   6   7
ENDBRANCH   1   6
TORSDOF 4
ENDMDL
MODEL 4
REMARK VINA RESULT:    -3.657      2.519      3.862
REMARK INTER + INTRA:          -4.673
REMARK INTER:                  -4.437
REMARK INTRA:                  -0.236
REMARK UNBOUND:                -0.161
REMARK SMILES CCCCCC(=O)[O-]
REMARK SMILES IDX 4 1 5 2 6 3 7 4 8 5 3 6 2 7 1 8
REMARK H PARENT
REMARK Flexibility Score: inf
ROOT
ATOM      1  C   UNL     1       7.922  -2.167  46.944  1.00  0.00     0.006 C 
ENDROOT
BRANCH   1   2
ATOM      2  C   UNL     1       9.097  -2.352  47.909  1.00  0.00     0.053 C 
BRANCH   2   3
ATOM      3  C   UNL     1       8.632  -2.973  49.188  1.00  0.00     0.041 C 
ATOM      4  O   UNL     1       8.100  -2.263  50.081  1.00  0.00    -0.550 OA
ATOM      5  O   UNL     1       8.741  -4.346  49.375  1.00  0.00    -0.550 OA
ENDBRANCH   2   3
ENDBRANCH   1   2
BRANCH   1   6
ATOM      6  C   UNL     1       7.391  -0.729  46.994  1.00  0.00     0.000 C 
BRANCH   6   7
ATOM      7  C   UNL     1       5.894  -0.707  47.321  1.00  0.00    -0.003 C 
ATOM      8  C   UNL     1       5.356  -2.118  47.542  1.00  0.00     0.004 C 
ENDBRANCH   6   7
ENDBRANCH   1   6
TORSDOF 4
ENDMDL
MODEL 5
REMARK VINA RESULT:    -3.628      2.613      4.032
REMARK INTER + INTRA:          -4.638
REMARK INTER:                  -4.512
REMARK INTRA:                  -0.126
REMARK UNBOUND:                -0.161
REMARK SMILES CCCCCC(=O)[O-]
REMARK SMILES IDX 4 1 5 2 6 3 7 4 8 5 3 6 2 7 1 8
REMARK H PARENT
REMARK Flexibility Score: inf
ROOT
ATOM      1  C   UNL     1       6.762  -1.728  48.835  1.00  0.00     0.006 C 
ENDROOT
BRANCH   1   2
ATOM      2  C   UNL     1       7.852  -2.264  49.768  1.00  0.00     0.053 C 
BRANCH   2   3
ATOM      3  C   UNL     1       8.908  -2.978  48.984  1.00  0.00     0.041 C 
ATOM      4  O   UNL     1      10.110  -2.614  49.062  1.00  0.00    -0.550 OA
ATOM      5  O   UNL     1       8.571  -4.078  48.204  1.00  0.00    -0.550 OA
ENDBRANCH   2   3
ENDBRANCH   1   2
BRANCH   1   6
ATOM      6  C   UNL     1       7.366  -0.854  47.729  1.00  0.00     0.000 C 
BRANCH   6   7
ATOM      7  C   UNL     1       6.290  -0.404  46.735  1.00  0.00    -0.003 C 
ATOM      8  C   UNL     1       5.601  -1.601  46.088  1.00  0.00     0.004 C 
ENDBRANCH   6   7
ENDBRANCH   1   6
TORSDOF 4
ENDMDL
MODEL 6
REMARK VINA RESULT:    -3.588      1.899      2.742
REMARK INTER + INTRA:          -4.588
REMARK INTER:                  -4.342
REMARK INTRA:                  -0.246
REMARK UNBOUND:                -0.161
REMARK SMILES CCCCCC(=O)[O-]
REMARK SMILES IDX 4 1 5 2 6 3 7 4 8 5 3 6 2 7 1 8
REMARK H PARENT
REMARK Flexibility Score: inf
ROOT
ATOM      1  C   UNL     1       8.579  -2.000  48.228  1.00  0.00     0.006 C 
ENDROOT
BRANCH   1   2
ATOM      2  C   UNL     1       7.863  -2.019  46.874  1.00  0.00     0.053 C 
BRANCH   2   3
ATOM      3  C   UNL     1       6.767  -1.000  46.846  1.00  0.00     0.041 C 
ATOM      4  O   UNL     1       7.043   0.227  46.866  1.00  0.00    -0.550 OA
ATOM      5  O   UNL     1       5.442  -1.407  46.749  1.00  0.00    -0.550 OA
ENDBRANCH   2   3
ENDBRANCH   1   2
BRANCH   1   6
ATOM      6  C   UNL     1       7.847  -2.879  49.249  1.00  0.00     0.000 C 
BRANCH   6   7
ATOM      7  C   UNL     1       7.282  -2.034  50.396  1.00  0.00    -0.003 C 
ATOM      8  C   UNL     1       5.758  -1.970  50.336  1.00  0.00     0.004 C 
ENDBRANCH   6   7
ENDBRANCH   1   6
TORSDOF 4
ENDMDL
MODEL 7
REMARK VINA RESULT:    -3.519      2.517      3.998
REMARK INTER + INTRA:          -4.503
REMARK INTER:                  -4.354
REMARK INTRA:                  -0.148
REMARK UNBOUND:                -0.161
REMARK SMILES CCCCCC(=O)[O-]
REMARK SMILES IDX 4 1 5 2 6 3 7 4 8 5 3 6 2 7 1 8
REMARK H PARENT
REMARK Flexibility Score: inf
ROOT
ATOM      1  C   UNL     1       8.795  -2.059  48.386  1.00  0.00     0.006 C 
ENDROOT
BRANCH   1   2
ATOM      2  C   UNL     1       9.659  -3.183  48.965  1.00  0.00     0.053 C 
BRANCH   2   3
ATOM      3  C   UNL     1       8.997  -4.510  48.763  1.00  0.00     0.041 C 
ATOM      4  O   UNL     1       8.878  -5.312  49.725  1.00  0.00    -0.550 OA
ATOM      5  O   UNL     1       8.467  -4.841  47.521  1.00  0.00    -0.550 OA
ENDBRANCH   2   3
ENDBRANCH   1   2
BRANCH   1   6
ATOM      6  C   UNL     1       7.461  -1.951  49.133  1.00  0.00     0.000 C 
BRANCH   6   7
ATOM      7  C   UNL     1       6.411  -1.226  48.283  1.00  0.00    -0.003 C 
ATOM      8  C   UNL     1       7.056  -0.529  47.088  1.00  0.00     0.004 C 
ENDBRANCH   6   7
ENDBRANCH   1   6
TORSDOF 4
ENDMDL
MODEL 8
REMARK VINA RESULT:    -3.507      1.876      3.414
REMARK INTER + INTRA:          -4.489
REMARK INTER:                  -4.224
REMARK INTRA:                  -0.265
REMARK UNBOUND:                -0.161
REMARK SMILES CCCCCC(=O)[O-]
REMARK SMILES IDX 4 1 5 2 6 3 7 4 8 5 3 6 2 7 1 8
REMARK H PARENT
REMARK Flexibility Score: inf
ROOT
ATOM      1  C   UNL     1       8.884  -2.329  48.539  1.00  0.00     0.006 C 
ENDROOT
BRANCH   1   2
ATOM      2  C   UNL     1       7.969  -2.276  49.765  1.00  0.00     0.053 C 
BRANCH   2   3
ATOM      3  C   UNL     1       6.984  -3.403  49.734  1.00  0.00     0.041 C 
ATOM      4  O   UNL     1       7.386  -4.595  49.759  1.00  0.00    -0.550 OA
ATOM      5  O   UNL     1       5.621  -3.135  49.726  1.00  0.00    -0.550 OA
ENDBRANCH   2   3
ENDBRANCH   1   2
BRANCH   1   6
ATOM      6  C   UNL     1       8.096  -2.058  47.252  1.00  0.00     0.000 C 
BRANCH   6   7
ATOM      7  C   UNL     1       7.454  -0.666  47.285  1.00  0.00    -0.003 C 
ATOM      8  C   UNL     1       5.968  -0.736  46.943  1.00  0.00     0.004 C 
ENDBRANCH   6   7
ENDBRANCH   1   6
TORSDOF 4
ENDMDL
MODEL 9
REMARK VINA RESULT:    -3.489      2.109      3.147
REMARK INTER + INTRA:          -4.466
REMARK INTER:                  -4.220
REMARK INTRA:                  -0.246
REMARK UNBOUND:                -0.161
REMARK SMILES CCCCCC(=O)[O-]
REMARK SMILES IDX 4 1 5 2 6 3 7 4 8 5 3 6 2 7 1 8
REMARK H PARENT
REMARK Flexibility Score: inf
ROOT
ATOM      1  C   UNL     1       7.448  -2.404  48.849  1.00  0.00     0.006 C 
ENDROOT
BRANCH   1   2
ATOM      2  C   UNL     1       7.975  -1.402  47.817  1.00  0.00     0.053 C 
BRANCH   2   3
ATOM      3  C   UNL     1       6.889  -1.011  46.865  1.00  0.00     0.041 C 
ATOM      4  O   UNL     1       6.535   0.192  46.768  1.00  0.00    -0.550 OA
ATOM      5  O   UNL     1       6.301  -1.970  46.049  1.00  0.00    -0.550 OA
ENDBRANCH   2   3
ENDBRANCH   1   2
BRANCH   1   6
ATOM      6  C   UNL     1       6.332  -1.784  49.697  1.00  0.00     0.000 C 
BRANCH   6   7
ATOM      7  C   UNL     1       5.287  -2.836  50.085  1.00  0.00    -0.003 C 
ATOM      8  C   UNL     1       4.706  -3.518  48.850  1.00  0.00     0.004 C 
ENDBRANCH   6   7
ENDBRANCH   1   6
TORSDOF 4
ENDMDL
