MODEL 1
REMARK VINA RESULT:    -4.439      0.000      0.000
REMARK INTER + INTRA:         -17.539
REMARK INTER:                 -11.704
REMARK INTRA:                  -5.834
REMARK UNBOUND:                -5.834
REMARK SMILES CCCCCCCCCCCCCCCCCCCCCCCCCCCCCC(=O)[O-]
REMARK SMILES IDX 16 1 17 2 18 3 19 4 20 5 21 6 22 7 23 8 24 9 25 10 26 11
REMARK SMILES IDX 27 12 28 13 29 14 30 15 31 16 32 17 15 18 14 19 13 20 12 21
REMARK SMILES IDX 11 22 10 23 9 24 8 25 7 26 6 27 5 28 4 29 3 30 2 31 1 32
REMARK H PARENT
REMARK Flexibility Score: inf
ROOT
ATOM      1  C   UNL     1      19.629  20.245  35.572  1.00  0.00     0.000 C 
ENDROOT
BRANCH   1   2
ATOM      2  C   UNL     1      20.876  19.393  35.289  1.00  0.00     0.000 C 
BRANCH   2   3
ATOM      3  C   UNL     1      20.948  18.182  36.232  1.00  0.00     0.000 C 
BRANCH   3   4
ATOM      4  C   UNL     1      19.798  17.185  36.018  1.00  0.00     0.000 C 
BRANCH   4   5
ATOM      5  C   UNL     1      20.284  15.732  35.893  1.00  0.00     0.000 C 
BRANCH   5   6
ATOM      6  C   UNL     1      20.120  15.171  34.471  1.00  0.00     0.000 C 
BRANCH   6   7
ATOM      7  C   UNL     1      19.608  16.210  33.450  1.00  0.00     0.000 C 
BRANCH   7   8
ATOM      8  C   UNL     1      19.662  15.680  32.007  1.00  0.00     0.000 C 
BRANCH   8   9
ATOM      9  C   UNL     1      18.726  14.479  31.786  1.00  0.00     0.000 C 
BRANCH   9  10
ATOM     10  C   UNL     1      17.253  14.823  32.068  1.00  0.00     0.000 C 
BRANCH  10  11
ATOM     11  C   UNL     1      16.746  14.212  33.383  1.00  0.00     0.000 C 
BRANCH  11  12
ATOM     12  C   UNL     1      15.710  15.102  34.086  1.00  0.00     0.000 C 
BRANCH  12  13
ATOM     13  C   UNL     1      16.337  15.827  35.286  1.00  0.00     0.006 C 
BRANCH  13  14
ATOM     14  C   UNL     1      16.366  14.951  36.546  1.00  0.00     0.053 C 
BRANCH  14  15
ATOM     15  C   UNL     1      15.549  15.536  37.657  1.00  0.00     0.041 C 
ATOM     16  O   UNL     1      15.477  16.786  37.802  1.00  0.00    -0.550 OA
ATOM     17  O   UNL     1      14.880  14.701  38.544  1.00  0.00    -0.550 OA
ENDBRANCH  14  15
ENDBRANCH  13  14
ENDBRANCH  12  13
ENDBRANCH  11  12
ENDBRANCH  10  11
ENDBRANCH   9  10
ENDBRANCH   8   9
ENDBRANCH   7   8
ENDBRANCH   6   7
ENDBRANCH   5   6
ENDBRANCH   4   5
ENDBRANCH   3   4
ENDBRANCH   2   3
ENDBRANCH   1   2
BRANCH   1  18
ATOM     18  C   UNL     1      18.590  20.189  34.436  1.00  0.00     0.000 C 
BRANCH  18  19
ATOM     19  C   UNL     1      19.156  19.839  33.048  1.00  0.00     0.000 C 
BRANCH  19  20
ATOM     20  C   UNL     1      18.134  19.122  32.150  1.00  0.00     0.000 C 
BRANCH  20  21
ATOM     21  C   UNL     1      16.826  18.794  32.890  1.00  0.00     0.000 C 
BRANCH  21  22
ATOM     22  C   UNL     1      15.850  17.962  32.045  1.00  0.00     0.000 C 
BRANCH  22  23
ATOM     23  C   UNL     1      14.550  18.738  31.785  1.00  0.00     0.000 C 
BRANCH  23  24
ATOM     24  C   UNL     1      13.376  17.819  31.417  1.00  0.00    -0.000 C 
BRANCH  24  25
ATOM     25  C   UNL     1      13.800  16.347  31.260  1.00  0.00    -0.000 C 
BRANCH  25  26
ATOM     26  C   UNL     1      13.591  15.825  29.830  1.00  0.00    -0.000 C 
BRANCH  26  27
ATOM     27  C   UNL     1      12.980  16.884  28.898  1.00  0.00    -0.000 C 
BRANCH  27  28
ATOM     28  C   UNL     1      13.961  17.361  27.815  1.00  0.00    -0.000 C 
BRANCH  28  29
ATOM     29  C   UNL     1      14.594  18.735  28.126  1.00  0.00    -0.000 C 
BRANCH  29  30
ATOM     30  C   UNL     1      16.123  18.647  28.275  1.00  0.00    -0.000 C 
BRANCH  30  31
ATOM     31  C   UNL     1      16.636  17.199  28.273  1.00  0.00    -0.003 C 
ATOM     32  C   UNL     1      17.892  17.014  29.126  1.00  0.00     0.004 C 
ENDBRANCH  30  31
ENDBRANCH  29  30
ENDBRANCH  28  29
ENDBRANCH  27  28
ENDBRANCH  26  27
ENDBRANCH  25  26
ENDBRANCH  24  25
ENDBRANCH  23  24
ENDBRANCH  22  23
ENDBRANCH  21  22
ENDBRANCH  20  21
ENDBRANCH  19  20
ENDBRANCH  18  19
ENDBRANCH   1  18
TORSDOF 28
ENDMDL
MODEL 2
REMARK VINA RESULT:    -4.365      3.643      6.942
REMARK INTER + INTRA:         -17.343
REMARK INTER:                 -11.749
REMARK INTRA:                  -5.594
REMARK UNBOUND:                -5.834
REMARK SMILES CCCCCCCCCCCCCCCCCCCCCCCCCCCCCC(=O)[O-]
REMARK SMILES IDX 16 1 17 2 18 3 19 4 20 5 21 6 22 7 23 8 24 9 25 10 26 11
REMARK SMILES IDX 27 12 28 13 29 14 30 15 31 16 32 17 15 18 14 19 13 20 12 21
REMARK SMILES IDX 11 22 10 23 9 24 8 25 7 26 6 27 5 28 4 29 3 30 2 31 1 32
REMARK H PARENT
REMARK Flexibility Score: inf
ROOT
ATOM      1  C   UNL     1      19.008  19.690  33.373  1.00  0.00     0.000 C 
ENDROOT
BRANCH   1   2
ATOM      2  C   UNL     1      18.119  18.714  32.588  1.00  0.00     0.000 C 
BRANCH   2   3
ATOM      3  C   UNL     1      16.638  18.889  32.959  1.00  0.00     0.000 C 
BRANCH   3   4
ATOM      4  C   UNL     1      15.684  18.248  31.939  1.00  0.00     0.000 C 
BRANCH   4   5
ATOM      5  C   UNL     1      14.293  18.904  31.928  1.00  0.00     0.000 C 
BRANCH   5   6
ATOM      6  C   UNL     1      13.181  17.932  31.504  1.00  0.00     0.000 C 
BRANCH   6   7
ATOM      7  C   UNL     1      13.651  16.466  31.387  1.00  0.00     0.000 C 
BRANCH   7   8
ATOM      8  C   UNL     1      13.329  15.862  30.009  1.00  0.00     0.000 C 
BRANCH   8   9
ATOM      9  C   UNL     1      14.566  15.244  29.335  1.00  0.00     0.000 C 
BRANCH   9  10
ATOM     10  C   UNL     1      15.027  16.047  28.106  1.00  0.00     0.000 C 
BRANCH  10  11
ATOM     11  C   UNL     1      16.169  17.022  28.433  1.00  0.00     0.000 C 
BRANCH  11  12
ATOM     12  C   UNL     1      15.726  18.492  28.370  1.00  0.00     0.000 C 
BRANCH  12  13
ATOM     13  C   UNL     1      16.937  19.422  28.210  1.00  0.00     0.006 C 
BRANCH  13  14
ATOM     14  C   UNL     1      16.697  20.514  27.158  1.00  0.00     0.053 C 
BRANCH  14  15
ATOM     15  C   UNL     1      17.459  20.255  25.894  1.00  0.00     0.041 C 
ATOM     16  O   UNL     1      16.845  19.997  24.825  1.00  0.00    -0.550 OA
ATOM     17  O   UNL     1      18.848  20.281  25.901  1.00  0.00    -0.550 OA
ENDBRANCH  14  15
ENDBRANCH  13  14
ENDBRANCH  12  13
ENDBRANCH  11  12
ENDBRANCH  10  11
ENDBRANCH   9  10
ENDBRANCH   8   9
ENDBRANCH   7   8
ENDBRANCH   6   7
ENDBRANCH   5   6
ENDBRANCH   4   5
ENDBRANCH   3   4
ENDBRANCH   2   3
ENDBRANCH   1   2
BRANCH   1  18
ATOM     18  C   UNL     1      20.388  19.102  33.722  1.00  0.00     0.000 C 
BRANCH  18  19
ATOM     19  C   UNL     1      20.929  19.480  35.112  1.00  0.00     0.000 C 
BRANCH  19  20
ATOM     20  C   UNL     1      19.925  20.300  35.941  1.00  0.00     0.000 C 
BRANCH  20  21
ATOM     21  C   UNL     1      19.283  19.477  37.071  1.00  0.00     0.000 C 
BRANCH  21  22
ATOM     22  C   UNL     1      17.749  19.454  36.999  1.00  0.00     0.000 C 
BRANCH  22  23
ATOM     23  C   UNL     1      17.248  18.125  36.413  1.00  0.00     0.000 C 
BRANCH  23  24
ATOM     24  C   UNL     1      18.383  17.114  36.188  1.00  0.00    -0.000 C 
BRANCH  24  25
ATOM     25  C   UNL     1      17.984  15.974  35.233  1.00  0.00    -0.000 C 
BRANCH  25  26
ATOM     26  C   UNL     1      16.477  15.965  34.927  1.00  0.00    -0.000 C 
BRANCH  26  27
ATOM     27  C   UNL     1      16.123  15.062  33.734  1.00  0.00    -0.000 C 
BRANCH  27  28
ATOM     28  C   UNL     1      17.361  14.611  32.942  1.00  0.00    -0.000 C 
BRANCH  28  29
ATOM     29  C   UNL     1      17.486  15.292  31.562  1.00  0.00    -0.000 C 
BRANCH  29  30
ATOM     30  C   UNL     1      18.882  15.094  30.944  1.00  0.00    -0.000 C 
BRANCH  30  31
ATOM     31  C   UNL     1      19.316  16.280  30.069  1.00  0.00    -0.003 C 
ATOM     32  C   UNL     1      20.011  15.842  28.780  1.00  0.00     0.004 C 
ENDBRANCH  30  31
ENDBRANCH  29  30
ENDBRANCH  28  29
ENDBRANCH  27  28
ENDBRANCH  26  27
ENDBRANCH  25  26
ENDBRANCH  24  25
ENDBRANCH  23  24
ENDBRANCH  22  23
ENDBRANCH  21  22
ENDBRANCH  20  21
ENDBRANCH  19  20
ENDBRANCH  18  19
ENDBRANCH   1  18
TORSDOF 28
ENDMDL
MODEL 3
REMARK VINA RESULT:    -4.322      1.474      4.513
REMARK INTER + INTRA:         -17.232
REMARK INTER:                 -11.821
REMARK INTRA:                  -5.410
REMARK UNBOUND:                -5.834
REMARK SMILES CCCCCCCCCCCCCCCCCCCCCCCCCCCCCC(=O)[O-]
REMARK SMILES IDX 16 1 17 2 18 3 19 4 20 5 21 6 22 7 23 8 24 9 25 10 26 11
REMARK SMILES IDX 27 12 28 13 29 14 30 15 31 16 32 17 15 18 14 19 13 20 12 21
REMARK SMILES IDX 11 22 10 23 9 24 8 25 7 26 6 27 5 28 4 29 3 30 2 31 1 32
REMARK H PARENT
REMARK Flexibility Score: inf
ROOT
ATOM      1  C   UNL     1      15.408  18.621  31.897  1.00  0.00     0.000 C 
ENDROOT
BRANCH   1   2
ATOM      2  C   UNL     1      15.608  17.287  32.634  1.00  0.00     0.000 C 
BRANCH   2   3
ATOM      3  C   UNL     1      16.592  16.378  31.882  1.00  0.00     0.000 C 
BRANCH   3   4
ATOM      4  C   UNL     1      17.856  16.058  32.696  1.00  0.00     0.000 C 
BRANCH   4   5
ATOM      5  C   UNL     1      19.119  16.723  32.123  1.00  0.00     0.000 C 
BRANCH   5   6
ATOM      6  C   UNL     1      19.593  17.920  32.964  1.00  0.00     0.000 C 
BRANCH   6   7
ATOM      7  C   UNL     1      18.874  19.242  32.620  1.00  0.00     0.000 C 
BRANCH   7   8
ATOM      8  C   UNL     1      18.895  20.235  33.795  1.00  0.00     0.000 C 
BRANCH   8   9
ATOM      9  C   UNL     1      20.066  19.981  34.760  1.00  0.00     0.000 C 
BRANCH   9  10
ATOM     10  C   UNL     1      19.635  20.045  36.235  1.00  0.00     0.000 C 
BRANCH  10  11
ATOM     11  C   UNL     1      18.280  19.364  36.484  1.00  0.00     0.000 C 
BRANCH  11  12
ATOM     12  C   UNL     1      18.362  17.833  36.382  1.00  0.00     0.000 C 
BRANCH  12  13
ATOM     13  C   UNL     1      17.006  17.239  35.975  1.00  0.00     0.006 C 
BRANCH  13  14
ATOM     14  C   UNL     1      16.797  15.826  36.537  1.00  0.00     0.053 C 
BRANCH  14  15
ATOM     15  C   UNL     1      15.427  15.649  37.119  1.00  0.00     0.041 C 
ATOM     16  O   UNL     1      15.152  16.129  38.251  1.00  0.00    -0.550 OA
ATOM     17  O   UNL     1      14.459  14.940  36.418  1.00  0.00    -0.550 OA
ENDBRANCH  14  15
ENDBRANCH  13  14
ENDBRANCH  12  13
ENDBRANCH  11  12
ENDBRANCH  10  11
ENDBRANCH   9  10
ENDBRANCH   8   9
ENDBRANCH   7   8
ENDBRANCH   6   7
ENDBRANCH   5   6
ENDBRANCH   4   5
ENDBRANCH   3   4
ENDBRANCH   2   3
ENDBRANCH   1   2
BRANCH   1  18
ATOM     18  C   UNL     1      14.021  18.745  31.240  1.00  0.00     0.000 C 
BRANCH  18  19
ATOM     19  C   UNL     1      13.112  17.512  31.393  1.00  0.00     0.000 C 
BRANCH  19  20
ATOM     20  C   UNL     1      12.855  16.790  30.059  1.00  0.00     0.000 C 
BRANCH  20  21
ATOM     21  C   UNL     1      13.559  15.425  29.982  1.00  0.00     0.000 C 
BRANCH  21  22
ATOM     22  C   UNL     1      13.344  14.714  28.637  1.00  0.00     0.000 C 
BRANCH  22  23
ATOM     23  C   UNL     1      12.146  15.315  27.886  1.00  0.00     0.000 C 
BRANCH  23  24
ATOM     24  C   UNL     1      12.519  15.815  26.482  1.00  0.00    -0.000 C 
BRANCH  24  25
ATOM     25  C   UNL     1      14.041  15.925  26.276  1.00  0.00    -0.000 C 
BRANCH  25  26
ATOM     26  C   UNL     1      14.497  17.373  26.031  1.00  0.00    -0.000 C 
BRANCH  26  27
ATOM     27  C   UNL     1      13.946  18.350  27.082  1.00  0.00    -0.000 C 
BRANCH  27  28
ATOM     28  C   UNL     1      15.017  19.316  27.616  1.00  0.00    -0.000 C 
BRANCH  28  29
ATOM     29  C   UNL     1      16.459  18.802  27.413  1.00  0.00    -0.000 C 
BRANCH  29  30
ATOM     30  C   UNL     1      16.980  18.040  28.644  1.00  0.00    -0.000 C 
BRANCH  30  31
ATOM     31  C   UNL     1      17.776  16.780  28.270  1.00  0.00    -0.003 C 
ATOM     32  C   UNL     1      16.978  15.492  28.475  1.00  0.00     0.004 C 
ENDBRANCH  30  31
ENDBRANCH  29  30
ENDBRANCH  28  29
ENDBRANCH  27  28
ENDBRANCH  26  27
ENDBRANCH  25  26
ENDBRANCH  24  25
ENDBRANCH  23  24
ENDBRANCH  22  23
ENDBRANCH  21  22
ENDBRANCH  20  21
ENDBRANCH  19  20
ENDBRANCH  18  19
ENDBRANCH   1  18
TORSDOF 28
ENDMDL
MODEL 4
REMARK VINA RESULT:    -4.288      1.142      4.964
REMARK INTER + INTRA:         -17.140
REMARK INTER:                 -11.663
REMARK INTRA:                  -5.478
REMARK UNBOUND:                -5.834
REMARK SMILES CCCCCCCCCCCCCCCCCCCCCCCCCCCCCC(=O)[O-]
REMARK SMILES IDX 16 1 17 2 18 3 19 4 20 5 21 6 22 7 23 8 24 9 25 10 26 11
REMARK SMILES IDX 27 12 28 13 29 14 30 15 31 16 32 17 15 18 14 19 13 20 12 21
REMARK SMILES IDX 11 22 10 23 9 24 8 25 7 26 6 27 5 28 4 29 3 30 2 31 1 32
REMARK H PARENT
REMARK Flexibility Score: inf
ROOT
ATOM      1  C   UNL     1      13.646  18.377  31.458  1.00  0.00     0.000 C 
ENDROOT
BRANCH   1   2
ATOM      2  C   UNL     1      14.759  19.090  32.241  1.00  0.00     0.000 C 
BRANCH   2   3
ATOM      3  C   UNL     1      15.778  18.084  32.800  1.00  0.00     0.000 C 
BRANCH   3   4
ATOM      4  C   UNL     1      16.955  18.759  33.522  1.00  0.00     0.000 C 
BRANCH   4   5
ATOM      5  C   UNL     1      18.173  18.971  32.609  1.00  0.00     0.000 C 
BRANCH   5   6
ATOM      6  C   UNL     1      19.392  19.526  33.364  1.00  0.00     0.000 C 
BRANCH   6   7
ATOM      7  C   UNL     1      19.029  20.256  34.675  1.00  0.00     0.000 C 
BRANCH   7   8
ATOM      8  C   UNL     1      19.745  19.649  35.895  1.00  0.00     0.000 C 
BRANCH   8   9
ATOM      9  C   UNL     1      20.726  18.531  35.503  1.00  0.00     0.000 C 
BRANCH   9  10
ATOM     10  C   UNL     1      20.290  17.154  36.036  1.00  0.00     0.000 C 
BRANCH  10  11
ATOM     11  C   UNL     1      20.123  16.115  34.916  1.00  0.00     0.000 C 
BRANCH  11  12
ATOM     12  C   UNL     1      18.653  15.738  34.677  1.00  0.00     0.000 C 
BRANCH  12  13
ATOM     13  C   UNL     1      17.862  15.760  35.993  1.00  0.00     0.006 C 
BRANCH  13  14
ATOM     14  C   UNL     1      16.346  15.817  35.759  1.00  0.00     0.053 C 
BRANCH  14  15
ATOM     15  C   UNL     1      15.573  15.458  36.991  1.00  0.00     0.041 C 
ATOM     16  O   UNL     1      15.523  16.257  37.964  1.00  0.00    -0.550 OA
ATOM     17  O   UNL     1      14.922  14.233  37.072  1.00  0.00    -0.550 OA
ENDBRANCH  14  15
ENDBRANCH  13  14
ENDBRANCH  12  13
ENDBRANCH  11  12
ENDBRANCH  10  11
ENDBRANCH   9  10
ENDBRANCH   8   9
ENDBRANCH   7   8
ENDBRANCH   6   7
ENDBRANCH   5   6
ENDBRANCH   4   5
ENDBRANCH   3   4
ENDBRANCH   2   3
ENDBRANCH   1   2
BRANCH   1  18
ATOM     18  C   UNL     1      13.759  16.842  31.514  1.00  0.00     0.000 C 
BRANCH  18  19
ATOM     19  C   UNL     1      12.918  16.085  30.470  1.00  0.00     0.000 C 
BRANCH  19  20
ATOM     20  C   UNL     1      13.615  15.981  29.103  1.00  0.00     0.000 C 
BRANCH  20  21
ATOM     21  C   UNL     1      12.973  16.893  28.043  1.00  0.00     0.000 C 
BRANCH  21  22
ATOM     22  C   UNL     1      14.003  17.530  27.097  1.00  0.00     0.000 C 
BRANCH  22  23
ATOM     23  C   UNL     1      14.535  18.850  27.676  1.00  0.00     0.000 C 
BRANCH  23  24
ATOM     24  C   UNL     1      15.903  19.241  27.095  1.00  0.00    -0.000 C 
BRANCH  24  25
ATOM     25  C   UNL     1      16.989  19.385  28.177  1.00  0.00    -0.000 C 
BRANCH  25  26
ATOM     26  C   UNL     1      16.747  18.458  29.379  1.00  0.00    -0.000 C 
BRANCH  26  27
ATOM     27  C   UNL     1      17.576  17.166  29.303  1.00  0.00    -0.000 C 
BRANCH  27  28
ATOM     28  C   UNL     1      17.061  16.072  30.252  1.00  0.00    -0.000 C 
BRANCH  28  29
ATOM     29  C   UNL     1      18.190  15.310  30.979  1.00  0.00    -0.000 C 
BRANCH  29  30
ATOM     30  C   UNL     1      19.499  16.119  31.021  1.00  0.00    -0.000 C 
BRANCH  30  31
ATOM     31  C   UNL     1      20.704  15.326  30.493  1.00  0.00    -0.003 C 
ATOM     32  C   UNL     1      21.115  15.744  29.080  1.00  0.00     0.004 C 
ENDBRANCH  30  31
ENDBRANCH  29  30
ENDBRANCH  28  29
ENDBRANCH  27  28
ENDBRANCH  26  27
ENDBRANCH  25  26
ENDBRANCH  24  25
ENDBRANCH  23  24
ENDBRANCH  22  23
ENDBRANCH  21  22
ENDBRANCH  20  21
ENDBRANCH  19  20
ENDBRANCH  18  19
ENDBRANCH   1  18
TORSDOF 28
ENDMDL
MODEL 5
REMARK VINA RESULT:    -4.284      1.494      4.290
REMARK INTER + INTRA:         -17.130
REMARK INTER:                 -12.020
REMARK INTRA:                  -5.110
REMARK UNBOUND:                -5.834
REMARK SMILES CCCCCCCCCCCCCCCCCCCCCCCCCCCCCC(=O)[O-]
REMARK SMILES IDX 16 1 17 2 18 3 19 4 20 5 21 6 22 7 23 8 24 9 25 10 26 11
REMARK SMILES IDX 27 12 28 13 29 14 30 15 31 16 32 17 15 18 14 19 13 20 12 21
REMARK SMILES IDX 11 22 10 23 9 24 8 25 7 26 6 27 5 28 4 29 3 30 2 31 1 32
REMARK H PARENT
REMARK Flexibility Score: inf
ROOT
ATOM      1  C   UNL     1      16.218  18.128  31.738  1.00  0.00     0.000 C 
ENDROOT
BRANCH   1   2
ATOM      2  C   UNL     1      17.577  18.560  31.166  1.00  0.00     0.000 C 
BRANCH   2   3
ATOM      3  C   UNL     1      18.543  18.980  32.285  1.00  0.00     0.000 C 
BRANCH   3   4
ATOM      4  C   UNL     1      17.820  19.474  33.548  1.00  0.00     0.000 C 
BRANCH   4   5
ATOM      5  C   UNL     1      18.747  20.243  34.505  1.00  0.00     0.000 C 
BRANCH   5   6
ATOM      6  C   UNL     1      18.598  19.791  35.967  1.00  0.00     0.000 C 
BRANCH   6   7
ATOM      7  C   UNL     1      19.946  19.599  36.696  1.00  0.00     0.000 C 
BRANCH   7   8
ATOM      8  C   UNL     1      20.955  18.803  35.851  1.00  0.00     0.000 C 
BRANCH   8   9
ATOM      9  C   UNL     1      20.811  17.283  36.041  1.00  0.00     0.000 C 
BRANCH   9  10
ATOM     10  C   UNL     1      19.959  16.632  34.937  1.00  0.00     0.000 C 
BRANCH  10  11
ATOM     11  C   UNL     1      18.725  15.905  35.496  1.00  0.00     0.000 C 
BRANCH  11  12
ATOM     12  C   UNL     1      17.493  16.055  34.592  1.00  0.00     0.000 C 
BRANCH  12  13
ATOM     13  C   UNL     1      16.263  15.394  35.230  1.00  0.00     0.006 C 
BRANCH  13  14
ATOM     14  C   UNL     1      16.321  15.415  36.764  1.00  0.00     0.053 C 
BRANCH  14  15
ATOM     15  C   UNL     1      15.657  16.631  37.335  1.00  0.00     0.041 C 
ATOM     16  O   UNL     1      16.314  17.693  37.503  1.00  0.00    -0.550 OA
ATOM     17  O   UNL     1      14.316  16.587  37.697  1.00  0.00    -0.550 OA
ENDBRANCH  14  15
ENDBRANCH  13  14
ENDBRANCH  12  13
ENDBRANCH  11  12
ENDBRANCH  10  11
ENDBRANCH   9  10
ENDBRANCH   8   9
ENDBRANCH   7   8
ENDBRANCH   6   7
ENDBRANCH   5   6
ENDBRANCH   4   5
ENDBRANCH   3   4
ENDBRANCH   2   3
ENDBRANCH   1   2
BRANCH   1  18
ATOM     18  C   UNL     1      15.043  18.427  30.789  1.00  0.00     0.000 C 
BRANCH  18  19
ATOM     19  C   UNL     1      13.646  18.348  31.431  1.00  0.00     0.000 C 
BRANCH  19  20
ATOM     20  C   UNL     1      12.981  16.974  31.246  1.00  0.00     0.000 C 
BRANCH  20  21
ATOM     21  C   UNL     1      12.821  16.590  29.765  1.00  0.00     0.000 C 
BRANCH  21  22
ATOM     22  C   UNL     1      13.406  15.207  29.438  1.00  0.00     0.000 C 
BRANCH  22  23
ATOM     23  C   UNL     1      14.665  15.337  28.567  1.00  0.00     0.000 C 
BRANCH  23  24
ATOM     24  C   UNL     1      15.961  15.153  29.371  1.00  0.00    -0.000 C 
BRANCH  24  25
ATOM     25  C   UNL     1      17.161  15.884  28.742  1.00  0.00    -0.000 C 
BRANCH  25  26
ATOM     26  C   UNL     1      16.784  16.628  27.451  1.00  0.00    -0.000 C 
BRANCH  26  27
ATOM     27  C   UNL     1      16.965  18.150  27.572  1.00  0.00    -0.000 C 
BRANCH  27  28
ATOM     28  C   UNL     1      15.673  18.928  27.273  1.00  0.00    -0.000 C 
BRANCH  28  29
ATOM     29  C   UNL     1      14.753  18.218  26.255  1.00  0.00    -0.000 C 
BRANCH  29  30
ATOM     30  C   UNL     1      13.266  18.350  26.629  1.00  0.00    -0.000 C 
BRANCH  30  31
ATOM     31  C   UNL     1      12.430  17.147  26.168  1.00  0.00    -0.003 C 
ATOM     32  C   UNL     1      13.215  16.185  25.276  1.00  0.00     0.004 C 
ENDBRANCH  30  31
ENDBRANCH  29  30
ENDBRANCH  28  29
ENDBRANCH  27  28
ENDBRANCH  26  27
ENDBRANCH  25  26
ENDBRANCH  24  25
ENDBRANCH  23  24
ENDBRANCH  22  23
ENDBRANCH  21  22
ENDBRANCH  20  21
ENDBRANCH  19  20
ENDBRANCH  18  19
ENDBRANCH   1  18
TORSDOF 28
ENDMDL
MODEL 6
REMARK VINA RESULT:    -4.235      1.587      4.999
REMARK INTER + INTRA:         -17.002
REMARK INTER:                 -11.596
REMARK INTRA:                  -5.406
REMARK UNBOUND:                -5.834
REMARK SMILES CCCCCCCCCCCCCCCCCCCCCCCCCCCCCC(=O)[O-]
REMARK SMILES IDX 16 1 17 2 18 3 19 4 20 5 21 6 22 7 23 8 24 9 25 10 26 11
REMARK SMILES IDX 27 12 28 13 29 14 30 15 31 16 32 17 15 18 14 19 13 20 12 21
REMARK SMILES IDX 11 22 10 23 9 24 8 25 7 26 6 27 5 28 4 29 3 30 2 31 1 32
REMARK H PARENT
REMARK Flexibility Score: inf
ROOT
ATOM      1  C   UNL     1      13.609  18.389  31.289  1.00  0.00     0.000 C 
ENDROOT
BRANCH   1   2
ATOM      2  C   UNL     1      14.942  18.496  32.046  1.00  0.00     0.000 C 
BRANCH   2   3
ATOM      3  C   UNL     1      15.637  17.130  32.146  1.00  0.00     0.000 C 
BRANCH   3   4
ATOM      4  C   UNL     1      16.828  17.130  33.117  1.00  0.00     0.000 C 
BRANCH   4   5
ATOM      5  C   UNL     1      18.056  16.395  32.557  1.00  0.00     0.000 C 
BRANCH   5   6
ATOM      6  C   UNL     1      19.216  17.346  32.220  1.00  0.00     0.000 C 
BRANCH   6   7
ATOM      7  C   UNL     1      18.828  18.839  32.273  1.00  0.00     0.000 C 
BRANCH   7   8
ATOM      8  C   UNL     1      19.580  19.595  33.382  1.00  0.00     0.000 C 
BRANCH   8   9
ATOM      9  C   UNL     1      18.629  20.346  34.330  1.00  0.00     0.000 C 
BRANCH   9  10
ATOM     10  C   UNL     1      18.498  19.654  35.699  1.00  0.00     0.000 C 
BRANCH  10  11
ATOM     11  C   UNL     1      19.586  18.594  35.930  1.00  0.00     0.000 C 
BRANCH  11  12
ATOM     12  C   UNL     1      19.009  17.177  36.070  1.00  0.00     0.000 C 
BRANCH  12  13
ATOM     13  C   UNL     1      17.509  17.228  36.398  1.00  0.00     0.006 C 
BRANCH  13  14
ATOM     14  C   UNL     1      16.911  15.829  36.605  1.00  0.00     0.053 C 
BRANCH  14  15
ATOM     15  C   UNL     1      15.523  15.888  37.165  1.00  0.00     0.041 C 
ATOM     16  O   UNL     1      14.610  15.172  36.675  1.00  0.00    -0.550 OA
ATOM     17  O   UNL     1      15.233  16.747  38.218  1.00  0.00    -0.550 OA
ENDBRANCH  14  15
ENDBRANCH  13  14
ENDBRANCH  12  13
ENDBRANCH  11  12
ENDBRANCH  10  11
ENDBRANCH   9  10
ENDBRANCH   8   9
ENDBRANCH   7   8
ENDBRANCH   6   7
ENDBRANCH   5   6
ENDBRANCH   4   5
ENDBRANCH   3   4
ENDBRANCH   2   3
ENDBRANCH   1   2
BRANCH   1  18
ATOM     18  C   UNL     1      13.654  17.372  30.134  1.00  0.00     0.000 C 
BRANCH  18  19
ATOM     19  C   UNL     1      12.580  16.270  30.189  1.00  0.00     0.000 C 
BRANCH  19  20
ATOM     20  C   UNL     1      12.216  15.720  28.800  1.00  0.00     0.000 C 
BRANCH  20  21
ATOM     21  C   UNL     1      12.945  16.457  27.664  1.00  0.00     0.000 C 
BRANCH  21  22
ATOM     22  C   UNL     1      13.935  15.560  26.905  1.00  0.00     0.000 C 
BRANCH  22  23
ATOM     23  C   UNL     1      14.184  14.251  27.669  1.00  0.00     0.000 C 
BRANCH  23  24
ATOM     24  C   UNL     1      15.658  14.067  28.061  1.00  0.00    -0.000 C 
BRANCH  24  25
ATOM     25  C   UNL     1      16.118  15.074  29.131  1.00  0.00    -0.000 C 
BRANCH  25  26
ATOM     26  C   UNL     1      17.586  15.494  28.950  1.00  0.00    -0.000 C 
BRANCH  26  27
ATOM     27  C   UNL     1      17.730  16.825  28.193  1.00  0.00    -0.000 C 
BRANCH  27  28
ATOM     28  C   UNL     1      17.382  18.043  29.063  1.00  0.00    -0.000 C 
BRANCH  28  29
ATOM     29  C   UNL     1      16.204  18.874  28.509  1.00  0.00    -0.000 C 
BRANCH  29  30
ATOM     30  C   UNL     1      15.921  18.560  27.029  1.00  0.00    -0.000 C 
BRANCH  30  31
ATOM     31  C   UNL     1      15.414  19.783  26.249  1.00  0.00    -0.003 C 
ATOM     32  C   UNL     1      16.178  21.062  26.590  1.00  0.00     0.004 C 
ENDBRANCH  30  31
ENDBRANCH  29  30
ENDBRANCH  28  29
ENDBRANCH  27  28
ENDBRANCH  26  27
ENDBRANCH  25  26
ENDBRANCH  24  25
ENDBRANCH  23  24
ENDBRANCH  22  23
ENDBRANCH  21  22
ENDBRANCH  20  21
ENDBRANCH  19  20
ENDBRANCH  18  19
ENDBRANCH   1  18
TORSDOF 28
ENDMDL
MODEL 7
REMARK VINA RESULT:    -4.209      3.567      6.031
REMARK INTER + INTRA:         -16.934
REMARK INTER:                 -10.589
REMARK INTRA:                  -6.345
REMARK UNBOUND:                -5.834
REMARK SMILES CCCCCCCCCCCCCCCCCCCCCCCCCCCCCC(=O)[O-]
REMARK SMILES IDX 16 1 17 2 18 3 19 4 20 5 21 6 22 7 23 8 24 9 25 10 26 11
REMARK SMILES IDX 27 12 28 13 29 14 30 15 31 16 32 17 15 18 14 19 13 20 12 21
REMARK SMILES IDX 11 22 10 23 9 24 8 25 7 26 6 27 5 28 4 29 3 30 2 31 1 32
REMARK H PARENT
REMARK Flexibility Score: inf
ROOT
ATOM      1  C   UNL     1      16.588  16.940  34.895  1.00  0.00     0.000 C 
ENDROOT
BRANCH   1   2
ATOM      2  C   UNL     1      16.495  15.457  34.502  1.00  0.00     0.000 C 
BRANCH   2   3
ATOM      3  C   UNL     1      17.528  15.102  33.422  1.00  0.00     0.000 C 
BRANCH   3   4
ATOM      4  C   UNL     1      18.976  15.168  33.930  1.00  0.00     0.000 C 
BRANCH   4   5
ATOM      5  C   UNL     1      19.987  15.479  32.814  1.00  0.00     0.000 C 
BRANCH   5   6
ATOM      6  C   UNL     1      19.521  14.984  31.435  1.00  0.00     0.000 C 
BRANCH   6   7
ATOM      7  C   UNL     1      20.085  15.808  30.258  1.00  0.00     0.000 C 
BRANCH   7   8
ATOM      8  C   UNL     1      19.032  16.048  29.162  1.00  0.00     0.000 C 
BRANCH   8   9
ATOM      9  C   UNL     1      17.856  15.060  29.249  1.00  0.00     0.000 C 
BRANCH   9  10
ATOM     10  C   UNL     1      16.620  15.550  28.476  1.00  0.00     0.000 C 
BRANCH  10  11
ATOM     11  C   UNL     1      16.808  16.960  27.894  1.00  0.00     0.000 C 
BRANCH  11  12
ATOM     12  C   UNL     1      15.474  17.640  27.551  1.00  0.00     0.000 C 
BRANCH  12  13
ATOM     13  C   UNL     1      15.504  19.127  27.933  1.00  0.00     0.006 C 
BRANCH  13  14
ATOM     14  C   UNL     1      16.930  19.694  27.950  1.00  0.00     0.053 C 
BRANCH  14  15
ATOM     15  C   UNL     1      17.325  20.265  26.622  1.00  0.00     0.041 C 
ATOM     16  O   UNL     1      18.477  20.055  26.158  1.00  0.00    -0.550 OA
ATOM     17  O   UNL     1      16.425  21.043  25.904  1.00  0.00    -0.550 OA
ENDBRANCH  14  15
ENDBRANCH  13  14
ENDBRANCH  12  13
ENDBRANCH  11  12
ENDBRANCH  10  11
ENDBRANCH   9  10
ENDBRANCH   8   9
ENDBRANCH   7   8
ENDBRANCH   6   7
ENDBRANCH   5   6
ENDBRANCH   4   5
ENDBRANCH   3   4
ENDBRANCH   2   3
ENDBRANCH   1   2
BRANCH   1  18
ATOM     18  C   UNL     1      17.145  17.153  36.314  1.00  0.00     0.000 C 
BRANCH  18  19
ATOM     19  C   UNL     1      18.297  18.169  36.420  1.00  0.00     0.000 C 
BRANCH  19  20
ATOM     20  C   UNL     1      17.990  19.497  35.708  1.00  0.00     0.000 C 
BRANCH  20  21
ATOM     21  C   UNL     1      19.185  20.018  34.891  1.00  0.00     0.000 C 
BRANCH  21  22
ATOM     22  C   UNL     1      18.871  20.160  33.394  1.00  0.00     0.000 C 
BRANCH  22  23
ATOM     23  C   UNL     1      18.784  18.782  32.720  1.00  0.00     0.000 C 
BRANCH  23  24
ATOM     24  C   UNL     1      18.053  18.831  31.369  1.00  0.00    -0.000 C 
BRANCH  24  25
ATOM     25  C   UNL     1      16.778  17.967  31.352  1.00  0.00    -0.000 C 
BRANCH  25  26
ATOM     26  C   UNL     1      15.512  18.783  31.655  1.00  0.00    -0.000 C 
BRANCH  26  27
ATOM     27  C   UNL     1      14.224  17.965  31.466  1.00  0.00    -0.000 C 
BRANCH  27  28
ATOM     28  C   UNL     1      14.466  16.449  31.542  1.00  0.00    -0.000 C 
BRANCH  28  29
ATOM     29  C   UNL     1      13.596  15.641  30.554  1.00  0.00    -0.000 C 
BRANCH  29  30
ATOM     30  C   UNL     1      12.858  16.550  29.556  1.00  0.00    -0.000 C 
BRANCH  30  31
ATOM     31  C   UNL     1      12.084  15.757  28.492  1.00  0.00    -0.003 C 
ATOM     32  C   UNL     1      12.156  16.399  27.106  1.00  0.00     0.004 C 
ENDBRANCH  30  31
ENDBRANCH  29  30
ENDBRANCH  28  29
ENDBRANCH  27  28
ENDBRANCH  26  27
ENDBRANCH  25  26
ENDBRANCH  24  25
ENDBRANCH  23  24
ENDBRANCH  22  23
ENDBRANCH  21  22
ENDBRANCH  20  21
ENDBRANCH  19  20
ENDBRANCH  18  19
ENDBRANCH   1  18
TORSDOF 28
ENDMDL
MODEL 8
REMARK VINA RESULT:    -4.163      1.490      3.094
REMARK INTER + INTRA:         -16.811
REMARK INTER:                 -10.964
REMARK INTRA:                  -5.847
REMARK UNBOUND:                -5.834
REMARK SMILES CCCCCCCCCCCCCCCCCCCCCCCCCCCCCC(=O)[O-]
REMARK SMILES IDX 16 1 17 2 18 3 19 4 20 5 21 6 22 7 23 8 24 9 25 10 26 11
REMARK SMILES IDX 27 12 28 13 29 14 30 15 31 16 32 17 15 18 14 19 13 20 12 21
REMARK SMILES IDX 11 22 10 23 9 24 8 25 7 26 6 27 5 28 4 29 3 30 2 31 1 32
REMARK H PARENT
REMARK Flexibility Score: inf
ROOT
ATOM      1  C   UNL     1      18.583  19.188  32.335  1.00  0.00     0.000 C 
ENDROOT
BRANCH   1   2
ATOM      2  C   UNL     1      17.483  19.375  33.391  1.00  0.00     0.000 C 
BRANCH   2   3
ATOM      3  C   UNL     1      18.066  19.888  34.717  1.00  0.00     0.000 C 
BRANCH   3   4
ATOM      4  C   UNL     1      19.589  20.088  34.665  1.00  0.00     0.000 C 
BRANCH   4   5
ATOM      5  C   UNL     1      20.274  19.805  36.012  1.00  0.00     0.000 C 
BRANCH   5   6
ATOM      6  C   UNL     1      20.182  18.327  36.426  1.00  0.00     0.000 C 
BRANCH   6   7
ATOM      7  C   UNL     1      20.696  17.348  35.349  1.00  0.00     0.000 C 
BRANCH   7   8
ATOM      8  C   UNL     1      20.458  15.879  35.739  1.00  0.00     0.000 C 
BRANCH   8   9
ATOM      9  C   UNL     1      19.901  15.044  34.573  1.00  0.00     0.000 C 
BRANCH   9  10
ATOM     10  C   UNL     1      19.145  15.903  33.545  1.00  0.00     0.000 C 
BRANCH  10  11
ATOM     11  C   UNL     1      17.839  15.245  33.072  1.00  0.00     0.000 C 
BRANCH  11  12
ATOM     12  C   UNL     1      16.807  15.105  34.202  1.00  0.00     0.000 C 
BRANCH  12  13
ATOM     13  C   UNL     1      16.558  16.458  34.885  1.00  0.00     0.006 C 
BRANCH  13  14
ATOM     14  C   UNL     1      16.833  16.406  36.395  1.00  0.00     0.053 C 
BRANCH  14  15
ATOM     15  C   UNL     1      15.568  16.329  37.194  1.00  0.00     0.041 C 
ATOM     16  O   UNL     1      15.439  17.012  38.245  1.00  0.00    -0.550 OA
ATOM     17  O   UNL     1      14.538  15.489  36.789  1.00  0.00    -0.550 OA
ENDBRANCH  14  15
ENDBRANCH  13  14
ENDBRANCH  12  13
ENDBRANCH  11  12
ENDBRANCH  10  11
ENDBRANCH   9  10
ENDBRANCH   8   9
ENDBRANCH   7   8
ENDBRANCH   6   7
ENDBRANCH   5   6
ENDBRANCH   4   5
ENDBRANCH   3   4
ENDBRANCH   2   3
ENDBRANCH   1   2
BRANCH   1  18
ATOM     18  C   UNL     1      18.116  18.370  31.116  1.00  0.00     0.000 C 
BRANCH  18  19
ATOM     19  C   UNL     1      16.740  18.765  30.551  1.00  0.00     0.000 C 
BRANCH  19  20
ATOM     20  C   UNL     1      15.811  17.557  30.344  1.00  0.00     0.000 C 
BRANCH  20  21
ATOM     21  C   UNL     1      14.944  17.262  31.580  1.00  0.00     0.000 C 
BRANCH  21  22
ATOM     22  C   UNL     1      13.458  17.068  31.238  1.00  0.00     0.000 C 
BRANCH  22  23
ATOM     23  C   UNL     1      13.237  17.104  29.718  1.00  0.00     0.000 C 
BRANCH  23  24
ATOM     24  C   UNL     1      12.471  15.875  29.204  1.00  0.00    -0.000 C 
BRANCH  24  25
ATOM     25  C   UNL     1      13.390  14.668  28.943  1.00  0.00    -0.000 C 
BRANCH  25  26
ATOM     26  C   UNL     1      14.446  14.956  27.863  1.00  0.00    -0.000 C 
BRANCH  26  27
ATOM     27  C   UNL     1      15.683  14.054  27.993  1.00  0.00    -0.000 C 
BRANCH  27  28
ATOM     28  C   UNL     1      16.323  14.120  29.389  1.00  0.00    -0.000 C 
BRANCH  28  29
ATOM     29  C   UNL     1      17.794  14.590  29.366  1.00  0.00    -0.000 C 
BRANCH  29  30
ATOM     30  C   UNL     1      18.246  15.006  27.955  1.00  0.00    -0.000 C 
BRANCH  30  31
ATOM     31  C   UNL     1      18.476  16.520  27.828  1.00  0.00    -0.003 C 
ATOM     32  C   UNL     1      17.375  17.222  27.032  1.00  0.00     0.004 C 
ENDBRANCH  30  31
ENDBRANCH  29  30
ENDBRANCH  28  29
ENDBRANCH  27  28
ENDBRANCH  26  27
ENDBRANCH  25  26
ENDBRANCH  24  25
ENDBRANCH  23  24
ENDBRANCH  22  23
ENDBRANCH  21  22
ENDBRANCH  20  21
ENDBRANCH  19  20
ENDBRANCH  18  19
ENDBRANCH   1  18
TORSDOF 28
ENDMDL
MODEL 9
REMARK VINA RESULT:    -4.157      1.864      4.639
REMARK INTER + INTRA:         -16.795
REMARK INTER:                 -11.677
REMARK INTRA:                  -5.119
REMARK UNBOUND:                -5.834
REMARK SMILES CCCCCCCCCCCCCCCCCCCCCCCCCCCCCC(=O)[O-]
REMARK SMILES IDX 16 1 17 2 18 3 19 4 20 5 21 6 22 7 23 8 24 9 25 10 26 11
REMARK SMILES IDX 27 12 28 13 29 14 30 15 31 16 32 17 15 18 14 19 13 20 12 21
REMARK SMILES IDX 11 22 10 23 9 24 8 25 7 26 6 27 5 28 4 29 3 30 2 31 1 32
REMARK H PARENT
REMARK Flexibility Score: inf
ROOT
ATOM      1  C   UNL     1      15.763  18.176  32.198  1.00  0.00     0.000 C 
ENDROOT
BRANCH   1   2
ATOM      2  C   UNL     1      16.780  17.184  31.612  1.00  0.00     0.000 C 
BRANCH   2   3
ATOM      3  C   UNL     1      18.218  17.576  31.985  1.00  0.00     0.000 C 
BRANCH   3   4
ATOM      4  C   UNL     1      18.434  19.097  32.027  1.00  0.00     0.000 C 
BRANCH   4   5
ATOM      5  C   UNL     1      19.203  19.556  33.277  1.00  0.00     0.000 C 
BRANCH   5   6
ATOM      6  C   UNL     1      18.277  19.860  34.466  1.00  0.00     0.000 C 
BRANCH   6   7
ATOM      7  C   UNL     1      18.999  19.855  35.831  1.00  0.00     0.000 C 
BRANCH   7   8
ATOM      8  C   UNL     1      20.385  19.191  35.751  1.00  0.00     0.000 C 
BRANCH   8   9
ATOM      9  C   UNL     1      20.390  17.768  36.337  1.00  0.00     0.000 C 
BRANCH   9  10
ATOM     10  C   UNL     1      20.562  16.689  35.253  1.00  0.00     0.000 C 
BRANCH  10  11
ATOM     11  C   UNL     1      19.262  15.917  34.978  1.00  0.00     0.000 C 
BRANCH  11  12
ATOM     12  C   UNL     1      18.154  16.249  35.990  1.00  0.00     0.000 C 
BRANCH  12  13
ATOM     13  C   UNL     1      16.806  16.444  35.281  1.00  0.00     0.006 C 
BRANCH  13  14
ATOM     14  C   UNL     1      15.893  15.218  35.420  1.00  0.00     0.053 C 
BRANCH  14  15
ATOM     15  C   UNL     1      15.495  14.659  34.088  1.00  0.00     0.041 C 
ATOM     16  O   UNL     1      14.283  14.638  33.745  1.00  0.00    -0.550 OA
ATOM     17  O   UNL     1      16.462  14.146  33.232  1.00  0.00    -0.550 OA
ENDBRANCH  14  15
ENDBRANCH  13  14
ENDBRANCH  12  13
ENDBRANCH  11  12
ENDBRANCH  10  11
ENDBRANCH   9  10
ENDBRANCH   8   9
ENDBRANCH   7   8
ENDBRANCH   6   7
ENDBRANCH   5   6
ENDBRANCH   4   5
ENDBRANCH   3   4
ENDBRANCH   2   3
ENDBRANCH   1   2
BRANCH   1  18
ATOM     18  C   UNL     1      14.696  18.618  31.179  1.00  0.00     0.000 C 
BRANCH  18  19
ATOM     19  C   UNL     1      13.242  18.310  31.578  1.00  0.00     0.000 C 
BRANCH  19  20
ATOM     20  C   UNL     1      12.860  16.837  31.350  1.00  0.00     0.000 C 
BRANCH  20  21
ATOM     21  C   UNL     1      12.999  16.413  29.878  1.00  0.00     0.000 C 
BRANCH  21  22
ATOM     22  C   UNL     1      14.149  15.421  29.647  1.00  0.00     0.000 C 
BRANCH  22  23
ATOM     23  C   UNL     1      14.252  15.039  28.162  1.00  0.00     0.000 C 
BRANCH  23  24
ATOM     24  C   UNL     1      13.729  16.143  27.230  1.00  0.00    -0.000 C 
BRANCH  24  25
ATOM     25  C   UNL     1      14.861  16.912  26.524  1.00  0.00    -0.000 C 
BRANCH  25  26
ATOM     26  C   UNL     1      16.251  16.349  26.861  1.00  0.00    -0.000 C 
BRANCH  26  27
ATOM     27  C   UNL     1      17.197  17.417  27.434  1.00  0.00    -0.000 C 
BRANCH  27  28
ATOM     28  C   UNL     1      16.451  18.524  28.197  1.00  0.00    -0.000 C 
BRANCH  28  29
ATOM     29  C   UNL     1      16.953  19.944  27.859  1.00  0.00    -0.000 C 
BRANCH  29  30
ATOM     30  C   UNL     1      17.001  20.195  26.341  1.00  0.00    -0.000 C 
BRANCH  30  31
ATOM     31  C   UNL     1      15.603  20.287  25.710  1.00  0.00    -0.003 C 
ATOM     32  C   UNL     1      14.819  21.511  26.184  1.00  0.00     0.004 C 
ENDBRANCH  30  31
ENDBRANCH  29  30
ENDBRANCH  28  29
ENDBRANCH  27  28
ENDBRANCH  26  27
ENDBRANCH  25  26
ENDBRANCH  24  25
ENDBRANCH  23  24
ENDBRANCH  22  23
ENDBRANCH  21  22
ENDBRANCH  20  21
ENDBRANCH  19  20
ENDBRANCH  18  19
ENDBRANCH   1  18
TORSDOF 28
ENDMDL
