MODEL 1
REMARK VINA RESULT:    -4.519      0.000      0.000
REMARK INTER + INTRA:          -7.209
REMARK INTER:                  -6.368
REMARK INTRA:                  -0.841
REMARK UNBOUND:                -0.841
REMARK SMILES CCCCCCCCC(=O)[O-]
REMARK SMILES IDX 6 1 7 2 8 3 9 4 10 5 11 6 5 7 4 8 3 9 2 10 1 11
REMARK H PARENT
REMARK Flexibility Score: inf
ROOT
ATOM      1  C   UNL     1      53.084  17.037  -1.449  1.00  0.00     0.000 C 
ENDROOT
BRANCH   1   2
ATOM      2  C   UNL     1      54.248  17.931  -0.989  1.00  0.00     0.006 C 
BRANCH   2   3
ATOM      3  C   UNL     1      55.589  17.185  -0.953  1.00  0.00     0.053 C 
BRANCH   3   4
ATOM      4  C   UNL     1      56.142  17.177   0.437  1.00  0.00     0.041 C 
ATOM      5  O   UNL     1      57.150  16.475   0.713  1.00  0.00    -0.550 OA
ATOM      6  O   UNL     1      55.515  17.907   1.439  1.00  0.00    -0.550 OA
ENDBRANCH   3   4
ENDBRANCH   2   3
ENDBRANCH   1   2
BRANCH   1   7
ATOM      7  C   UNL     1      53.557  15.655  -1.934  1.00  0.00     0.000 C 
BRANCH   7   8
ATOM      8  C   UNL     1      53.054  14.512  -1.038  1.00  0.00    -0.000 C 
BRANCH   8   9
ATOM      9  C   UNL     1      54.196  13.776  -0.316  1.00  0.00    -0.000 C 
BRANCH   9  10
ATOM     10  C   UNL     1      54.318  14.183   1.159  1.00  0.00    -0.003 C 
ATOM     11  C   UNL     1      53.148  15.046   1.632  1.00  0.00     0.004 C 
ENDBRANCH   9  10
ENDBRANCH   8   9
ENDBRANCH   7   8
ENDBRANCH   1   7
TORSDOF 7
ENDMDL
MODEL 2
REMARK VINA RESULT:    -4.495      2.167      4.229
REMARK INTER + INTRA:          -7.174
REMARK INTER:                  -6.284
REMARK INTRA:                  -0.891
REMARK UNBOUND:                -0.841
REMARK SMILES CCCCCCCCC(=O)[O-]
REMARK SMILES IDX 6 1 7 2 8 3 9 4 10 5 11 6 5 7 4 8 3 9 2 10 1 11
REMARK H PARENT
REMARK Flexibility Score: inf
ROOT
ATOM      1  C   UNL     1      53.088  17.034   2.291  1.00  0.00     0.000 C 
ENDROOT
BRANCH   1   2
ATOM      2  C   UNL     1      52.661  15.792   1.491  1.00  0.00     0.006 C 
BRANCH   2   3
ATOM      3  C   UNL     1      53.694  14.659   1.559  1.00  0.00     0.053 C 
BRANCH   3   4
ATOM      4  C   UNL     1      53.993  14.144   0.187  1.00  0.00     0.041 C 
ATOM      5  O   UNL     1      53.210  14.391  -0.767  1.00  0.00    -0.550 OA
ATOM      6  O   UNL     1      55.112  13.351  -0.030  1.00  0.00    -0.550 OA
ENDBRANCH   3   4
ENDBRANCH   2   3
ENDBRANCH   1   2
BRANCH   1   7
ATOM      7  C   UNL     1      54.610  17.099   2.512  1.00  0.00     0.000 C 
BRANCH   7   8
ATOM      8  C   UNL     1      55.323  17.947   1.447  1.00  0.00    -0.000 C 
BRANCH   8   9
ATOM      9  C   UNL     1      56.212  17.107   0.514  1.00  0.00    -0.000 C 
BRANCH   9  10
ATOM     10  C   UNL     1      55.732  17.141  -0.944  1.00  0.00    -0.003 C 
ATOM     11  C   UNL     1      54.404  17.878  -1.111  1.00  0.00     0.004 C 
ENDBRANCH   9  10
ENDBRANCH   8   9
ENDBRANCH   7   8
ENDBRANCH   1   7
TORSDOF 7
ENDMDL
MODEL 3
REMARK VINA RESULT:    -4.484      2.102      3.604
REMARK INTER + INTRA:          -7.159
REMARK INTER:                  -6.474
REMARK INTRA:                  -0.685
REMARK UNBOUND:                -0.841
REMARK SMILES CCCCCCCCC(=O)[O-]
REMARK SMILES IDX 6 1 7 2 8 3 9 4 10 5 11 6 5 7 4 8 3 9 2 10 1 11
REMARK H PARENT
REMARK Flexibility Score: inf
ROOT
ATOM      1  C   UNL     1      55.838  16.878   0.538  1.00  0.00     0.000 C 
ENDROOT
BRANCH   1   2
ATOM      2  C   UNL     1      55.187  17.878   1.508  1.00  0.00     0.006 C 
BRANCH   2   3
ATOM      3  C   UNL     1      54.416  17.188   2.642  1.00  0.00     0.053 C 
BRANCH   3   4
ATOM      4  C   UNL     1      52.975  17.032   2.271  1.00  0.00     0.041 C 
ATOM      5  O   UNL     1      52.193  18.016   2.337  1.00  0.00    -0.550 OA
ATOM      6  O   UNL     1      52.484  15.787   1.897  1.00  0.00    -0.550 OA
ENDBRANCH   3   4
ENDBRANCH   2   3
ENDBRANCH   1   2
BRANCH   1   7
ATOM      7  C   UNL     1      55.515  17.189  -0.934  1.00  0.00     0.000 C 
BRANCH   7   8
ATOM      8  C   UNL     1      54.167  17.906  -1.103  1.00  0.00    -0.000 C 
BRANCH   8   9
ATOM      9  C   UNL     1      53.013  16.938  -1.418  1.00  0.00    -0.000 C 
BRANCH   9  10
ATOM     10  C   UNL     1      53.506  15.603  -1.995  1.00  0.00    -0.003 C 
ATOM     11  C   UNL     1      53.178  14.413  -1.092  1.00  0.00     0.004 C 
ENDBRANCH   9  10
ENDBRANCH   8   9
ENDBRANCH   7   8
ENDBRANCH   1   7
TORSDOF 7
ENDMDL
MODEL 4
REMARK VINA RESULT:    -4.479      1.928      3.367
REMARK INTER + INTRA:          -7.153
REMARK INTER:                  -6.501
REMARK INTRA:                  -0.652
REMARK UNBOUND:                -0.841
REMARK SMILES CCCCCCCCC(=O)[O-]
REMARK SMILES IDX 6 1 7 2 8 3 9 4 10 5 11 6 5 7 4 8 3 9 2 10 1 11
REMARK H PARENT
REMARK Flexibility Score: inf
ROOT
ATOM      1  C   UNL     1      53.189  16.961  -1.408  1.00  0.00     0.000 C 
ENDROOT
BRANCH   1   2
ATOM      2  C   UNL     1      53.654  15.539  -1.767  1.00  0.00     0.006 C 
BRANCH   2   3
ATOM      3  C   UNL     1      53.100  14.476  -0.809  1.00  0.00     0.053 C 
BRANCH   3   4
ATOM      4  C   UNL     1      54.193  13.941   0.063  1.00  0.00     0.041 C 
ATOM      5  O   UNL     1      55.138  13.279  -0.440  1.00  0.00    -0.550 OA
ATOM      6  O   UNL     1      54.143  14.134   1.438  1.00  0.00    -0.550 OA
ENDBRANCH   3   4
ENDBRANCH   2   3
ENDBRANCH   1   2
BRANCH   1   7
ATOM      7  C   UNL     1      54.360  17.888  -1.035  1.00  0.00     0.000 C 
BRANCH   7   8
ATOM      8  C   UNL     1      55.669  17.118  -0.799  1.00  0.00    -0.000 C 
BRANCH   8   9
ATOM      9  C   UNL     1      56.087  17.095   0.682  1.00  0.00    -0.000 C 
BRANCH   9  10
ATOM     10  C   UNL     1      55.210  18.005   1.555  1.00  0.00    -0.003 C 
ATOM     11  C   UNL     1      54.352  17.221   2.549  1.00  0.00     0.004 C 
ENDBRANCH   9  10
ENDBRANCH   8   9
ENDBRANCH   7   8
ENDBRANCH   1   7
TORSDOF 7
ENDMDL
MODEL 5
REMARK VINA RESULT:    -4.479      1.346      3.506
REMARK INTER + INTRA:          -7.153
REMARK INTER:                  -6.330
REMARK INTRA:                  -0.822
REMARK UNBOUND:                -0.841
REMARK SMILES CCCCCCCCC(=O)[O-]
REMARK SMILES IDX 6 1 7 2 8 3 9 4 10 5 11 6 5 7 4 8 3 9 2 10 1 11
REMARK H PARENT
REMARK Flexibility Score: inf
ROOT
ATOM      1  C   UNL     1      54.222  14.009   0.026  1.00  0.00     0.000 C 
ENDROOT
BRANCH   1   2
ATOM      2  C   UNL     1      54.052  14.486   1.478  1.00  0.00     0.006 C 
BRANCH   2   3
ATOM      3  C   UNL     1      52.848  15.420   1.659  1.00  0.00     0.053 C 
BRANCH   3   4
ATOM      4  C   UNL     1      53.293  16.743   2.197  1.00  0.00     0.041 C 
ATOM      5  O   UNL     1      54.469  16.892   2.622  1.00  0.00    -0.550 OA
ATOM      6  O   UNL     1      52.395  17.800   2.273  1.00  0.00    -0.550 OA
ENDBRANCH   3   4
ENDBRANCH   2   3
ENDBRANCH   1   2
BRANCH   1   7
ATOM      7  C   UNL     1      53.049  14.436  -0.875  1.00  0.00     0.000 C 
BRANCH   7   8
ATOM      8  C   UNL     1      53.479  15.419  -1.975  1.00  0.00    -0.000 C 
BRANCH   8   9
ATOM      9  C   UNL     1      52.760  16.776  -1.875  1.00  0.00    -0.000 C 
BRANCH   9  10
ATOM     10  C   UNL     1      53.597  17.833  -1.141  1.00  0.00    -0.003 C 
ATOM     11  C   UNL     1      55.079  17.467  -1.070  1.00  0.00     0.004 C 
ENDBRANCH   9  10
ENDBRANCH   8   9
ENDBRANCH   7   8
ENDBRANCH   1   7
TORSDOF 7
ENDMDL
MODEL 6
REMARK VINA RESULT:    -4.463      1.174      2.865
REMARK INTER + INTRA:          -7.131
REMARK INTER:                  -6.507
REMARK INTRA:                  -0.623
REMARK UNBOUND:                -0.841
REMARK SMILES CCCCCCCCC(=O)[O-]
REMARK SMILES IDX 6 1 7 2 8 3 9 4 10 5 11 6 5 7 4 8 3 9 2 10 1 11
REMARK H PARENT
REMARK Flexibility Score: inf
ROOT
ATOM      1  C   UNL     1      52.787  15.513   1.617  1.00  0.00     0.000 C 
ENDROOT
BRANCH   1   2
ATOM      2  C   UNL     1      53.239  16.964   1.856  1.00  0.00     0.006 C 
BRANCH   2   3
ATOM      3  C   UNL     1      54.715  17.064   2.266  1.00  0.00     0.053 C 
BRANCH   3   4
ATOM      4  C   UNL     1      55.554  17.463   1.094  1.00  0.00     0.041 C 
ATOM      5  O   UNL     1      55.023  18.007   0.090  1.00  0.00    -0.550 OA
ATOM      6  O   UNL     1      56.916  17.191   1.088  1.00  0.00    -0.550 OA
ENDBRANCH   3   4
ENDBRANCH   2   3
ENDBRANCH   1   2
BRANCH   1   7
ATOM      7  C   UNL     1      53.972  14.538   1.500  1.00  0.00     0.000 C 
BRANCH   7   8
ATOM      8  C   UNL     1      54.288  14.168   0.042  1.00  0.00    -0.000 C 
BRANCH   8   9
ATOM      9  C   UNL     1      53.127  14.486  -0.918  1.00  0.00    -0.000 C 
BRANCH   9  10
ATOM     10  C   UNL     1      53.496  15.558  -1.953  1.00  0.00    -0.003 C 
ATOM     11  C   UNL     1      52.503  16.720  -1.979  1.00  0.00     0.004 C 
ENDBRANCH   9  10
ENDBRANCH   8   9
ENDBRANCH   7   8
ENDBRANCH   1   7
TORSDOF 7
ENDMDL
MODEL 7
REMARK VINA RESULT:    -4.451      2.091      3.885
REMARK INTER + INTRA:          -7.113
REMARK INTER:                  -6.455
REMARK INTRA:                  -0.658
REMARK UNBOUND:                -0.841
REMARK SMILES CCCCCCCCC(=O)[O-]
REMARK SMILES IDX 6 1 7 2 8 3 9 4 10 5 11 6 5 7 4 8 3 9 2 10 1 11
REMARK H PARENT
REMARK Flexibility Score: inf
ROOT
ATOM      1  C   UNL     1      53.821  14.653   0.497  1.00  0.00     0.000 C 
ENDROOT
BRANCH   1   2
ATOM      2  C   UNL     1      53.051  14.610  -0.834  1.00  0.00     0.006 C 
BRANCH   2   3
ATOM      3  C   UNL     1      53.607  15.594  -1.872  1.00  0.00     0.053 C 
BRANCH   3   4
ATOM      4  C   UNL     1      53.049  16.963  -1.642  1.00  0.00     0.041 C 
ATOM      5  O   UNL     1      51.817  17.177  -1.785  1.00  0.00    -0.550 OA
ATOM      6  O   UNL     1      53.897  18.014  -1.316  1.00  0.00    -0.550 OA
ENDBRANCH   3   4
ENDBRANCH   2   3
ENDBRANCH   1   2
BRANCH   1   7
ATOM      7  C   UNL     1      52.951  15.149   1.666  1.00  0.00     0.000 C 
BRANCH   7   8
ATOM      8  C   UNL     1      53.123  16.653   1.932  1.00  0.00    -0.000 C 
BRANCH   8   9
ATOM      9  C   UNL     1      54.488  16.994   2.556  1.00  0.00    -0.000 C 
BRANCH   9  10
ATOM     10  C   UNL     1      55.341  17.893   1.649  1.00  0.00    -0.003 C 
ATOM     11  C   UNL     1      56.515  17.146   1.015  1.00  0.00     0.004 C 
ENDBRANCH   9  10
ENDBRANCH   8   9
ENDBRANCH   7   8
ENDBRANCH   1   7
TORSDOF 7
ENDMDL
MODEL 8
REMARK VINA RESULT:    -4.351      3.431      4.411
REMARK INTER + INTRA:          -6.972
REMARK INTER:                  -6.377
REMARK INTRA:                  -0.595
REMARK UNBOUND:                -0.841
REMARK SMILES CCCCCCCCC(=O)[O-]
REMARK SMILES IDX 6 1 7 2 8 3 9 4 10 5 11 6 5 7 4 8 3 9 2 10 1 11
REMARK H PARENT
REMARK Flexibility Score: inf
ROOT
ATOM      1  C   UNL     1      53.879  16.128  -1.194  1.00  0.00     0.000 C 
ENDROOT
BRANCH   1   2
ATOM      2  C   UNL     1      52.624  16.700  -1.874  1.00  0.00     0.006 C 
BRANCH   2   3
ATOM      3  C   UNL     1      52.005  17.866  -1.091  1.00  0.00     0.053 C 
BRANCH   3   4
ATOM      4  C   UNL     1      50.706  18.276  -1.709  1.00  0.00     0.041 C 
ATOM      5  O   UNL     1      50.621  18.444  -2.954  1.00  0.00    -0.550 OA
ATOM      6  O   UNL     1      49.600  18.520  -0.905  1.00  0.00    -0.550 OA
ENDBRANCH   3   4
ENDBRANCH   2   3
ENDBRANCH   1   2
BRANCH   1   7
ATOM      7  C   UNL     1      54.996  17.175  -1.039  1.00  0.00     0.000 C 
BRANCH   7   8
ATOM      8  C   UNL     1      55.806  16.986   0.253  1.00  0.00    -0.000 C 
BRANCH   8   9
ATOM      9  C   UNL     1      55.284  17.849   1.414  1.00  0.00    -0.000 C 
BRANCH   9  10
ATOM     10  C   UNL     1      54.477  17.035   2.436  1.00  0.00    -0.003 C 
ATOM     11  C   UNL     1      53.031  17.515   2.564  1.00  0.00     0.004 C 
ENDBRANCH   9  10
ENDBRANCH   8   9
ENDBRANCH   7   8
ENDBRANCH   1   7
TORSDOF 7
ENDMDL
MODEL 9
REMARK VINA RESULT:    -4.239      2.838      4.415
REMARK INTER + INTRA:          -6.814
REMARK INTER:                  -6.008
REMARK INTRA:                  -0.807
REMARK UNBOUND:                -0.841
REMARK SMILES CCCCCCCCC(=O)[O-]
REMARK SMILES IDX 6 1 7 2 8 3 9 4 10 5 11 6 5 7 4 8 3 9 2 10 1 11
REMARK H PARENT
REMARK Flexibility Score: inf
ROOT
ATOM      1  C   UNL     1      54.293  16.795   2.179  1.00  0.00     0.000 C 
ENDROOT
BRANCH   1   2
ATOM      2  C   UNL     1      53.025  17.553   2.606  1.00  0.00     0.006 C 
BRANCH   2   3
ATOM      3  C   UNL     1      51.781  17.115   1.821  1.00  0.00     0.053 C 
BRANCH   3   4
ATOM      4  C   UNL     1      51.025  18.311   1.336  1.00  0.00     0.041 C 
ATOM      5  O   UNL     1      50.738  18.427   0.115  1.00  0.00    -0.550 OA
ATOM      6  O   UNL     1      50.677  19.321   2.224  1.00  0.00    -0.550 OA
ENDBRANCH   3   4
ENDBRANCH   2   3
ENDBRANCH   1   2
BRANCH   1   7
ATOM      7  C   UNL     1      55.138  17.584   1.163  1.00  0.00     0.000 C 
BRANCH   7   8
ATOM      8  C   UNL     1      55.127  16.945  -0.235  1.00  0.00    -0.000 C 
BRANCH   8   9
ATOM      9  C   UNL     1      54.004  17.495  -1.132  1.00  0.00    -0.000 C 
BRANCH   9  10
ATOM     10  C   UNL     1      53.070  16.391  -1.649  1.00  0.00    -0.003 C 
ATOM     11  C   UNL     1      53.470  15.001  -1.155  1.00  0.00     0.004 C 
ENDBRANCH   9  10
ENDBRANCH   8   9
ENDBRANCH   7   8
ENDBRANCH   1   7
TORSDOF 7
ENDMDL
