MODEL 1
REMARK VINA RESULT:    -4.161      0.000      0.000
REMARK INTER + INTRA:         -11.221
REMARK INTER:                  -8.054
REMARK INTRA:                  -3.168
REMARK UNBOUND:                -3.168
REMARK SMILES CCCCCC=CCC=CCCCCCCCCOC(C)=O
REMARK SMILES IDX 12 1 11 2 10 3 9 4 8 5 7 6 6 7 5 8 4 9 3 10 2 11 1 12 13 13
REMARK SMILES IDX 14 14 15 15 16 16 17 17 18 18 19 19 20 20 22 21 21 22
REMARK H PARENT
REMARK Flexibility Score: inf
ROOT
ATOM      1  C   UNL     1      -8.940   5.668  -3.167  1.00  0.00     0.004 C 
ENDROOT
BRANCH   1   2
ATOM      2  C   UNL     1      -8.122   6.901  -3.593  1.00  0.00     0.027 C 
BRANCH   2   3
ATOM      3  C   UNL     1      -6.764   6.971  -2.936  1.00  0.00    -0.031 C 
ATOM      4  C   UNL     1      -6.324   7.993  -2.179  1.00  0.00    -0.027 C 
BRANCH   4   5
ATOM      5  C   UNL     1      -7.140   9.214  -1.834  1.00  0.00     0.054 C 
BRANCH   5   6
ATOM      6  C   UNL     1      -7.881   9.008  -0.539  1.00  0.00    -0.027 C 
ATOM      7  C   UNL     1      -9.221   9.021  -0.422  1.00  0.00    -0.031 C 
BRANCH   7   8
ATOM      8  C   UNL     1     -10.179   9.199  -1.574  1.00  0.00     0.027 C 
BRANCH   8   9
ATOM      9  C   UNL     1     -11.625   8.935  -1.126  1.00  0.00     0.004 C 
BRANCH   9  10
ATOM     10  C   UNL     1     -11.690   8.139   0.195  1.00  0.00     0.000 C 
BRANCH  10  11
ATOM     11  C   UNL     1     -12.366   6.763   0.046  1.00  0.00    -0.003 C 
ATOM     12  C   UNL     1     -11.928   5.768   1.122  1.00  0.00     0.004 C 
ENDBRANCH  10  11
ENDBRANCH   9  10
ENDBRANCH   8   9
ENDBRANCH   7   8
ENDBRANCH   5   6
ENDBRANCH   4   5
ENDBRANCH   2   3
ENDBRANCH   1   2
BRANCH   1  13
ATOM     13  C   UNL     1      -9.415   5.694  -1.703  1.00  0.00     0.000 C 
BRANCH  13  14
ATOM     14  C   UNL     1      -8.605   4.751  -0.797  1.00  0.00     0.000 C 
BRANCH  14  15
ATOM     15  C   UNL     1      -8.301   5.376   0.575  1.00  0.00     0.000 C 
BRANCH  15  16
ATOM     16  C   UNL     1      -6.816   5.747   0.734  1.00  0.00     0.003 C 
BRANCH  16  17
ATOM     17  C   UNL     1      -6.489   6.294   2.133  1.00  0.00     0.042 C 
BRANCH  17  18
ATOM     18  C   UNL     1      -7.398   5.756   3.244  1.00  0.00     0.233 C 
BRANCH  18  19
ATOM     19  O   UNL     1      -7.425   6.649   4.359  1.00  0.00    -0.466 OA
BRANCH  19  20
ATOM     20  C   UNL     1      -6.666   6.473   5.521  1.00  0.00     0.302 C 
ATOM     21  O   UNL     1      -5.645   7.180   5.743  1.00  0.00    -0.253 OA
ATOM     22  C   UNL     1      -7.048   5.406   6.490  1.00  0.00     0.139 C 
ENDBRANCH  19  20
ENDBRANCH  18  19
ENDBRANCH  17  18
ENDBRANCH  16  17
ENDBRANCH  15  16
ENDBRANCH  14  15
ENDBRANCH  13  14
ENDBRANCH   1  13
TORSDOF 16
ENDMDL
MODEL 2
REMARK VINA RESULT:    -4.153      1.781      3.365
REMARK INTER + INTRA:         -11.205
REMARK INTER:                  -8.595
REMARK INTRA:                  -2.610
REMARK UNBOUND:                -3.168
REMARK SMILES CCCCCC=CCC=CCCCCCCCCOC(C)=O
REMARK SMILES IDX 12 1 11 2 10 3 9 4 8 5 7 6 6 7 5 8 4 9 3 10 2 11 1 12 13 13
REMARK SMILES IDX 14 14 15 15 16 16 17 17 18 18 19 19 20 20 22 21 21 22
REMARK H PARENT
REMARK Flexibility Score: inf
ROOT
ATOM      1  C   UNL     1     -10.130   6.248  -2.367  1.00  0.00     0.004 C 
ENDROOT
BRANCH   1   2
ATOM      2  C   UNL     1      -9.051   5.744  -3.343  1.00  0.00     0.027 C 
BRANCH   2   3
ATOM      3  C   UNL     1      -9.322   6.124  -4.779  1.00  0.00    -0.031 C 
ATOM      4  C   UNL     1      -8.505   6.866  -5.550  1.00  0.00    -0.027 C 
BRANCH   4   5
ATOM      5  C   UNL     1      -7.167   7.402  -5.106  1.00  0.00     0.054 C 
BRANCH   5   6
ATOM      6  C   UNL     1      -7.156   8.908  -5.159  1.00  0.00    -0.027 C 
ATOM      7  C   UNL     1      -7.525   9.705  -4.140  1.00  0.00    -0.031 C 
BRANCH   7   8
ATOM      8  C   UNL     1      -7.961   9.212  -2.782  1.00  0.00     0.027 C 
BRANCH   8   9
ATOM      9  C   UNL     1      -6.747   8.989  -1.868  1.00  0.00     0.004 C 
BRANCH   9  10
ATOM     10  C   UNL     1      -6.804   7.626  -1.145  1.00  0.00     0.000 C 
BRANCH  10  11
ATOM     11  C   UNL     1      -5.940   6.541  -1.816  1.00  0.00    -0.003 C 
ATOM     12  C   UNL     1      -5.351   5.548  -0.813  1.00  0.00     0.004 C 
ENDBRANCH  10  11
ENDBRANCH   9  10
ENDBRANCH   8   9
ENDBRANCH   7   8
ENDBRANCH   5   6
ENDBRANCH   4   5
ENDBRANCH   2   3
ENDBRANCH   1   2
BRANCH   1  13
ATOM     13  C   UNL     1      -9.911   5.828  -0.903  1.00  0.00     0.000 C 
BRANCH  13  14
ATOM     14  C   UNL     1      -8.896   4.681  -0.757  1.00  0.00     0.000 C 
BRANCH  14  15
ATOM     15  C   UNL     1      -8.908   4.064   0.651  1.00  0.00     0.000 C 
BRANCH  15  16
ATOM     16  C   UNL     1      -9.100   5.121   1.751  1.00  0.00     0.003 C 
BRANCH  16  17
ATOM     17  C   UNL     1      -7.865   6.018   1.935  1.00  0.00     0.042 C 
BRANCH  17  18
ATOM     18  C   UNL     1      -7.013   5.667   3.160  1.00  0.00     0.233 C 
BRANCH  18  19
ATOM     19  O   UNL     1      -6.926   6.776   4.056  1.00  0.00    -0.466 OA
BRANCH  19  20
ATOM     20  C   UNL     1      -6.740   6.655   5.437  1.00  0.00     0.302 C 
ATOM     21  O   UNL     1      -5.582   6.566   5.930  1.00  0.00    -0.253 OA
ATOM     22  C   UNL     1      -7.930   6.588   6.333  1.00  0.00     0.139 C 
ENDBRANCH  19  20
ENDBRANCH  18  19
ENDBRANCH  17  18
ENDBRANCH  16  17
ENDBRANCH  15  16
ENDBRANCH  14  15
ENDBRANCH  13  14
ENDBRANCH   1  13
TORSDOF 16
ENDMDL
MODEL 3
REMARK VINA RESULT:    -4.111      3.884      7.507
REMARK INTER + INTRA:         -11.124
REMARK INTER:                  -8.655
REMARK INTRA:                  -2.470
REMARK UNBOUND:                -3.168
REMARK SMILES CCCCCC=CCC=CCCCCCCCCOC(C)=O
REMARK SMILES IDX 12 1 11 2 10 3 9 4 8 5 7 6 6 7 5 8 4 9 3 10 2 11 1 12 13 13
REMARK SMILES IDX 14 14 15 15 16 16 17 17 18 18 19 19 20 20 22 21 21 22
REMARK H PARENT
REMARK Flexibility Score: inf
ROOT
ATOM      1  C   UNL     1      -8.916   9.402  -1.233  1.00  0.00     0.004 C 
ENDROOT
BRANCH   1   2
ATOM      2  C   UNL     1      -9.867   8.553  -0.370  1.00  0.00     0.027 C 
BRANCH   2   3
ATOM      3  C   UNL     1     -10.723   7.609  -1.180  1.00  0.00    -0.031 C 
ATOM      4  C   UNL     1     -10.775   6.275  -1.010  1.00  0.00    -0.027 C 
BRANCH   4   5
ATOM      5  C   UNL     1     -10.011   5.518   0.048  1.00  0.00     0.054 C 
BRANCH   5   6
ATOM      6  C   UNL     1      -8.712   4.995  -0.509  1.00  0.00    -0.027 C 
ATOM      7  C   UNL     1      -7.495   5.366  -0.073  1.00  0.00    -0.031 C 
BRANCH   7   8
ATOM      8  C   UNL     1      -7.251   6.325   1.067  1.00  0.00     0.027 C 
BRANCH   8   9
ATOM      9  C   UNL     1      -7.406   5.614   2.420  1.00  0.00     0.004 C 
BRANCH   9  10
ATOM     10  C   UNL     1      -6.483   6.214   3.502  1.00  0.00     0.000 C 
BRANCH  10  11
ATOM     11  C   UNL     1      -7.105   6.202   4.912  1.00  0.00    -0.003 C 
ATOM     12  C   UNL     1      -6.066   6.005   6.016  1.00  0.00     0.004 C 
ENDBRANCH  10  11
ENDBRANCH   9  10
ENDBRANCH   8   9
ENDBRANCH   7   8
ENDBRANCH   5   6
ENDBRANCH   4   5
ENDBRANCH   2   3
ENDBRANCH   1   2
BRANCH   1  13
ATOM     13  C   UNL     1      -7.427   9.038  -1.085  1.00  0.00     0.000 C 
BRANCH  13  14
ATOM     14  C   UNL     1      -6.599   9.402  -2.330  1.00  0.00     0.000 C 
BRANCH  14  15
ATOM     15  C   UNL     1      -7.094   8.679  -3.594  1.00  0.00     0.000 C 
BRANCH  15  16
ATOM     16  C   UNL     1      -7.211   7.159  -3.391  1.00  0.00     0.003 C 
BRANCH  16  17
ATOM     17  C   UNL     1      -8.534   6.590  -3.929  1.00  0.00     0.042 C 
BRANCH  17  18
ATOM     18  C   UNL     1      -8.721   6.764  -5.441  1.00  0.00     0.233 C 
BRANCH  18  19
ATOM     19  O   UNL     1      -7.599   6.247  -6.157  1.00  0.00    -0.466 OA
BRANCH  19  20
ATOM     20  C   UNL     1      -7.070   6.832  -7.313  1.00  0.00     0.302 C 
ATOM     21  O   UNL     1      -7.321   6.356  -8.454  1.00  0.00    -0.253 OA
ATOM     22  C   UNL     1      -6.164   8.010  -7.188  1.00  0.00     0.139 C 
ENDBRANCH  19  20
ENDBRANCH  18  19
ENDBRANCH  17  18
ENDBRANCH  16  17
ENDBRANCH  15  16
ENDBRANCH  14  15
ENDBRANCH  13  14
ENDBRANCH   1  13
TORSDOF 16
ENDMDL
MODEL 4
REMARK VINA RESULT:    -4.107      1.923      4.445
REMARK INTER + INTRA:         -11.116
REMARK INTER:                  -8.563
REMARK INTRA:                  -2.553
REMARK UNBOUND:                -3.168
REMARK SMILES CCCCCC=CCC=CCCCCCCCCOC(C)=O
REMARK SMILES IDX 12 1 11 2 10 3 9 4 8 5 7 6 6 7 5 8 4 9 3 10 2 11 1 12 13 13
REMARK SMILES IDX 14 14 15 15 16 16 17 17 18 18 19 19 20 20 22 21 21 22
REMARK H PARENT
REMARK Flexibility Score: inf
ROOT
ATOM      1  C   UNL     1     -10.420   6.917  -1.246  1.00  0.00     0.004 C 
ENDROOT
BRANCH   1   2
ATOM      2  C   UNL     1      -9.866   8.336  -1.465  1.00  0.00     0.027 C 
BRANCH   2   3
ATOM      3  C   UNL     1      -8.841   8.742  -0.432  1.00  0.00    -0.031 C 
ATOM      4  C   UNL     1      -7.598   9.179  -0.707  1.00  0.00    -0.027 C 
BRANCH   4   5
ATOM      5  C   UNL     1      -7.048   9.370  -2.098  1.00  0.00     0.054 C 
BRANCH   5   6
ATOM      6  C   UNL     1      -6.360   8.116  -2.572  1.00  0.00    -0.027 C 
ATOM      7  C   UNL     1      -6.761   7.383  -3.626  1.00  0.00    -0.031 C 
BRANCH   7   8
ATOM      8  C   UNL     1      -7.931   7.729  -4.514  1.00  0.00     0.027 C 
BRANCH   8   9
ATOM      9  C   UNL     1      -7.957   6.826  -5.757  1.00  0.00     0.004 C 
BRANCH   9  10
ATOM     10  C   UNL     1      -6.665   6.948  -6.593  1.00  0.00     0.000 C 
BRANCH  10  11
ATOM     11  C   UNL     1      -6.512   8.314  -7.288  1.00  0.00    -0.003 C 
ATOM     12  C   UNL     1      -5.606   8.255  -8.518  1.00  0.00     0.004 C 
ENDBRANCH  10  11
ENDBRANCH   9  10
ENDBRANCH   8   9
ENDBRANCH   7   8
ENDBRANCH   5   6
ENDBRANCH   4   5
ENDBRANCH   2   3
ENDBRANCH   1   2
BRANCH   1  13
ATOM     13  C   UNL     1      -9.606   5.803  -1.929  1.00  0.00     0.000 C 
BRANCH  13  14
ATOM     14  C   UNL     1      -8.502   5.230  -1.023  1.00  0.00     0.000 C 
BRANCH  14  15
ATOM     15  C   UNL     1      -9.070   4.562   0.240  1.00  0.00     0.000 C 
BRANCH  15  16
ATOM     16  C   UNL     1      -8.379   5.055   1.523  1.00  0.00     0.003 C 
BRANCH  16  17
ATOM     17  C   UNL     1      -7.167   5.956   1.235  1.00  0.00     0.042 C 
BRANCH  17  18
ATOM     18  C   UNL     1      -6.129   5.991   2.363  1.00  0.00     0.233 C 
BRANCH  18  19
ATOM     19  O   UNL     1      -6.493   6.945   3.362  1.00  0.00    -0.466 OA
BRANCH  19  20
ATOM     20  C   UNL     1      -6.719   6.626   4.705  1.00  0.00     0.302 C 
ATOM     21  O   UNL     1      -5.895   6.961   5.599  1.00  0.00    -0.253 OA
ATOM     22  C   UNL     1      -7.933   5.843   5.076  1.00  0.00     0.139 C 
ENDBRANCH  19  20
ENDBRANCH  18  19
ENDBRANCH  17  18
ENDBRANCH  16  17
ENDBRANCH  15  16
ENDBRANCH  14  15
ENDBRANCH  13  14
ENDBRANCH   1  13
TORSDOF 16
ENDMDL
MODEL 5
REMARK VINA RESULT:    -4.097      3.396      7.290
REMARK INTER + INTRA:         -11.097
REMARK INTER:                  -8.904
REMARK INTRA:                  -2.192
REMARK UNBOUND:                -3.168
REMARK SMILES CCCCCC=CCC=CCCCCCCCCOC(C)=O
REMARK SMILES IDX 12 1 11 2 10 3 9 4 8 5 7 6 6 7 5 8 4 9 3 10 2 11 1 12 13 13
REMARK SMILES IDX 14 14 15 15 16 16 17 17 18 18 19 19 20 20 22 21 21 22
REMARK H PARENT
REMARK Flexibility Score: inf
ROOT
ATOM      1  C   UNL     1     -10.553   4.824   1.038  1.00  0.00     0.004 C 
ENDROOT
BRANCH   1   2
ATOM      2  C   UNL     1      -9.134   4.274   1.269  1.00  0.00     0.027 C 
BRANCH   2   3
ATOM      3  C   UNL     1      -8.203   4.516   0.104  1.00  0.00    -0.031 C 
ATOM      4  C   UNL     1      -7.334   5.539   0.010  1.00  0.00    -0.027 C 
BRANCH   4   5
ATOM      5  C   UNL     1      -7.125   6.584   1.078  1.00  0.00     0.054 C 
BRANCH   5   6
ATOM      6  C   UNL     1      -6.113   6.112   2.090  1.00  0.00    -0.027 C 
ATOM      7  C   UNL     1      -6.373   5.938   3.398  1.00  0.00    -0.031 C 
BRANCH   7   8
ATOM      8  C   UNL     1      -7.725   6.146   4.037  1.00  0.00     0.027 C 
BRANCH   8   9
ATOM      9  C   UNL     1      -7.800   5.434   5.396  1.00  0.00     0.004 C 
BRANCH   9  10
ATOM     10  C   UNL     1      -6.493   5.581   6.205  1.00  0.00     0.000 C 
BRANCH  10  11
ATOM     11  C   UNL     1      -6.722   6.027   7.661  1.00  0.00    -0.003 C 
ATOM     12  C   UNL     1      -7.229   7.466   7.768  1.00  0.00     0.004 C 
ENDBRANCH  10  11
ENDBRANCH   9  10
ENDBRANCH   8   9
ENDBRANCH   7   8
ENDBRANCH   5   6
ENDBRANCH   4   5
ENDBRANCH   2   3
ENDBRANCH   1   2
BRANCH   1  13
ATOM     13  C   UNL     1     -10.679   6.349   1.205  1.00  0.00     0.000 C 
BRANCH  13  14
ATOM     14  C   UNL     1     -11.723   6.968   0.259  1.00  0.00     0.000 C 
BRANCH  14  15
ATOM     15  C   UNL     1     -11.505   6.553  -1.205  1.00  0.00     0.000 C 
BRANCH  15  16
ATOM     16  C   UNL     1     -10.177   7.083  -1.773  1.00  0.00     0.003 C 
BRANCH  16  17
ATOM     17  C   UNL     1      -9.640   6.222  -2.928  1.00  0.00     0.042 C 
BRANCH  17  18
ATOM     18  C   UNL     1      -8.349   6.757  -3.560  1.00  0.00     0.233 C 
BRANCH  18  19
ATOM     19  O   UNL     1      -8.631   7.812  -4.481  1.00  0.00    -0.466 OA
BRANCH  19  20
ATOM     20  C   UNL     1      -7.973   7.982  -5.703  1.00  0.00     0.302 C 
ATOM     21  O   UNL     1      -8.329   8.881  -6.513  1.00  0.00    -0.253 OA
ATOM     22  C   UNL     1      -6.860   7.058  -6.069  1.00  0.00     0.139 C 
ENDBRANCH  19  20
ENDBRANCH  18  19
ENDBRANCH  17  18
ENDBRANCH  16  17
ENDBRANCH  15  16
ENDBRANCH  14  15
ENDBRANCH  13  14
ENDBRANCH   1  13
TORSDOF 16
ENDMDL
MODEL 6
REMARK VINA RESULT:    -4.070      3.142      6.893
REMARK INTER + INTRA:         -11.044
REMARK INTER:                  -8.587
REMARK INTRA:                  -2.457
REMARK UNBOUND:                -3.168
REMARK SMILES CCCCCC=CCC=CCCCCCCCCOC(C)=O
REMARK SMILES IDX 12 1 11 2 10 3 9 4 8 5 7 6 6 7 5 8 4 9 3 10 2 11 1 12 13 13
REMARK SMILES IDX 14 14 15 15 16 16 17 17 18 18 19 19 20 20 22 21 21 22
REMARK H PARENT
REMARK Flexibility Score: inf
ROOT
ATOM      1  C   UNL     1     -10.600   7.877  -0.567  1.00  0.00     0.004 C 
ENDROOT
BRANCH   1   2
ATOM      2  C   UNL     1     -10.832   6.441  -1.072  1.00  0.00     0.027 C 
BRANCH   2   3
ATOM      3  C   UNL     1      -9.822   6.000  -2.103  1.00  0.00    -0.031 C 
ATOM      4  C   UNL     1      -8.774   5.191  -1.862  1.00  0.00    -0.027 C 
BRANCH   4   5
ATOM      5  C   UNL     1      -8.469   4.564  -0.524  1.00  0.00     0.054 C 
BRANCH   5   6
ATOM      6  C   UNL     1      -7.405   5.349   0.199  1.00  0.00    -0.027 C 
ATOM      7  C   UNL     1      -7.457   5.674   1.503  1.00  0.00    -0.031 C 
BRANCH   7   8
ATOM      8  C   UNL     1      -8.563   5.263   2.444  1.00  0.00     0.027 C 
BRANCH   8   9
ATOM      9  C   UNL     1      -8.108   5.384   3.906  1.00  0.00     0.004 C 
BRANCH   9  10
ATOM     10  C   UNL     1      -6.803   6.198   4.045  1.00  0.00     0.000 C 
BRANCH  10  11
ATOM     11  C   UNL     1      -6.452   6.548   5.503  1.00  0.00    -0.003 C 
ATOM     12  C   UNL     1      -6.896   5.470   6.494  1.00  0.00     0.004 C 
ENDBRANCH  10  11
ENDBRANCH   9  10
ENDBRANCH   8   9
ENDBRANCH   7   8
ENDBRANCH   5   6
ENDBRANCH   4   5
ENDBRANCH   2   3
ENDBRANCH   1   2
BRANCH   1  13
ATOM     13  C   UNL     1     -10.083   8.853  -1.640  1.00  0.00     0.000 C 
BRANCH  13  14
ATOM     14  C   UNL     1      -8.875   9.677  -1.164  1.00  0.00     0.000 C 
BRANCH  14  15
ATOM     15  C   UNL     1      -7.687   8.791  -0.755  1.00  0.00     0.000 C 
BRANCH  15  16
ATOM     16  C   UNL     1      -6.773   8.452  -1.945  1.00  0.00     0.003 C 
BRANCH  16  17
ATOM     17  C   UNL     1      -6.773   9.549  -3.023  1.00  0.00     0.042 C 
BRANCH  17  18
ATOM     18  C   UNL     1      -7.185   9.057  -4.416  1.00  0.00     0.233 C 
BRANCH  18  19
ATOM     19  O   UNL     1      -7.216   7.630  -4.465  1.00  0.00    -0.466 OA
BRANCH  19  20
ATOM     20  C   UNL     1      -7.694   6.894  -5.555  1.00  0.00     0.302 C 
ATOM     21  O   UNL     1      -8.762   6.228  -5.469  1.00  0.00    -0.253 OA
ATOM     22  C   UNL     1      -6.907   6.866  -6.821  1.00  0.00     0.139 C 
ENDBRANCH  19  20
ENDBRANCH  18  19
ENDBRANCH  17  18
ENDBRANCH  16  17
ENDBRANCH  15  16
ENDBRANCH  14  15
ENDBRANCH  13  14
ENDBRANCH   1  13
TORSDOF 16
ENDMDL
MODEL 7
REMARK VINA RESULT:    -4.063      2.953      6.163
REMARK INTER + INTRA:         -11.031
REMARK INTER:                  -7.920
REMARK INTRA:                  -3.111
REMARK UNBOUND:                -3.168
REMARK SMILES CCCCCC=CCC=CCCCCCCCCOC(C)=O
REMARK SMILES IDX 12 1 11 2 10 3 9 4 8 5 7 6 6 7 5 8 4 9 3 10 2 11 1 12 13 13
REMARK SMILES IDX 14 14 15 15 16 16 17 17 18 18 19 19 20 20 22 21 21 22
REMARK H PARENT
REMARK Flexibility Score: inf
ROOT
ATOM      1  C   UNL     1      -9.755   4.122   1.176  1.00  0.00     0.004 C 
ENDROOT
BRANCH   1   2
ATOM      2  C   UNL     1      -8.544   3.920   0.247  1.00  0.00     0.027 C 
BRANCH   2   3
ATOM      3  C   UNL     1      -8.666   4.667  -1.061  1.00  0.00    -0.031 C 
ATOM      4  C   UNL     1      -7.816   5.618  -1.489  1.00  0.00    -0.027 C 
BRANCH   4   5
ATOM      5  C   UNL     1      -6.582   6.061  -0.742  1.00  0.00     0.054 C 
BRANCH   5   6
ATOM      6  C   UNL     1      -6.898   7.225   0.161  1.00  0.00    -0.027 C 
ATOM      7  C   UNL     1      -6.828   7.184   1.504  1.00  0.00    -0.031 C 
BRANCH   7   8
ATOM      8  C   UNL     1      -6.381   5.984   2.301  1.00  0.00     0.027 C 
BRANCH   8   9
ATOM      9  C   UNL     1      -7.224   5.833   3.577  1.00  0.00     0.004 C 
BRANCH   9  10
ATOM     10  C   UNL     1      -6.555   6.497   4.799  1.00  0.00     0.000 C 
BRANCH  10  11
ATOM     11  C   UNL     1      -7.298   6.231   6.122  1.00  0.00    -0.003 C 
ATOM     12  C   UNL     1      -7.758   4.780   6.263  1.00  0.00     0.004 C 
ENDBRANCH  10  11
ENDBRANCH   9  10
ENDBRANCH   8   9
ENDBRANCH   7   8
ENDBRANCH   5   6
ENDBRANCH   4   5
ENDBRANCH   2   3
ENDBRANCH   1   2
BRANCH   1  13
ATOM     13  C   UNL     1     -10.184   5.590   1.354  1.00  0.00     0.000 C 
BRANCH  13  14
ATOM     14  C   UNL     1     -11.683   5.809   1.085  1.00  0.00     0.000 C 
BRANCH  14  15
ATOM     15  C   UNL     1     -11.938   6.958   0.096  1.00  0.00     0.000 C 
BRANCH  15  16
ATOM     16  C   UNL     1     -10.677   7.802  -0.159  1.00  0.00     0.003 C 
BRANCH  16  17
ATOM     17  C   UNL     1     -10.459   8.105  -1.651  1.00  0.00     0.042 C 
BRANCH  17  18
ATOM     18  C   UNL     1      -9.287   9.052  -1.933  1.00  0.00     0.233 C 
BRANCH  18  19
ATOM     19  O   UNL     1      -8.737   8.812  -3.229  1.00  0.00    -0.466 OA
BRANCH  19  20
ATOM     20  C   UNL     1      -7.367   8.705  -3.490  1.00  0.00     0.302 C 
ATOM     21  O   UNL     1      -6.932   7.889  -4.349  1.00  0.00    -0.253 OA
ATOM     22  C   UNL     1      -6.406   9.538  -2.712  1.00  0.00     0.139 C 
ENDBRANCH  19  20
ENDBRANCH  18  19
ENDBRANCH  17  18
ENDBRANCH  16  17
ENDBRANCH  15  16
ENDBRANCH  14  15
ENDBRANCH  13  14
ENDBRANCH   1  13
TORSDOF 16
ENDMDL
MODEL 8
REMARK VINA RESULT:    -4.031      1.128      3.358
REMARK INTER + INTRA:         -10.969
REMARK INTER:                  -8.286
REMARK INTRA:                  -2.684
REMARK UNBOUND:                -3.168
REMARK SMILES CCCCCC=CCC=CCCCCCCCCOC(C)=O
REMARK SMILES IDX 12 1 11 2 10 3 9 4 8 5 7 6 6 7 5 8 4 9 3 10 2 11 1 12 13 13
REMARK SMILES IDX 14 14 15 15 16 16 17 17 18 18 19 19 20 20 22 21 21 22
REMARK H PARENT
REMARK Flexibility Score: inf
ROOT
ATOM      1  C   UNL     1     -11.103   6.732   0.394  1.00  0.00     0.004 C 
ENDROOT
BRANCH   1   2
ATOM      2  C   UNL     1     -10.441   7.133  -0.937  1.00  0.00     0.027 C 
BRANCH   2   3
ATOM      3  C   UNL     1     -10.578   8.604  -1.252  1.00  0.00    -0.031 C 
ATOM      4  C   UNL     1      -9.613   9.525  -1.076  1.00  0.00    -0.027 C 
BRANCH   4   5
ATOM      5  C   UNL     1      -8.224   9.222  -0.570  1.00  0.00     0.054 C 
BRANCH   5   6
ATOM      6  C   UNL     1      -7.194   9.984  -1.363  1.00  0.00    -0.027 C 
ATOM      7  C   UNL     1      -6.385   9.432  -2.284  1.00  0.00    -0.031 C 
BRANCH   7   8
ATOM      8  C   UNL     1      -6.418   7.979  -2.691  1.00  0.00     0.027 C 
BRANCH   8   9
ATOM      9  C   UNL     1      -6.990   7.823  -4.108  1.00  0.00     0.004 C 
BRANCH   9  10
ATOM     10  C   UNL     1      -8.499   7.498  -4.095  1.00  0.00     0.000 C 
BRANCH  10  11
ATOM     11  C   UNL     1      -8.809   6.018  -4.389  1.00  0.00    -0.003 C 
ATOM     12  C   UNL     1      -8.729   5.137  -3.141  1.00  0.00     0.004 C 
ENDBRANCH  10  11
ENDBRANCH   9  10
ENDBRANCH   8   9
ENDBRANCH   7   8
ENDBRANCH   5   6
ENDBRANCH   4   5
ENDBRANCH   2   3
ENDBRANCH   1   2
BRANCH   1  13
ATOM     13  C   UNL     1     -10.770   5.305   0.866  1.00  0.00     0.000 C 
BRANCH  13  14
ATOM     14  C   UNL     1      -9.381   5.203   1.520  1.00  0.00     0.000 C 
BRANCH  14  15
ATOM     15  C   UNL     1      -8.357   4.500   0.614  1.00  0.00     0.000 C 
BRANCH  15  16
ATOM     16  C   UNL     1      -7.255   5.456   0.126  1.00  0.00     0.003 C 
BRANCH  16  17
ATOM     17  C   UNL     1      -6.961   6.583   1.129  1.00  0.00     0.042 C 
BRANCH  17  18
ATOM     18  C   UNL     1      -6.122   6.145   2.336  1.00  0.00     0.233 C 
BRANCH  18  19
ATOM     19  O   UNL     1      -6.341   7.011   3.451  1.00  0.00    -0.466 OA
BRANCH  19  20
ATOM     20  C   UNL     1      -6.699   6.567   4.728  1.00  0.00     0.302 C 
ATOM     21  O   UNL     1      -5.877   6.608   5.684  1.00  0.00    -0.253 OA
ATOM     22  C   UNL     1      -8.061   6.000   4.951  1.00  0.00     0.139 C 
ENDBRANCH  19  20
ENDBRANCH  18  19
ENDBRANCH  17  18
ENDBRANCH  16  17
ENDBRANCH  15  16
ENDBRANCH  14  15
ENDBRANCH  13  14
ENDBRANCH   1  13
TORSDOF 16
ENDMDL
MODEL 9
REMARK VINA RESULT:    -3.859      1.175      3.569
REMARK INTER + INTRA:         -10.637
REMARK INTER:                  -7.765
REMARK INTRA:                  -2.872
REMARK UNBOUND:                -3.168
REMARK SMILES CCCCCC=CCC=CCCCCCCCCOC(C)=O
REMARK SMILES IDX 12 1 11 2 10 3 9 4 8 5 7 6 6 7 5 8 4 9 3 10 2 11 1 12 13 13
REMARK SMILES IDX 14 14 15 15 16 16 17 17 18 18 19 19 20 20 22 21 21 22
REMARK H PARENT
REMARK Flexibility Score: inf
ROOT
ATOM      1  C   UNL     1      -8.761   4.815   0.451  1.00  0.00     0.004 C 
ENDROOT
BRANCH   1   2
ATOM      2  C   UNL     1     -10.009   5.538  -0.086  1.00  0.00     0.027 C 
BRANCH   2   3
ATOM      3  C   UNL     1     -10.470   6.671   0.800  1.00  0.00    -0.031 C 
ATOM      4  C   UNL     1     -10.510   7.966   0.439  1.00  0.00    -0.027 C 
BRANCH   4   5
ATOM      5  C   UNL     1     -10.137   8.485  -0.927  1.00  0.00     0.054 C 
BRANCH   5   6
ATOM      6  C   UNL     1      -9.364   9.773  -0.812  1.00  0.00    -0.027 C 
ATOM      7  C   UNL     1      -8.025   9.864  -0.892  1.00  0.00    -0.031 C 
BRANCH   7   8
ATOM      8  C   UNL     1      -7.102   8.698  -1.151  1.00  0.00     0.027 C 
BRANCH   8   9
ATOM      9  C   UNL     1      -6.629   8.693  -2.612  1.00  0.00     0.004 C 
BRANCH   9  10
ATOM     10  C   UNL     1      -6.919   7.349  -3.314  1.00  0.00     0.000 C 
BRANCH  10  11
ATOM     11  C   UNL     1      -8.302   7.298  -3.991  1.00  0.00    -0.003 C 
ATOM     12  C   UNL     1      -9.100   6.049  -3.617  1.00  0.00     0.004 C 
ENDBRANCH  10  11
ENDBRANCH   9  10
ENDBRANCH   8   9
ENDBRANCH   7   8
ENDBRANCH   5   6
ENDBRANCH   4   5
ENDBRANCH   2   3
ENDBRANCH   1   2
BRANCH   1  13
ATOM     13  C   UNL     1      -7.461   5.143  -0.305  1.00  0.00     0.000 C 
BRANCH  13  14
ATOM     14  C   UNL     1      -6.320   5.577   0.632  1.00  0.00     0.000 C 
BRANCH  14  15
ATOM     15  C   UNL     1      -6.788   6.586   1.694  1.00  0.00     0.000 C 
BRANCH  15  16
ATOM     16  C   UNL     1      -6.631   6.045   3.125  1.00  0.00     0.003 C 
BRANCH  16  17
ATOM     17  C   UNL     1      -7.970   5.955   3.875  1.00  0.00     0.042 C 
BRANCH  17  18
ATOM     18  C   UNL     1      -7.901   5.170   5.190  1.00  0.00     0.233 C 
BRANCH  18  19
ATOM     19  O   UNL     1      -6.668   5.416   5.867  1.00  0.00    -0.466 OA
BRANCH  19  20
ATOM     20  C   UNL     1      -6.389   6.583   6.586  1.00  0.00     0.302 C 
ATOM     21  O   UNL     1      -5.549   7.423   6.161  1.00  0.00    -0.253 OA
ATOM     22  C   UNL     1      -7.066   6.815   7.895  1.00  0.00     0.139 C 
ENDBRANCH  19  20
ENDBRANCH  18  19
ENDBRANCH  17  18
ENDBRANCH  16  17
ENDBRANCH  15  16
ENDBRANCH  14  15
ENDBRANCH  13  14
ENDBRANCH   1  13
TORSDOF 16
ENDMDL
