MODEL 1
REMARK VINA RESULT:    -4.518      0.000      0.000
REMARK INTER + INTRA:          -5.545
REMARK INTER:                  -5.310
REMARK INTRA:                  -0.235
REMARK UNBOUND:                -0.235
REMARK SMILES C=C[C@@]1(C)CC[C@@H](C(=C)C)C[C@H]1C(=C)C
REMARK SMILES IDX 7 1 6 2 5 3 3 4 12 5 11 6 4 7 8 8 10 9 9 10 13 11 14 12
REMARK SMILES IDX 15 13 2 14 1 15
REMARK H PARENT
REMARK Flexibility Score: inf
ROOT
ATOM      1  C   UNL     1      41.258  19.481  -2.330  1.00  0.00     0.015 C 
ATOM      2  C   UNL     1      41.212  17.976  -1.942  1.00  0.00     0.009 C 
ATOM      3  C   UNL     1      41.575  17.017  -3.105  1.00  0.00     0.012 C 
ATOM      4  C   UNL     1      42.907  17.367  -3.800  1.00  0.00    -0.008 C 
ATOM      5  C   UNL     1      42.885  18.880  -4.204  1.00  0.00     0.024 C 
ATOM      6  C   UNL     1      42.635  19.795  -2.964  1.00  0.00     0.017 C 
ATOM      7  C   UNL     1      43.020  16.437  -5.020  1.00  0.00     0.016 C 
ENDROOT
BRANCH   1   8
ATOM      8  C   UNL     1      40.901  20.400  -1.124  1.00  0.00    -0.077 C 
ATOM      9  C   UNL     1      39.555  20.302  -0.469  1.00  0.00     0.039 C 
ATOM     10  C   UNL     1      41.911  20.987  -0.498  1.00  0.00     0.008 C 
ENDBRANCH   1   8
BRANCH   5  11
ATOM     11  C   UNL     1      44.070  19.459  -5.090  1.00  0.00    -0.077 C 
ATOM     12  C   UNL     1      45.041  18.746  -5.705  1.00  0.00     0.008 C 
ATOM     13  C   UNL     1      44.169  20.957  -5.323  1.00  0.00     0.039 C 
ENDBRANCH   5  11
BRANCH   4  14
ATOM     14  C   UNL     1      43.970  17.059  -2.790  1.00  0.00    -0.028 C 
ATOM     15  C   UNL     1      44.825  15.997  -2.682  1.00  0.00     0.004 C 
ENDBRANCH   4  14
TORSDOF 3
ENDMDL
MODEL 2
REMARK VINA RESULT:    -4.461      1.317      4.969
REMARK INTER + INTRA:          -5.478
REMARK INTER:                  -4.878
REMARK INTRA:                  -0.600
REMARK UNBOUND:                -0.235
REMARK SMILES C=C[C@@]1(C)CC[C@@H](C(=C)C)C[C@H]1C(=C)C
REMARK SMILES IDX 7 1 6 2 5 3 3 4 12 5 11 6 4 7 8 8 10 9 9 10 13 11 14 12
REMARK SMILES IDX 15 13 2 14 1 15
REMARK H PARENT
REMARK Flexibility Score: inf
ROOT
ATOM      1  C   UNL     1      43.936  17.033  -3.797  1.00  0.00     0.015 C 
ATOM      2  C   UNL     1      43.928  17.682  -5.210  1.00  0.00     0.009 C 
ATOM      3  C   UNL     1      42.738  18.647  -5.449  1.00  0.00     0.012 C 
ATOM      4  C   UNL     1      42.581  19.718  -4.350  1.00  0.00    -0.008 C 
ATOM      5  C   UNL     1      42.556  19.009  -2.953  1.00  0.00     0.024 C 
ATOM      6  C   UNL     1      43.842  18.150  -2.730  1.00  0.00     0.017 C 
ATOM      7  C   UNL     1      41.270  20.464  -4.651  1.00  0.00     0.016 C 
ENDROOT
BRANCH   1   8
ATOM      8  C   UNL     1      45.158  16.086  -3.604  1.00  0.00    -0.077 C 
ATOM      9  C   UNL     1      46.500  16.458  -4.157  1.00  0.00     0.039 C 
ATOM     10  C   UNL     1      45.053  15.157  -2.663  1.00  0.00     0.008 C 
ENDBRANCH   1   8
BRANCH   5  11
ATOM     11  C   UNL     1      42.233  19.870  -1.658  1.00  0.00    -0.077 C 
ATOM     12  C   UNL     1      43.098  20.650  -0.969  1.00  0.00     0.008 C 
ATOM     13  C   UNL     1      40.823  19.875  -1.093  1.00  0.00     0.039 C 
ENDBRANCH   5  11
BRANCH   4  14
ATOM     14  C   UNL     1      43.764  20.623  -4.513  1.00  0.00    -0.028 C 
ATOM     15  C   UNL     1      44.240  21.291  -5.608  1.00  0.00     0.004 C 
ENDBRANCH   4  14
TORSDOF 3
ENDMDL
MODEL 3
REMARK VINA RESULT:    -4.383      1.113      3.138
REMARK INTER + INTRA:          -5.386
REMARK INTER:                  -4.747
REMARK INTRA:                  -0.638
REMARK UNBOUND:                -0.235
REMARK SMILES C=C[C@@]1(C)CC[C@@H](C(=C)C)C[C@H]1C(=C)C
REMARK SMILES IDX 7 1 6 2 5 3 3 4 12 5 11 6 4 7 8 8 10 9 9 10 13 11 14 12
REMARK SMILES IDX 15 13 2 14 1 15
REMARK H PARENT
REMARK Flexibility Score: inf
ROOT
ATOM      1  C   UNL     1      42.408  19.692  -2.272  1.00  0.00     0.015 C 
ATOM      2  C   UNL     1      42.532  20.328  -3.686  1.00  0.00     0.009 C 
ATOM      3  C   UNL     1      43.767  19.839  -4.487  1.00  0.00     0.012 C 
ATOM      4  C   UNL     1      43.887  18.303  -4.560  1.00  0.00    -0.008 C 
ATOM      5  C   UNL     1      43.795  17.718  -3.110  1.00  0.00     0.024 C 
ATOM      6  C   UNL     1      42.470  18.152  -2.406  1.00  0.00     0.017 C 
ATOM      7  C   UNL     1      45.239  18.002  -5.227  1.00  0.00     0.016 C 
ENDROOT
BRANCH   1   8
ATOM      8  C   UNL     1      41.145  20.205  -1.517  1.00  0.00    -0.077 C 
ATOM      9  C   UNL     1      39.830  19.502  -1.677  1.00  0.00     0.039 C 
ATOM     10  C   UNL     1      41.349  21.025  -0.496  1.00  0.00     0.008 C 
ENDBRANCH   1   8
BRANCH   5  11
ATOM     11  C   UNL     1      44.061  16.168  -2.885  1.00  0.00    -0.077 C 
ATOM     12  C   UNL     1      45.264  15.568  -2.735  1.00  0.00     0.008 C 
ATOM     13  C   UNL     1      42.885  15.210  -2.803  1.00  0.00     0.039 C 
ENDBRANCH   5  11
BRANCH   4  14
ATOM     14  C   UNL     1      42.749  17.862  -5.429  1.00  0.00    -0.028 C 
ATOM     15  C   UNL     1      42.548  16.702  -6.125  1.00  0.00     0.004 C 
ENDBRANCH   4  14
TORSDOF 3
ENDMDL
MODEL 4
REMARK VINA RESULT:    -4.290      1.913      4.680
REMARK INTER + INTRA:          -5.276
REMARK INTER:                  -4.577
REMARK INTRA:                  -0.700
REMARK UNBOUND:                -0.235
REMARK SMILES C=C[C@@]1(C)CC[C@@H](C(=C)C)C[C@H]1C(=C)C
REMARK SMILES IDX 7 1 6 2 5 3 3 4 12 5 11 6 4 7 8 8 10 9 9 10 13 11 14 12
REMARK SMILES IDX 15 13 2 14 1 15
REMARK H PARENT
REMARK Flexibility Score: inf
ROOT
ATOM      1  C   UNL     1      42.922  16.451  -2.339  1.00  0.00     0.015 C 
ATOM      2  C   UNL     1      41.635  16.044  -3.111  1.00  0.00     0.009 C 
ATOM      3  C   UNL     1      40.374  16.846  -2.695  1.00  0.00     0.012 C 
ATOM      4  C   UNL     1      40.576  18.374  -2.727  1.00  0.00    -0.008 C 
ATOM      5  C   UNL     1      41.860  18.733  -1.904  1.00  0.00     0.024 C 
ATOM      6  C   UNL     1      43.114  17.983  -2.455  1.00  0.00     0.017 C 
ATOM      7  C   UNL     1      39.304  18.996  -2.126  1.00  0.00     0.016 C 
ENDROOT
BRANCH   1   8
ATOM      8  C   UNL     1      44.160  15.628  -2.805  1.00  0.00    -0.077 C 
ATOM      9  C   UNL     1      44.034  14.159  -3.074  1.00  0.00     0.039 C 
ATOM     10  C   UNL     1      45.190  16.313  -3.281  1.00  0.00     0.008 C 
ENDBRANCH   1   8
BRANCH   5  11
ATOM     11  C   UNL     1      42.202  20.261  -1.635  1.00  0.00    -0.077 C 
ATOM     12  C   UNL     1      41.752  21.021  -0.610  1.00  0.00     0.008 C 
ATOM     13  C   UNL     1      43.137  20.997  -2.578  1.00  0.00     0.039 C 
ENDBRANCH   5  11
BRANCH   4  14
ATOM     14  C   UNL     1      40.710  18.722  -4.178  1.00  0.00    -0.028 C 
ATOM     15  C   UNL     1      40.281  19.813  -4.883  1.00  0.00     0.004 C 
ENDBRANCH   4  14
TORSDOF 3
ENDMDL
MODEL 5
REMARK VINA RESULT:    -4.249      1.568      4.705
REMARK INTER + INTRA:          -5.229
REMARK INTER:                  -4.561
REMARK INTRA:                  -0.667
REMARK UNBOUND:                -0.235
REMARK SMILES C=C[C@@]1(C)CC[C@@H](C(=C)C)C[C@H]1C(=C)C
REMARK SMILES IDX 7 1 6 2 5 3 3 4 12 5 11 6 4 7 8 8 10 9 9 10 13 11 14 12
REMARK SMILES IDX 15 13 2 14 1 15
REMARK H PARENT
REMARK Flexibility Score: inf
ROOT
ATOM      1  C   UNL     1      44.707  16.241  -2.684  1.00  0.00     0.015 C 
ATOM      2  C   UNL     1      43.373  15.442  -2.669  1.00  0.00     0.009 C 
ATOM      3  C   UNL     1      42.160  16.257  -2.149  1.00  0.00     0.012 C 
ATOM      4  C   UNL     1      41.981  17.616  -2.856  1.00  0.00    -0.008 C 
ATOM      5  C   UNL     1      43.340  18.394  -2.809  1.00  0.00     0.024 C 
ATOM      6  C   UNL     1      44.492  17.564  -3.459  1.00  0.00     0.017 C 
ATOM      7  C   UNL     1      40.858  18.354  -2.108  1.00  0.00     0.016 C 
ENDROOT
BRANCH   1   8
ATOM      8  C   UNL     1      45.887  15.382  -3.228  1.00  0.00    -0.077 C 
ATOM      9  C   UNL     1      46.928  16.000  -4.113  1.00  0.00     0.039 C 
ATOM     10  C   UNL     1      46.125  14.232  -2.613  1.00  0.00     0.008 C 
ENDBRANCH   1   8
BRANCH   5  11
ATOM     11  C   UNL     1      43.385  19.898  -3.319  1.00  0.00    -0.077 C 
ATOM     12  C   UNL     1      43.097  21.005  -2.597  1.00  0.00     0.008 C 
ATOM     13  C   UNL     1      43.805  20.193  -4.749  1.00  0.00     0.039 C 
ENDBRANCH   5  11
BRANCH   4  14
ATOM     14  C   UNL     1      41.562  17.279  -4.255  1.00  0.00    -0.028 C 
ATOM     15  C   UNL     1      40.700  17.908  -5.110  1.00  0.00     0.004 C 
ENDBRANCH   4  14
TORSDOF 3
ENDMDL
MODEL 6
REMARK VINA RESULT:    -4.230      1.359      2.350
REMARK INTER + INTRA:          -5.206
REMARK INTER:                  -4.601
REMARK INTRA:                  -0.605
REMARK UNBOUND:                -0.235
REMARK SMILES C=C[C@@]1(C)CC[C@@H](C(=C)C)C[C@H]1C(=C)C
REMARK SMILES IDX 7 1 6 2 5 3 3 4 12 5 11 6 4 7 8 8 10 9 9 10 13 11 14 12
REMARK SMILES IDX 15 13 2 14 1 15
REMARK H PARENT
REMARK Flexibility Score: inf
ROOT
ATOM      1  C   UNL     1      40.884  19.598  -2.230  1.00  0.00     0.015 C 
ATOM      2  C   UNL     1      39.673  18.651  -2.463  1.00  0.00     0.009 C 
ATOM      3  C   UNL     1      39.845  17.700  -3.677  1.00  0.00     0.012 C 
ATOM      4  C   UNL     1      41.169  16.908  -3.656  1.00  0.00    -0.008 C 
ATOM      5  C   UNL     1      42.356  17.911  -3.459  1.00  0.00     0.024 C 
ATOM      6  C   UNL     1      42.177  18.751  -2.154  1.00  0.00     0.017 C 
ATOM      7  C   UNL     1      41.251  16.161  -4.999  1.00  0.00     0.016 C 
ENDROOT
BRANCH   1   8
ATOM      8  C   UNL     1      40.666  20.520  -0.993  1.00  0.00    -0.077 C 
ATOM      9  C   UNL     1      39.381  20.464  -0.224  1.00  0.00     0.039 C 
ATOM     10  C   UNL     1      41.748  21.066  -0.456  1.00  0.00     0.008 C 
ENDBRANCH   1   8
BRANCH   5  11
ATOM     11  C   UNL     1      43.846  17.373  -3.572  1.00  0.00    -0.077 C 
ATOM     12  C   UNL     1      44.498  16.603  -2.671  1.00  0.00     0.008 C 
ATOM     13  C   UNL     1      44.673  17.709  -4.801  1.00  0.00     0.039 C 
ENDBRANCH   5  11
BRANCH   4  14
ATOM     14  C   UNL     1      41.034  15.947  -2.515  1.00  0.00    -0.028 C 
ATOM     15  C   UNL     1      40.101  14.979  -2.261  1.00  0.00     0.004 C 
ENDBRANCH   4  14
TORSDOF 3
ENDMDL
MODEL 7
REMARK VINA RESULT:    -4.171      5.032      8.537
REMARK INTER + INTRA:          -5.137
REMARK INTER:                  -4.831
REMARK INTRA:                  -0.306
REMARK UNBOUND:                -0.235
REMARK SMILES C=C[C@@]1(C)CC[C@@H](C(=C)C)C[C@H]1C(=C)C
REMARK SMILES IDX 7 1 6 2 5 3 3 4 12 5 11 6 4 7 8 8 10 9 9 10 13 11 14 12
REMARK SMILES IDX 15 13 2 14 1 15
REMARK H PARENT
REMARK Flexibility Score: inf
ROOT
ATOM      1  C   UNL     1      50.289  14.579  -4.362  1.00  0.00     0.015 C 
ATOM      2  C   UNL     1      49.893  13.132  -3.954  1.00  0.00     0.009 C 
ATOM      3  C   UNL     1      48.672  13.061  -3.000  1.00  0.00     0.012 C 
ATOM      4  C   UNL     1      47.446  13.846  -3.509  1.00  0.00    -0.008 C 
ATOM      5  C   UNL     1      47.891  15.304  -3.867  1.00  0.00     0.024 C 
ATOM      6  C   UNL     1      49.042  15.303  -4.923  1.00  0.00     0.017 C 
ATOM      7  C   UNL     1      46.406  13.814  -2.376  1.00  0.00     0.016 C 
ENDROOT
BRANCH   1   8
ATOM      8  C   UNL     1      51.509  14.593  -5.330  1.00  0.00    -0.077 C 
ATOM      9  C   UNL     1      52.280  15.859  -5.559  1.00  0.00     0.039 C 
ATOM     10  C   UNL     1      52.037  13.418  -5.646  1.00  0.00     0.008 C 
ENDBRANCH   1   8
BRANCH   5  11
ATOM     11  C   UNL     1      46.783  16.375  -4.256  1.00  0.00    -0.077 C 
ATOM     12  C   UNL     1      45.587  16.556  -3.652  1.00  0.00     0.008 C 
ATOM     13  C   UNL     1      47.040  17.336  -5.404  1.00  0.00     0.039 C 
ENDBRANCH   5  11
BRANCH   4  14
ATOM     14  C   UNL     1      46.961  13.085  -4.705  1.00  0.00    -0.028 C 
ATOM     15  C   UNL     1      45.781  12.432  -4.936  1.00  0.00     0.004 C 
ENDBRANCH   4  14
TORSDOF 3
ENDMDL
MODEL 8
REMARK VINA RESULT:    -4.129      6.204      8.401
REMARK INTER + INTRA:          -5.087
REMARK INTER:                  -4.606
REMARK INTRA:                  -0.482
REMARK UNBOUND:                -0.235
REMARK SMILES C=C[C@@]1(C)CC[C@@H](C(=C)C)C[C@H]1C(=C)C
REMARK SMILES IDX 7 1 6 2 5 3 3 4 12 5 11 6 4 7 8 8 10 9 9 10 13 11 14 12
REMARK SMILES IDX 15 13 2 14 1 15
REMARK H PARENT
REMARK Flexibility Score: inf
ROOT
ATOM      1  C   UNL     1      48.013  12.943  -1.991  1.00  0.00     0.015 C 
ATOM      2  C   UNL     1      46.700  13.597  -2.507  1.00  0.00     0.009 C 
ATOM      3  C   UNL     1      46.922  14.928  -3.273  1.00  0.00     0.012 C 
ATOM      4  C   UNL     1      47.967  14.823  -4.403  1.00  0.00    -0.008 C 
ATOM      5  C   UNL     1      49.279  14.195  -3.822  1.00  0.00     0.024 C 
ATOM      6  C   UNL     1      49.002  12.802  -3.173  1.00  0.00     0.017 C 
ATOM      7  C   UNL     1      48.185  16.251  -4.930  1.00  0.00     0.016 C 
ENDROOT
BRANCH   1   8
ATOM      8  C   UNL     1      47.736  11.605  -1.244  1.00  0.00    -0.077 C 
ATOM      9  C   UNL     1      46.377  10.973  -1.301  1.00  0.00     0.039 C 
ATOM     10  C   UNL     1      48.793  10.894  -0.876  1.00  0.00     0.008 C 
ENDBRANCH   1   8
BRANCH   5  11
ATOM     11  C   UNL     1      50.575  14.133  -4.738  1.00  0.00    -0.077 C 
ATOM     12  C   UNL     1      51.030  13.057  -5.422  1.00  0.00     0.008 C 
ATOM     13  C   UNL     1      51.426  15.378  -4.921  1.00  0.00     0.039 C 
ENDBRANCH   5  11
BRANCH   4  14
ATOM     14  C   UNL     1      47.331  13.957  -5.447  1.00  0.00    -0.028 C 
ATOM     15  C   UNL     1      46.150  14.088  -6.125  1.00  0.00     0.004 C 
ENDBRANCH   4  14
TORSDOF 3
ENDMDL
MODEL 9
REMARK VINA RESULT:    -4.108      3.227      6.287
REMARK INTER + INTRA:          -5.063
REMARK INTER:                  -4.363
REMARK INTRA:                  -0.700
REMARK UNBOUND:                -0.235
REMARK SMILES C=C[C@@]1(C)CC[C@@H](C(=C)C)C[C@H]1C(=C)C
REMARK SMILES IDX 7 1 6 2 5 3 3 4 12 5 11 6 4 7 8 8 10 9 9 10 13 11 14 12
REMARK SMILES IDX 15 13 2 14 1 15
REMARK H PARENT
REMARK Flexibility Score: inf
ROOT
ATOM      1  C   UNL     1      45.189  16.247  -2.799  1.00  0.00     0.015 C 
ATOM      2  C   UNL     1      45.962  16.640  -4.089  1.00  0.00     0.009 C 
ATOM      3  C   UNL     1      47.406  16.077  -4.151  1.00  0.00     0.012 C 
ATOM      4  C   UNL     1      47.487  14.558  -3.902  1.00  0.00    -0.008 C 
ATOM      5  C   UNL     1      46.728  14.222  -2.573  1.00  0.00     0.024 C 
ATOM      6  C   UNL     1      45.246  14.709  -2.628  1.00  0.00     0.017 C 
ATOM      7  C   UNL     1      48.983  14.206  -3.825  1.00  0.00     0.016 C 
ENDROOT
BRANCH   1   8
ATOM      8  C   UNL     1      43.742  16.824  -2.794  1.00  0.00    -0.077 C 
ATOM      9  C   UNL     1      43.493  18.247  -3.193  1.00  0.00     0.039 C 
ATOM     10  C   UNL     1      42.747  15.947  -2.775  1.00  0.00     0.008 C 
ENDBRANCH   1   8
BRANCH   5  11
ATOM     11  C   UNL     1      46.804  12.744  -1.994  1.00  0.00    -0.077 C 
ATOM     12  C   UNL     1      47.763  12.243  -1.182  1.00  0.00     0.008 C 
ATOM     13  C   UNL     1      45.710  11.748  -2.335  1.00  0.00     0.039 C 
ENDBRANCH   5  11
BRANCH   4  14
ATOM     14  C   UNL     1      46.848  13.928  -5.102  1.00  0.00    -0.028 C 
ATOM     15  C   UNL     1      47.093  12.737  -5.728  1.00  0.00     0.004 C 
ENDBRANCH   4  14
TORSDOF 3
ENDMDL
