MODEL 1
REMARK VINA RESULT:    67.970      0.000      0.000
REMARK INTER + INTRA:          89.495
REMARK INTER:                  89.824
REMARK INTRA:                  -0.329
REMARK UNBOUND:                -0.329
REMARK SMILES CC[C@@H](C=C[C@H](C)[C@@H]1CC[C@H]2[C@@H]3CC[C@H]4C[C@@H](O)CC[C@@]4(C)[C@@H]3CC[C@@]21C)C(C)C
REMARK SMILES IDX 6 1 7 2 5 3 4 4 3 5 2 6 1 7 28 8 29 9 30 10 8 11 9 12 26 13
REMARK SMILES IDX 10 14 11 15 25 16 27 17 12 18 24 19 23 20 13 21 21 22 14 23
REMARK SMILES IDX 15 24 20 25 22 26 16 27 19 28 17 29 18 30
REMARK H PARENT 18 31
REMARK Flexibility Score: inf
ROOT
ATOM      1  C   UNL     1     -29.656  31.253  -1.704  1.00  0.00     0.012 C 
ATOM      2  C   UNL     1     -29.910  31.382  -0.191  1.00  0.00     0.012 C 
ENDROOT
BRANCH   1   3
ATOM      3  C   UNL     1     -30.922  30.896  -2.465  1.00  0.00    -0.028 C 
ATOM      4  C   UNL     1     -31.911  30.127  -1.976  1.00  0.00    -0.027 C 
BRANCH   4   5
ATOM      5  C   UNL     1     -33.160  29.848  -2.792  1.00  0.00     0.014 C 
BRANCH   5   6
ATOM      6  C   UNL     1     -33.325  30.900  -3.918  1.00  0.00     0.004 C 
ATOM      7  C   UNL     1     -34.584  30.663  -4.753  1.00  0.00     0.004 C 
ENDBRANCH   5   6
BRANCH   5   8
ATOM      8  C   UNL     1     -34.406  29.744  -1.860  1.00  0.00    -0.011 C 
ATOM      9  C   UNL     1     -35.127  28.394  -2.002  1.00  0.00     0.008 C 
ATOM     10  C   UNL     1     -35.399  30.903  -2.044  1.00  0.00     0.008 C 
ENDBRANCH   5   8
ENDBRANCH   4   5
ENDBRANCH   1   3
BRANCH   1  11
ATOM     11  C   UNL     1     -28.844  32.466  -2.283  1.00  0.00     0.002 C 
ATOM     12  C   UNL     1     -29.731  33.566  -2.941  1.00  0.00     0.005 C 
ATOM     13  C   UNL     1     -27.738  32.173  -3.363  1.00  0.00    -0.026 C 
ATOM     14  C   UNL     1     -29.349  33.641  -4.428  1.00  0.00     0.005 C 
ATOM     15  C   UNL     1     -28.515  32.394  -4.664  1.00  0.00    -0.001 C 
ATOM     16  C   UNL     1     -27.082  30.744  -3.399  1.00  0.00     0.007 C 
ATOM     17  C   UNL     1     -26.623  33.257  -3.158  1.00  0.00     0.012 C 
ATOM     18  C   UNL     1     -27.670  32.326  -5.976  1.00  0.00    -0.004 C 
ATOM     19  C   UNL     1     -26.866  30.178  -4.835  1.00  0.00     0.005 C 
ATOM     20  C   UNL     1     -26.477  31.300  -5.843  1.00  0.00    -0.001 C 
ATOM     21  C   UNL     1     -28.638  31.955  -7.125  1.00  0.00     0.004 C 
ATOM     22  C   UNL     1     -25.828  30.856  -7.228  1.00  0.00    -0.026 C 
ATOM     23  C   UNL     1     -27.924  31.700  -8.438  1.00  0.00     0.004 C 
ATOM     24  C   UNL     1     -26.921  30.539  -8.290  1.00  0.00    -0.002 C 
ATOM     25  C   UNL     1     -24.895  32.011  -7.746  1.00  0.00     0.010 C 
ATOM     26  C   UNL     1     -24.943  29.595  -7.005  1.00  0.00     0.012 C 
ATOM     27  C   UNL     1     -26.328  30.148  -9.673  1.00  0.00     0.036 C 
ATOM     28  C   UNL     1     -24.768  32.159  -9.280  1.00  0.00     0.032 C 
ATOM     29  C   UNL     1     -25.014  30.864 -10.068  1.00  0.00     0.114 C 
BRANCH  29  30
ATOM     30  O   UNL     1     -25.046  31.152 -11.443  1.00  0.00    -0.393 OA
ATOM     31  H   UNL     1     -25.978  31.414 -11.665  1.00  0.00     0.210 HD
ENDBRANCH  29  30
ENDBRANCH   1  11
TORSDOF 6
ENDMDL
MODEL 2
REMARK VINA RESULT:    69.069      3.148      8.425
REMARK INTER + INTRA:          90.949
REMARK INTER:                  91.113
REMARK INTRA:                  -0.165
REMARK UNBOUND:                -0.329
REMARK SMILES CC[C@@H](C=C[C@H](C)[C@@H]1CC[C@H]2[C@@H]3CC[C@H]4C[C@@H](O)CC[C@@]4(C)[C@@H]3CC[C@@]21C)C(C)C
REMARK SMILES IDX 6 1 7 2 5 3 4 4 3 5 2 6 1 7 28 8 29 9 30 10 8 11 9 12 26 13
REMARK SMILES IDX 10 14 11 15 25 16 27 17 12 18 24 19 23 20 13 21 21 22 14 23
REMARK SMILES IDX 15 24 20 25 22 26 16 27 19 28 17 29 18 30
REMARK H PARENT 18 31
REMARK Flexibility Score: inf
ROOT
ATOM      1  C   UNL     1     -27.435  31.463  -3.037  1.00  0.00     0.012 C 
ATOM      2  C   UNL     1     -27.418  29.975  -2.644  1.00  0.00     0.012 C 
ENDROOT
BRANCH   1   3
ATOM      3  C   UNL     1     -27.512  31.653  -4.543  1.00  0.00    -0.028 C 
ATOM      4  C   UNL     1     -26.765  30.976  -5.433  1.00  0.00    -0.027 C 
BRANCH   4   5
ATOM      5  C   UNL     1     -26.930  31.204  -6.924  1.00  0.00     0.014 C 
BRANCH   5   6
ATOM      6  C   UNL     1     -27.958  30.210  -7.520  1.00  0.00     0.004 C 
ATOM      7  C   UNL     1     -27.840  28.814  -6.906  1.00  0.00     0.004 C 
ENDBRANCH   5   6
BRANCH   5   8
ATOM      8  C   UNL     1     -25.543  31.156  -7.638  1.00  0.00    -0.011 C 
ATOM      9  C   UNL     1     -25.512  32.025  -8.905  1.00  0.00     0.008 C 
ATOM     10  C   UNL     1     -25.075  29.727  -7.957  1.00  0.00     0.008 C 
ENDBRANCH   5   8
ENDBRANCH   4   5
ENDBRANCH   1   3
BRANCH   1  11
ATOM     11  C   UNL     1     -28.475  32.293  -2.202  1.00  0.00     0.002 C 
ATOM     12  C   UNL     1     -28.490  31.946  -0.683  1.00  0.00     0.005 C 
ATOM     13  C   UNL     1     -29.990  32.225  -2.623  1.00  0.00    -0.026 C 
ATOM     14  C   UNL     1     -29.881  31.387  -0.348  1.00  0.00     0.005 C 
ATOM     15  C   UNL     1     -30.512  31.116  -1.704  1.00  0.00    -0.001 C 
ATOM     16  C   UNL     1     -30.341  31.858  -4.112  1.00  0.00     0.007 C 
ATOM     17  C   UNL     1     -30.610  33.620  -2.265  1.00  0.00     0.012 C 
ATOM     18  C   UNL     1     -32.054  30.871  -1.748  1.00  0.00    -0.004 C 
ATOM     19  C   UNL     1     -31.547  30.882  -4.260  1.00  0.00     0.005 C 
ATOM     20  C   UNL     1     -32.642  31.154  -3.186  1.00  0.00    -0.001 C 
ATOM     21  C   UNL     1     -32.300  29.414  -1.289  1.00  0.00     0.004 C 
ATOM     22  C   UNL     1     -34.092  30.545  -3.440  1.00  0.00    -0.026 C 
ATOM     23  C   UNL     1     -33.746  28.987  -1.433  1.00  0.00     0.004 C 
ATOM     24  C   UNL     1     -34.195  29.086  -2.905  1.00  0.00    -0.002 C 
ATOM     25  C   UNL     1     -35.158  31.454  -2.726  1.00  0.00     0.010 C 
ATOM     26  C   UNL     1     -34.401  30.558  -4.965  1.00  0.00     0.012 C 
ATOM     27  C   UNL     1     -35.611  28.471  -3.089  1.00  0.00     0.036 C 
ATOM     28  C   UNL     1     -36.429  30.746  -2.202  1.00  0.00     0.032 C 
ATOM     29  C   UNL     1     -36.795  29.457  -2.953  1.00  0.00     0.114 C 
BRANCH  29  30
ATOM     30  O   UNL     1     -37.852  28.813  -2.288  1.00  0.00    -0.393 OA
ATOM     31  H   UNL     1     -37.560  27.880  -2.112  1.00  0.00     0.210 HD
ENDBRANCH  29  30
ENDBRANCH   1  11
TORSDOF 6
ENDMDL
