MODEL 1
REMARK VINA RESULT:    -4.077      0.000      0.000
REMARK INTER + INTRA:         -13.422
REMARK INTER:                 -10.273
REMARK INTRA:                  -3.149
REMARK UNBOUND:                -3.149
REMARK SMILES CCCCCCCCCCCCCCCCCCCCCCCCCCCC(=O)[O-]
REMARK SMILES IDX 15 1 16 2 17 3 18 4 19 5 20 6 21 7 22 8 23 9 24 10 25 11
REMARK SMILES IDX 26 12 27 13 28 14 29 15 30 16 14 17 13 18 12 19 11 20 10 21
REMARK SMILES IDX 9 22 8 23 7 24 6 25 5 26 4 27 3 28 2 29 1 30
REMARK H PARENT
REMARK Flexibility Score: inf
ROOT
ATOM      1  C   UNL     1     154.278 156.364 154.575  1.00  0.00     0.000 C 
ENDROOT
BRANCH   1   2
ATOM      2  C   UNL     1     153.030 156.402 155.483  1.00  0.00     0.000 C 
BRANCH   2   3
ATOM      3  C   UNL     1     151.751 155.873 154.811  1.00  0.00     0.000 C 
BRANCH   3   4
ATOM      4  C   UNL     1     151.868 155.793 153.280  1.00  0.00     0.000 C 
BRANCH   4   5
ATOM      5  C   UNL     1     151.153 156.953 152.561  1.00  0.00     0.000 C 
BRANCH   5   6
ATOM      6  C   UNL     1     151.935 157.593 151.396  1.00  0.00     0.000 C 
BRANCH   6   7
ATOM      7  C   UNL     1     152.701 156.602 150.495  1.00  0.00     0.000 C 
BRANCH   7   8
ATOM      8  C   UNL     1     152.352 156.683 148.997  1.00  0.00     0.000 C 
BRANCH   8   9
ATOM      9  C   UNL     1     150.838 156.806 148.749  1.00  0.00     0.000 C 
BRANCH   9  10
ATOM     10  C   UNL     1     150.174 155.465 148.385  1.00  0.00     0.000 C 
BRANCH  10  11
ATOM     11  C   UNL     1     149.761 155.310 146.905  1.00  0.00     0.000 C 
BRANCH  11  12
ATOM     12  C   UNL     1     148.973 154.029 146.575  1.00  0.00     0.006 C 
BRANCH  12  13
ATOM     13  C   UNL     1     149.125 152.942 147.648  1.00  0.00     0.053 C 
BRANCH  13  14
ATOM     14  C   UNL     1     149.980 151.826 147.135  1.00  0.00     0.041 C 
ATOM     15  O   UNL     1     151.098 151.589 147.663  1.00  0.00    -0.550 OA
ATOM     16  O   UNL     1     149.511 151.005 146.116  1.00  0.00    -0.550 OA
ENDBRANCH  13  14
ENDBRANCH  12  13
ENDBRANCH  11  12
ENDBRANCH  10  11
ENDBRANCH   9  10
ENDBRANCH   8   9
ENDBRANCH   7   8
ENDBRANCH   6   7
ENDBRANCH   5   6
ENDBRANCH   4   5
ENDBRANCH   3   4
ENDBRANCH   2   3
ENDBRANCH   1   2
BRANCH   1  17
ATOM     17  C   UNL     1     155.533 156.898 155.288  1.00  0.00     0.000 C 
BRANCH  17  18
ATOM     18  C   UNL     1     155.321 157.070 156.802  1.00  0.00     0.000 C 
BRANCH  18  19
ATOM     19  C   UNL     1     156.503 156.523 157.622  1.00  0.00     0.000 C 
BRANCH  19  20
ATOM     20  C   UNL     1     156.109 155.344 158.529  1.00  0.00     0.000 C 
BRANCH  20  21
ATOM     21  C   UNL     1     154.767 154.669 158.176  1.00  0.00     0.000 C 
BRANCH  21  22
ATOM     22  C   UNL     1     154.864 153.482 157.200  1.00  0.00    -0.000 C 
BRANCH  22  23
ATOM     23  C   UNL     1     155.430 152.181 157.803  1.00  0.00    -0.000 C 
BRANCH  23  24
ATOM     24  C   UNL     1     154.578 150.926 157.506  1.00  0.00    -0.000 C 
BRANCH  24  25
ATOM     25  C   UNL     1     153.134 151.055 158.020  1.00  0.00    -0.000 C 
BRANCH  25  26
ATOM     26  C   UNL     1     153.068 151.437 159.508  1.00  0.00    -0.000 C 
BRANCH  26  27
ATOM     27  C   UNL     1     152.081 152.585 159.781  1.00  0.00    -0.000 C 
BRANCH  27  28
ATOM     28  C   UNL     1     151.228 152.941 158.549  1.00  0.00    -0.000 C 
BRANCH  28  29
ATOM     29  C   UNL     1     151.256 154.428 158.154  1.00  0.00    -0.003 C 
ATOM     30  C   UNL     1     149.865 155.004 157.898  1.00  0.00     0.004 C 
ENDBRANCH  28  29
ENDBRANCH  27  28
ENDBRANCH  26  27
ENDBRANCH  25  26
ENDBRANCH  24  25
ENDBRANCH  23  24
ENDBRANCH  22  23
ENDBRANCH  21  22
ENDBRANCH  20  21
ENDBRANCH  19  20
ENDBRANCH  18  19
ENDBRANCH  17  18
ENDBRANCH   1  17
TORSDOF 26
ENDMDL
MODEL 2
REMARK VINA RESULT:    -4.034      1.650      4.362
REMARK INTER + INTRA:         -13.315
REMARK INTER:                  -8.483
REMARK INTRA:                  -4.832
REMARK UNBOUND:                -3.149
REMARK SMILES CCCCCCCCCCCCCCCCCCCCCCCCCCCC(=O)[O-]
REMARK SMILES IDX 15 1 16 2 17 3 18 4 19 5 20 6 21 7 22 8 23 9 24 10 25 11
REMARK SMILES IDX 26 12 27 13 28 14 29 15 30 16 14 17 13 18 12 19 11 20 10 21
REMARK SMILES IDX 9 22 8 23 7 24 6 25 5 26 4 27 3 28 2 29 1 30
REMARK H PARENT
REMARK Flexibility Score: inf
ROOT
ATOM      1  C   UNL     1     154.908 154.173 158.398  1.00  0.00     0.000 C 
ENDROOT
BRANCH   1   2
ATOM      2  C   UNL     1     155.373 155.637 158.241  1.00  0.00     0.000 C 
BRANCH   2   3
ATOM      3  C   UNL     1     155.025 156.260 156.877  1.00  0.00     0.000 C 
BRANCH   3   4
ATOM      4  C   UNL     1     153.954 157.358 156.976  1.00  0.00     0.000 C 
BRANCH   4   5
ATOM      5  C   UNL     1     152.801 157.165 155.973  1.00  0.00     0.000 C 
BRANCH   5   6
ATOM      6  C   UNL     1     152.952 155.968 155.012  1.00  0.00     0.000 C 
BRANCH   6   7
ATOM      7  C   UNL     1     153.575 156.299 153.641  1.00  0.00     0.000 C 
BRANCH   7   8
ATOM      8  C   UNL     1     153.402 157.760 153.185  1.00  0.00     0.000 C 
BRANCH   8   9
ATOM      9  C   UNL     1     152.662 157.876 151.841  1.00  0.00     0.000 C 
BRANCH   9  10
ATOM     10  C   UNL     1     151.143 157.651 151.965  1.00  0.00     0.000 C 
BRANCH  10  11
ATOM     11  C   UNL     1     150.613 156.346 151.334  1.00  0.00     0.000 C 
BRANCH  11  12
ATOM     12  C   UNL     1     150.242 156.441 149.843  1.00  0.00     0.006 C 
BRANCH  12  13
ATOM     13  C   UNL     1     151.403 156.059 148.914  1.00  0.00     0.053 C 
BRANCH  13  14
ATOM     14  C   UNL     1     150.935 155.087 147.876  1.00  0.00     0.041 C 
ATOM     15  O   UNL     1     149.973 154.312 148.119  1.00  0.00    -0.550 OA
ATOM     16  O   UNL     1     151.518 155.086 146.614  1.00  0.00    -0.550 OA
ENDBRANCH  13  14
ENDBRANCH  12  13
ENDBRANCH  11  12
ENDBRANCH  10  11
ENDBRANCH   9  10
ENDBRANCH   8   9
ENDBRANCH   7   8
ENDBRANCH   6   7
ENDBRANCH   5   6
ENDBRANCH   4   5
ENDBRANCH   3   4
ENDBRANCH   2   3
ENDBRANCH   1   2
BRANCH   1  17
ATOM     17  C   UNL     1     154.630 153.502 157.042  1.00  0.00     0.000 C 
BRANCH  17  18
ATOM     18  C   UNL     1     154.582 151.967 157.145  1.00  0.00     0.000 C 
BRANCH  18  19
ATOM     19  C   UNL     1     154.680 151.477 158.601  1.00  0.00     0.000 C 
BRANCH  19  20
ATOM     20  C   UNL     1     153.347 150.932 159.141  1.00  0.00     0.000 C 
BRANCH  20  21
ATOM     21  C   UNL     1     152.743 151.729 160.317  1.00  0.00     0.000 C 
BRANCH  21  22
ATOM     22  C   UNL     1     151.761 152.846 159.919  1.00  0.00    -0.000 C 
BRANCH  22  23
ATOM     23  C   UNL     1     151.176 152.730 158.497  1.00  0.00    -0.000 C 
BRANCH  23  24
ATOM     24  C   UNL     1     151.129 154.067 157.724  1.00  0.00    -0.000 C 
BRANCH  24  25
ATOM     25  C   UNL     1     151.272 155.290 158.646  1.00  0.00    -0.000 C 
BRANCH  25  26
ATOM     26  C   UNL     1     150.193 156.355 158.385  1.00  0.00    -0.000 C 
BRANCH  26  27
ATOM     27  C   UNL     1     148.999 155.804 157.586  1.00  0.00    -0.000 C 
BRANCH  27  28
ATOM     28  C   UNL     1     148.569 156.739 156.441  1.00  0.00    -0.000 C 
BRANCH  28  29
ATOM     29  C   UNL     1     149.302 156.505 155.108  1.00  0.00    -0.003 C 
ATOM     30  C   UNL     1     149.210 155.060 154.621  1.00  0.00     0.004 C 
ENDBRANCH  28  29
ENDBRANCH  27  28
ENDBRANCH  26  27
ENDBRANCH  25  26
ENDBRANCH  24  25
ENDBRANCH  23  24
ENDBRANCH  22  23
ENDBRANCH  21  22
ENDBRANCH  20  21
ENDBRANCH  19  20
ENDBRANCH  18  19
ENDBRANCH  17  18
ENDBRANCH   1  17
TORSDOF 26
ENDMDL
MODEL 3
REMARK VINA RESULT:    -3.989      3.344      8.678
REMARK INTER + INTRA:         -13.202
REMARK INTER:                  -8.057
REMARK INTRA:                  -5.146
REMARK UNBOUND:                -3.149
REMARK SMILES CCCCCCCCCCCCCCCCCCCCCCCCCCCC(=O)[O-]
REMARK SMILES IDX 15 1 16 2 17 3 18 4 19 5 20 6 21 7 22 8 23 9 24 10 25 11
REMARK SMILES IDX 26 12 27 13 28 14 29 15 30 16 14 17 13 18 12 19 11 20 10 21
REMARK SMILES IDX 9 22 8 23 7 24 6 25 5 26 4 27 3 28 2 29 1 30
REMARK H PARENT
REMARK Flexibility Score: inf
ROOT
ATOM      1  C   UNL     1     152.808 158.037 157.736  1.00  0.00     0.000 C 
ENDROOT
BRANCH   1   2
ATOM      2  C   UNL     1     154.192 157.353 157.722  1.00  0.00     0.000 C 
BRANCH   2   3
ATOM      3  C   UNL     1     154.475 156.490 158.964  1.00  0.00     0.000 C 
BRANCH   3   4
ATOM      4  C   UNL     1     155.208 155.181 158.630  1.00  0.00     0.000 C 
BRANCH   4   5
ATOM      5  C   UNL     1     154.986 154.721 157.177  1.00  0.00     0.000 C 
BRANCH   5   6
ATOM      6  C   UNL     1     154.332 153.334 157.013  1.00  0.00     0.000 C 
BRANCH   6   7
ATOM      7  C   UNL     1     154.776 152.272 158.040  1.00  0.00     0.000 C 
BRANCH   7   8
ATOM      8  C   UNL     1     153.626 151.542 158.758  1.00  0.00     0.000 C 
BRANCH   8   9
ATOM      9  C   UNL     1     153.099 152.322 159.975  1.00  0.00     0.000 C 
BRANCH   9  10
ATOM     10  C   UNL     1     151.658 152.833 159.788  1.00  0.00     0.000 C 
BRANCH  10  11
ATOM     11  C   UNL     1     151.530 154.274 159.249  1.00  0.00     0.000 C 
BRANCH  11  12
ATOM     12  C   UNL     1     150.827 154.405 157.886  1.00  0.00     0.006 C 
BRANCH  12  13
ATOM     13  C   UNL     1     150.535 153.048 157.233  1.00  0.00     0.053 C 
BRANCH  13  14
ATOM     14  C   UNL     1     149.169 153.053 156.619  1.00  0.00     0.041 C 
ATOM     15  O   UNL     1     148.209 152.483 157.202  1.00  0.00    -0.550 OA
ATOM     16  O   UNL     1     148.943 153.747 155.437  1.00  0.00    -0.550 OA
ENDBRANCH  13  14
ENDBRANCH  12  13
ENDBRANCH  11  12
ENDBRANCH  10  11
ENDBRANCH   9  10
ENDBRANCH   8   9
ENDBRANCH   7   8
ENDBRANCH   6   7
ENDBRANCH   5   6
ENDBRANCH   4   5
ENDBRANCH   3   4
ENDBRANCH   2   3
ENDBRANCH   1   2
BRANCH   1  17
ATOM     17  C   UNL     1     151.960 157.660 156.509  1.00  0.00     0.000 C 
BRANCH  17  18
ATOM     18  C   UNL     1     152.821 157.268 155.296  1.00  0.00     0.000 C 
BRANCH  18  19
ATOM     19  C   UNL     1     152.548 155.827 154.829  1.00  0.00     0.000 C 
BRANCH  19  20
ATOM     20  C   UNL     1     151.964 155.759 153.407  1.00  0.00     0.000 C 
BRANCH  20  21
ATOM     21  C   UNL     1     150.657 156.553 153.199  1.00  0.00     0.000 C 
BRANCH  21  22
ATOM     22  C   UNL     1     150.743 157.709 152.185  1.00  0.00    -0.000 C 
BRANCH  22  23
ATOM     23  C   UNL     1     151.055 157.289 150.735  1.00  0.00    -0.000 C 
BRANCH  23  24
ATOM     24  C   UNL     1     152.188 158.104 150.073  1.00  0.00    -0.000 C 
BRANCH  24  25
ATOM     25  C   UNL     1     153.481 157.290 149.899  1.00  0.00    -0.000 C 
BRANCH  25  26
ATOM     26  C   UNL     1     154.314 157.220 151.190  1.00  0.00    -0.000 C 
BRANCH  26  27
ATOM     27  C   UNL     1     154.319 158.550 151.963  1.00  0.00    -0.000 C 
BRANCH  27  28
ATOM     28  C   UNL     1     155.495 158.657 152.952  1.00  0.00    -0.000 C 
BRANCH  28  29
ATOM     29  C   UNL     1     156.326 157.372 153.105  1.00  0.00    -0.003 C 
ATOM     30  C   UNL     1     156.308 156.814 154.527  1.00  0.00     0.004 C 
ENDBRANCH  28  29
ENDBRANCH  27  28
ENDBRANCH  26  27
ENDBRANCH  25  26
ENDBRANCH  24  25
ENDBRANCH  23  24
ENDBRANCH  22  23
ENDBRANCH  21  22
ENDBRANCH  20  21
ENDBRANCH  19  20
ENDBRANCH  18  19
ENDBRANCH  17  18
ENDBRANCH   1  17
TORSDOF 26
ENDMDL
MODEL 4
REMARK VINA RESULT:    -3.988      3.088      6.755
REMARK INTER + INTRA:         -13.198
REMARK INTER:                  -7.905
REMARK INTRA:                  -5.293
REMARK UNBOUND:                -3.149
REMARK SMILES CCCCCCCCCCCCCCCCCCCCCCCCCCCC(=O)[O-]
REMARK SMILES IDX 15 1 16 2 17 3 18 4 19 5 20 6 21 7 22 8 23 9 24 10 25 11
REMARK SMILES IDX 26 12 27 13 28 14 29 15 30 16 14 17 13 18 12 19 11 20 10 21
REMARK SMILES IDX 9 22 8 23 7 24 6 25 5 26 4 27 3 28 2 29 1 30
REMARK H PARENT
REMARK Flexibility Score: inf
ROOT
ATOM      1  C   UNL     1     153.443 151.170 157.792  1.00  0.00     0.000 C 
ENDROOT
BRANCH   1   2
ATOM      2  C   UNL     1     154.824 151.760 157.435  1.00  0.00     0.000 C 
BRANCH   2   3
ATOM      3  C   UNL     1     154.825 153.289 157.263  1.00  0.00     0.000 C 
BRANCH   3   4
ATOM      4  C   UNL     1     155.352 154.031 158.502  1.00  0.00     0.000 C 
BRANCH   4   5
ATOM      5  C   UNL     1     154.840 155.482 158.596  1.00  0.00     0.000 C 
BRANCH   5   6
ATOM      6  C   UNL     1     155.918 156.546 158.883  1.00  0.00     0.000 C 
BRANCH   6   7
ATOM      7  C   UNL     1     155.841 157.813 158.007  1.00  0.00     0.000 C 
BRANCH   7   8
ATOM      8  C   UNL     1     155.903 157.558 156.489  1.00  0.00     0.000 C 
BRANCH   8   9
ATOM      9  C   UNL     1     155.347 158.735 155.669  1.00  0.00     0.000 C 
BRANCH   9  10
ATOM     10  C   UNL     1     154.945 158.338 154.237  1.00  0.00     0.000 C 
BRANCH  10  11
ATOM     11  C   UNL     1     153.428 158.176 153.995  1.00  0.00     0.000 C 
BRANCH  11  12
ATOM     12  C   UNL     1     152.961 156.739 153.699  1.00  0.00     0.006 C 
BRANCH  12  13
ATOM     13  C   UNL     1     151.605 156.688 152.983  1.00  0.00     0.053 C 
BRANCH  13  14
ATOM     14  C   UNL     1     151.805 156.518 151.510  1.00  0.00     0.041 C 
ATOM     15  O   UNL     1     150.816 156.518 150.731  1.00  0.00    -0.550 OA
ATOM     16  O   UNL     1     153.091 156.427 150.990  1.00  0.00    -0.550 OA
ENDBRANCH  13  14
ENDBRANCH  12  13
ENDBRANCH  11  12
ENDBRANCH  10  11
ENDBRANCH   9  10
ENDBRANCH   8   9
ENDBRANCH   7   8
ENDBRANCH   6   7
ENDBRANCH   5   6
ENDBRANCH   4   5
ENDBRANCH   3   4
ENDBRANCH   2   3
ENDBRANCH   1   2
BRANCH   1  17
ATOM     17  C   UNL     1     153.235 151.053 159.312  1.00  0.00     0.000 C 
BRANCH  17  18
ATOM     18  C   UNL     1     152.367 152.191 159.876  1.00  0.00     0.000 C 
BRANCH  18  19
ATOM     19  C   UNL     1     151.388 152.751 158.829  1.00  0.00     0.000 C 
BRANCH  19  20
ATOM     20  C   UNL     1     151.427 154.287 158.733  1.00  0.00     0.000 C 
BRANCH  20  21
ATOM     21  C   UNL     1     151.437 154.851 157.296  1.00  0.00     0.000 C 
BRANCH  21  22
ATOM     22  C   UNL     1     150.307 155.846 156.973  1.00  0.00    -0.000 C 
BRANCH  22  23
ATOM     23  C   UNL     1     150.763 157.294 156.708  1.00  0.00    -0.000 C 
BRANCH  23  24
ATOM     24  C   UNL     1     152.175 157.618 157.245  1.00  0.00    -0.000 C 
BRANCH  24  25
ATOM     25  C   UNL     1     152.158 158.680 158.357  1.00  0.00    -0.000 C 
BRANCH  25  26
ATOM     26  C   UNL     1     152.305 158.067 159.760  1.00  0.00    -0.000 C 
BRANCH  26  27
ATOM     27  C   UNL     1     151.071 158.315 160.646  1.00  0.00    -0.000 C 
BRANCH  27  28
ATOM     28  C   UNL     1     150.099 157.121 160.656  1.00  0.00    -0.000 C 
BRANCH  28  29
ATOM     29  C   UNL     1     148.759 157.377 159.942  1.00  0.00    -0.003 C 
ATOM     30  C   UNL     1     148.581 158.831 159.509  1.00  0.00     0.004 C 
ENDBRANCH  28  29
ENDBRANCH  27  28
ENDBRANCH  26  27
ENDBRANCH  25  26
ENDBRANCH  24  25
ENDBRANCH  23  24
ENDBRANCH  22  23
ENDBRANCH  21  22
ENDBRANCH  20  21
ENDBRANCH  19  20
ENDBRANCH  18  19
ENDBRANCH  17  18
ENDBRANCH   1  17
TORSDOF 26
ENDMDL
MODEL 5
REMARK VINA RESULT:    -3.950      4.899      9.359
REMARK INTER + INTRA:         -13.102
REMARK INTER:                  -8.364
REMARK INTRA:                  -4.739
REMARK UNBOUND:                -3.149
REMARK SMILES CCCCCCCCCCCCCCCCCCCCCCCCCCCC(=O)[O-]
REMARK SMILES IDX 15 1 16 2 17 3 18 4 19 5 20 6 21 7 22 8 23 9 24 10 25 11
REMARK SMILES IDX 26 12 27 13 28 14 29 15 30 16 14 17 13 18 12 19 11 20 10 21
REMARK SMILES IDX 9 22 8 23 7 24 6 25 5 26 4 27 3 28 2 29 1 30
REMARK H PARENT
REMARK Flexibility Score: inf
ROOT
ATOM      1  C   UNL     1     151.083 153.276 158.334  1.00  0.00     0.000 C 
ENDROOT
BRANCH   1   2
ATOM      2  C   UNL     1     151.733 152.892 159.680  1.00  0.00     0.000 C 
BRANCH   2   3
ATOM      3  C   UNL     1     152.798 151.788 159.568  1.00  0.00     0.000 C 
BRANCH   3   4
ATOM      4  C   UNL     1     152.942 151.236 158.140  1.00  0.00     0.000 C 
BRANCH   4   5
ATOM      5  C   UNL     1     154.320 151.532 157.518  1.00  0.00     0.000 C 
BRANCH   5   6
ATOM      6  C   UNL     1     154.626 153.022 157.262  1.00  0.00     0.000 C 
BRANCH   6   7
ATOM      7  C   UNL     1     155.774 153.611 158.106  1.00  0.00     0.000 C 
BRANCH   7   8
ATOM      8  C   UNL     1     155.500 155.010 158.690  1.00  0.00     0.000 C 
BRANCH   8   9
ATOM      9  C   UNL     1     154.045 155.463 158.478  1.00  0.00     0.000 C 
BRANCH   9  10
ATOM     10  C   UNL     1     153.780 156.897 158.975  1.00  0.00     0.000 C 
BRANCH  10  11
ATOM     11  C   UNL     1     152.916 157.773 158.042  1.00  0.00     0.000 C 
BRANCH  11  12
ATOM     12  C   UNL     1     151.807 158.580 158.741  1.00  0.00     0.006 C 
BRANCH  12  13
ATOM     13  C   UNL     1     151.441 158.018 160.121  1.00  0.00     0.053 C 
BRANCH  13  14
ATOM     14  C   UNL     1     150.001 158.293 160.425  1.00  0.00     0.041 C 
ATOM     15  O   UNL     1     149.653 159.409 160.894  1.00  0.00    -0.550 OA
ATOM     16  O   UNL     1     149.034 157.340 160.127  1.00  0.00    -0.550 OA
ENDBRANCH  13  14
ENDBRANCH  12  13
ENDBRANCH  11  12
ENDBRANCH  10  11
ENDBRANCH   9  10
ENDBRANCH   8   9
ENDBRANCH   7   8
ENDBRANCH   6   7
ENDBRANCH   5   6
ENDBRANCH   4   5
ENDBRANCH   3   4
ENDBRANCH   2   3
ENDBRANCH   1   2
BRANCH   1  17
ATOM     17  C   UNL     1     150.710 154.768 158.271  1.00  0.00     0.000 C 
BRANCH  17  18
ATOM     18  C   UNL     1     149.425 155.019 157.464  1.00  0.00     0.000 C 
BRANCH  18  19
ATOM     19  C   UNL     1     148.886 153.734 156.810  1.00  0.00     0.000 C 
BRANCH  19  20
ATOM     20  C   UNL     1     149.030 153.735 155.278  1.00  0.00     0.000 C 
BRANCH  20  21
ATOM     21  C   UNL     1     148.175 154.789 154.543  1.00  0.00     0.000 C 
BRANCH  21  22
ATOM     22  C   UNL     1     148.855 155.462 153.336  1.00  0.00    -0.000 C 
BRANCH  22  23
ATOM     23  C   UNL     1     149.932 156.507 153.687  1.00  0.00    -0.000 C 
BRANCH  23  24
ATOM     24  C   UNL     1     151.380 155.975 153.590  1.00  0.00    -0.000 C 
BRANCH  24  25
ATOM     25  C   UNL     1     152.135 156.061 154.927  1.00  0.00    -0.000 C 
BRANCH  25  26
ATOM     26  C   UNL     1     153.600 155.610 154.808  1.00  0.00    -0.000 C 
BRANCH  26  27
ATOM     27  C   UNL     1     154.569 156.791 154.618  1.00  0.00    -0.000 C 
BRANCH  27  28
ATOM     28  C   UNL     1     155.857 156.642 155.448  1.00  0.00    -0.000 C 
BRANCH  28  29
ATOM     29  C   UNL     1     157.133 157.145 154.751  1.00  0.00    -0.003 C 
ATOM     30  C   UNL     1     156.961 157.323 153.243  1.00  0.00     0.004 C 
ENDBRANCH  28  29
ENDBRANCH  27  28
ENDBRANCH  26  27
ENDBRANCH  25  26
ENDBRANCH  24  25
ENDBRANCH  23  24
ENDBRANCH  22  23
ENDBRANCH  21  22
ENDBRANCH  20  21
ENDBRANCH  19  20
ENDBRANCH  18  19
ENDBRANCH  17  18
ENDBRANCH   1  17
TORSDOF 26
ENDMDL
MODEL 6
REMARK VINA RESULT:    -3.913      5.869     10.394
REMARK INTER + INTRA:         -13.010
REMARK INTER:                  -8.005
REMARK INTRA:                  -5.005
REMARK UNBOUND:                -3.149
REMARK SMILES CCCCCCCCCCCCCCCCCCCCCCCCCCCC(=O)[O-]
REMARK SMILES IDX 15 1 16 2 17 3 18 4 19 5 20 6 21 7 22 8 23 9 24 10 25 11
REMARK SMILES IDX 26 12 27 13 28 14 29 15 30 16 14 17 13 18 12 19 11 20 10 21
REMARK SMILES IDX 9 22 8 23 7 24 6 25 5 26 4 27 3 28 2 29 1 30
REMARK H PARENT
REMARK Flexibility Score: inf
ROOT
ATOM      1  C   UNL     1     151.815 152.966 159.872  1.00  0.00     0.000 C 
ENDROOT
BRANCH   1   2
ATOM      2  C   UNL     1     152.789 151.793 160.116  1.00  0.00     0.000 C 
BRANCH   2   3
ATOM      3  C   UNL     1     153.232 151.071 158.831  1.00  0.00     0.000 C 
BRANCH   3   4
ATOM      4  C   UNL     1     154.541 151.629 158.250  1.00  0.00     0.000 C 
BRANCH   4   5
ATOM      5  C   UNL     1     154.322 152.493 156.994  1.00  0.00     0.000 C 
BRANCH   5   6
ATOM      6  C   UNL     1     154.716 153.977 157.133  1.00  0.00     0.000 C 
BRANCH   6   7
ATOM      7  C   UNL     1     155.257 154.387 158.518  1.00  0.00     0.000 C 
BRANCH   7   8
ATOM      8  C   UNL     1     155.103 155.881 158.859  1.00  0.00     0.000 C 
BRANCH   8   9
ATOM      9  C   UNL     1     156.098 156.768 158.091  1.00  0.00     0.000 C 
BRANCH   9  10
ATOM     10  C   UNL     1     156.412 158.092 158.814  1.00  0.00     0.000 C 
BRANCH  10  11
ATOM     11  C   UNL     1     155.326 158.584 159.795  1.00  0.00     0.000 C 
BRANCH  11  12
ATOM     12  C   UNL     1     155.785 158.742 161.256  1.00  0.00     0.006 C 
BRANCH  12  13
ATOM     13  C   UNL     1     157.220 158.248 161.487  1.00  0.00     0.053 C 
BRANCH  13  14
ATOM     14  C   UNL     1     158.082 159.373 161.970  1.00  0.00     0.041 C 
ATOM     15  O   UNL     1     158.839 159.981 161.169  1.00  0.00    -0.550 OA
ATOM     16  O   UNL     1     157.997 159.794 163.292  1.00  0.00    -0.550 OA
ENDBRANCH  13  14
ENDBRANCH  12  13
ENDBRANCH  11  12
ENDBRANCH  10  11
ENDBRANCH   9  10
ENDBRANCH   8   9
ENDBRANCH   7   8
ENDBRANCH   6   7
ENDBRANCH   5   6
ENDBRANCH   4   5
ENDBRANCH   3   4
ENDBRANCH   2   3
ENDBRANCH   1   2
BRANCH   1  17
ATOM     17  C   UNL     1     151.095 152.852 158.517  1.00  0.00     0.000 C 
BRANCH  17  18
ATOM     18  C   UNL     1     150.965 154.209 157.804  1.00  0.00     0.000 C 
BRANCH  18  19
ATOM     19  C   UNL     1     151.495 155.372 158.662  1.00  0.00     0.000 C 
BRANCH  19  20
ATOM     20  C   UNL     1     151.033 156.750 158.157  1.00  0.00     0.000 C 
BRANCH  20  21
ATOM     21  C   UNL     1     152.164 157.775 157.931  1.00  0.00     0.000 C 
BRANCH  21  22
ATOM     22  C   UNL     1     152.801 157.755 156.529  1.00  0.00    -0.000 C 
BRANCH  22  23
ATOM     23  C   UNL     1     151.920 157.153 155.416  1.00  0.00    -0.000 C 
BRANCH  23  24
ATOM     24  C   UNL     1     152.498 155.869 154.781  1.00  0.00    -0.000 C 
BRANCH  24  25
ATOM     25  C   UNL     1     152.552 155.939 153.245  1.00  0.00    -0.000 C 
BRANCH  25  26
ATOM     26  C   UNL     1     153.965 156.238 152.717  1.00  0.00    -0.000 C 
BRANCH  26  27
ATOM     27  C   UNL     1     154.279 157.744 152.686  1.00  0.00    -0.000 C 
BRANCH  27  28
ATOM     28  C   UNL     1     155.343 158.150 153.723  1.00  0.00    -0.000 C 
BRANCH  28  29
ATOM     29  C   UNL     1     156.033 156.971 154.432  1.00  0.00    -0.003 C 
ATOM     30  C   UNL     1     157.516 157.220 154.700  1.00  0.00     0.004 C 
ENDBRANCH  28  29
ENDBRANCH  27  28
ENDBRANCH  26  27
ENDBRANCH  25  26
ENDBRANCH  24  25
ENDBRANCH  23  24
ENDBRANCH  22  23
ENDBRANCH  21  22
ENDBRANCH  20  21
ENDBRANCH  19  20
ENDBRANCH  18  19
ENDBRANCH  17  18
ENDBRANCH   1  17
TORSDOF 26
ENDMDL
MODEL 7
REMARK VINA RESULT:    -3.898      6.461     10.281
REMARK INTER + INTRA:         -12.972
REMARK INTER:                  -8.151
REMARK INTRA:                  -4.821
REMARK UNBOUND:                -3.149
REMARK SMILES CCCCCCCCCCCCCCCCCCCCCCCCCCCC(=O)[O-]
REMARK SMILES IDX 15 1 16 2 17 3 18 4 19 5 20 6 21 7 22 8 23 9 24 10 25 11
REMARK SMILES IDX 26 12 27 13 28 14 29 15 30 16 14 17 13 18 12 19 11 20 10 21
REMARK SMILES IDX 9 22 8 23 7 24 6 25 5 26 4 27 3 28 2 29 1 30
REMARK H PARENT
REMARK Flexibility Score: inf
ROOT
ATOM      1  C   UNL     1     152.032 152.585 159.824  1.00  0.00     0.000 C 
ENDROOT
BRANCH   1   2
ATOM      2  C   UNL     1     151.307 153.312 158.671  1.00  0.00     0.000 C 
BRANCH   2   3
ATOM      3  C   UNL     1     151.565 154.828 158.629  1.00  0.00     0.000 C 
BRANCH   3   4
ATOM      4  C   UNL     1     150.282 155.660 158.790  1.00  0.00     0.000 C 
BRANCH   4   5
ATOM      5  C   UNL     1     150.420 156.782 159.837  1.00  0.00     0.000 C 
BRANCH   5   6
ATOM      6  C   UNL     1     150.902 158.141 159.293  1.00  0.00     0.000 C 
BRANCH   6   7
ATOM      7  C   UNL     1     151.170 159.221 160.361  1.00  0.00     0.000 C 
BRANCH   7   8
ATOM      8  C   UNL     1     152.278 158.872 161.373  1.00  0.00     0.000 C 
BRANCH   8   9
ATOM      9  C   UNL     1     153.581 159.648 161.113  1.00  0.00     0.000 C 
BRANCH   9  10
ATOM     10  C   UNL     1     154.649 159.419 162.199  1.00  0.00     0.000 C 
BRANCH  10  11
ATOM     11  C   UNL     1     156.069 159.111 161.677  1.00  0.00     0.000 C 
BRANCH  11  12
ATOM     12  C   UNL     1     156.777 160.282 160.972  1.00  0.00     0.006 C 
BRANCH  12  13
ATOM     13  C   UNL     1     157.487 159.859 159.679  1.00  0.00     0.053 C 
BRANCH  13  14
ATOM     14  C   UNL     1     158.819 159.254 159.997  1.00  0.00     0.041 C 
ATOM     15  O   UNL     1     159.158 158.158 159.477  1.00  0.00    -0.550 OA
ATOM     16  O   UNL     1     159.714 159.935 160.813  1.00  0.00    -0.550 OA
ENDBRANCH  13  14
ENDBRANCH  12  13
ENDBRANCH  11  12
ENDBRANCH  10  11
ENDBRANCH   9  10
ENDBRANCH   8   9
ENDBRANCH   7   8
ENDBRANCH   6   7
ENDBRANCH   5   6
ENDBRANCH   4   5
ENDBRANCH   3   4
ENDBRANCH   2   3
ENDBRANCH   1   2
BRANCH   1  17
ATOM     17  C   UNL     1     152.935 151.446 159.317  1.00  0.00     0.000 C 
BRANCH  17  18
ATOM     18  C   UNL     1     153.209 151.541 157.806  1.00  0.00     0.000 C 
BRANCH  18  19
ATOM     19  C   UNL     1     154.672 151.908 157.501  1.00  0.00     0.000 C 
BRANCH  19  20
ATOM     20  C   UNL     1     154.885 153.421 157.317  1.00  0.00     0.000 C 
BRANCH  20  21
ATOM     21  C   UNL     1     155.103 154.213 158.623  1.00  0.00     0.000 C 
BRANCH  21  22
ATOM     22  C   UNL     1     156.326 155.149 158.628  1.00  0.00    -0.000 C 
BRANCH  22  23
ATOM     23  C   UNL     1     156.024 156.623 158.964  1.00  0.00    -0.000 C 
BRANCH  23  24
ATOM     24  C   UNL     1     154.520 156.978 158.939  1.00  0.00    -0.000 C 
BRANCH  24  25
ATOM     25  C   UNL     1     154.121 157.783 157.691  1.00  0.00    -0.000 C 
BRANCH  25  26
ATOM     26  C   UNL     1     153.605 156.889 156.552  1.00  0.00    -0.000 C 
BRANCH  26  27
ATOM     27  C   UNL     1     154.354 157.124 155.228  1.00  0.00    -0.000 C 
BRANCH  27  28
ATOM     28  C   UNL     1     155.725 156.423 155.190  1.00  0.00    -0.000 C 
BRANCH  28  29
ATOM     29  C   UNL     1     156.918 157.357 154.920  1.00  0.00    -0.003 C 
ATOM     30  C   UNL     1     157.877 157.458 156.105  1.00  0.00     0.004 C 
ENDBRANCH  28  29
ENDBRANCH  27  28
ENDBRANCH  26  27
ENDBRANCH  25  26
ENDBRANCH  24  25
ENDBRANCH  23  24
ENDBRANCH  22  23
ENDBRANCH  21  22
ENDBRANCH  20  21
ENDBRANCH  19  20
ENDBRANCH  18  19
ENDBRANCH  17  18
ENDBRANCH   1  17
TORSDOF 26
ENDMDL
MODEL 8
REMARK VINA RESULT:    -3.890      3.034      5.835
REMARK INTER + INTRA:         -12.953
REMARK INTER:                  -8.332
REMARK INTRA:                  -4.621
REMARK UNBOUND:                -3.149
REMARK SMILES CCCCCCCCCCCCCCCCCCCCCCCCCCCC(=O)[O-]
REMARK SMILES IDX 15 1 16 2 17 3 18 4 19 5 20 6 21 7 22 8 23 9 24 10 25 11
REMARK SMILES IDX 26 12 27 13 28 14 29 15 30 16 14 17 13 18 12 19 11 20 10 21
REMARK SMILES IDX 9 22 8 23 7 24 6 25 5 26 4 27 3 28 2 29 1 30
REMARK H PARENT
REMARK Flexibility Score: inf
ROOT
ATOM      1  C   UNL     1     151.624 152.747 159.729  1.00  0.00     0.000 C 
ENDROOT
BRANCH   1   2
ATOM      2  C   UNL     1     151.632 154.170 159.133  1.00  0.00     0.000 C 
BRANCH   2   3
ATOM      3  C   UNL     1     150.740 154.331 157.889  1.00  0.00     0.000 C 
BRANCH   3   4
ATOM      4  C   UNL     1     150.021 153.031 157.494  1.00  0.00     0.000 C 
BRANCH   4   5
ATOM      5  C   UNL     1     148.628 153.276 156.883  1.00  0.00     0.000 C 
BRANCH   5   6
ATOM      6  C   UNL     1     148.007 154.654 157.183  1.00  0.00     0.000 C 
BRANCH   6   7
ATOM      7  C   UNL     1     147.949 155.624 155.985  1.00  0.00     0.000 C 
BRANCH   7   8
ATOM      8  C   UNL     1     147.875 154.947 154.603  1.00  0.00     0.000 C 
BRANCH   8   9
ATOM      9  C   UNL     1     149.058 155.326 153.696  1.00  0.00     0.000 C 
BRANCH   9  10
ATOM     10  C   UNL     1     150.401 155.388 154.446  1.00  0.00     0.000 C 
BRANCH  10  11
ATOM     11  C   UNL     1     151.584 155.969 153.642  1.00  0.00     0.000 C 
BRANCH  11  12
ATOM     12  C   UNL     1     151.251 156.393 152.200  1.00  0.00     0.006 C 
BRANCH  12  13
ATOM     13  C   UNL     1     152.057 157.613 151.735  1.00  0.00     0.053 C 
BRANCH  13  14
ATOM     14  C   UNL     1     152.551 157.405 150.338  1.00  0.00     0.041 C 
ATOM     15  O   UNL     1     153.419 158.176 149.850  1.00  0.00    -0.550 OA
ATOM     16  O   UNL     1     152.101 156.318 149.598  1.00  0.00    -0.550 OA
ENDBRANCH  13  14
ENDBRANCH  12  13
ENDBRANCH  11  12
ENDBRANCH  10  11
ENDBRANCH   9  10
ENDBRANCH   8   9
ENDBRANCH   7   8
ENDBRANCH   6   7
ENDBRANCH   5   6
ENDBRANCH   4   5
ENDBRANCH   3   4
ENDBRANCH   2   3
ENDBRANCH   1   2
BRANCH   1  17
ATOM     17  C   UNL     1     153.007 152.076 159.653  1.00  0.00     0.000 C 
BRANCH  17  18
ATOM     18  C   UNL     1     153.369 151.636 158.224  1.00  0.00     0.000 C 
BRANCH  18  19
ATOM     19  C   UNL     1     154.704 152.237 157.749  1.00  0.00     0.000 C 
BRANCH  19  20
ATOM     20  C   UNL     1     155.123 153.478 158.557  1.00  0.00     0.000 C 
BRANCH  20  21
ATOM     21  C   UNL     1     155.324 154.762 157.724  1.00  0.00     0.000 C 
BRANCH  21  22
ATOM     22  C   UNL     1     154.255 155.021 156.647  1.00  0.00    -0.000 C 
BRANCH  22  23
ATOM     23  C   UNL     1     153.609 156.421 156.687  1.00  0.00    -0.000 C 
BRANCH  23  24
ATOM     24  C   UNL     1     154.144 157.329 157.817  1.00  0.00    -0.000 C 
BRANCH  24  25
ATOM     25  C   UNL     1     153.137 157.500 158.967  1.00  0.00    -0.000 C 
BRANCH  25  26
ATOM     26  C   UNL     1     151.737 157.898 158.471  1.00  0.00    -0.000 C 
BRANCH  26  27
ATOM     27  C   UNL     1     150.879 158.543 159.574  1.00  0.00    -0.000 C 
BRANCH  27  28
ATOM     28  C   UNL     1     150.317 157.510 160.568  1.00  0.00    -0.000 C 
BRANCH  28  29
ATOM     29  C   UNL     1     149.009 156.834 160.122  1.00  0.00    -0.003 C 
ATOM     30  C   UNL     1     148.097 157.763 159.322  1.00  0.00     0.004 C 
ENDBRANCH  28  29
ENDBRANCH  27  28
ENDBRANCH  26  27
ENDBRANCH  25  26
ENDBRANCH  24  25
ENDBRANCH  23  24
ENDBRANCH  22  23
ENDBRANCH  21  22
ENDBRANCH  20  21
ENDBRANCH  19  20
ENDBRANCH  18  19
ENDBRANCH  17  18
ENDBRANCH   1  17
TORSDOF 26
ENDMDL
MODEL 9
REMARK VINA RESULT:    -3.887      5.780      9.774
REMARK INTER + INTRA:         -12.945
REMARK INTER:                  -8.331
REMARK INTRA:                  -4.614
REMARK UNBOUND:                -3.149
REMARK SMILES CCCCCCCCCCCCCCCCCCCCCCCCCCCC(=O)[O-]
REMARK SMILES IDX 15 1 16 2 17 3 18 4 19 5 20 6 21 7 22 8 23 9 24 10 25 11
REMARK SMILES IDX 26 12 27 13 28 14 29 15 30 16 14 17 13 18 12 19 11 20 10 21
REMARK SMILES IDX 9 22 8 23 7 24 6 25 5 26 4 27 3 28 2 29 1 30
REMARK H PARENT
REMARK Flexibility Score: inf
ROOT
ATOM      1  C   UNL     1     151.038 152.728 158.095  1.00  0.00     0.000 C 
ENDROOT
BRANCH   1   2
ATOM      2  C   UNL     1     150.528 153.994 157.375  1.00  0.00     0.000 C 
BRANCH   2   3
ATOM      3  C   UNL     1     151.383 155.247 157.633  1.00  0.00     0.000 C 
BRANCH   3   4
ATOM      4  C   UNL     1     150.562 156.438 158.153  1.00  0.00     0.000 C 
BRANCH   4   5
ATOM      5  C   UNL     1     151.234 157.797 157.881  1.00  0.00     0.000 C 
BRANCH   5   6
ATOM      6  C   UNL     1     152.621 157.727 157.211  1.00  0.00     0.000 C 
BRANCH   6   7
ATOM      7  C   UNL     1     153.777 158.345 158.024  1.00  0.00     0.000 C 
BRANCH   7   8
ATOM      8  C   UNL     1     154.054 157.665 159.378  1.00  0.00     0.000 C 
BRANCH   8   9
ATOM      9  C   UNL     1     155.353 158.164 160.035  1.00  0.00     0.000 C 
BRANCH   9  10
ATOM     10  C   UNL     1     156.589 158.002 159.131  1.00  0.00     0.000 C 
BRANCH  10  11
ATOM     11  C   UNL     1     157.350 156.667 159.281  1.00  0.00     0.000 C 
BRANCH  11  12
ATOM     12  C   UNL     1     158.884 156.789 159.337  1.00  0.00     0.006 C 
BRANCH  12  13
ATOM     13  C   UNL     1     159.434 156.744 160.769  1.00  0.00     0.053 C 
BRANCH  13  14
ATOM     14  C   UNL     1     159.579 158.132 161.311  1.00  0.00     0.041 C 
ATOM     15  O   UNL     1     159.890 159.082 160.546  1.00  0.00    -0.550 OA
ATOM     16  O   UNL     1     159.303 158.386 162.649  1.00  0.00    -0.550 OA
ENDBRANCH  13  14
ENDBRANCH  12  13
ENDBRANCH  11  12
ENDBRANCH  10  11
ENDBRANCH   9  10
ENDBRANCH   8   9
ENDBRANCH   7   8
ENDBRANCH   6   7
ENDBRANCH   5   6
ENDBRANCH   4   5
ENDBRANCH   3   4
ENDBRANCH   2   3
ENDBRANCH   1   2
BRANCH   1  17
ATOM     17  C   UNL     1     151.724 153.056 159.433  1.00  0.00     0.000 C 
BRANCH  17  18
ATOM     18  C   UNL     1     152.796 152.020 159.814  1.00  0.00     0.000 C 
BRANCH  18  19
ATOM     19  C   UNL     1     153.121 151.063 158.652  1.00  0.00     0.000 C 
BRANCH  19  20
ATOM     20  C   UNL     1     154.504 151.322 158.031  1.00  0.00     0.000 C 
BRANCH  20  21
ATOM     21  C   UNL     1     154.605 152.598 157.168  1.00  0.00     0.000 C 
BRANCH  21  22
ATOM     22  C   UNL     1     155.139 153.845 157.898  1.00  0.00    -0.000 C 
BRANCH  22  23
ATOM     23  C   UNL     1     155.206 155.127 157.044  1.00  0.00    -0.000 C 
BRANCH  23  24
ATOM     24  C   UNL     1     154.530 154.997 155.660  1.00  0.00    -0.000 C 
BRANCH  24  25
ATOM     25  C   UNL     1     154.949 156.114 154.689  1.00  0.00    -0.000 C 
BRANCH  25  26
ATOM     26  C   UNL     1     153.786 156.595 153.806  1.00  0.00    -0.000 C 
BRANCH  26  27
ATOM     27  C   UNL     1     152.513 155.751 153.992  1.00  0.00    -0.000 C 
BRANCH  27  28
ATOM     28  C   UNL     1     151.263 156.421 153.391  1.00  0.00    -0.000 C 
BRANCH  28  29
ATOM     29  C   UNL     1     150.015 156.379 154.291  1.00  0.00    -0.003 C 
ATOM     30  C   UNL     1     149.204 155.095 154.129  1.00  0.00     0.004 C 
ENDBRANCH  28  29
ENDBRANCH  27  28
ENDBRANCH  26  27
ENDBRANCH  25  26
ENDBRANCH  24  25
ENDBRANCH  23  24
ENDBRANCH  22  23
ENDBRANCH  21  22
ENDBRANCH  20  21
ENDBRANCH  19  20
ENDBRANCH  18  19
ENDBRANCH  17  18
ENDBRANCH   1  17
TORSDOF 26
ENDMDL
