MODEL 1
REMARK VINA RESULT:    -3.814      0.000      0.000
REMARK INTER + INTRA:          -6.413
REMARK INTER:                  -5.821
REMARK INTRA:                  -0.592
REMARK UNBOUND:                -0.592
REMARK SMILES CC1=CCC[C@@H](C)C(=O)C[C@H](C(C)C)C(=O)C1
REMARK SMILES IDX 8 1 9 2 6 3 7 4 5 5 4 6 3 7 2 8 1 9 10 11 11 12 15 13 16 14
REMARK SMILES IDX 17 15 12 17 13 18 14 19
REMARK H PARENT
REMARK Flexibility Score: 70.00
ROOT
ATOM      1  C   UNL     1       7.722 -17.720  23.558  1.00  0.00     0.136 C 
ATOM      2  O   UNL     1       7.269 -16.707  24.068  1.00  0.00    -0.299 OA
ENDROOT
BRANCH   1   3
ATOM      3  C   UNL     1       6.933 -19.014  23.688  1.00  0.00     0.053 C 
ATOM      4  C   UNL     1       7.268 -19.738  24.998  1.00  0.00     0.016 C 
BRANCH   3   5
ATOM      5  C   UNL     1       7.144 -19.936  22.471  1.00  0.00     0.015 C 
BRANCH   5   6
ATOM      6  C   UNL     1       7.875 -21.229  22.873  1.00  0.00     0.028 C 
BRANCH   6   7
ATOM      7  C   UNL     1       8.869 -21.719  21.848  1.00  0.00    -0.028 C 
ATOM      8  C   UNL     1      10.184 -21.389  21.773  1.00  0.00    -0.070 CG0
ATOM      9  C   UNL     1      10.941 -21.868  20.556  1.00  0.00     0.039 C 
ATOM     10  G   UNL     1      10.973 -20.683  22.873  1.00  0.00     0.000 G0
ENDBRANCH   6   7
ENDBRANCH   5   6
ENDBRANCH   3   5
ENDBRANCH   1   3
BRANCH   1  11
ATOM     11  C   UNL     1       9.061 -17.662  22.847  1.00  0.00     0.087 C 
BRANCH  11  12
ATOM     12  C   UNL     1      10.263 -18.294  23.608  1.00  0.00     0.066 C 
BRANCH  12  13
ATOM     13  C   UNL     1      11.127 -19.200  22.738  1.00  0.00     0.140 C 
ATOM     14  O   UNL     1      11.991 -18.730  22.012  1.00  0.00    -0.299 OA
BRANCH  13  15
ATOM     15  C   UNL     1      10.996 -20.697  22.879  1.00  0.00     0.106 CG0
ATOM     16  G   UNL     1      10.189 -21.404  21.793  1.00  0.00     0.000 G0
ENDBRANCH  13  15
ENDBRANCH  12  13
BRANCH  12  17
ATOM     17  C   UNL     1      11.050 -17.292  24.515  1.00  0.00    -0.006 C 
ATOM     18  C   UNL     1      10.998 -15.860  23.957  1.00  0.00     0.008 C 
ATOM     19  C   UNL     1      10.643 -17.307  25.996  1.00  0.00     0.008 C 
ENDBRANCH  12  17
ENDBRANCH  11  12
ENDBRANCH   1  11
TORSDOF 1
ENDMDL
MODEL 2
REMARK VINA RESULT:    -3.687      2.164      4.005
REMARK INTER + INTRA:          -6.218
REMARK INTER:                  -5.963
REMARK INTRA:                  -0.255
REMARK UNBOUND:                -0.592
REMARK SMILES CC1=CCC[C@@H](C)C(=O)C[C@H](C(C)C)C(=O)C1
REMARK SMILES IDX 8 1 9 2 6 3 7 4 5 5 4 6 3 7 2 8 1 9 10 11 11 12 15 13 16 14
REMARK SMILES IDX 17 15 12 17 13 18 14 19
REMARK H PARENT
REMARK Flexibility Score: 70.00
ROOT
ATOM      1  C   UNL     1       9.653 -19.368  21.806  1.00  0.00     0.136 C 
ATOM      2  O   UNL     1       9.537 -19.201  20.602  1.00  0.00    -0.299 OA
ENDROOT
BRANCH   1   3
ATOM      3  C   UNL     1       9.432 -20.764  22.369  1.00  0.00     0.053 C 
ATOM      4  C   UNL     1      10.615 -21.685  22.047  1.00  0.00     0.016 C 
BRANCH   3   5
ATOM      5  C   UNL     1       8.102 -21.372  21.879  1.00  0.00     0.015 C 
BRANCH   5   6
ATOM      6  C   UNL     1       6.896 -20.643  22.498  1.00  0.00     0.028 C 
BRANCH   6   7
ATOM      7  C   UNL     1       6.717 -20.893  23.975  1.00  0.00    -0.028 C 
ATOM      8  C   UNL     1       6.844 -19.979  24.972  1.00  0.00    -0.070 CG0
ATOM      9  C   UNL     1       6.789 -20.500  26.388  1.00  0.00     0.039 C 
ATOM     10  G   UNL     1       6.917 -18.468  24.769  1.00  0.00     0.000 G0
ENDBRANCH   6   7
ENDBRANCH   5   6
ENDBRANCH   3   5
ENDBRANCH   1   3
BRANCH   1  11
ATOM     11  C   UNL     1       9.977 -18.183  22.696  1.00  0.00     0.087 C 
BRANCH  11  12
ATOM     12  C   UNL     1       8.755 -17.393  23.248  1.00  0.00     0.066 C 
BRANCH  12  13
ATOM     13  C   UNL     1       8.301 -17.857  24.628  1.00  0.00     0.140 C 
ATOM     14  O   UNL     1       8.996 -17.659  25.613  1.00  0.00    -0.299 OA
BRANCH  13  15
ATOM     15  C   UNL     1       6.922 -18.448  24.787  1.00  0.00     0.106 CG0
ATOM     16  G   UNL     1       6.858 -19.963  24.961  1.00  0.00     0.000 G0
ENDBRANCH  13  15
ENDBRANCH  12  13
BRANCH  12  17
ATOM     17  C   UNL     1       8.855 -15.843  23.066  1.00  0.00    -0.006 C 
ATOM     18  C   UNL     1       7.489 -15.160  23.255  1.00  0.00     0.008 C 
ATOM     19  C   UNL     1       9.922 -15.159  23.932  1.00  0.00     0.008 C 
ENDBRANCH  12  17
ENDBRANCH  11  12
ENDBRANCH   1  11
TORSDOF 1
ENDMDL
MODEL 3
REMARK VINA RESULT:    -3.615      1.348      1.598
REMARK INTER + INTRA:          -6.108
REMARK INTER:                  -5.681
REMARK INTRA:                  -0.428
REMARK UNBOUND:                -0.592
REMARK SMILES CC1=CCC[C@@H](C)C(=O)C[C@H](C(C)C)C(=O)C1
REMARK SMILES IDX 8 1 9 2 6 3 7 4 5 5 4 6 3 7 2 8 1 9 10 11 11 12 15 13 16 14
REMARK SMILES IDX 17 15 12 17 13 18 14 19
REMARK H PARENT
REMARK Flexibility Score: 70.00
ROOT
ATOM      1  C   UNL     1       6.686 -18.859  23.706  1.00  0.00     0.136 C 
ATOM      2  O   UNL     1       6.235 -18.287  24.685  1.00  0.00    -0.299 OA
ENDROOT
BRANCH   1   3
ATOM      3  C   UNL     1       6.369 -20.335  23.518  1.00  0.00     0.053 C 
ATOM      4  C   UNL     1       6.840 -21.161  24.722  1.00  0.00     0.016 C 
BRANCH   3   5
ATOM      5  C   UNL     1       6.957 -20.882  22.202  1.00  0.00     0.015 C 
BRANCH   5   6
ATOM      6  C   UNL     1       8.145 -21.822  22.472  1.00  0.00     0.028 C 
BRANCH   6   7
ATOM      7  C   UNL     1       9.289 -21.663  21.501  1.00  0.00    -0.028 C 
ATOM      8  C   UNL     1      10.234 -20.688  21.515  1.00  0.00    -0.070 CG0
ATOM      9  C   UNL     1      11.179 -20.634  20.338  1.00  0.00     0.039 C 
ATOM     10  G   UNL     1      10.485 -19.730  22.677  1.00  0.00     0.000 G0
ENDBRANCH   6   7
ENDBRANCH   5   6
ENDBRANCH   3   5
ENDBRANCH   1   3
BRANCH   1  11
ATOM     11  C   UNL     1       7.567 -18.096  22.736  1.00  0.00     0.087 C 
BRANCH  11  12
ATOM     12  C   UNL     1       8.970 -17.685  23.269  1.00  0.00     0.066 C 
BRANCH  12  13
ATOM     13  C   UNL     1      10.125 -18.278  22.469  1.00  0.00     0.140 C 
ATOM     14  O   UNL     1      10.814 -17.571  21.749  1.00  0.00    -0.299 OA
BRANCH  13  15
ATOM     15  C   UNL     1      10.495 -19.726  22.675  1.00  0.00     0.106 CG0
ATOM     16  G   UNL     1      10.214 -20.663  21.503  1.00  0.00     0.000 G0
ENDBRANCH  13  15
ENDBRANCH  12  13
BRANCH  12  17
ATOM     17  C   UNL     1       9.109 -16.166  23.614  1.00  0.00    -0.006 C 
ATOM     18  C   UNL     1       8.126 -15.307  22.802  1.00  0.00     0.008 C 
ATOM     19  C   UNL     1       9.005 -15.833  25.110  1.00  0.00     0.008 C 
ENDBRANCH  12  17
ENDBRANCH  11  12
ENDBRANCH   1  11
TORSDOF 1
ENDMDL
MODEL 4
REMARK VINA RESULT:    -3.608      2.743      4.708
REMARK INTER + INTRA:          -6.098
REMARK INTER:                  -5.755
REMARK INTRA:                  -0.344
REMARK UNBOUND:                -0.592
REMARK SMILES CC1=CCC[C@@H](C)C(=O)C[C@H](C(C)C)C(=O)C1
REMARK SMILES IDX 8 1 9 2 6 3 7 4 5 5 4 6 3 7 2 8 1 9 10 11 11 12 15 13 16 14
REMARK SMILES IDX 17 15 12 17 13 18 14 19
REMARK H PARENT
REMARK Flexibility Score: 70.00
ROOT
ATOM      1  C   UNL     1       9.079 -20.316  20.557  1.00  0.00     0.136 C 
ATOM      2  O   UNL     1       8.748 -20.962  19.575  1.00  0.00    -0.299 OA
ENDROOT
BRANCH   1   3
ATOM      3  C   UNL     1       9.250 -21.044  21.881  1.00  0.00     0.053 C 
ATOM      4  C   UNL     1      10.451 -21.996  21.840  1.00  0.00     0.016 C 
BRANCH   3   5
ATOM      5  C   UNL     1       7.963 -21.788  22.293  1.00  0.00     0.015 C 
BRANCH   5   6
ATOM      6  C   UNL     1       6.925 -20.818  22.884  1.00  0.00     0.028 C 
BRANCH   6   7
ATOM      7  C   UNL     1       7.407 -20.067  24.101  1.00  0.00    -0.028 C 
ATOM      8  C   UNL     1       7.608 -18.727  24.198  1.00  0.00    -0.070 CG0
ATOM      9  C   UNL     1       8.260 -18.224  25.465  1.00  0.00     0.039 C 
ATOM     10  G   UNL     1       7.120 -17.693  23.187  1.00  0.00     0.000 G0
ENDBRANCH   6   7
ENDBRANCH   5   6
ENDBRANCH   3   5
ENDBRANCH   1   3
BRANCH   1  11
ATOM     11  C   UNL     1       9.275 -18.817  20.432  1.00  0.00     0.087 C 
BRANCH  11  12
ATOM     12  C   UNL     1       8.031 -17.938  20.753  1.00  0.00     0.066 C 
BRANCH  12  13
ATOM     13  C   UNL     1       8.100 -17.257  22.114  1.00  0.00     0.140 C 
ATOM     14  O   UNL     1       8.861 -16.319  22.305  1.00  0.00    -0.299 OA
BRANCH  13  15
ATOM     15  C   UNL     1       7.125 -17.665  23.192  1.00  0.00     0.106 CG0
ATOM     16  G   UNL     1       7.625 -18.710  24.186  1.00  0.00     0.000 G0
ENDBRANCH  13  15
ENDBRANCH  12  13
BRANCH  12  17
ATOM     17  C   UNL     1       7.565 -17.024  19.572  1.00  0.00    -0.006 C 
ATOM     18  C   UNL     1       6.560 -15.959  20.041  1.00  0.00     0.008 C 
ATOM     19  C   UNL     1       8.704 -16.374  18.773  1.00  0.00     0.008 C 
ENDBRANCH  12  17
ENDBRANCH  11  12
ENDBRANCH   1  11
TORSDOF 1
ENDMDL
MODEL 5
REMARK VINA RESULT:    -3.573      2.441      4.220
REMARK INTER + INTRA:          -6.045
REMARK INTER:                  -5.630
REMARK INTRA:                  -0.415
REMARK UNBOUND:                -0.592
REMARK SMILES CC1=CCC[C@@H](C)C(=O)C[C@H](C(C)C)C(=O)C1
REMARK SMILES IDX 8 1 9 2 6 3 7 4 5 5 4 6 3 7 2 8 1 9 10 11 11 12 15 13 16 14
REMARK SMILES IDX 17 15 12 17 13 18 14 19
REMARK H PARENT
REMARK Flexibility Score: 70.00
ROOT
ATOM      1  C   UNL     1       8.092 -16.021  23.171  1.00  0.00     0.136 C 
ATOM      2  O   UNL     1       7.636 -14.892  23.262  1.00  0.00    -0.299 OA
ENDROOT
BRANCH   1   3
ATOM      3  C   UNL     1       9.243 -16.415  24.084  1.00  0.00     0.053 C 
ATOM      4  C   UNL     1       8.833 -16.333  25.560  1.00  0.00     0.016 C 
BRANCH   3   5
ATOM      5  C   UNL     1      10.504 -15.571  23.809  1.00  0.00     0.015 C 
BRANCH   5   6
ATOM      6  C   UNL     1      11.396 -16.235  22.745  1.00  0.00     0.028 C 
BRANCH   6   7
ATOM      7  C   UNL     1      11.751 -17.670  23.048  1.00  0.00    -0.028 C 
ATOM      8  C   UNL     1      11.313 -18.770  22.382  1.00  0.00    -0.070 CG0
ATOM      9  C   UNL     1      11.666 -20.114  22.975  1.00  0.00     0.039 C 
ATOM     10  G   UNL     1      10.605 -18.750  21.030  1.00  0.00     0.000 G0
ENDBRANCH   6   7
ENDBRANCH   5   6
ENDBRANCH   3   5
ENDBRANCH   1   3
BRANCH   1  11
ATOM     11  C   UNL     1       7.524 -16.973  22.136  1.00  0.00     0.087 C 
BRANCH  11  12
ATOM     12  C   UNL     1       8.457 -17.313  20.937  1.00  0.00     0.066 C 
BRANCH  12  13
ATOM     13  C   UNL     1       9.119 -18.682  21.047  1.00  0.00     0.140 C 
ATOM     14  O   UNL     1       8.445 -19.702  21.052  1.00  0.00    -0.299 OA
BRANCH  13  15
ATOM     15  C   UNL     1      10.624 -18.775  21.018  1.00  0.00     0.106 CG0
ATOM     16  G   UNL     1      11.323 -18.763  22.375  1.00  0.00     0.000 G0
ENDBRANCH  13  15
ENDBRANCH  12  13
BRANCH  12  17
ATOM     17  C   UNL     1       7.853 -16.974  19.535  1.00  0.00    -0.006 C 
ATOM     18  C   UNL     1       6.964 -15.720  19.587  1.00  0.00     0.008 C 
ATOM     19  C   UNL     1       8.883 -16.856  18.402  1.00  0.00     0.008 C 
ENDBRANCH  12  17
ENDBRANCH  11  12
ENDBRANCH   1  11
TORSDOF 1
ENDMDL
MODEL 6
REMARK VINA RESULT:    -3.545      2.888      4.580
REMARK INTER + INTRA:          -6.001
REMARK INTER:                  -5.585
REMARK INTRA:                  -0.416
REMARK UNBOUND:                -0.592
REMARK SMILES CC1=CCC[C@@H](C)C(=O)C[C@H](C(C)C)C(=O)C1
REMARK SMILES IDX 8 1 9 2 6 3 7 4 5 5 4 6 3 7 2 8 1 9 10 11 11 12 15 13 16 14
REMARK SMILES IDX 17 15 12 17 13 18 14 19
REMARK H PARENT
REMARK Flexibility Score: 70.00
ROOT
ATOM      1  C   UNL     1      10.126 -18.083  21.184  1.00  0.00     0.136 C 
ATOM      2  O   UNL     1      10.501 -17.871  20.041  1.00  0.00    -0.299 OA
ENDROOT
BRANCH   1   3
ATOM      3  C   UNL     1       8.640 -18.291  21.433  1.00  0.00     0.053 C 
ATOM      4  C   UNL     1       8.132 -19.557  20.731  1.00  0.00     0.016 C 
BRANCH   3   5
ATOM      5  C   UNL     1       7.814 -17.056  21.021  1.00  0.00     0.015 C 
BRANCH   5   6
ATOM      6  C   UNL     1       7.773 -16.012  22.151  1.00  0.00     0.028 C 
BRANCH   6   7
ATOM      7  C   UNL     1       7.400 -16.580  23.499  1.00  0.00    -0.028 C 
ATOM      8  C   UNL     1       8.195 -16.642  24.599  1.00  0.00    -0.070 CG0
ATOM      9  C   UNL     1       7.662 -17.411  25.785  1.00  0.00     0.039 C 
ATOM     10  G   UNL     1       9.519 -15.900  24.765  1.00  0.00     0.000 G0
ENDBRANCH   6   7
ENDBRANCH   5   6
ENDBRANCH   3   5
ENDBRANCH   1   3
BRANCH   1  11
ATOM     11  C   UNL     1      11.141 -18.099  22.311  1.00  0.00     0.087 C 
BRANCH  11  12
ATOM     12  C   UNL     1      11.344 -16.753  23.063  1.00  0.00     0.066 C 
BRANCH  12  13
ATOM     13  C   UNL     1      10.763 -16.747  24.473  1.00  0.00     0.140 C 
ATOM     14  O   UNL     1      11.341 -17.313  25.389  1.00  0.00    -0.299 OA
BRANCH  13  15
ATOM     15  C   UNL     1       9.530 -15.924  24.756  1.00  0.00     0.106 CG0
ATOM     16  G   UNL     1       8.192 -16.639  24.585  1.00  0.00     0.000 G0
ENDBRANCH  13  15
ENDBRANCH  12  13
BRANCH  12  17
ATOM     17  C   UNL     1      12.782 -16.152  22.933  1.00  0.00    -0.006 C 
ATOM     18  C   UNL     1      13.859 -17.250  22.934  1.00  0.00     0.008 C 
ATOM     19  C   UNL     1      12.980 -15.207  21.739  1.00  0.00     0.008 C 
ENDBRANCH  12  17
ENDBRANCH  11  12
ENDBRANCH   1  11
TORSDOF 1
ENDMDL
MODEL 7
REMARK VINA RESULT:    -3.491      5.357      7.698
REMARK INTER + INTRA:          -5.920
REMARK INTER:                  -5.569
REMARK INTRA:                  -0.351
REMARK UNBOUND:                -0.592
REMARK SMILES CC1=CCC[C@@H](C)C(=O)C[C@H](C(C)C)C(=O)C1
REMARK SMILES IDX 8 1 9 2 6 3 7 4 5 5 4 6 3 7 2 8 1 9 10 11 11 12 15 13 16 14
REMARK SMILES IDX 17 15 12 17 13 18 14 19
REMARK H PARENT
REMARK Flexibility Score: 70.00
ROOT
ATOM      1  C   UNL     1      17.085 -22.341  25.052  1.00  0.00     0.136 C 
ATOM      2  O   UNL     1      17.893 -21.931  25.871  1.00  0.00    -0.299 OA
ENDROOT
BRANCH   1   3
ATOM      3  C   UNL     1      17.438 -22.247  23.575  1.00  0.00     0.053 C 
ATOM      4  C   UNL     1      18.508 -23.277  23.194  1.00  0.00     0.016 C 
BRANCH   3   5
ATOM      5  C   UNL     1      17.873 -20.820  23.183  1.00  0.00     0.015 C 
BRANCH   5   6
ATOM      6  C   UNL     1      16.722 -19.816  23.372  1.00  0.00     0.028 C 
BRANCH   6   7
ATOM      7  C   UNL     1      15.686 -19.854  22.275  1.00  0.00    -0.028 C 
ATOM      8  C   UNL     1      14.384 -20.216  22.405  1.00  0.00    -0.070 CG0
ATOM      9  C   UNL     1      13.580 -20.343  21.132  1.00  0.00     0.039 C 
ATOM     10  G   UNL     1      13.650 -20.383  23.733  1.00  0.00     0.000 G0
ENDBRANCH   6   7
ENDBRANCH   5   6
ENDBRANCH   3   5
ENDBRANCH   1   3
BRANCH   1  11
ATOM     11  C   UNL     1      15.756 -22.896  25.528  1.00  0.00     0.087 C 
BRANCH  11  12
ATOM     12  C   UNL     1      14.598 -21.865  25.662  1.00  0.00     0.066 C 
BRANCH  12  13
ATOM     13  C   UNL     1      13.750 -21.732  24.403  1.00  0.00     0.140 C 
ATOM     14  O   UNL     1      13.084 -22.673  23.996  1.00  0.00    -0.299 OA
BRANCH  13  15
ATOM     15  C   UNL     1      13.636 -20.386  23.732  1.00  0.00     0.106 CG0
ATOM     16  G   UNL     1      14.379 -20.231  22.407  1.00  0.00     0.000 G0
ENDBRANCH  13  15
ENDBRANCH  12  13
BRANCH  12  17
ATOM     17  C   UNL     1      13.793 -21.970  27.000  1.00  0.00    -0.006 C 
ATOM     18  C   UNL     1      13.509 -23.434  27.378  1.00  0.00     0.008 C 
ATOM     19  C   UNL     1      14.415 -21.219  28.186  1.00  0.00     0.008 C 
ENDBRANCH  12  17
ENDBRANCH  11  12
ENDBRANCH   1  11
TORSDOF 1
ENDMDL
MODEL 8
REMARK VINA RESULT:    -3.444      1.778      4.236
REMARK INTER + INTRA:          -5.847
REMARK INTER:                  -5.724
REMARK INTRA:                  -0.123
REMARK UNBOUND:                -0.592
REMARK SMILES CC1=CCC[C@@H](C)C(=O)C[C@H](C(C)C)C(=O)C1
REMARK SMILES IDX 8 1 9 2 6 3 7 4 5 5 4 6 3 7 2 8 1 9 10 11 11 12 15 13 16 14
REMARK SMILES IDX 17 15 12 17 13 18 14 19
REMARK H PARENT
REMARK Flexibility Score: 70.00
ROOT
ATOM      1  C   UNL     1       7.638 -18.017  24.221  1.00  0.00     0.136 C 
ATOM      2  O   UNL     1       6.443 -18.163  24.020  1.00  0.00    -0.299 OA
ENDROOT
BRANCH   1   3
ATOM      3  C   UNL     1       8.151 -16.629  24.570  1.00  0.00     0.053 C 
ATOM      4  C   UNL     1       7.866 -15.632  23.440  1.00  0.00     0.016 C 
BRANCH   3   5
ATOM      5  C   UNL     1       9.650 -16.648  24.931  1.00  0.00     0.015 C 
BRANCH   5   6
ATOM      6  C   UNL     1      10.489 -15.922  23.864  1.00  0.00     0.028 C 
BRANCH   6   7
ATOM      7  C   UNL     1      11.844 -16.539  23.622  1.00  0.00    -0.028 C 
ATOM      8  C   UNL     1      12.111 -17.637  22.868  1.00  0.00    -0.070 CG0
ATOM      9  C   UNL     1      13.524 -18.170  22.913  1.00  0.00     0.039 C 
ATOM     10  G   UNL     1      11.131 -18.291  21.898  1.00  0.00     0.000 G0
ENDBRANCH   6   7
ENDBRANCH   5   6
ENDBRANCH   3   5
ENDBRANCH   1   3
BRANCH   1  11
ATOM     11  C   UNL     1       8.568 -19.208  24.084  1.00  0.00     0.087 C 
BRANCH  11  12
ATOM     12  C   UNL     1       8.973 -19.593  22.631  1.00  0.00     0.066 C 
BRANCH  12  13
ATOM     13  C   UNL     1      10.478 -19.572  22.391  1.00  0.00     0.140 C 
ATOM     14  O   UNL     1      11.139 -20.596  22.488  1.00  0.00    -0.299 OA
BRANCH  13  15
ATOM     15  C   UNL     1      11.128 -18.301  21.904  1.00  0.00     0.106 CG0
ATOM     16  G   UNL     1      12.110 -17.639  22.867  1.00  0.00     0.000 G0
ENDBRANCH  13  15
ENDBRANCH  12  13
BRANCH  12  17
ATOM     17  C   UNL     1       8.223 -20.842  22.063  1.00  0.00    -0.006 C 
ATOM     18  C   UNL     1       6.870 -21.059  22.761  1.00  0.00     0.008 C 
ATOM     19  C   UNL     1       8.048 -20.850  20.537  1.00  0.00     0.008 C 
ENDBRANCH  12  17
ENDBRANCH  11  12
ENDBRANCH   1  11
TORSDOF 1
ENDMDL
MODEL 9
REMARK VINA RESULT:    -3.374      2.562      3.712
REMARK INTER + INTRA:          -5.740
REMARK INTER:                  -5.504
REMARK INTRA:                  -0.236
REMARK UNBOUND:                -0.592
REMARK SMILES CC1=CCC[C@@H](C)C(=O)C[C@H](C(C)C)C(=O)C1
REMARK SMILES IDX 8 1 9 2 6 3 7 4 5 5 4 6 3 7 2 8 1 9 10 11 11 12 15 13 16 14
REMARK SMILES IDX 17 15 12 17 13 18 14 19
REMARK H PARENT
REMARK Flexibility Score: 70.00
ROOT
ATOM      1  C   UNL     1       8.517 -21.059  19.524  1.00  0.00     0.136 C 
ATOM      2  O   UNL     1       9.074 -21.497  18.530  1.00  0.00    -0.299 OA
ENDROOT
BRANCH   1   3
ATOM      3  C   UNL     1       8.010 -22.045  20.566  1.00  0.00     0.053 C 
ATOM      4  C   UNL     1       7.401 -21.316  21.770  1.00  0.00     0.016 C 
BRANCH   3   5
ATOM      5  C   UNL     1       9.115 -23.025  21.009  1.00  0.00     0.015 C 
BRANCH   5   6
ATOM      6  C   UNL     1       9.983 -22.417  22.125  1.00  0.00     0.028 C 
BRANCH   6   7
ATOM      7  C   UNL     1      11.413 -22.156  21.719  1.00  0.00    -0.028 C 
ATOM      8  C   UNL     1      11.981 -20.944  21.490  1.00  0.00    -0.070 CG0
ATOM      9  C   UNL     1      13.383 -20.941  20.926  1.00  0.00     0.039 C 
ATOM     10  G   UNL     1      11.362 -19.601  21.870  1.00  0.00     0.000 G0
ENDBRANCH   6   7
ENDBRANCH   5   6
ENDBRANCH   3   5
ENDBRANCH   1   3
BRANCH   1  11
ATOM     11  C   UNL     1       8.321 -19.562  19.671  1.00  0.00     0.087 C 
BRANCH  11  12
ATOM     12  C   UNL     1       9.032 -18.898  20.886  1.00  0.00     0.066 C 
BRANCH  12  13
ATOM     13  C   UNL     1      10.553 -18.905  20.782  1.00  0.00     0.140 C 
ATOM     14  O   UNL     1      11.121 -18.277  19.901  1.00  0.00    -0.299 OA
BRANCH  13  15
ATOM     15  C   UNL     1      11.360 -19.590  21.857  1.00  0.00     0.106 CG0
ATOM     16  G   UNL     1      11.974 -20.936  21.480  1.00  0.00     0.000 G0
ENDBRANCH  13  15
ENDBRANCH  12  13
BRANCH  12  17
ATOM     17  C   UNL     1       8.401 -17.541  21.339  1.00  0.00    -0.006 C 
ATOM     18  C   UNL     1       7.324 -17.058  20.353  1.00  0.00     0.008 C 
ATOM     19  C   UNL     1       7.858 -17.530  22.776  1.00  0.00     0.008 C 
ENDBRANCH  12  17
ENDBRANCH  11  12
ENDBRANCH   1  11
TORSDOF 1
ENDMDL
