MODEL 1
REMARK VINA RESULT:    -3.293      0.000      0.000
REMARK INTER + INTRA:          -5.327
REMARK INTER:                  -5.025
REMARK INTRA:                  -0.302
REMARK UNBOUND:                -0.302
REMARK SMILES CC1=CCC[C@@H](C)C(=O)C[C@H](C(C)C)C(=O)C1
REMARK SMILES IDX 8 1 9 2 6 3 7 4 5 5 4 6 3 7 2 8 1 9 10 11 11 12 15 13 16 14
REMARK SMILES IDX 17 15 12 17 13 18 14 19
REMARK H PARENT
REMARK Flexibility Score: 70.00
ROOT
ATOM      1  C   UNL     1      30.355  69.904 106.924  1.00  0.00     0.136 C 
ATOM      2  O   UNL     1      29.172  69.743 107.186  1.00  0.00    -0.299 OA
ENDROOT
BRANCH   1   3
ATOM      3  C   UNL     1      30.759  71.125 106.114  1.00  0.00     0.053 C 
ATOM      4  C   UNL     1      31.147  70.736 104.682  1.00  0.00     0.016 C 
BRANCH   3   5
ATOM      5  C   UNL     1      31.887  71.919 106.798  1.00  0.00     0.015 C 
BRANCH   5   6
ATOM      6  C   UNL     1      33.245  71.756 106.079  1.00  0.00     0.028 C 
BRANCH   6   7
ATOM      7  C   UNL     1      34.330  71.367 107.053  1.00  0.00    -0.028 C 
ATOM      8  C   UNL     1      34.997  70.188 107.056  1.00  0.00    -0.070 CG0
ATOM      9  C   UNL     1      36.103  70.008 108.064  1.00  0.00     0.039 C 
ATOM     10  G   UNL     1      34.662  69.037 106.119  1.00  0.00     0.000 G0
ENDBRANCH   6   7
ENDBRANCH   5   6
ENDBRANCH   3   5
ENDBRANCH   1   3
BRANCH   1  11
ATOM     11  C   UNL     1      31.353  68.871 107.407  1.00  0.00     0.087 C 
BRANCH  11  12
ATOM     12  C   UNL     1      32.121  68.140 106.268  1.00  0.00     0.066 C 
BRANCH  12  13
ATOM     13  C   UNL     1      33.607  68.031 106.595  1.00  0.00     0.140 C 
ATOM     14  O   UNL     1      33.985  67.082 107.268  1.00  0.00    -0.299 OA
BRANCH  13  15
ATOM     15  C   UNL     1      34.662  69.008 106.110  1.00  0.00     0.106 CG0
ATOM     16  G   UNL     1      34.991  70.151 107.060  1.00  0.00     0.000 G0
ENDBRANCH  13  15
ENDBRANCH  12  13
BRANCH  12  17
ATOM     17  C   UNL     1      31.525  66.723 105.992  1.00  0.00    -0.006 C 
ATOM     18  C   UNL     1      30.710  66.698 104.687  1.00  0.00     0.008 C 
ATOM     19  C   UNL     1      30.628  66.236 107.145  1.00  0.00     0.008 C 
ENDBRANCH  12  17
ENDBRANCH  11  12
ENDBRANCH   1  11
TORSDOF 1
ENDMDL
MODEL 2
REMARK VINA RESULT:    -3.097      1.605      1.968
REMARK INTER + INTRA:          -5.028
REMARK INTER:                  -4.861
REMARK INTRA:                  -0.167
REMARK UNBOUND:                -0.302
REMARK SMILES CC1=CCC[C@@H](C)C(=O)C[C@H](C(C)C)C(=O)C1
REMARK SMILES IDX 8 1 9 2 6 3 7 4 5 5 4 6 3 7 2 8 1 9 10 11 11 12 15 13 16 14
REMARK SMILES IDX 17 15 12 17 13 18 14 19
REMARK H PARENT
REMARK Flexibility Score: 70.00
ROOT
ATOM      1  C   UNL     1      31.208  69.811 105.165  1.00  0.00     0.136 C 
ATOM      2  O   UNL     1      30.860  70.417 104.162  1.00  0.00    -0.299 OA
ENDROOT
BRANCH   1   3
ATOM      3  C   UNL     1      31.252  70.560 106.487  1.00  0.00     0.053 C 
ATOM      4  C   UNL     1      29.848  70.708 107.087  1.00  0.00     0.016 C 
BRANCH   3   5
ATOM      5  C   UNL     1      31.943  71.930 106.347  1.00  0.00     0.015 C 
BRANCH   5   6
ATOM      6  C   UNL     1      33.464  71.803 106.112  1.00  0.00     0.028 C 
BRANCH   6   7
ATOM      7  C   UNL     1      34.155  71.235 107.328  1.00  0.00    -0.028 C 
ATOM      8  C   UNL     1      34.901  70.105 107.351  1.00  0.00    -0.070 CG0
ATOM      9  C   UNL     1      35.575  69.733 108.646  1.00  0.00     0.039 C 
ATOM     10  G   UNL     1      35.063  69.186 106.149  1.00  0.00     0.000 G0
ENDBRANCH   6   7
ENDBRANCH   5   6
ENDBRANCH   3   5
ENDBRANCH   1   3
BRANCH   1  11
ATOM     11  C   UNL     1      31.594  68.351 105.034  1.00  0.00     0.087 C 
BRANCH  11  12
ATOM     12  C   UNL     1      33.089  68.113 104.674  1.00  0.00     0.066 C 
BRANCH  12  13
ATOM     13  C   UNL     1      33.966  68.171 105.921  1.00  0.00     0.140 C 
ATOM     14  O   UNL     1      33.796  67.326 106.789  1.00  0.00    -0.299 OA
BRANCH  13  15
ATOM     15  C   UNL     1      35.066  69.192 106.145  1.00  0.00     0.106 CG0
ATOM     16  G   UNL     1      34.880  70.111 107.344  1.00  0.00     0.000 G0
ENDBRANCH  13  15
ENDBRANCH  12  13
BRANCH  12  17
ATOM     17  C   UNL     1      33.291  66.751 103.936  1.00  0.00    -0.006 C 
ATOM     18  C   UNL     1      34.068  66.932 102.621  1.00  0.00     0.008 C 
ATOM     19  C   UNL     1      31.953  66.053 103.629  1.00  0.00     0.008 C 
ENDBRANCH  12  17
ENDBRANCH  11  12
ENDBRANCH   1  11
TORSDOF 1
ENDMDL
MODEL 3
REMARK VINA RESULT:    -3.079      2.431      4.521
REMARK INTER + INTRA:          -5.001
REMARK INTER:                  -4.809
REMARK INTRA:                  -0.192
REMARK UNBOUND:                -0.302
REMARK SMILES CC1=CCC[C@@H](C)C(=O)C[C@H](C(C)C)C(=O)C1
REMARK SMILES IDX 8 1 9 2 6 3 7 4 5 5 4 6 3 7 2 8 1 9 10 11 11 12 15 13 16 14
REMARK SMILES IDX 17 15 12 17 13 18 14 19
REMARK H PARENT
REMARK Flexibility Score: 70.00
ROOT
ATOM      1  C   UNL     1      30.945  68.852 105.450  1.00  0.00     0.136 C 
ATOM      2  O   UNL     1      30.310  69.016 106.481  1.00  0.00    -0.299 OA
ENDROOT
BRANCH   1   3
ATOM      3  C   UNL     1      30.904  67.488 104.781  1.00  0.00     0.053 C 
ATOM      4  C   UNL     1      31.467  66.400 105.705  1.00  0.00     0.016 C 
BRANCH   3   5
ATOM      5  C   UNL     1      31.630  67.493 103.423  1.00  0.00     0.015 C 
BRANCH   5   6
ATOM      6  C   UNL     1      32.894  66.605 103.426  1.00  0.00     0.028 C 
BRANCH   6   7
ATOM      7  C   UNL     1      33.972  67.195 102.549  1.00  0.00    -0.028 C 
ATOM      8  C   UNL     1      34.932  68.058 102.959  1.00  0.00    -0.070 CG0
ATOM      9  C   UNL     1      35.971  68.484 101.954  1.00  0.00     0.039 C 
ATOM     10  G   UNL     1      34.991  68.636 104.365  1.00  0.00     0.000 G0
ENDBRANCH   6   7
ENDBRANCH   5   6
ENDBRANCH   3   5
ENDBRANCH   1   3
BRANCH   1  11
ATOM     11  C   UNL     1      31.754  70.011 104.903  1.00  0.00     0.087 C 
BRANCH  11  12
ATOM     12  C   UNL     1      33.143  70.199 105.579  1.00  0.00     0.066 C 
BRANCH  12  13
ATOM     13  C   UNL     1      34.272  69.980 104.575  1.00  0.00     0.140 C 
ATOM     14  O   UNL     1      34.648  70.935 103.909  1.00  0.00    -0.299 OA
BRANCH  13  15
ATOM     15  C   UNL     1      34.987  68.658 104.370  1.00  0.00     0.106 CG0
ATOM     16  G   UNL     1      34.912  68.076 102.965  1.00  0.00     0.000 G0
ENDBRANCH  13  15
ENDBRANCH  12  13
BRANCH  12  17
ATOM     17  C   UNL     1      33.275  71.609 106.238  1.00  0.00    -0.006 C 
ATOM     18  C   UNL     1      34.256  71.588 107.423  1.00  0.00     0.008 C 
ATOM     19  C   UNL     1      31.918  72.150 106.727  1.00  0.00     0.008 C 
ENDBRANCH  12  17
ENDBRANCH  11  12
ENDBRANCH   1  11
TORSDOF 1
ENDMDL
MODEL 4
REMARK VINA RESULT:    -3.070      1.732      4.300
REMARK INTER + INTRA:          -4.987
REMARK INTER:                  -4.968
REMARK INTRA:                  -0.019
REMARK UNBOUND:                -0.302
REMARK SMILES CC1=CCC[C@@H](C)C(=O)C[C@H](C(C)C)C(=O)C1
REMARK SMILES IDX 8 1 9 2 6 3 7 4 5 5 4 6 3 7 2 8 1 9 10 11 11 12 15 13 16 14
REMARK SMILES IDX 17 15 12 17 13 18 14 19
REMARK H PARENT
REMARK Flexibility Score: 70.00
ROOT
ATOM      1  C   UNL     1      32.198  71.258 106.357  1.00  0.00     0.136 C 
ATOM      2  O   UNL     1      31.509  72.080 106.942  1.00  0.00    -0.299 OA
ENDROOT
BRANCH   1   3
ATOM      3  C   UNL     1      31.517  70.049 105.737  1.00  0.00     0.053 C 
ATOM      4  C   UNL     1      30.811  70.423 104.427  1.00  0.00     0.016 C 
BRANCH   3   5
ATOM      5  C   UNL     1      30.541  69.375 106.720  1.00  0.00     0.015 C 
BRANCH   5   6
ATOM      6  C   UNL     1      31.263  68.459 107.734  1.00  0.00     0.028 C 
BRANCH   6   7
ATOM      7  C   UNL     1      32.130  67.447 107.027  1.00  0.00    -0.028 C 
ATOM      8  C   UNL     1      33.471  67.325 107.171  1.00  0.00    -0.070 CG0
ATOM      9  C   UNL     1      34.160  66.204 106.436  1.00  0.00     0.039 C 
ATOM     10  G   UNL     1      34.312  68.280 108.007  1.00  0.00     0.000 G0
ENDBRANCH   6   7
ENDBRANCH   5   6
ENDBRANCH   3   5
ENDBRANCH   1   3
BRANCH   1  11
ATOM     11  C   UNL     1      33.697  71.478 106.295  1.00  0.00     0.087 C 
BRANCH  11  12
ATOM     12  C   UNL     1      34.478  70.914 107.516  1.00  0.00     0.066 C 
BRANCH  12  13
ATOM     13  C   UNL     1      34.908  69.471 107.268  1.00  0.00     0.140 C 
ATOM     14  O   UNL     1      35.788  69.261 106.444  1.00  0.00    -0.299 OA
BRANCH  13  15
ATOM     15  C   UNL     1      34.340  68.272 108.005  1.00  0.00     0.106 CG0
ATOM     16  G   UNL     1      33.479  67.333 107.173  1.00  0.00     0.000 G0
ENDBRANCH  13  15
ENDBRANCH  12  13
BRANCH  12  17
ATOM     17  C   UNL     1      35.722  71.795 107.858  1.00  0.00    -0.006 C 
ATOM     18  C   UNL     1      35.333  73.008 108.722  1.00  0.00     0.008 C 
ATOM     19  C   UNL     1      36.442  72.299 106.593  1.00  0.00     0.008 C 
ENDBRANCH  12  17
ENDBRANCH  11  12
ENDBRANCH   1  11
TORSDOF 1
ENDMDL
MODEL 5
REMARK VINA RESULT:    -3.013      2.289      3.068
REMARK INTER + INTRA:          -4.900
REMARK INTER:                  -4.627
REMARK INTRA:                  -0.272
REMARK UNBOUND:                -0.302
REMARK SMILES CC1=CCC[C@@H](C)C(=O)C[C@H](C(C)C)C(=O)C1
REMARK SMILES IDX 8 1 9 2 6 3 7 4 5 5 4 6 3 7 2 8 1 9 10 11 11 12 15 13 16 14
REMARK SMILES IDX 17 15 12 17 13 18 14 19
REMARK H PARENT
REMARK Flexibility Score: 70.00
ROOT
ATOM      1  C   UNL     1      32.458  69.704 106.709  1.00  0.00     0.136 C 
ATOM      2  O   UNL     1      32.041  69.188 105.682  1.00  0.00    -0.299 OA
ENDROOT
BRANCH   1   3
ATOM      3  C   UNL     1      32.436  71.219 106.820  1.00  0.00     0.053 C 
ATOM      4  C   UNL     1      31.015  71.768 106.642  1.00  0.00     0.016 C 
BRANCH   3   5
ATOM      5  C   UNL     1      33.414  71.880 105.830  1.00  0.00     0.015 C 
BRANCH   5   6
ATOM      6  C   UNL     1      34.880  71.817 106.316  1.00  0.00     0.028 C 
BRANCH   6   7
ATOM      7  C   UNL     1      35.019  72.412 107.695  1.00  0.00    -0.028 C 
ATOM      8  C   UNL     1      35.646  71.827 108.744  1.00  0.00    -0.070 CG0
ATOM      9  C   UNL     1      35.748  72.608 110.028  1.00  0.00     0.039 C 
ATOM     10  G   UNL     1      36.216  70.417 108.695  1.00  0.00     0.000 G0
ENDBRANCH   6   7
ENDBRANCH   5   6
ENDBRANCH   3   5
ENDBRANCH   1   3
BRANCH   1  11
ATOM     11  C   UNL     1      32.989  68.806 107.808  1.00  0.00     0.087 C 
BRANCH  11  12
ATOM     12  C   UNL     1      34.524  68.560 107.749  1.00  0.00     0.066 C 
BRANCH  12  13
ATOM     13  C   UNL     1      35.236  69.280 108.890  1.00  0.00     0.140 C 
ATOM     14  O   UNL     1      35.024  68.905 110.035  1.00  0.00    -0.299 OA
BRANCH  13  15
ATOM     15  C   UNL     1      36.224  70.416 108.698  1.00  0.00     0.106 CG0
ATOM     16  G   UNL     1      35.632  71.818 108.726  1.00  0.00     0.000 G0
ENDBRANCH  13  15
ENDBRANCH  12  13
BRANCH  12  17
ATOM     17  C   UNL     1      34.862  67.035 107.781  1.00  0.00    -0.006 C 
ATOM     18  C   UNL     1      36.381  66.795 107.819  1.00  0.00     0.008 C 
ATOM     19  C   UNL     1      34.272  66.284 106.572  1.00  0.00     0.008 C 
ENDBRANCH  12  17
ENDBRANCH  11  12
ENDBRANCH   1  11
TORSDOF 1
ENDMDL
MODEL 6
REMARK VINA RESULT:    -2.978      9.342     10.455
REMARK INTER + INTRA:          -4.847
REMARK INTER:                  -4.505
REMARK INTRA:                  -0.342
REMARK UNBOUND:                -0.302
REMARK SMILES CC1=CCC[C@@H](C)C(=O)C[C@H](C(C)C)C(=O)C1
REMARK SMILES IDX 8 1 9 2 6 3 7 4 5 5 4 6 3 7 2 8 1 9 10 11 11 12 15 13 16 14
REMARK SMILES IDX 17 15 12 17 13 18 14 19
REMARK H PARENT
REMARK Flexibility Score: 70.00
ROOT
ATOM      1  C   UNL     1      22.950  74.144 104.935  1.00  0.00     0.136 C 
ATOM      2  O   UNL     1      23.008  73.783 103.769  1.00  0.00    -0.299 OA
ENDROOT
BRANCH   1   3
ATOM      3  C   UNL     1      23.788  75.336 105.368  1.00  0.00     0.053 C 
ATOM      4  C   UNL     1      23.464  76.576 104.526  1.00  0.00     0.016 C 
BRANCH   3   5
ATOM      5  C   UNL     1      25.295  75.019 105.332  1.00  0.00     0.015 C 
BRANCH   5   6
ATOM      6  C   UNL     1      25.862  74.684 106.730  1.00  0.00     0.028 C 
BRANCH   6   7
ATOM      7  C   UNL     1      25.108  75.420 107.811  1.00  0.00    -0.028 C 
ATOM      8  C   UNL     1      24.383  74.840 108.797  1.00  0.00    -0.070 CG0
ATOM      9  C   UNL     1      23.758  75.739 109.833  1.00  0.00     0.039 C 
ATOM     10  G   UNL     1      24.145  73.340 108.887  1.00  0.00     0.000 G0
ENDBRANCH   6   7
ENDBRANCH   5   6
ENDBRANCH   3   5
ENDBRANCH   1   3
BRANCH   1  11
ATOM     11  C   UNL     1      22.059  73.375 105.890  1.00  0.00     0.087 C 
BRANCH  11  12
ATOM     12  C   UNL     1      22.812  72.341 106.776  1.00  0.00     0.066 C 
BRANCH  12  13
ATOM     13  C   UNL     1      22.881  72.814 108.226  1.00  0.00     0.140 C 
ATOM     14  O   UNL     1      21.865  72.754 108.904  1.00  0.00    -0.299 OA
BRANCH  13  15
ATOM     15  C   UNL     1      24.142  73.325 108.898  1.00  0.00     0.106 CG0
ATOM     16  G   UNL     1      24.378  74.826 108.805  1.00  0.00     0.000 G0
ENDBRANCH  13  15
ENDBRANCH  12  13
BRANCH  12  17
ATOM     17  C   UNL     1      22.147  70.930 106.702  1.00  0.00    -0.006 C 
ATOM     18  C   UNL     1      22.957  69.883 107.486  1.00  0.00     0.008 C 
ATOM     19  C   UNL     1      21.981  70.442 105.250  1.00  0.00     0.008 C 
ENDBRANCH  12  17
ENDBRANCH  11  12
ENDBRANCH   1  11
TORSDOF 1
ENDMDL
MODEL 7
REMARK VINA RESULT:    -2.974      1.755      4.109
REMARK INTER + INTRA:          -4.840
REMARK INTER:                  -4.923
REMARK INTRA:                   0.083
REMARK UNBOUND:                -0.302
REMARK SMILES CC1=CCC[C@@H](C)C(=O)C[C@H](C(C)C)C(=O)C1
REMARK SMILES IDX 8 1 9 2 6 3 7 4 5 5 4 6 3 7 2 8 1 9 10 11 11 12 15 13 16 14
REMARK SMILES IDX 17 15 12 17 13 18 14 19
REMARK H PARENT
REMARK Flexibility Score: 70.00
ROOT
ATOM      1  C   UNL     1      31.660  70.141 105.018  1.00  0.00     0.136 C 
ATOM      2  O   UNL     1      31.069  69.392 104.254  1.00  0.00    -0.299 OA
ENDROOT
BRANCH   1   3
ATOM      3  C   UNL     1      30.843  71.022 105.949  1.00  0.00     0.053 C 
ATOM      4  C   UNL     1      31.745  71.979 106.740  1.00  0.00     0.016 C 
BRANCH   3   5
ATOM      5  C   UNL     1      29.955  70.189 106.892  1.00  0.00     0.015 C 
BRANCH   5   6
ATOM      6  C   UNL     1      30.775  69.228 107.781  1.00  0.00     0.028 C 
BRANCH   6   7
ATOM      7  C   UNL     1      30.593  67.796 107.342  1.00  0.00    -0.028 C 
ATOM      8  C   UNL     1      31.586  66.885 107.201  1.00  0.00    -0.070 CG0
ATOM      9  C   UNL     1      31.202  65.478 106.822  1.00  0.00     0.039 C 
ATOM     10  G   UNL     1      33.060  67.223 107.374  1.00  0.00     0.000 G0
ENDBRANCH   6   7
ENDBRANCH   5   6
ENDBRANCH   3   5
ENDBRANCH   1   3
BRANCH   1  11
ATOM     11  C   UNL     1      33.175  70.164 104.984  1.00  0.00     0.087 C 
BRANCH  11  12
ATOM     12  C   UNL     1      33.854  69.526 106.230  1.00  0.00     0.066 C 
BRANCH  12  13
ATOM     13  C   UNL     1      33.691  68.009 106.224  1.00  0.00     0.140 C 
ATOM     14  O   UNL     1      34.114  67.385 105.261  1.00  0.00    -0.299 OA
BRANCH  13  15
ATOM     15  C   UNL     1      33.066  67.213 107.354  1.00  0.00     0.106 CG0
ATOM     16  G   UNL     1      31.587  66.892 107.198  1.00  0.00     0.000 G0
ENDBRANCH  13  15
ENDBRANCH  12  13
BRANCH  12  17
ATOM     17  C   UNL     1      35.367  69.905 106.316  1.00  0.00    -0.006 C 
ATOM     18  C   UNL     1      35.566  71.298 106.939  1.00  0.00     0.008 C 
ATOM     19  C   UNL     1      36.052  69.877 104.937  1.00  0.00     0.008 C 
ENDBRANCH  12  17
ENDBRANCH  11  12
ENDBRANCH   1  11
TORSDOF 1
ENDMDL
MODEL 8
REMARK VINA RESULT:    -2.953      2.353      5.247
REMARK INTER + INTRA:          -4.809
REMARK INTER:                  -4.700
REMARK INTRA:                  -0.109
REMARK UNBOUND:                -0.302
REMARK SMILES CC1=CCC[C@@H](C)C(=O)C[C@H](C(C)C)C(=O)C1
REMARK SMILES IDX 8 1 9 2 6 3 7 4 5 5 4 6 3 7 2 8 1 9 10 11 11 12 15 13 16 14
REMARK SMILES IDX 17 15 12 17 13 18 14 19
REMARK H PARENT
REMARK Flexibility Score: 70.00
ROOT
ATOM      1  C   UNL     1      33.194  68.342 108.052  1.00  0.00     0.136 C 
ATOM      2  O   UNL     1      34.347  68.728 108.169  1.00  0.00    -0.299 OA
ENDROOT
BRANCH   1   3
ATOM      3  C   UNL     1      32.859  66.919 108.466  1.00  0.00     0.053 C 
ATOM      4  C   UNL     1      33.554  66.547 109.783  1.00  0.00     0.016 C 
BRANCH   3   5
ATOM      5  C   UNL     1      33.195  65.905 107.356  1.00  0.00     0.015 C 
BRANCH   5   6
ATOM      6  C   UNL     1      31.932  65.351 106.660  1.00  0.00     0.028 C 
BRANCH   6   7
ATOM      7  C   UNL     1      32.007  65.546 105.166  1.00  0.00    -0.028 C 
ATOM      8  C   UNL     1      31.598  66.650 104.496  1.00  0.00    -0.070 CG0
ATOM      9  C   UNL     1      31.822  66.693 103.006  1.00  0.00     0.039 C 
ATOM     10  G   UNL     1      30.901  67.824 105.167  1.00  0.00     0.000 G0
ENDBRANCH   6   7
ENDBRANCH   5   6
ENDBRANCH   3   5
ENDBRANCH   1   3
BRANCH   1  11
ATOM     11  C   UNL     1      32.162  69.297 107.486  1.00  0.00     0.087 C 
BRANCH  11  12
ATOM     12  C   UNL     1      32.491  69.823 106.059  1.00  0.00     0.066 C 
BRANCH  12  13
ATOM     13  C   UNL     1      31.576  69.184 105.018  1.00  0.00     0.140 C 
ATOM     14  O   UNL     1      31.386  69.782 103.968  1.00  0.00    -0.299 OA
BRANCH  13  15
ATOM     15  C   UNL     1      30.909  67.831 105.183  1.00  0.00     0.106 CG0
ATOM     16  G   UNL     1      31.592  66.667 104.480  1.00  0.00     0.000 G0
ENDBRANCH  13  15
ENDBRANCH  12  13
BRANCH  12  17
ATOM     17  C   UNL     1      32.388  71.380 105.983  1.00  0.00    -0.006 C 
ATOM     18  C   UNL     1      33.645  72.057 106.555  1.00  0.00     0.008 C 
ATOM     19  C   UNL     1      31.153  71.917 106.731  1.00  0.00     0.008 C 
ENDBRANCH  12  17
ENDBRANCH  11  12
ENDBRANCH   1  11
TORSDOF 1
ENDMDL
MODEL 9
REMARK VINA RESULT:    -2.946      9.098     11.382
REMARK INTER + INTRA:          -4.797
REMARK INTER:                  -4.587
REMARK INTRA:                  -0.210
REMARK UNBOUND:                -0.302
REMARK SMILES CC1=CCC[C@@H](C)C(=O)C[C@H](C(C)C)C(=O)C1
REMARK SMILES IDX 8 1 9 2 6 3 7 4 5 5 4 6 3 7 2 8 1 9 10 11 11 12 15 13 16 14
REMARK SMILES IDX 17 15 12 17 13 18 14 19
REMARK H PARENT
REMARK Flexibility Score: 70.00
ROOT
ATOM      1  C   UNL     1      25.215  72.388 108.660  1.00  0.00     0.136 C 
ATOM      2  O   UNL     1      26.315  71.951 108.353  1.00  0.00    -0.299 OA
ENDROOT
BRANCH   1   3
ATOM      3  C   UNL     1      24.259  71.479 109.414  1.00  0.00     0.053 C 
ATOM      4  C   UNL     1      24.745  71.228 110.847  1.00  0.00     0.016 C 
BRANCH   3   5
ATOM      5  C   UNL     1      24.022  70.152 108.668  1.00  0.00     0.015 C 
BRANCH   5   6
ATOM      6  C   UNL     1      22.942  70.276 107.570  1.00  0.00     0.028 C 
BRANCH   6   7
ATOM      7  C   UNL     1      21.620  70.706 108.157  1.00  0.00    -0.028 C 
ATOM      8  C   UNL     1      20.937  71.825 107.815  1.00  0.00    -0.070 CG0
ATOM      9  C   UNL     1      19.593  72.053 108.458  1.00  0.00     0.039 C 
ATOM     10  G   UNL     1      21.473  72.869 106.846  1.00  0.00     0.000 G0
ENDBRANCH   6   7
ENDBRANCH   5   6
ENDBRANCH   3   5
ENDBRANCH   1   3
BRANCH   1  11
ATOM     11  C   UNL     1      24.859  73.805 108.258  1.00  0.00     0.087 C 
BRANCH  11  12
ATOM     12  C   UNL     1      23.946  73.904 107.002  1.00  0.00     0.066 C 
BRANCH  12  13
ATOM     13  C   UNL     1      22.472  73.859 107.394  1.00  0.00     0.140 C 
ATOM     14  O   UNL     1      22.059  74.687 108.195  1.00  0.00    -0.299 OA
BRANCH  13  15
ATOM     15  C   UNL     1      21.467  72.872 106.830  1.00  0.00     0.106 CG0
ATOM     16  G   UNL     1      20.940  71.833 107.808  1.00  0.00     0.000 G0
ENDBRANCH  13  15
ENDBRANCH  12  13
BRANCH  12  17
ATOM     17  C   UNL     1      24.244  75.196 106.177  1.00  0.00    -0.006 C 
ATOM     18  C   UNL     1      24.376  74.889 104.675  1.00  0.00     0.008 C 
ATOM     19  C   UNL     1      25.526  75.906 106.652  1.00  0.00     0.008 C 
ENDBRANCH  12  17
ENDBRANCH  11  12
ENDBRANCH   1  11
TORSDOF 1
ENDMDL
