MODEL 1
REMARK VINA RESULT:    -4.956      0.000      0.000
REMARK INTER + INTRA:          -4.956
REMARK INTER:                  -4.956
REMARK INTRA:                   0.000
REMARK UNBOUND:                 0.000
REMARK SMILES CC(C)=C1CC[C@@H](C)CC1=O
REMARK SMILES IDX 8 1 7 2 6 3 5 4 4 5 2 6 1 7 3 8 10 9 11 10 9 11
REMARK H PARENT
REMARK Flexibility Score: inf
ROOT
ATOM      1  C   UNL     1      -5.635  30.607 -26.090  1.00  0.00     0.008 C 
ATOM      2  C   UNL     1      -4.996  29.745 -24.994  1.00  0.00    -0.006 C 
ATOM      3  C   UNL     1      -5.871  29.739 -23.731  1.00  0.00     0.008 C 
ATOM      4  C   UNL     1      -5.299  28.800 -22.661  1.00  0.00     0.039 C 
ATOM      5  C   UNL     1      -3.834  29.085 -22.357  1.00  0.00    -0.006 C 
ATOM      6  C   UNL     1      -3.316  28.880 -21.110  1.00  0.00    -0.070 C 
ATOM      7  C   UNL     1      -4.170  28.345 -19.984  1.00  0.00     0.039 C 
ATOM      8  C   UNL     1      -1.879  29.213 -20.782  1.00  0.00     0.039 C 
ATOM      9  C   UNL     1      -2.989  29.484 -23.521  1.00  0.00     0.159 C 
ATOM     10  O   UNL     1      -1.767  29.177 -23.579  1.00  0.00    -0.295 OA
ATOM     11  C   UNL     1      -3.590  30.261 -24.656  1.00  0.00     0.084 C 
ENDROOT
TORSDOF 0
ENDMDL
MODEL 2
REMARK VINA RESULT:    -4.897     17.844     18.892
REMARK INTER + INTRA:          -4.897
REMARK INTER:                  -4.897
REMARK INTRA:                   0.000
REMARK UNBOUND:                 0.000
REMARK SMILES CC(C)=C1CC[C@@H](C)CC1=O
REMARK SMILES IDX 8 1 7 2 6 3 5 4 4 5 2 6 1 7 3 8 10 9 11 10 9 11
REMARK H PARENT
REMARK Flexibility Score: inf
ROOT
ATOM      1  C   UNL     1      10.453  37.378 -14.500  1.00  0.00     0.008 C 
ATOM      2  C   UNL     1      10.352  36.672 -13.142  1.00  0.00    -0.006 C 
ATOM      3  C   UNL     1      11.457  35.612 -13.000  1.00  0.00     0.008 C 
ATOM      4  C   UNL     1      11.435  34.968 -11.609  1.00  0.00     0.039 C 
ATOM      5  C   UNL     1      10.058  34.433 -11.234  1.00  0.00    -0.006 C 
ATOM      6  C   UNL     1       9.918  33.334 -10.436  1.00  0.00    -0.070 C 
ATOM      7  C   UNL     1      11.122  32.613  -9.875  1.00  0.00     0.039 C 
ATOM      8  C   UNL     1       8.559  32.760 -10.104  1.00  0.00     0.039 C 
ATOM      9  C   UNL     1       8.893  35.245 -11.693  1.00  0.00     0.159 C 
ATOM     10  O   UNL     1       7.830  35.304 -11.017  1.00  0.00    -0.295 OA
ATOM     11  C   UNL     1       8.973  36.018 -12.977  1.00  0.00     0.084 C 
ENDROOT
TORSDOF 0
ENDMDL
MODEL 3
REMARK VINA RESULT:    -4.836      1.537      4.627
REMARK INTER + INTRA:          -4.836
REMARK INTER:                  -4.836
REMARK INTRA:                   0.000
REMARK UNBOUND:                 0.000
REMARK SMILES CC(C)=C1CC[C@@H](C)CC1=O
REMARK SMILES IDX 8 1 7 2 6 3 5 4 4 5 2 6 1 7 3 8 10 9 11 10 9 11
REMARK H PARENT
REMARK Flexibility Score: inf
ROOT
ATOM      1  C   UNL     1      -4.216  28.405 -21.839  1.00  0.00     0.008 C 
ATOM      2  C   UNL     1      -4.540  29.477 -22.886  1.00  0.00    -0.006 C 
ATOM      3  C   UNL     1      -5.870  29.161 -23.590  1.00  0.00     0.008 C 
ATOM      4  C   UNL     1      -6.262  30.276 -24.568  1.00  0.00     0.039 C 
ATOM      5  C   UNL     1      -5.145  30.610 -25.549  1.00  0.00    -0.006 C 
ATOM      6  C   UNL     1      -5.420  31.036 -26.817  1.00  0.00    -0.070 C 
ATOM      7  C   UNL     1      -6.843  31.211 -27.295  1.00  0.00     0.039 C 
ATOM      8  C   UNL     1      -4.322  31.316 -27.818  1.00  0.00     0.039 C 
ATOM      9  C   UNL     1      -3.756  30.556 -25.005  1.00  0.00     0.159 C 
ATOM     10  O   UNL     1      -2.855  31.327 -25.433  1.00  0.00    -0.295 OA
ATOM     11  C   UNL     1      -3.411  29.576 -23.921  1.00  0.00     0.084 C 
ENDROOT
TORSDOF 0
ENDMDL
MODEL 4
REMARK VINA RESULT:    -4.814      5.128      6.434
REMARK INTER + INTRA:          -4.814
REMARK INTER:                  -4.814
REMARK INTRA:                   0.000
REMARK UNBOUND:                 0.000
REMARK SMILES CC(C)=C1CC[C@@H](C)CC1=O
REMARK SMILES IDX 8 1 7 2 6 3 5 4 4 5 2 6 1 7 3 8 10 9 11 10 9 11
REMARK H PARENT
REMARK Flexibility Score: inf
ROOT
ATOM      1  C   UNL     1      -1.725  33.489 -28.776  1.00  0.00     0.008 C 
ATOM      2  C   UNL     1      -0.736  33.267 -27.626  1.00  0.00    -0.006 C 
ATOM      3  C   UNL     1       0.548  32.596 -28.138  1.00  0.00     0.008 C 
ATOM      4  C   UNL     1       1.589  32.459 -27.020  1.00  0.00     0.039 C 
ATOM      5  C   UNL     1       1.027  31.778 -25.779  1.00  0.00    -0.006 C 
ATOM      6  C   UNL     1       1.816  31.002 -24.978  1.00  0.00    -0.070 C 
ATOM      7  C   UNL     1       3.284  30.802 -25.279  1.00  0.00     0.039 C 
ATOM      8  C   UNL     1       1.257  30.275 -23.777  1.00  0.00     0.039 C 
ATOM      9  C   UNL     1      -0.388  32.103 -25.437  1.00  0.00     0.159 C 
ATOM     10  O   UNL     1      -0.781  32.136 -24.239  1.00  0.00    -0.295 OA
ATOM     11  C   UNL     1      -1.376  32.407 -26.527  1.00  0.00     0.084 C 
ENDROOT
TORSDOF 0
ENDMDL
MODEL 5
REMARK VINA RESULT:    -4.753      6.013      9.362
REMARK INTER + INTRA:          -4.753
REMARK INTER:                  -4.753
REMARK INTRA:                   0.000
REMARK UNBOUND:                 0.000
REMARK SMILES CC(C)=C1CC[C@@H](C)CC1=O
REMARK SMILES IDX 8 1 7 2 6 3 5 4 4 5 2 6 1 7 3 8 10 9 11 10 9 11
REMARK H PARENT
REMARK Flexibility Score: inf
ROOT
ATOM      1  C   UNL     1      -1.874  24.713 -12.912  1.00  0.00     0.008 C 
ATOM      2  C   UNL     1      -2.673  24.836 -14.214  1.00  0.00    -0.006 C 
ATOM      3  C   UNL     1      -1.992  25.822 -15.177  1.00  0.00     0.008 C 
ATOM      4  C   UNL     1      -2.722  25.880 -16.524  1.00  0.00     0.039 C 
ATOM      5  C   UNL     1      -4.213  26.150 -16.369  1.00  0.00    -0.006 C 
ATOM      6  C   UNL     1      -4.909  26.848 -17.314  1.00  0.00    -0.070 C 
ATOM      7  C   UNL     1      -4.233  27.367 -18.562  1.00  0.00     0.039 C 
ATOM      8  C   UNL     1      -6.376  27.171 -17.144  1.00  0.00     0.039 C 
ATOM      9  C   UNL     1      -4.876  25.511 -15.194  1.00  0.00     0.159 C 
ATOM     10  O   UNL     1      -6.079  25.135 -15.245  1.00  0.00    -0.295 OA
ATOM     11  C   UNL     1      -4.108  25.296 -13.922  1.00  0.00     0.084 C 
ENDROOT
TORSDOF 0
ENDMDL
MODEL 6
REMARK VINA RESULT:    -4.739     17.553     19.560
REMARK INTER + INTRA:          -4.739
REMARK INTER:                  -4.739
REMARK INTRA:                   0.000
REMARK UNBOUND:                 0.000
REMARK SMILES CC(C)=C1CC[C@@H](C)CC1=O
REMARK SMILES IDX 8 1 7 2 6 3 5 4 4 5 2 6 1 7 3 8 10 9 11 10 9 11
REMARK H PARENT
REMARK Flexibility Score: inf
ROOT
ATOM      1  C   UNL     1      11.840  41.125 -15.250  1.00  0.00     0.008 C 
ATOM      2  C   UNL     1      11.267  40.017 -14.358  1.00  0.00    -0.006 C 
ATOM      3  C   UNL     1      12.399  39.186 -13.732  1.00  0.00     0.008 C 
ATOM      4  C   UNL     1      11.848  38.139 -12.757  1.00  0.00     0.039 C 
ATOM      5  C   UNL     1      10.763  37.272 -13.382  1.00  0.00    -0.006 C 
ATOM      6  C   UNL     1      10.592  35.970 -13.009  1.00  0.00    -0.070 C 
ATOM      7  C   UNL     1      11.462  35.339 -11.946  1.00  0.00     0.039 C 
ATOM      8  C   UNL     1       9.557  35.084 -13.663  1.00  0.00     0.039 C 
ATOM      9  C   UNL     1       9.837  37.962 -14.329  1.00  0.00     0.159 C 
ATOM     10  O   UNL     1       8.632  37.609 -14.441  1.00  0.00    -0.295 OA
ATOM     11  C   UNL     1      10.333  39.106 -15.166  1.00  0.00     0.084 C 
ENDROOT
TORSDOF 0
ENDMDL
MODEL 7
REMARK VINA RESULT:    -4.733     17.953     19.190
REMARK INTER + INTRA:          -4.733
REMARK INTER:                  -4.733
REMARK INTRA:                   0.000
REMARK UNBOUND:                 0.000
REMARK SMILES CC(C)=C1CC[C@@H](C)CC1=O
REMARK SMILES IDX 8 1 7 2 6 3 5 4 4 5 2 6 1 7 3 8 10 9 11 10 9 11
REMARK H PARENT
REMARK Flexibility Score: inf
ROOT
ATOM      1  C   UNL     1      10.147  30.752  -9.268  1.00  0.00     0.008 C 
ATOM      2  C   UNL     1      10.355  32.122  -9.925  1.00  0.00    -0.006 C 
ATOM      3  C   UNL     1       9.012  32.717 -10.375  1.00  0.00     0.008 C 
ATOM      4  C   UNL     1       9.190  34.131 -10.942  1.00  0.00     0.039 C 
ATOM      5  C   UNL     1      10.252  34.193 -12.032  1.00  0.00    -0.006 C 
ATOM      6  C   UNL     1      10.155  35.080 -13.066  1.00  0.00    -0.070 C 
ATOM      7  C   UNL     1       8.999  36.049 -13.163  1.00  0.00     0.039 C 
ATOM      8  C   UNL     1      11.173  35.113 -14.184  1.00  0.00     0.039 C 
ATOM      9  C   UNL     1      11.445  33.318 -11.835  1.00  0.00     0.159 C 
ATOM     10  O   UNL     1      12.585  33.663 -12.250  1.00  0.00    -0.295 OA
ATOM     11  C   UNL     1      11.305  32.003 -11.126  1.00  0.00     0.084 C 
ENDROOT
TORSDOF 0
ENDMDL
MODEL 8
REMARK VINA RESULT:    -4.713      5.781      8.287
REMARK INTER + INTRA:          -4.713
REMARK INTER:                  -4.713
REMARK INTRA:                   0.000
REMARK UNBOUND:                 0.000
REMARK SMILES CC(C)=C1CC[C@@H](C)CC1=O
REMARK SMILES IDX 8 1 7 2 6 3 5 4 4 5 2 6 1 7 3 8 10 9 11 10 9 11
REMARK H PARENT
REMARK Flexibility Score: inf
ROOT
ATOM      1  C   UNL     1      -3.821  27.260 -19.367  1.00  0.00     0.008 C 
ATOM      2  C   UNL     1      -4.157  26.982 -17.896  1.00  0.00    -0.006 C 
ATOM      3  C   UNL     1      -3.057  26.132 -17.240  1.00  0.00     0.008 C 
ATOM      4  C   UNL     1      -3.327  25.931 -15.744  1.00  0.00     0.039 C 
ATOM      5  C   UNL     1      -4.725  25.392 -15.470  1.00  0.00    -0.006 C 
ATOM      6  C   UNL     1      -4.972  24.571 -14.407  1.00  0.00    -0.070 C 
ATOM      7  C   UNL     1      -3.873  24.177 -13.447  1.00  0.00     0.039 C 
ATOM      8  C   UNL     1      -6.343  23.984 -14.157  1.00  0.00     0.039 C 
ATOM      9  C   UNL     1      -5.811  25.906 -16.355  1.00  0.00     0.159 C 
ATOM     10  O   UNL     1      -6.989  26.053 -15.929  1.00  0.00    -0.295 OA
ATOM     11  C   UNL     1      -5.511  26.268 -17.781  1.00  0.00     0.084 C 
ENDROOT
TORSDOF 0
ENDMDL
MODEL 9
REMARK VINA RESULT:    -4.584     18.129     18.845
REMARK INTER + INTRA:          -4.584
REMARK INTER:                  -4.584
REMARK INTRA:                   0.000
REMARK UNBOUND:                 0.000
REMARK SMILES CC(C)=C1CC[C@@H](C)CC1=O
REMARK SMILES IDX 8 1 7 2 6 3 5 4 4 5 2 6 1 7 3 8 10 9 11 10 9 11
REMARK H PARENT
REMARK Flexibility Score: inf
ROOT
ATOM      1  C   UNL     1      10.045  32.011 -10.013  1.00  0.00     0.008 C 
ATOM      2  C   UNL     1       9.871  32.862 -11.277  1.00  0.00    -0.006 C 
ATOM      3  C   UNL     1      11.213  33.026 -12.008  1.00  0.00     0.008 C 
ATOM      4  C   UNL     1      11.040  33.789 -13.327  1.00  0.00     0.039 C 
ATOM      5  C   UNL     1      10.307  35.112 -13.145  1.00  0.00    -0.006 C 
ATOM      6  C   UNL     1      10.579  36.188 -13.940  1.00  0.00    -0.070 C 
ATOM      7  C   UNL     1      11.606  36.107 -15.046  1.00  0.00     0.039 C 
ATOM      8  C   UNL     1       9.900  37.523 -13.732  1.00  0.00     0.039 C 
ATOM      9  C   UNL     1       9.208  35.119 -12.135  1.00  0.00     0.159 C 
ATOM     10  O   UNL     1       8.189  35.848 -12.281  1.00  0.00    -0.295 OA
ATOM     11  C   UNL     1       9.296  34.240 -10.920  1.00  0.00     0.084 C 
ENDROOT
TORSDOF 0
ENDMDL
