MODEL 1
REMARK VINA RESULT:    -5.582      0.000      0.000
REMARK INTER + INTRA:          -7.015
REMARK INTER:                  -6.724
REMARK INTRA:                  -0.291
REMARK UNBOUND:                -0.291
REMARK SMILES O=c1c(O)c(-c2ccc(O)c(O)c2)oc2cc(O)cc(O)c12
REMARK SMILES IDX 5 1 3 2 2 3 1 4 22 5 20 6 19 7 17 8 16 9 15 10 14 11 6 12
REMARK SMILES IDX 7 13 8 14 9 15 13 16 11 17 10 18 12 20 4 22 21 24 18 26
REMARK H PARENT 10 19 12 21 4 23 21 25 18 27
REMARK Flexibility Score: inf
ROOT
ATOM      1  C   UNL     1     -12.807  -8.227  49.392  1.00  0.00     0.180 A 
ATOM      2  C   UNL     1     -12.444  -7.189  50.266  1.00  0.00     0.208 A 
ATOM      3  C   UNL     1     -12.315  -7.465  51.637  1.00  0.00     0.238 A 
ATOM      4  O   UNL     1     -12.042  -6.520  52.422  1.00  0.00    -0.285 OA
ATOM      5  C   UNL     1     -12.537  -8.780  52.114  1.00  0.00     0.111 A 
ATOM      6  C   UNL     1     -12.397  -9.182  53.476  1.00  0.00     0.134 A 
ATOM      7  C   UNL     1     -12.769 -10.478  53.855  1.00  0.00     0.093 A 
ATOM      8  C   UNL     1     -13.214 -11.404  52.913  1.00  0.00     0.123 A 
ATOM      9  C   UNL     1     -13.299 -11.039  51.569  1.00  0.00     0.094 A 
ATOM     10  C   UNL     1     -12.969  -9.744  51.165  1.00  0.00     0.146 A 
ATOM     11  O   UNL     1     -13.073  -9.433  49.878  1.00  0.00    -0.452 OA
ENDROOT
BRANCH   1  12
ATOM     12  C   UNL     1     -12.938  -8.018  47.932  1.00  0.00     0.025 A 
ATOM     13  C   UNL     1     -11.875  -8.368  47.087  1.00  0.00     0.016 A 
ATOM     14  C   UNL     1     -11.970  -8.160  45.710  1.00  0.00     0.051 A 
ATOM     15  C   UNL     1     -13.118  -7.588  45.151  1.00  0.00     0.157 A 
ATOM     16  C   UNL     1     -14.084  -7.422  47.377  1.00  0.00     0.062 A 
ATOM     17  C   UNL     1     -14.186  -7.208  45.997  1.00  0.00     0.158 A 
BRANCH  15  18
ATOM     18  O   UNL     1     -13.153  -7.415  43.766  1.00  0.00    -0.504 OA
ATOM     19  H   UNL     1     -13.290  -6.524  43.311  1.00  0.00     0.293 HD
ENDBRANCH  15  18
BRANCH  17  20
ATOM     20  O   UNL     1     -15.355  -6.613  45.514  1.00  0.00    -0.504 OA
ATOM     21  H   UNL     1     -15.618  -5.656  45.698  1.00  0.00     0.293 HD
ENDBRANCH  17  20
ENDBRANCH   1  12
BRANCH   2  22
ATOM     22  O   UNL     1     -12.249  -5.894  49.777  1.00  0.00    -0.502 OA
ATOM     23  H   UNL     1     -12.978  -5.380  49.295  1.00  0.00     0.293 HD
ENDBRANCH   2  22
BRANCH   6  24
ATOM     24  O   UNL     1     -11.875  -8.363  54.482  1.00  0.00    -0.507 OA
ATOM     25  H   UNL     1     -11.175  -8.648  55.149  1.00  0.00     0.293 HD
ENDBRANCH   6  24
BRANCH   8  26
ATOM     26  O   UNL     1     -13.561 -12.689  53.323  1.00  0.00    -0.508 OA
ATOM     27  H   UNL     1     -13.321 -13.505  52.771  1.00  0.00     0.293 HD
ENDBRANCH   8  26
TORSDOF 6
ENDMDL
MODEL 2
REMARK VINA RESULT:    -5.440      1.775      3.600
REMARK INTER + INTRA:          -6.844
REMARK INTER:                  -6.740
REMARK INTRA:                  -0.104
REMARK UNBOUND:                -0.291
REMARK SMILES O=c1c(O)c(-c2ccc(O)c(O)c2)oc2cc(O)cc(O)c12
REMARK SMILES IDX 5 1 3 2 2 3 1 4 22 5 20 6 19 7 17 8 16 9 15 10 14 11 6 12
REMARK SMILES IDX 7 13 8 14 9 15 13 16 11 17 10 18 12 20 4 22 21 24 18 26
REMARK H PARENT 10 19 12 21 4 23 21 25 18 27
REMARK Flexibility Score: inf
ROOT
ATOM      1  C   UNL     1     -12.646  -7.481  48.882  1.00  0.00     0.180 A 
ATOM      2  C   UNL     1     -12.554  -8.587  49.743  1.00  0.00     0.208 A 
ATOM      3  C   UNL     1     -12.389  -8.368  51.120  1.00  0.00     0.238 A 
ATOM      4  O   UNL     1     -12.254  -9.362  51.879  1.00  0.00    -0.285 OA
ATOM      5  C   UNL     1     -12.333  -7.045  51.620  1.00  0.00     0.111 A 
ATOM      6  C   UNL     1     -12.208  -6.704  53.001  1.00  0.00     0.134 A 
ATOM      7  C   UNL     1     -12.031  -5.365  53.368  1.00  0.00     0.093 A 
ATOM      8  C   UNL     1     -12.040  -4.349  52.414  1.00  0.00     0.123 A 
ATOM      9  C   UNL     1     -12.221  -4.664  51.068  1.00  0.00     0.094 A 
ATOM     10  C   UNL     1     -12.364  -5.994  50.665  1.00  0.00     0.146 A 
ATOM     11  O   UNL     1     -12.524  -6.254  49.373  1.00  0.00    -0.452 OA
ENDROOT
BRANCH   1  12
ATOM     12  C   UNL     1     -12.845  -7.632  47.423  1.00  0.00     0.025 A 
ATOM     13  C   UNL     1     -11.875  -8.295  46.657  1.00  0.00     0.016 A 
ATOM     14  C   UNL     1     -12.035  -8.430  45.278  1.00  0.00     0.051 A 
ATOM     15  C   UNL     1     -13.155  -7.897  44.632  1.00  0.00     0.157 A 
ATOM     16  C   UNL     1     -13.962  -7.075  46.775  1.00  0.00     0.062 A 
ATOM     17  C   UNL     1     -14.129  -7.204  45.390  1.00  0.00     0.158 A 
BRANCH  15  18
ATOM     18  O   UNL     1     -13.259  -8.073  43.251  1.00  0.00    -0.504 OA
ATOM     19  H   UNL     1     -12.730  -8.755  42.727  1.00  0.00     0.293 HD
ENDBRANCH  15  18
BRANCH  17  20
ATOM     20  O   UNL     1     -15.263  -6.627  44.814  1.00  0.00    -0.504 OA
ATOM     21  H   UNL     1     -16.207  -6.936  44.995  1.00  0.00     0.293 HD
ENDBRANCH  17  20
ENDBRANCH   1  12
BRANCH   2  22
ATOM     22  O   UNL     1     -12.591  -9.885  49.225  1.00  0.00    -0.502 OA
ATOM     23  H   UNL     1     -13.305 -10.555  49.487  1.00  0.00     0.293 HD
ENDBRANCH   2  22
BRANCH   6  24
ATOM     24  O   UNL     1     -12.279  -7.634  54.043  1.00  0.00    -0.507 OA
ATOM     25  H   UNL     1     -12.123  -8.625  53.940  1.00  0.00     0.293 HD
ENDBRANCH   6  24
BRANCH   8  26
ATOM     26  O   UNL     1     -11.877  -3.026  52.818  1.00  0.00    -0.508 OA
ATOM     27  H   UNL     1     -12.627  -2.349  52.735  1.00  0.00     0.293 HD
ENDBRANCH   8  26
TORSDOF 6
ENDMDL
MODEL 3
REMARK VINA RESULT:    -5.314      2.515      7.367
REMARK INTER + INTRA:          -6.692
REMARK INTER:                  -6.377
REMARK INTRA:                  -0.315
REMARK UNBOUND:                -0.291
REMARK SMILES O=c1c(O)c(-c2ccc(O)c(O)c2)oc2cc(O)cc(O)c12
REMARK SMILES IDX 5 1 3 2 2 3 1 4 22 5 20 6 19 7 17 8 16 9 15 10 14 11 6 12
REMARK SMILES IDX 7 13 8 14 9 15 13 16 11 17 10 18 12 20 4 22 21 24 18 26
REMARK H PARENT 10 19 12 21 4 23 21 25 18 27
REMARK Flexibility Score: inf
ROOT
ATOM      1  C   UNL     1     -12.892 -11.917  52.736  1.00  0.00     0.180 A 
ATOM      2  C   UNL     1     -12.712 -10.902  53.690  1.00  0.00     0.208 A 
ATOM      3  C   UNL     1     -12.536  -9.579  53.252  1.00  0.00     0.238 A 
ATOM      4  O   UNL     1     -12.321  -8.682  54.109  1.00  0.00    -0.285 OA
ATOM      5  C   UNL     1     -12.557  -9.287  51.868  1.00  0.00     0.111 A 
ATOM      6  C   UNL     1     -12.428  -7.978  51.313  1.00  0.00     0.134 A 
ATOM      7  C   UNL     1     -12.332  -7.822  49.925  1.00  0.00     0.093 A 
ATOM      8  C   UNL     1     -12.426  -8.919  49.069  1.00  0.00     0.123 A 
ATOM      9  C   UNL     1     -12.611 -10.196  49.598  1.00  0.00     0.094 A 
ATOM     10  C   UNL     1     -12.675 -10.389  50.980  1.00  0.00     0.146 A 
ATOM     11  O   UNL     1     -12.841 -11.621  51.443  1.00  0.00    -0.452 OA
ENDROOT
BRANCH   1  12
ATOM     12  C   UNL     1     -13.109 -13.331  53.121  1.00  0.00     0.025 A 
ATOM     13  C   UNL     1     -12.045 -14.241  53.037  1.00  0.00     0.016 A 
ATOM     14  C   UNL     1     -12.235 -15.581  53.375  1.00  0.00     0.051 A 
ATOM     15  C   UNL     1     -13.488 -16.044  53.790  1.00  0.00     0.157 A 
ATOM     16  C   UNL     1     -14.376 -13.796  53.515  1.00  0.00     0.062 A 
ATOM     17  C   UNL     1     -14.575 -15.140  53.854  1.00  0.00     0.158 A 
BRANCH  15  18
ATOM     18  O   UNL     1     -13.609 -17.395  54.121  1.00  0.00    -0.504 OA
ATOM     19  H   UNL     1     -13.817 -17.732  55.050  1.00  0.00     0.293 HD
ENDBRANCH  15  18
BRANCH  17  20
ATOM     20  O   UNL     1     -15.859 -15.532  54.239  1.00  0.00    -0.504 OA
ATOM     21  H   UNL     1     -16.278 -16.416  53.990  1.00  0.00     0.293 HD
ENDBRANCH  17  20
ENDBRANCH   1  12
BRANCH   2  22
ATOM     22  O   UNL     1     -12.673 -11.216  55.052  1.00  0.00    -0.502 OA
ATOM     23  H   UNL     1     -12.987 -12.109  55.412  1.00  0.00     0.293 HD
ENDBRANCH   2  22
BRANCH   6  24
ATOM     24  O   UNL     1     -12.418  -6.805  52.075  1.00  0.00    -0.507 OA
ATOM     25  H   UNL     1     -12.396  -5.872  51.694  1.00  0.00     0.293 HD
ENDBRANCH   6  24
BRANCH   8  26
ATOM     26  O   UNL     1     -12.342  -8.724  47.692  1.00  0.00    -0.508 OA
ATOM     27  H   UNL     1     -11.738  -8.014  47.293  1.00  0.00     0.293 HD
ENDBRANCH   8  26
TORSDOF 6
ENDMDL
MODEL 4
REMARK VINA RESULT:    -5.222      1.597      6.450
REMARK INTER + INTRA:          -6.582
REMARK INTER:                  -6.371
REMARK INTRA:                  -0.211
REMARK UNBOUND:                -0.291
REMARK SMILES O=c1c(O)c(-c2ccc(O)c(O)c2)oc2cc(O)cc(O)c12
REMARK SMILES IDX 5 1 3 2 2 3 1 4 22 5 20 6 19 7 17 8 16 9 15 10 14 11 6 12
REMARK SMILES IDX 7 13 8 14 9 15 13 16 11 17 10 18 12 20 4 22 21 24 18 26
REMARK H PARENT 10 19 12 21 4 23 21 25 18 27
REMARK Flexibility Score: inf
ROOT
ATOM      1  C   UNL     1     -12.577  -9.826  51.414  1.00  0.00     0.180 A 
ATOM      2  C   UNL     1     -12.340  -8.778  52.320  1.00  0.00     0.208 A 
ATOM      3  C   UNL     1     -12.170  -7.475  51.824  1.00  0.00     0.238 A 
ATOM      4  O   UNL     1     -11.904  -6.550  52.635  1.00  0.00    -0.285 OA
ATOM      5  C   UNL     1     -12.254  -7.234  50.432  1.00  0.00     0.111 A 
ATOM      6  C   UNL     1     -12.137  -5.949  49.823  1.00  0.00     0.134 A 
ATOM      7  C   UNL     1     -12.106  -5.846  48.427  1.00  0.00     0.093 A 
ATOM      8  C   UNL     1     -12.253  -6.973  47.619  1.00  0.00     0.123 A 
ATOM      9  C   UNL     1     -12.427  -8.227  48.203  1.00  0.00     0.094 A 
ATOM     10  C   UNL     1     -12.426  -8.367  49.593  1.00  0.00     0.146 A 
ATOM     11  O   UNL     1     -12.585  -9.579  50.110  1.00  0.00    -0.452 OA
ENDROOT
BRANCH   1  12
ATOM     12  C   UNL     1     -12.791 -11.221  51.862  1.00  0.00     0.025 A 
ATOM     13  C   UNL     1     -11.875 -12.215  51.490  1.00  0.00     0.016 A 
ATOM     14  C   UNL     1     -12.070 -13.539  51.885  1.00  0.00     0.051 A 
ATOM     15  C   UNL     1     -13.187 -13.901  52.644  1.00  0.00     0.157 A 
ATOM     16  C   UNL     1     -13.927 -11.585  52.606  1.00  0.00     0.062 A 
ATOM     17  C   UNL     1     -14.132 -12.912  53.004  1.00  0.00     0.158 A 
BRANCH  15  18
ATOM     18  O   UNL     1     -13.320 -15.242  53.013  1.00  0.00    -0.504 OA
ATOM     19  H   UNL     1     -13.187 -15.585  53.954  1.00  0.00     0.293 HD
ENDBRANCH  15  18
BRANCH  17  20
ATOM     20  O   UNL     1     -15.282 -13.201  53.744  1.00  0.00    -0.504 OA
ATOM     21  H   UNL     1     -15.977 -12.514  53.997  1.00  0.00     0.293 HD
ENDBRANCH  17  20
ENDBRANCH   1  12
BRANCH   2  22
ATOM     22  O   UNL     1     -12.240  -9.042  53.689  1.00  0.00    -0.502 OA
ATOM     23  H   UNL     1     -12.121  -8.307  54.376  1.00  0.00     0.293 HD
ENDBRANCH   2  22
BRANCH   6  24
ATOM     24  O   UNL     1     -12.077  -4.749  50.539  1.00  0.00    -0.507 OA
ATOM     25  H   UNL     1     -11.225  -4.306  50.847  1.00  0.00     0.293 HD
ENDBRANCH   6  24
BRANCH   8  26
ATOM     26  O   UNL     1     -12.232  -6.831  46.233  1.00  0.00    -0.508 OA
ATOM     27  H   UNL     1     -11.361  -6.783  45.718  1.00  0.00     0.293 HD
ENDBRANCH   8  26
TORSDOF 6
ENDMDL
MODEL 5
REMARK VINA RESULT:    -5.139      1.455      2.121
REMARK INTER + INTRA:          -6.482
REMARK INTER:                  -6.729
REMARK INTRA:                   0.248
REMARK UNBOUND:                -0.291
REMARK SMILES O=c1c(O)c(-c2ccc(O)c(O)c2)oc2cc(O)cc(O)c12
REMARK SMILES IDX 5 1 3 2 2 3 1 4 22 5 20 6 19 7 17 8 16 9 15 10 14 11 6 12
REMARK SMILES IDX 7 13 8 14 9 15 13 16 11 17 10 18 12 20 4 22 21 24 18 26
REMARK H PARENT 10 19 12 21 4 23 21 25 18 27
REMARK Flexibility Score: inf
ROOT
ATOM      1  C   UNL     1     -12.725  -8.839  50.935  1.00  0.00     0.180 A 
ATOM      2  C   UNL     1     -12.291  -8.225  52.121  1.00  0.00     0.208 A 
ATOM      3  C   UNL     1     -12.213  -8.990  53.296  1.00  0.00     0.238 A 
ATOM      4  O   UNL     1     -11.876  -8.421  54.367  1.00  0.00    -0.285 OA
ATOM      5  C   UNL     1     -12.555 -10.363  53.266  1.00  0.00     0.111 A 
ATOM      6  C   UNL     1     -12.475 -11.243  54.387  1.00  0.00     0.134 A 
ATOM      7  C   UNL     1     -12.964 -12.551  54.275  1.00  0.00     0.093 A 
ATOM      8  C   UNL     1     -13.467 -13.030  53.067  1.00  0.00     0.123 A 
ATOM      9  C   UNL     1     -13.496 -12.197  51.948  1.00  0.00     0.094 A 
ATOM     10  C   UNL     1     -13.049 -10.876  52.037  1.00  0.00     0.146 A 
ATOM     11  O   UNL     1     -13.102 -10.112  50.953  1.00  0.00    -0.452 OA
ENDROOT
BRANCH   1  12
ATOM     12  C   UNL     1     -12.810  -8.105  49.652  1.00  0.00     0.025 A 
ATOM     13  C   UNL     1     -11.875  -7.099  49.369  1.00  0.00     0.016 A 
ATOM     14  C   UNL     1     -11.950  -6.381  48.174  1.00  0.00     0.051 A 
ATOM     15  C   UNL     1     -12.964  -6.642  47.246  1.00  0.00     0.157 A 
ATOM     16  C   UNL     1     -13.844  -8.354  48.732  1.00  0.00     0.062 A 
ATOM     17  C   UNL     1     -13.928  -7.637  47.532  1.00  0.00     0.158 A 
BRANCH  15  18
ATOM     18  O   UNL     1     -12.978  -5.893  46.067  1.00  0.00    -0.504 OA
ATOM     19  H   UNL     1     -13.575  -6.094  45.278  1.00  0.00     0.293 HD
ENDBRANCH  15  18
BRANCH  17  20
ATOM     20  O   UNL     1     -14.980  -7.939  46.664  1.00  0.00    -0.504 OA
ATOM     21  H   UNL     1     -15.882  -8.276  46.967  1.00  0.00     0.293 HD
ENDBRANCH  17  20
ENDBRANCH   1  12
BRANCH   2  22
ATOM     22  O   UNL     1     -11.978  -6.862  52.132  1.00  0.00    -0.502 OA
ATOM     23  H   UNL     1     -12.302  -6.224  51.415  1.00  0.00     0.293 HD
ENDBRANCH   2  22
BRANCH   6  24
ATOM     24  O   UNL     1     -11.905 -10.893  55.615  1.00  0.00    -0.507 OA
ATOM     25  H   UNL     1     -11.277 -10.116  55.756  1.00  0.00     0.293 HD
ENDBRANCH   6  24
BRANCH   8  26
ATOM     26  O   UNL     1     -13.930 -14.341  52.987  1.00  0.00    -0.508 OA
ATOM     27  H   UNL     1     -14.443 -14.675  52.179  1.00  0.00     0.293 HD
ENDBRANCH   8  26
TORSDOF 6
ENDMDL
MODEL 6
REMARK VINA RESULT:    -5.019      2.552      6.365
REMARK INTER + INTRA:          -6.337
REMARK INTER:                  -6.297
REMARK INTRA:                  -0.040
REMARK UNBOUND:                -0.291
REMARK SMILES O=c1c(O)c(-c2ccc(O)c(O)c2)oc2cc(O)cc(O)c12
REMARK SMILES IDX 5 1 3 2 2 3 1 4 22 5 20 6 19 7 17 8 16 9 15 10 14 11 6 12
REMARK SMILES IDX 7 13 8 14 9 15 13 16 11 17 10 18 12 20 4 22 21 24 18 26
REMARK H PARENT 10 19 12 21 4 23 21 25 18 27
REMARK Flexibility Score: inf
ROOT
ATOM      1  C   UNL     1     -12.600  -9.497  51.455  1.00  0.00     0.180 A 
ATOM      2  C   UNL     1     -12.705  -9.064  50.122  1.00  0.00     0.208 A 
ATOM      3  C   UNL     1     -12.572  -7.696  49.837  1.00  0.00     0.238 A 
ATOM      4  O   UNL     1     -12.720  -7.308  48.649  1.00  0.00    -0.285 OA
ATOM      5  C   UNL     1     -12.319  -6.779  50.886  1.00  0.00     0.111 A 
ATOM      6  C   UNL     1     -12.127  -5.376  50.708  1.00  0.00     0.134 A 
ATOM      7  C   UNL     1     -12.014  -4.547  51.831  1.00  0.00     0.093 A 
ATOM      8  C   UNL     1     -12.021  -5.076  53.120  1.00  0.00     0.123 A 
ATOM      9  C   UNL     1     -12.149  -6.452  53.304  1.00  0.00     0.094 A 
ATOM     10  C   UNL     1     -12.299  -7.303  52.206  1.00  0.00     0.146 A 
ATOM     11  O   UNL     1     -12.429  -8.606  52.424  1.00  0.00    -0.452 OA
ENDROOT
BRANCH   1  12
ATOM     12  C   UNL     1     -12.705 -10.925  51.830  1.00  0.00     0.025 A 
ATOM     13  C   UNL     1     -11.875 -11.867  51.204  1.00  0.00     0.016 A 
ATOM     14  C   UNL     1     -11.972 -13.220  51.530  1.00  0.00     0.051 A 
ATOM     15  C   UNL     1     -12.906 -13.664  52.472  1.00  0.00     0.157 A 
ATOM     16  C   UNL     1     -13.660 -11.370  52.761  1.00  0.00     0.062 A 
ATOM     17  C   UNL     1     -13.766 -12.727  53.091  1.00  0.00     0.158 A 
BRANCH  15  18
ATOM     18  O   UNL     1     -12.947 -15.030  52.758  1.00  0.00    -0.504 OA
ATOM     19  H   UNL     1     -13.800 -15.562  52.852  1.00  0.00     0.293 HD
ENDBRANCH  15  18
BRANCH  17  20
ATOM     20  O   UNL     1     -14.736 -13.096  54.026  1.00  0.00    -0.504 OA
ATOM     21  H   UNL     1     -14.713 -12.828  54.999  1.00  0.00     0.293 HD
ENDBRANCH  17  20
ENDBRANCH   1  12
BRANCH   2  22
ATOM     22  O   UNL     1     -12.975  -9.984  49.104  1.00  0.00    -0.502 OA
ATOM     23  H   UNL     1     -12.606  -9.880  48.166  1.00  0.00     0.293 HD
ENDBRANCH   2  22
BRANCH   6  24
ATOM     24  O   UNL     1     -12.012  -4.757  49.460  1.00  0.00    -0.507 OA
ATOM     25  H   UNL     1     -12.790  -4.434  48.905  1.00  0.00     0.293 HD
ENDBRANCH   6  24
BRANCH   8  26
ATOM     26  O   UNL     1     -11.891  -4.222  54.214  1.00  0.00    -0.508 OA
ATOM     27  H   UNL     1     -10.984  -3.892  54.524  1.00  0.00     0.293 HD
ENDBRANCH   8  26
TORSDOF 6
ENDMDL
MODEL 7
REMARK VINA RESULT:    -4.790      2.516      4.373
REMARK INTER + INTRA:          -6.061
REMARK INTER:                  -5.921
REMARK INTRA:                  -0.140
REMARK UNBOUND:                -0.291
REMARK SMILES O=c1c(O)c(-c2ccc(O)c(O)c2)oc2cc(O)cc(O)c12
REMARK SMILES IDX 5 1 3 2 2 3 1 4 22 5 20 6 19 7 17 8 16 9 15 10 14 11 6 12
REMARK SMILES IDX 7 13 8 14 9 15 13 16 11 17 10 18 12 20 4 22 21 24 18 26
REMARK H PARENT 10 19 12 21 4 23 21 25 18 27
REMARK Flexibility Score: inf
ROOT
ATOM      1  C   UNL     1     -13.158 -11.098  52.299  1.00  0.00     0.180 A 
ATOM      2  C   UNL     1     -12.647 -10.565  53.494  1.00  0.00     0.208 A 
ATOM      3  C   UNL     1     -12.905 -11.231  54.703  1.00  0.00     0.238 A 
ATOM      4  O   UNL     1     -12.490 -10.720  55.776  1.00  0.00    -0.285 OA
ATOM      5  C   UNL     1     -13.659 -12.429  54.700  1.00  0.00     0.111 A 
ATOM      6  C   UNL     1     -13.948 -13.208  55.860  1.00  0.00     0.134 A 
ATOM      7  C   UNL     1     -14.812 -14.305  55.758  1.00  0.00     0.093 A 
ATOM      8  C   UNL     1     -15.346 -14.689  54.529  1.00  0.00     0.123 A 
ATOM      9  C   UNL     1     -15.023 -13.970  53.378  1.00  0.00     0.094 A 
ATOM     10  C   UNL     1     -14.192 -12.850  53.453  1.00  0.00     0.146 A 
ATOM     11  O   UNL     1     -13.917 -12.187  52.336  1.00  0.00    -0.452 OA
ENDROOT
BRANCH   1  12
ATOM     12  C   UNL     1     -12.907 -10.467  50.983  1.00  0.00     0.025 A 
ATOM     13  C   UNL     1     -12.140 -11.147  50.026  1.00  0.00     0.016 A 
ATOM     14  C   UNL     1     -11.875 -10.560  48.788  1.00  0.00     0.051 A 
ATOM     15  C   UNL     1     -12.355  -9.282  48.485  1.00  0.00     0.157 A 
ATOM     16  C   UNL     1     -13.372  -9.173  50.691  1.00  0.00     0.062 A 
ATOM     17  C   UNL     1     -13.108  -8.576  49.452  1.00  0.00     0.158 A 
BRANCH  15  18
ATOM     18  O   UNL     1     -12.061  -8.755  47.225  1.00  0.00    -0.504 OA
ATOM     19  H   UNL     1     -11.521  -7.915  47.076  1.00  0.00     0.293 HD
ENDBRANCH  15  18
BRANCH  17  20
ATOM     20  O   UNL     1     -13.603  -7.289  49.229  1.00  0.00    -0.504 OA
ATOM     21  H   UNL     1     -14.045  -6.724  49.939  1.00  0.00     0.293 HD
ENDBRANCH  17  20
ENDBRANCH   1  12
BRANCH   2  22
ATOM     22  O   UNL     1     -11.923  -9.369  53.477  1.00  0.00    -0.502 OA
ATOM     23  H   UNL     1     -11.236  -9.139  54.185  1.00  0.00     0.293 HD
ENDBRANCH   2  22
BRANCH   6  24
ATOM     24  O   UNL     1     -13.393 -12.965  57.121  1.00  0.00    -0.507 OA
ATOM     25  H   UNL     1     -13.889 -13.057  57.994  1.00  0.00     0.293 HD
ENDBRANCH   6  24
BRANCH   8  26
ATOM     26  O   UNL     1     -16.190 -15.795  54.462  1.00  0.00    -0.508 OA
ATOM     27  H   UNL     1     -17.007 -15.803  53.862  1.00  0.00     0.293 HD
ENDBRANCH   8  26
TORSDOF 6
ENDMDL
MODEL 8
REMARK VINA RESULT:    -4.739      2.105      3.867
REMARK INTER + INTRA:          -6.000
REMARK INTER:                  -5.829
REMARK INTRA:                  -0.170
REMARK UNBOUND:                -0.291
REMARK SMILES O=c1c(O)c(-c2ccc(O)c(O)c2)oc2cc(O)cc(O)c12
REMARK SMILES IDX 5 1 3 2 2 3 1 4 22 5 20 6 19 7 17 8 16 9 15 10 14 11 6 12
REMARK SMILES IDX 7 13 8 14 9 15 13 16 11 17 10 18 12 20 4 22 21 24 18 26
REMARK H PARENT 10 19 12 21 4 23 21 25 18 27
REMARK Flexibility Score: inf
ROOT
ATOM      1  C   UNL     1     -12.692 -10.045  51.007  1.00  0.00     0.180 A 
ATOM      2  C   UNL     1     -12.293 -11.306  50.536  1.00  0.00     0.208 A 
ATOM      3  C   UNL     1     -12.285 -12.395  51.423  1.00  0.00     0.238 A 
ATOM      4  O   UNL     1     -11.875 -13.510  51.009  1.00  0.00    -0.285 OA
ATOM      5  C   UNL     1     -12.692 -12.211  52.766  1.00  0.00     0.111 A 
ATOM      6  C   UNL     1     -12.762 -13.250  53.742  1.00  0.00     0.134 A 
ATOM      7  C   UNL     1     -13.052 -12.929  55.074  1.00  0.00     0.093 A 
ATOM      8  C   UNL     1     -13.339 -11.618  55.452  1.00  0.00     0.123 A 
ATOM      9  C   UNL     1     -13.332 -10.603  54.496  1.00  0.00     0.094 A 
ATOM     10  C   UNL     1     -13.011 -10.886  53.166  1.00  0.00     0.146 A 
ATOM     11  O   UNL     1     -13.005  -9.890  52.288  1.00  0.00    -0.452 OA
ENDROOT
BRANCH   1  12
ATOM     12  C   UNL     1     -12.750  -8.856  50.126  1.00  0.00     0.025 A 
ATOM     13  C   UNL     1     -11.963  -7.735  50.425  1.00  0.00     0.016 A 
ATOM     14  C   UNL     1     -12.019  -6.597  49.619  1.00  0.00     0.051 A 
ATOM     15  C   UNL     1     -12.869  -6.549  48.509  1.00  0.00     0.157 A 
ATOM     16  C   UNL     1     -13.623  -8.803  49.025  1.00  0.00     0.062 A 
ATOM     17  C   UNL     1     -13.687  -7.664  48.212  1.00  0.00     0.158 A 
BRANCH  15  18
ATOM     18  O   UNL     1     -12.871  -5.384  47.738  1.00  0.00    -0.504 OA
ATOM     19  H   UNL     1     -13.094  -4.468  48.100  1.00  0.00     0.293 HD
ENDBRANCH  15  18
BRANCH  17  20
ATOM     20  O   UNL     1     -14.574  -7.682  47.133  1.00  0.00    -0.504 OA
ATOM     21  H   UNL     1     -14.400  -8.170  46.267  1.00  0.00     0.293 HD
ENDBRANCH  17  20
ENDBRANCH   1  12
BRANCH   2  22
ATOM     22  O   UNL     1     -11.875 -11.461  49.211  1.00  0.00    -0.502 OA
ATOM     23  H   UNL     1     -11.495 -12.332  48.859  1.00  0.00     0.293 HD
ENDBRANCH   2  22
BRANCH   6  24
ATOM     24  O   UNL     1     -12.583 -14.606  53.451  1.00  0.00    -0.507 OA
ATOM     25  H   UNL     1     -11.713 -15.020  53.156  1.00  0.00     0.293 HD
ENDBRANCH   6  24
BRANCH   8  26
ATOM     26  O   UNL     1     -13.639 -11.338  56.783  1.00  0.00    -0.508 OA
ATOM     27  H   UNL     1     -12.911 -11.152  57.463  1.00  0.00     0.293 HD
ENDBRANCH   8  26
TORSDOF 6
ENDMDL
