MODEL 1
REMARK VINA RESULT:    -4.873      0.000      0.000
REMARK INTER + INTRA:         -13.669
REMARK INTER:                 -11.140
REMARK INTRA:                  -2.529
REMARK UNBOUND:                -2.529
REMARK SMILES CCCCCCCCCCCCCCCCCCCCCCCC(=O)[O-]
REMARK SMILES IDX 13 1 14 2 15 3 16 4 17 5 18 6 19 7 20 8 21 9 22 10 23 11
REMARK SMILES IDX 24 12 25 13 26 14 12 15 11 16 10 17 9 18 8 19 7 20 6 21 5 22
REMARK SMILES IDX 4 23 3 24 2 25 1 26
REMARK H PARENT
REMARK Flexibility Score: inf
ROOT
ATOM      1  C   UNL     1       5.385   0.487  68.512  1.00  0.00     0.000 C 
ENDROOT
BRANCH   1   2
ATOM      2  C   UNL     1       6.473   1.201  69.332  1.00  0.00     0.000 C 
BRANCH   2   3
ATOM      3  C   UNL     1       7.205   2.284  68.523  1.00  0.00     0.000 C 
BRANCH   3   4
ATOM      4  C   UNL     1       8.638   1.869  68.144  1.00  0.00     0.000 C 
BRANCH   4   5
ATOM      5  C   UNL     1       9.398   2.978  67.403  1.00  0.00     0.000 C 
BRANCH   5   6
ATOM      6  C   UNL     1      10.811   2.546  66.977  1.00  0.00     0.000 C 
BRANCH   6   7
ATOM      7  C   UNL     1      10.901   2.215  65.476  1.00  0.00     0.000 C 
BRANCH   7   8
ATOM      8  C   UNL     1      11.941   1.136  65.112  1.00  0.00     0.000 C 
BRANCH   8   9
ATOM      9  C   UNL     1      12.353   0.208  66.269  1.00  0.00     0.000 C 
BRANCH   9  10
ATOM     10  C   UNL     1      11.877  -1.242  66.069  1.00  0.00     0.006 C 
BRANCH  10  11
ATOM     11  C   UNL     1      11.428  -1.513  64.626  1.00  0.00     0.053 C 
BRANCH  11  12
ATOM     12  C   UNL     1      10.609  -2.764  64.520  1.00  0.00     0.041 C 
ATOM     13  O   UNL     1      10.531  -3.556  65.496  1.00  0.00    -0.550 OA
ATOM     14  O   UNL     1       9.911  -3.042  63.349  1.00  0.00    -0.550 OA
ENDBRANCH  11  12
ENDBRANCH  10  11
ENDBRANCH   9  10
ENDBRANCH   8   9
ENDBRANCH   7   8
ENDBRANCH   6   7
ENDBRANCH   5   6
ENDBRANCH   4   5
ENDBRANCH   3   4
ENDBRANCH   2   3
ENDBRANCH   1   2
BRANCH   1  15
ATOM     15  C   UNL     1       4.146   1.380  68.277  1.00  0.00     0.000 C 
BRANCH  15  16
ATOM     16  C   UNL     1       2.861   0.591  67.959  1.00  0.00     0.000 C 
BRANCH  16  17
ATOM     17  C   UNL     1       1.826   0.549  69.097  1.00  0.00     0.000 C 
BRANCH  17  18
ATOM     18  C   UNL     1       0.637  -0.405  68.862  1.00  0.00    -0.000 C 
BRANCH  18  19
ATOM     19  C   UNL     1       0.570  -0.976  67.429  1.00  0.00    -0.000 C 
BRANCH  19  20
ATOM     20  C   UNL     1       0.022  -2.411  67.395  1.00  0.00    -0.000 C 
BRANCH  20  21
ATOM     21  C   UNL     1       1.046  -3.382  66.793  1.00  0.00    -0.000 C 
BRANCH  21  22
ATOM     22  C   UNL     1       2.290  -2.627  66.297  1.00  0.00    -0.000 C 
BRANCH  22  23
ATOM     23  C   UNL     1       3.590  -3.408  66.544  1.00  0.00    -0.000 C 
BRANCH  23  24
ATOM     24  C   UNL     1       4.440  -2.793  67.672  1.00  0.00    -0.000 C 
BRANCH  24  25
ATOM     25  C   UNL     1       4.225  -3.498  69.020  1.00  0.00    -0.003 C 
ATOM     26  C   UNL     1       3.425  -2.650  70.011  1.00  0.00     0.004 C 
ENDBRANCH  24  25
ENDBRANCH  23  24
ENDBRANCH  22  23
ENDBRANCH  21  22
ENDBRANCH  20  21
ENDBRANCH  19  20
ENDBRANCH  18  19
ENDBRANCH  17  18
ENDBRANCH  16  17
ENDBRANCH  15  16
ENDBRANCH   1  15
TORSDOF 22
ENDMDL
MODEL 2
REMARK VINA RESULT:    -3.926      1.561      3.043
REMARK INTER + INTRA:         -11.505
REMARK INTER:                 -10.158
REMARK INTRA:                  -1.347
REMARK UNBOUND:                -2.529
REMARK SMILES CCCCCCCCCCCCCCCCCCCCCCCC(=O)[O-]
REMARK SMILES IDX 13 1 14 2 15 3 16 4 17 5 18 6 19 7 20 8 21 9 22 10 23 11
REMARK SMILES IDX 24 12 25 13 26 14 12 15 11 16 10 17 9 18 8 19 7 20 6 21 5 22
REMARK SMILES IDX 4 23 3 24 2 25 1 26
REMARK H PARENT
REMARK Flexibility Score: inf
ROOT
ATOM      1  C   UNL     1       5.419   0.315  68.518  1.00  0.00     0.000 C 
ENDROOT
BRANCH   1   2
ATOM      2  C   UNL     1       5.815   1.581  69.298  1.00  0.00     0.000 C 
BRANCH   2   3
ATOM      3  C   UNL     1       6.667   2.547  68.459  1.00  0.00     0.000 C 
BRANCH   3   4
ATOM      4  C   UNL     1       8.101   2.031  68.242  1.00  0.00     0.000 C 
BRANCH   4   5
ATOM      5  C   UNL     1       8.977   3.027  67.467  1.00  0.00     0.000 C 
BRANCH   5   6
ATOM      6  C   UNL     1      10.341   2.436  67.076  1.00  0.00     0.000 C 
BRANCH   6   7
ATOM      7  C   UNL     1      10.588   2.473  65.556  1.00  0.00     0.000 C 
BRANCH   7   8
ATOM      8  C   UNL     1      11.638   1.464  65.046  1.00  0.00     0.000 C 
BRANCH   8   9
ATOM      9  C   UNL     1      12.297   0.599  66.136  1.00  0.00     0.000 C 
BRANCH   9  10
ATOM     10  C   UNL     1      11.938  -0.892  66.011  1.00  0.00     0.006 C 
BRANCH  10  11
ATOM     11  C   UNL     1      11.534  -1.276  64.580  1.00  0.00     0.053 C 
BRANCH  11  12
ATOM     12  C   UNL     1      10.739  -2.546  64.544  1.00  0.00     0.041 C 
ATOM     13  O   UNL     1       9.997  -2.801  63.559  1.00  0.00    -0.550 OA
ATOM     14  O   UNL     1      10.837  -3.458  65.589  1.00  0.00    -0.550 OA
ENDBRANCH  11  12
ENDBRANCH  10  11
ENDBRANCH   9  10
ENDBRANCH   8   9
ENDBRANCH   7   8
ENDBRANCH   6   7
ENDBRANCH   5   6
ENDBRANCH   4   5
ENDBRANCH   3   4
ENDBRANCH   2   3
ENDBRANCH   1   2
BRANCH   1  15
ATOM     15  C   UNL     1       3.891   0.193  68.333  1.00  0.00     0.000 C 
BRANCH  15  16
ATOM     16  C   UNL     1       3.149   1.544  68.369  1.00  0.00     0.000 C 
BRANCH  16  17
ATOM     17  C   UNL     1       1.626   1.455  68.168  1.00  0.00     0.000 C 
BRANCH  17  18
ATOM     18  C   UNL     1       1.168   1.324  66.701  1.00  0.00    -0.000 C 
BRANCH  18  19
ATOM     19  C   UNL     1       1.314  -0.102  66.128  1.00  0.00    -0.000 C 
BRANCH  19  20
ATOM     20  C   UNL     1       0.411  -1.117  66.845  1.00  0.00    -0.000 C 
BRANCH  20  21
ATOM     21  C   UNL     1       1.197  -2.370  67.250  1.00  0.00    -0.000 C 
BRANCH  21  22
ATOM     22  C   UNL     1       0.467  -3.644  66.796  1.00  0.00    -0.000 C 
BRANCH  22  23
ATOM     23  C   UNL     1      -1.058  -3.460  66.737  1.00  0.00    -0.000 C 
BRANCH  23  24
ATOM     24  C   UNL     1      -1.707  -4.296  65.617  1.00  0.00    -0.000 C 
BRANCH  24  25
ATOM     25  C   UNL     1      -2.828  -3.536  64.892  1.00  0.00    -0.003 C 
ATOM     26  C   UNL     1      -3.927  -3.057  65.841  1.00  0.00     0.004 C 
ENDBRANCH  24  25
ENDBRANCH  23  24
ENDBRANCH  22  23
ENDBRANCH  21  22
ENDBRANCH  20  21
ENDBRANCH  19  20
ENDBRANCH  18  19
ENDBRANCH  17  18
ENDBRANCH  16  17
ENDBRANCH  15  16
ENDBRANCH   1  15
TORSDOF 22
ENDMDL
MODEL 3
REMARK VINA RESULT:    -3.860      1.507      2.121
REMARK INTER + INTRA:         -11.353
REMARK INTER:                  -8.714
REMARK INTRA:                  -2.639
REMARK UNBOUND:                -2.529
REMARK SMILES CCCCCCCCCCCCCCCCCCCCCCCC(=O)[O-]
REMARK SMILES IDX 13 1 14 2 15 3 16 4 17 5 18 6 19 7 20 8 21 9 22 10 23 11
REMARK SMILES IDX 24 12 25 13 26 14 12 15 11 16 10 17 9 18 8 19 7 20 6 21 5 22
REMARK SMILES IDX 4 23 3 24 2 25 1 26
REMARK H PARENT
REMARK Flexibility Score: inf
ROOT
ATOM      1  C   UNL     1       4.618   1.347  70.176  1.00  0.00     0.000 C 
ENDROOT
BRANCH   1   2
ATOM      2  C   UNL     1       5.779   2.294  69.826  1.00  0.00     0.000 C 
BRANCH   2   3
ATOM      3  C   UNL     1       6.361   2.021  68.430  1.00  0.00     0.000 C 
BRANCH   3   4
ATOM      4  C   UNL     1       7.893   1.874  68.449  1.00  0.00     0.000 C 
BRANCH   4   5
ATOM      5  C   UNL     1       8.607   3.026  67.726  1.00  0.00     0.000 C 
BRANCH   5   6
ATOM      6  C   UNL     1       9.988   2.621  67.185  1.00  0.00     0.000 C 
BRANCH   6   7
ATOM      7  C   UNL     1      10.060   2.675  65.648  1.00  0.00     0.000 C 
BRANCH   7   8
ATOM      8  C   UNL     1      11.396   2.194  65.045  1.00  0.00     0.000 C 
BRANCH   8   9
ATOM      9  C   UNL     1      12.336   1.475  66.030  1.00  0.00     0.000 C 
BRANCH   9  10
ATOM     10  C   UNL     1      12.903   0.162  65.461  1.00  0.00     0.006 C 
BRANCH  10  11
ATOM     11  C   UNL     1      11.828  -0.680  64.758  1.00  0.00     0.053 C 
BRANCH  11  12
ATOM     12  C   UNL     1      11.515  -1.934  65.514  1.00  0.00     0.041 C 
ATOM     13  O   UNL     1      11.621  -1.961  66.769  1.00  0.00    -0.550 OA
ATOM     14  O   UNL     1      11.084  -3.068  64.834  1.00  0.00    -0.550 OA
ENDBRANCH  11  12
ENDBRANCH  10  11
ENDBRANCH   9  10
ENDBRANCH   8   9
ENDBRANCH   7   8
ENDBRANCH   6   7
ENDBRANCH   5   6
ENDBRANCH   4   5
ENDBRANCH   3   4
ENDBRANCH   2   3
ENDBRANCH   1   2
BRANCH   1  15
ATOM     15  C   UNL     1       3.768   1.870  71.355  1.00  0.00     0.000 C 
BRANCH  15  16
ATOM     16  C   UNL     1       2.504   1.032  71.632  1.00  0.00     0.000 C 
BRANCH  16  17
ATOM     17  C   UNL     1       1.187   1.663  71.147  1.00  0.00     0.000 C 
BRANCH  17  18
ATOM     18  C   UNL     1       1.045   1.779  69.615  1.00  0.00    -0.000 C 
BRANCH  18  19
ATOM     19  C   UNL     1       0.280   0.603  68.970  1.00  0.00    -0.000 C 
BRANCH  19  20
ATOM     20  C   UNL     1       0.964   0.089  67.694  1.00  0.00    -0.000 C 
BRANCH  20  21
ATOM     21  C   UNL     1       1.969   1.113  67.152  1.00  0.00    -0.000 C 
BRANCH  21  22
ATOM     22  C   UNL     1       3.347   0.467  66.934  1.00  0.00    -0.000 C 
BRANCH  22  23
ATOM     23  C   UNL     1       3.314  -1.060  67.107  1.00  0.00    -0.000 C 
BRANCH  23  24
ATOM     24  C   UNL     1       4.475  -1.576  67.978  1.00  0.00    -0.000 C 
BRANCH  24  25
ATOM     25  C   UNL     1       4.023  -2.644  68.986  1.00  0.00    -0.003 C 
ATOM     26  C   UNL     1       2.837  -2.190  69.837  1.00  0.00     0.004 C 
ENDBRANCH  24  25
ENDBRANCH  23  24
ENDBRANCH  22  23
ENDBRANCH  21  22
ENDBRANCH  20  21
ENDBRANCH  19  20
ENDBRANCH  18  19
ENDBRANCH  17  18
ENDBRANCH  16  17
ENDBRANCH  15  16
ENDBRANCH   1  15
TORSDOF 22
ENDMDL
MODEL 4
REMARK VINA RESULT:    -3.834     12.694     15.703
REMARK INTER + INTRA:         -11.295
REMARK INTER:                  -6.981
REMARK INTRA:                  -4.313
REMARK UNBOUND:                -2.529
REMARK SMILES CCCCCCCCCCCCCCCCCCCCCCCC(=O)[O-]
REMARK SMILES IDX 13 1 14 2 15 3 16 4 17 5 18 6 19 7 20 8 21 9 22 10 23 11
REMARK SMILES IDX 24 12 25 13 26 14 12 15 11 16 10 17 9 18 8 19 7 20 6 21 5 22
REMARK SMILES IDX 4 23 3 24 2 25 1 26
REMARK H PARENT
REMARK Flexibility Score: inf
ROOT
ATOM      1  C   UNL     1      -6.337  -9.240  65.234  1.00  0.00     0.000 C 
ENDROOT
BRANCH   1   2
ATOM      2  C   UNL     1      -6.509  -9.470  66.745  1.00  0.00     0.000 C 
BRANCH   2   3
ATOM      3  C   UNL     1      -6.422  -8.165  67.553  1.00  0.00     0.000 C 
BRANCH   3   4
ATOM      4  C   UNL     1      -5.032  -7.953  68.180  1.00  0.00     0.000 C 
BRANCH   4   5
ATOM      5  C   UNL     1      -4.569  -9.157  69.014  1.00  0.00     0.000 C 
BRANCH   5   6
ATOM      6  C   UNL     1      -3.174  -9.659  68.606  1.00  0.00     0.000 C 
BRANCH   6   7
ATOM      7  C   UNL     1      -3.101 -11.195  68.517  1.00  0.00     0.000 C 
BRANCH   7   8
ATOM      8  C   UNL     1      -4.433 -11.923  68.785  1.00  0.00     0.000 C 
BRANCH   8   9
ATOM      9  C   UNL     1      -5.006 -12.701  67.587  1.00  0.00     0.000 C 
BRANCH   9  10
ATOM     10  C   UNL     1      -3.924 -13.116  66.574  1.00  0.00     0.006 C 
BRANCH  10  11
ATOM     11  C   UNL     1      -4.329 -14.356  65.765  1.00  0.00     0.053 C 
BRANCH  11  12
ATOM     12  C   UNL     1      -5.578 -14.124  64.970  1.00  0.00     0.041 C 
ATOM     13  O   UNL     1      -5.513 -13.600  63.826  1.00  0.00    -0.550 OA
ATOM     14  O   UNL     1      -6.812 -14.507  65.484  1.00  0.00    -0.550 OA
ENDBRANCH  11  12
ENDBRANCH  10  11
ENDBRANCH   9  10
ENDBRANCH   8   9
ENDBRANCH   7   8
ENDBRANCH   6   7
ENDBRANCH   5   6
ENDBRANCH   4   5
ENDBRANCH   3   4
ENDBRANCH   2   3
ENDBRANCH   1   2
BRANCH   1  15
ATOM     15  C   UNL     1      -5.275 -10.175  64.614  1.00  0.00     0.000 C 
BRANCH  15  16
ATOM     16  C   UNL     1      -3.834  -9.865  65.063  1.00  0.00     0.000 C 
BRANCH  16  17
ATOM     17  C   UNL     1      -3.194  -8.637  64.392  1.00  0.00     0.000 C 
BRANCH  17  18
ATOM     18  C   UNL     1      -3.050  -7.399  65.300  1.00  0.00    -0.000 C 
BRANCH  18  19
ATOM     19  C   UNL     1      -3.523  -6.085  64.640  1.00  0.00    -0.000 C 
BRANCH  19  20
ATOM     20  C   UNL     1      -4.441  -5.265  65.560  1.00  0.00    -0.000 C 
BRANCH  20  21
ATOM     21  C   UNL     1      -5.881  -5.247  65.032  1.00  0.00    -0.000 C 
BRANCH  21  22
ATOM     22  C   UNL     1      -5.978  -5.971  63.679  1.00  0.00    -0.000 C 
BRANCH  22  23
ATOM     23  C   UNL     1      -6.419  -5.037  62.542  1.00  0.00    -0.000 C 
BRANCH  23  24
ATOM     24  C   UNL     1      -5.304  -4.813  61.501  1.00  0.00    -0.000 C 
BRANCH  24  25
ATOM     25  C   UNL     1      -4.761  -3.376  61.523  1.00  0.00    -0.003 C 
ATOM     26  C   UNL     1      -3.530  -3.222  62.417  1.00  0.00     0.004 C 
ENDBRANCH  24  25
ENDBRANCH  23  24
ENDBRANCH  22  23
ENDBRANCH  21  22
ENDBRANCH  20  21
ENDBRANCH  19  20
ENDBRANCH  18  19
ENDBRANCH  17  18
ENDBRANCH  16  17
ENDBRANCH  15  16
ENDBRANCH   1  15
TORSDOF 22
ENDMDL
MODEL 5
REMARK VINA RESULT:    -3.806     11.916     15.793
REMARK INTER + INTRA:         -11.229
REMARK INTER:                  -7.108
REMARK INTRA:                  -4.121
REMARK UNBOUND:                -2.529
REMARK SMILES CCCCCCCCCCCCCCCCCCCCCCCC(=O)[O-]
REMARK SMILES IDX 13 1 14 2 15 3 16 4 17 5 18 6 19 7 20 8 21 9 22 10 23 11
REMARK SMILES IDX 24 12 25 13 26 14 12 15 11 16 10 17 9 18 8 19 7 20 6 21 5 22
REMARK SMILES IDX 4 23 3 24 2 25 1 26
REMARK H PARENT
REMARK Flexibility Score: inf
ROOT
ATOM      1  C   UNL     1      -4.140 -13.278  63.538  1.00  0.00     0.000 C 
ENDROOT
BRANCH   1   2
ATOM      2  C   UNL     1      -4.794 -12.060  64.212  1.00  0.00     0.000 C 
BRANCH   2   3
ATOM      3  C   UNL     1      -3.797 -10.915  64.455  1.00  0.00     0.000 C 
BRANCH   3   4
ATOM      4  C   UNL     1      -3.681 -10.542  65.944  1.00  0.00     0.000 C 
BRANCH   4   5
ATOM      5  C   UNL     1      -4.290  -9.167  66.257  1.00  0.00     0.000 C 
BRANCH   5   6
ATOM      6  C   UNL     1      -5.694  -9.268  66.876  1.00  0.00     0.000 C 
BRANCH   6   7
ATOM      7  C   UNL     1      -6.812  -9.001  65.851  1.00  0.00     0.000 C 
BRANCH   7   8
ATOM      8  C   UNL     1      -6.382  -8.169  64.626  1.00  0.00     0.000 C 
BRANCH   8   9
ATOM      9  C   UNL     1      -6.484  -6.643  64.803  1.00  0.00     0.000 C 
BRANCH   9  10
ATOM     10  C   UNL     1      -5.278  -5.892  64.210  1.00  0.00     0.006 C 
BRANCH  10  11
ATOM     11  C   UNL     1      -4.241  -5.519  65.279  1.00  0.00     0.053 C 
BRANCH  11  12
ATOM     12  C   UNL     1      -2.891  -6.092  64.974  1.00  0.00     0.041 C 
ATOM     13  O   UNL     1      -1.892  -5.767  65.670  1.00  0.00    -0.550 OA
ATOM     14  O   UNL     1      -2.740  -7.003  63.935  1.00  0.00    -0.550 OA
ENDBRANCH  11  12
ENDBRANCH  10  11
ENDBRANCH   9  10
ENDBRANCH   8   9
ENDBRANCH   7   8
ENDBRANCH   6   7
ENDBRANCH   5   6
ENDBRANCH   4   5
ENDBRANCH   3   4
ENDBRANCH   2   3
ENDBRANCH   1   2
BRANCH   1  15
ATOM     15  C   UNL     1      -4.227 -14.549  64.411  1.00  0.00     0.000 C 
BRANCH  15  16
ATOM     16  C   UNL     1      -4.140 -14.273  65.925  1.00  0.00     0.000 C 
BRANCH  16  17
ATOM     17  C   UNL     1      -5.289 -14.864  66.760  1.00  0.00     0.000 C 
BRANCH  17  18
ATOM     18  C   UNL     1      -6.617 -14.084  66.689  1.00  0.00    -0.000 C 
BRANCH  18  19
ATOM     19  C   UNL     1      -6.583 -12.727  67.425  1.00  0.00    -0.000 C 
BRANCH  19  20
ATOM     20  C   UNL     1      -6.211 -12.874  68.908  1.00  0.00    -0.000 C 
BRANCH  20  21
ATOM     21  C   UNL     1      -5.155 -11.841  69.320  1.00  0.00    -0.000 C 
BRANCH  21  22
ATOM     22  C   UNL     1      -3.736 -12.396  69.116  1.00  0.00    -0.000 C 
BRANCH  22  23
ATOM     23  C   UNL     1      -2.647 -11.376  69.480  1.00  0.00    -0.000 C 
BRANCH  23  24
ATOM     24  C   UNL     1      -3.227  -9.981  69.782  1.00  0.00    -0.000 C 
BRANCH  24  25
ATOM     25  C   UNL     1      -2.142  -8.895  69.847  1.00  0.00    -0.003 C 
ATOM     26  C   UNL     1      -2.584  -7.578  69.205  1.00  0.00     0.004 C 
ENDBRANCH  24  25
ENDBRANCH  23  24
ENDBRANCH  22  23
ENDBRANCH  21  22
ENDBRANCH  20  21
ENDBRANCH  19  20
ENDBRANCH  18  19
ENDBRANCH  17  18
ENDBRANCH  16  17
ENDBRANCH  15  16
ENDBRANCH   1  15
TORSDOF 22
ENDMDL
MODEL 6
REMARK VINA RESULT:    -3.805      9.970     13.265
REMARK INTER + INTRA:         -11.229
REMARK INTER:                  -7.616
REMARK INTRA:                  -3.613
REMARK UNBOUND:                -2.529
REMARK SMILES CCCCCCCCCCCCCCCCCCCCCCCC(=O)[O-]
REMARK SMILES IDX 13 1 14 2 15 3 16 4 17 5 18 6 19 7 20 8 21 9 22 10 23 11
REMARK SMILES IDX 24 12 25 13 26 14 12 15 11 16 10 17 9 18 8 19 7 20 6 21 5 22
REMARK SMILES IDX 4 23 3 24 2 25 1 26
REMARK H PARENT
REMARK Flexibility Score: inf
ROOT
ATOM      1  C   UNL     1      -1.219   1.534  60.118  1.00  0.00     0.000 C 
ENDROOT
BRANCH   1   2
ATOM      2  C   UNL     1      -2.451   1.812  59.239  1.00  0.00     0.000 C 
BRANCH   2   3
ATOM      3  C   UNL     1      -3.721   1.130  59.772  1.00  0.00     0.000 C 
BRANCH   3   4
ATOM      4  C   UNL     1      -3.472   0.367  61.086  1.00  0.00     0.000 C 
BRANCH   4   5
ATOM      5  C   UNL     1      -4.099  -1.035  61.083  1.00  0.00     0.000 C 
BRANCH   5   6
ATOM      6  C   UNL     1      -3.327  -2.031  61.964  1.00  0.00     0.000 C 
BRANCH   6   7
ATOM      7  C   UNL     1      -3.083  -3.378  61.259  1.00  0.00     0.000 C 
BRANCH   7   8
ATOM      8  C   UNL     1      -4.007  -4.525  61.718  1.00  0.00     0.000 C 
BRANCH   8   9
ATOM      9  C   UNL     1      -3.981  -4.821  63.228  1.00  0.00     0.000 C 
BRANCH   9  10
ATOM     10  C   UNL     1      -2.583  -5.222  63.733  1.00  0.00     0.006 C 
BRANCH  10  11
ATOM     11  C   UNL     1      -2.268  -4.623  65.111  1.00  0.00     0.053 C 
BRANCH  11  12
ATOM     12  C   UNL     1      -2.324  -5.655  66.196  1.00  0.00     0.041 C 
ATOM     13  O   UNL     1      -3.371  -6.331  66.375  1.00  0.00    -0.550 OA
ATOM     14  O   UNL     1      -1.210  -5.884  66.997  1.00  0.00    -0.550 OA
ENDBRANCH  11  12
ENDBRANCH  10  11
ENDBRANCH   9  10
ENDBRANCH   8   9
ENDBRANCH   7   8
ENDBRANCH   6   7
ENDBRANCH   5   6
ENDBRANCH   4   5
ENDBRANCH   3   4
ENDBRANCH   2   3
ENDBRANCH   1   2
BRANCH   1  15
ATOM     15  C   UNL     1       0.084   2.079  59.493  1.00  0.00     0.000 C 
BRANCH  15  16
ATOM     16  C   UNL     1       0.297   1.653  58.026  1.00  0.00     0.000 C 
BRANCH  16  17
ATOM     17  C   UNL     1       1.702   1.116  57.703  1.00  0.00     0.000 C 
BRANCH  17  18
ATOM     18  C   UNL     1       1.832  -0.421  57.720  1.00  0.00    -0.000 C 
BRANCH  18  19
ATOM     19  C   UNL     1       0.588  -1.157  57.175  1.00  0.00    -0.000 C 
BRANCH  19  20
ATOM     20  C   UNL     1      -0.054  -2.077  58.225  1.00  0.00    -0.000 C 
BRANCH  20  21
ATOM     21  C   UNL     1      -1.544  -1.760  58.403  1.00  0.00    -0.000 C 
BRANCH  21  22
ATOM     22  C   UNL     1      -2.107  -1.058  57.156  1.00  0.00    -0.000 C 
BRANCH  22  23
ATOM     23  C   UNL     1      -3.615  -1.293  56.979  1.00  0.00    -0.000 C 
BRANCH  23  24
ATOM     24  C   UNL     1      -4.030  -2.735  57.332  1.00  0.00    -0.000 C 
BRANCH  24  25
ATOM     25  C   UNL     1      -5.268  -2.784  58.239  1.00  0.00    -0.003 C 
ATOM     26  C   UNL     1      -6.109  -4.044  58.025  1.00  0.00     0.004 C 
ENDBRANCH  24  25
ENDBRANCH  23  24
ENDBRANCH  22  23
ENDBRANCH  21  22
ENDBRANCH  20  21
ENDBRANCH  19  20
ENDBRANCH  18  19
ENDBRANCH  17  18
ENDBRANCH  16  17
ENDBRANCH  15  16
ENDBRANCH   1  15
TORSDOF 22
ENDMDL
MODEL 7
REMARK VINA RESULT:    -3.775     10.372     13.635
REMARK INTER + INTRA:         -11.159
REMARK INTER:                  -7.672
REMARK INTRA:                  -3.486
REMARK UNBOUND:                -2.529
REMARK SMILES CCCCCCCCCCCCCCCCCCCCCCCC(=O)[O-]
REMARK SMILES IDX 13 1 14 2 15 3 16 4 17 5 18 6 19 7 20 8 21 9 22 10 23 11
REMARK SMILES IDX 24 12 25 13 26 14 12 15 11 16 10 17 9 18 8 19 7 20 6 21 5 22
REMARK SMILES IDX 4 23 3 24 2 25 1 26
REMARK H PARENT
REMARK Flexibility Score: inf
ROOT
ATOM      1  C   UNL     1      -6.040  -5.250  62.595  1.00  0.00     0.000 C 
ENDROOT
BRANCH   1   2
ATOM      2  C   UNL     1      -6.612  -4.810  63.954  1.00  0.00     0.000 C 
BRANCH   2   3
ATOM      3  C   UNL     1      -5.911  -3.560  64.511  1.00  0.00     0.000 C 
BRANCH   3   4
ATOM      4  C   UNL     1      -4.757  -3.910  65.468  1.00  0.00     0.000 C 
BRANCH   4   5
ATOM      5  C   UNL     1      -3.417  -3.305  65.025  1.00  0.00     0.000 C 
BRANCH   5   6
ATOM      6  C   UNL     1      -2.311  -4.362  64.874  1.00  0.00     0.000 C 
BRANCH   6   7
ATOM      7  C   UNL     1      -2.872  -5.771  64.610  1.00  0.00     0.000 C 
BRANCH   7   8
ATOM      8  C   UNL     1      -2.664  -6.776  65.761  1.00  0.00     0.000 C 
BRANCH   8   9
ATOM      9  C   UNL     1      -3.922  -7.559  66.181  1.00  0.00     0.000 C 
BRANCH   9  10
ATOM     10  C   UNL     1      -4.798  -7.964  64.983  1.00  0.00     0.006 C 
BRANCH  10  11
ATOM     11  C   UNL     1      -5.008  -9.483  64.902  1.00  0.00     0.053 C 
BRANCH  11  12
ATOM     12  C   UNL     1      -3.713 -10.233  64.989  1.00  0.00     0.041 C 
ATOM     13  O   UNL     1      -3.485 -10.993  65.966  1.00  0.00    -0.550 OA
ATOM     14  O   UNL     1      -2.768 -10.109  63.976  1.00  0.00    -0.550 OA
ENDBRANCH  11  12
ENDBRANCH  10  11
ENDBRANCH   9  10
ENDBRANCH   8   9
ENDBRANCH   7   8
ENDBRANCH   6   7
ENDBRANCH   5   6
ENDBRANCH   4   5
ENDBRANCH   3   4
ENDBRANCH   2   3
ENDBRANCH   1   2
BRANCH   1  15
ATOM     15  C   UNL     1      -5.359  -4.087  61.840  1.00  0.00     0.000 C 
BRANCH  15  16
ATOM     16  C   UNL     1      -3.916  -4.394  61.393  1.00  0.00     0.000 C 
BRANCH  16  17
ATOM     17  C   UNL     1      -2.996  -3.166  61.279  1.00  0.00     0.000 C 
BRANCH  17  18
ATOM     18  C   UNL     1      -3.609  -1.843  61.780  1.00  0.00    -0.000 C 
BRANCH  18  19
ATOM     19  C   UNL     1      -3.970  -0.855  60.649  1.00  0.00    -0.000 C 
BRANCH  19  20
ATOM     20  C   UNL     1      -2.998   0.332  60.575  1.00  0.00    -0.000 C 
BRANCH  20  21
ATOM     21  C   UNL     1      -2.011   0.170  59.412  1.00  0.00    -0.000 C 
BRANCH  21  22
ATOM     22  C   UNL     1      -2.683  -0.525  58.217  1.00  0.00    -0.000 C 
BRANCH  22  23
ATOM     23  C   UNL     1      -1.947  -1.806  57.792  1.00  0.00    -0.000 C 
BRANCH  23  24
ATOM     24  C   UNL     1      -0.474  -1.814  58.245  1.00  0.00    -0.000 C 
BRANCH  24  25
ATOM     25  C   UNL     1       0.473  -1.262  57.169  1.00  0.00    -0.003 C 
ATOM     26  C   UNL     1       1.741  -0.641  57.760  1.00  0.00     0.004 C 
ENDBRANCH  24  25
ENDBRANCH  23  24
ENDBRANCH  22  23
ENDBRANCH  21  22
ENDBRANCH  20  21
ENDBRANCH  19  20
ENDBRANCH  18  19
ENDBRANCH  17  18
ENDBRANCH  16  17
ENDBRANCH  15  16
ENDBRANCH   1  15
TORSDOF 22
ENDMDL
MODEL 8
REMARK VINA RESULT:    -3.724     10.104     15.179
REMARK INTER + INTRA:         -11.042
REMARK INTER:                  -6.922
REMARK INTRA:                  -4.120
REMARK UNBOUND:                -2.529
REMARK SMILES CCCCCCCCCCCCCCCCCCCCCCCC(=O)[O-]
REMARK SMILES IDX 13 1 14 2 15 3 16 4 17 5 18 6 19 7 20 8 21 9 22 10 23 11
REMARK SMILES IDX 24 12 25 13 26 14 12 15 11 16 10 17 9 18 8 19 7 20 6 21 5 22
REMARK SMILES IDX 4 23 3 24 2 25 1 26
REMARK H PARENT
REMARK Flexibility Score: inf
ROOT
ATOM      1  C   UNL     1      -4.125 -11.654  64.455  1.00  0.00     0.000 C 
ENDROOT
BRANCH   1   2
ATOM      2  C   UNL     1      -3.390 -10.303  64.396  1.00  0.00     0.000 C 
BRANCH   2   3
ATOM      3  C   UNL     1      -4.302  -9.121  64.763  1.00  0.00     0.000 C 
BRANCH   3   4
ATOM      4  C   UNL     1      -5.784  -9.525  64.848  1.00  0.00     0.000 C 
BRANCH   4   5
ATOM      5  C   UNL     1      -6.708  -8.330  65.127  1.00  0.00     0.000 C 
BRANCH   5   6
ATOM      6  C   UNL     1      -6.376  -7.109  64.253  1.00  0.00     0.000 C 
BRANCH   6   7
ATOM      7  C   UNL     1      -6.034  -5.860  65.087  1.00  0.00     0.000 C 
BRANCH   7   8
ATOM      8  C   UNL     1      -4.969  -4.936  64.463  1.00  0.00     0.000 C 
BRANCH   8   9
ATOM      9  C   UNL     1      -3.920  -5.646  63.587  1.00  0.00     0.000 C 
BRANCH   9  10
ATOM     10  C   UNL     1      -2.522  -5.666  64.230  1.00  0.00     0.006 C 
BRANCH  10  11
ATOM     11  C   UNL     1      -2.249  -4.411  65.071  1.00  0.00     0.053 C 
BRANCH  11  12
ATOM     12  C   UNL     1      -1.456  -4.723  66.303  1.00  0.00     0.041 C 
ATOM     13  O   UNL     1      -1.499  -5.875  66.810  1.00  0.00    -0.550 OA
ATOM     14  O   UNL     1      -0.650  -3.746  66.878  1.00  0.00    -0.550 OA
ENDBRANCH  11  12
ENDBRANCH  10  11
ENDBRANCH   9  10
ENDBRANCH   8   9
ENDBRANCH   7   8
ENDBRANCH   6   7
ENDBRANCH   5   6
ENDBRANCH   4   5
ENDBRANCH   3   4
ENDBRANCH   2   3
ENDBRANCH   1   2
BRANCH   1  15
ATOM     15  C   UNL     1      -3.693 -12.506  65.669  1.00  0.00     0.000 C 
BRANCH  15  16
ATOM     16  C   UNL     1      -4.155 -13.974  65.595  1.00  0.00     0.000 C 
BRANCH  16  17
ATOM     17  C   UNL     1      -5.431 -14.214  64.769  1.00  0.00     0.000 C 
BRANCH  17  18
ATOM     18  C   UNL     1      -6.749 -14.119  65.563  1.00  0.00    -0.000 C 
BRANCH  18  19
ATOM     19  C   UNL     1      -6.616 -14.536  67.044  1.00  0.00    -0.000 C 
BRANCH  19  20
ATOM     20  C   UNL     1      -7.019 -13.410  68.008  1.00  0.00    -0.000 C 
BRANCH  20  21
ATOM     21  C   UNL     1      -7.052 -12.053  67.294  1.00  0.00    -0.000 C 
BRANCH  21  22
ATOM     22  C   UNL     1      -6.513 -10.940  68.207  1.00  0.00    -0.000 C 
BRANCH  22  23
ATOM     23  C   UNL     1      -5.022 -11.117  68.532  1.00  0.00    -0.000 C 
BRANCH  23  24
ATOM     24  C   UNL     1      -4.237  -9.796  68.426  1.00  0.00    -0.000 C 
BRANCH  24  25
ATOM     25  C   UNL     1      -5.156  -8.565  68.432  1.00  0.00    -0.003 C 
ATOM     26  C   UNL     1      -4.428  -7.280  68.035  1.00  0.00     0.004 C 
ENDBRANCH  24  25
ENDBRANCH  23  24
ENDBRANCH  22  23
ENDBRANCH  21  22
ENDBRANCH  20  21
ENDBRANCH  19  20
ENDBRANCH  18  19
ENDBRANCH  17  18
ENDBRANCH  16  17
ENDBRANCH  15  16
ENDBRANCH   1  15
TORSDOF 22
ENDMDL
MODEL 9
REMARK VINA RESULT:    -3.723      9.932     12.723
REMARK INTER + INTRA:         -11.039
REMARK INTER:                  -7.864
REMARK INTRA:                  -3.175
REMARK UNBOUND:                -2.529
REMARK SMILES CCCCCCCCCCCCCCCCCCCCCCCC(=O)[O-]
REMARK SMILES IDX 13 1 14 2 15 3 16 4 17 5 18 6 19 7 20 8 21 9 22 10 23 11
REMARK SMILES IDX 24 12 25 13 26 14 12 15 11 16 10 17 9 18 8 19 7 20 6 21 5 22
REMARK SMILES IDX 4 23 3 24 2 25 1 26
REMARK H PARENT
REMARK Flexibility Score: inf
ROOT
ATOM      1  C   UNL     1      -6.851  -5.451  64.638  1.00  0.00     0.000 C 
ENDROOT
BRANCH   1   2
ATOM      2  C   UNL     1      -7.005  -4.388  63.536  1.00  0.00     0.000 C 
BRANCH   2   3
ATOM      3  C   UNL     1      -6.195  -4.728  62.274  1.00  0.00     0.000 C 
BRANCH   3   4
ATOM      4  C   UNL     1      -5.717  -3.470  61.526  1.00  0.00     0.000 C 
BRANCH   4   5
ATOM      5  C   UNL     1      -4.319  -3.644  60.912  1.00  0.00     0.000 C 
BRANCH   5   6
ATOM      6  C   UNL     1      -3.429  -2.405  61.108  1.00  0.00     0.000 C 
BRANCH   6   7
ATOM      7  C   UNL     1      -2.471  -2.173  59.925  1.00  0.00     0.000 C 
BRANCH   7   8
ATOM      8  C   UNL     1      -3.151  -2.125  58.541  1.00  0.00     0.000 C 
BRANCH   8   9
ATOM      9  C   UNL     1      -2.231  -1.722  57.374  1.00  0.00     0.000 C 
BRANCH   9  10
ATOM     10  C   UNL     1      -0.738  -1.782  57.745  1.00  0.00     0.006 C 
BRANCH  10  11
ATOM     11  C   UNL     1       0.102  -0.782  56.938  1.00  0.00     0.053 C 
BRANCH  11  12
ATOM     12  C   UNL     1       1.263  -0.260  57.729  1.00  0.00     0.041 C 
ATOM     13  O   UNL     1       1.218   0.893  58.233  1.00  0.00    -0.550 OA
ATOM     14  O   UNL     1       2.385  -1.057  57.928  1.00  0.00    -0.550 OA
ENDBRANCH  11  12
ENDBRANCH  10  11
ENDBRANCH   9  10
ENDBRANCH   8   9
ENDBRANCH   7   8
ENDBRANCH   6   7
ENDBRANCH   5   6
ENDBRANCH   4   5
ENDBRANCH   3   4
ENDBRANCH   2   3
ENDBRANCH   1   2
BRANCH   1  15
ATOM     15  C   UNL     1      -6.370  -6.809  64.082  1.00  0.00     0.000 C 
BRANCH  15  16
ATOM     16  C   UNL     1      -6.301  -7.927  65.141  1.00  0.00     0.000 C 
BRANCH  16  17
ATOM     17  C   UNL     1      -5.304  -9.057  64.829  1.00  0.00     0.000 C 
BRANCH  17  18
ATOM     18  C   UNL     1      -3.828  -8.727  65.132  1.00  0.00    -0.000 C 
BRANCH  18  19
ATOM     19  C   UNL     1      -3.641  -7.539  66.100  1.00  0.00    -0.000 C 
BRANCH  19  20
ATOM     20  C   UNL     1      -2.560  -6.558  65.622  1.00  0.00    -0.000 C 
BRANCH  20  21
ATOM     21  C   UNL     1      -2.693  -6.274  64.121  1.00  0.00    -0.000 C 
BRANCH  21  22
ATOM     22  C   UNL     1      -2.748  -4.761  63.853  1.00  0.00    -0.000 C 
BRANCH  22  23
ATOM     23  C   UNL     1      -3.512  -3.998  64.946  1.00  0.00    -0.000 C 
BRANCH  23  24
ATOM     24  C   UNL     1      -2.774  -2.721  65.394  1.00  0.00    -0.000 C 
BRANCH  24  25
ATOM     25  C   UNL     1      -3.268  -1.468  64.656  1.00  0.00    -0.003 C 
ATOM     26  C   UNL     1      -4.788  -1.443  64.484  1.00  0.00     0.004 C 
ENDBRANCH  24  25
ENDBRANCH  23  24
ENDBRANCH  22  23
ENDBRANCH  21  22
ENDBRANCH  20  21
ENDBRANCH  19  20
ENDBRANCH  18  19
ENDBRANCH  17  18
ENDBRANCH  16  17
ENDBRANCH  15  16
ENDBRANCH   1  15
TORSDOF 22
ENDMDL
