MODEL 1
REMARK VINA RESULT:    -3.303      0.000      0.000
REMARK INTER + INTRA:          -4.108
REMARK INTER:                  -3.882
REMARK INTRA:                  -0.226
REMARK UNBOUND:                -0.226
REMARK SMILES [NH3+][C@@H](CO)C(=O)[O-]
REMARK SMILES IDX 3 1 2 2 1 3 5 7 6 8 7 9 4 10
REMARK H PARENT 1 4 1 5 1 6 4 11
REMARK Flexibility Score: inf
ROOT
ATOM      1  C   UNL     1      25.233  17.246 -16.266  1.00  0.00     0.227 C 
ENDROOT
BRANCH   1   2
ATOM      2  C   UNL     1      25.694  18.706 -16.416  1.00  0.00     0.253 C 
BRANCH   2   3
ATOM      3  N   UNL     1      26.651  19.074 -15.365  1.00  0.00    -0.348 N 
ATOM      4  H   UNL     1      27.560  18.580 -15.523  1.00  0.00     0.345 HD
ATOM      5  H   UNL     1      26.286  18.780 -14.430  1.00  0.00     0.345 HD
ATOM      6  H   UNL     1      26.818  20.106 -15.359  1.00  0.00     0.345 HD
ENDBRANCH   2   3
BRANCH   2   7
ATOM      7  C   UNL     1      24.504  19.628 -16.388  1.00  0.00     0.102 C 
ATOM      8  O   UNL     1      23.349  19.174 -16.173  1.00  0.00    -0.544 OA
ATOM      9  O   UNL     1      24.674  20.987 -16.616  1.00  0.00    -0.544 OA
ENDBRANCH   2   7
ENDBRANCH   1   2
BRANCH   1  10
ATOM     10  O   UNL     1      24.886  16.972 -14.933  1.00  0.00    -0.390 OA
ATOM     11  H   UNL     1      24.303  17.715 -14.629  1.00  0.00     0.210 HD
ENDBRANCH   1  10
TORSDOF 4
ENDMDL
MODEL 2
REMARK VINA RESULT:    -3.265      1.980      2.981
REMARK INTER + INTRA:          -4.064
REMARK INTER:                  -3.713
REMARK INTRA:                  -0.351
REMARK UNBOUND:                -0.226
REMARK SMILES [NH3+][C@@H](CO)C(=O)[O-]
REMARK SMILES IDX 3 1 2 2 1 3 5 7 6 8 7 9 4 10
REMARK H PARENT 1 4 1 5 1 6 4 11
REMARK Flexibility Score: inf
ROOT
ATOM      1  C   UNL     1      25.656  20.353 -15.994  1.00  0.00     0.227 C 
ENDROOT
BRANCH   1   2
ATOM      2  C   UNL     1      24.953  19.107 -16.559  1.00  0.00     0.253 C 
BRANCH   2   3
ATOM      3  N   UNL     1      23.518  19.118 -16.251  1.00  0.00    -0.348 N 
ATOM      4  H   UNL     1      23.310  18.413 -15.505  1.00  0.00     0.345 HD
ATOM      5  H   UNL     1      22.968  18.857 -17.101  1.00  0.00     0.345 HD
ATOM      6  H   UNL     1      23.216  20.063 -15.922  1.00  0.00     0.345 HD
ENDBRANCH   2   3
BRANCH   2   7
ATOM      7  C   UNL     1      25.598  17.860 -16.012  1.00  0.00     0.102 C 
ATOM      8  O   UNL     1      24.975  17.119 -15.208  1.00  0.00    -0.544 OA
ATOM      9  O   UNL     1      26.896  17.531 -16.382  1.00  0.00    -0.544 OA
ENDBRANCH   2   7
ENDBRANCH   1   2
BRANCH   1  10
ATOM     10  O   UNL     1      26.487  20.007 -14.917  1.00  0.00    -0.390 OA
ATOM     11  H   UNL     1      25.894  19.689 -14.187  1.00  0.00     0.210 HD
ENDBRANCH   1  10
TORSDOF 4
ENDMDL
MODEL 3
REMARK VINA RESULT:    -3.082     21.860     22.177
REMARK INTER + INTRA:          -3.848
REMARK INTER:                  -3.495
REMARK INTRA:                  -0.353
REMARK UNBOUND:                -0.226
REMARK SMILES [NH3+][C@@H](CO)C(=O)[O-]
REMARK SMILES IDX 3 1 2 2 1 3 5 7 6 8 7 9 4 10
REMARK H PARENT 1 4 1 5 1 6 4 11
REMARK Flexibility Score: inf
ROOT
ATOM      1  C   UNL     1      12.992   2.284  -7.369  1.00  0.00     0.227 C 
ENDROOT
BRANCH   1   2
ATOM      2  C   UNL     1      11.565   2.624  -7.830  1.00  0.00     0.253 C 
BRANCH   2   3
ATOM      3  N   UNL     1      11.499   2.784  -9.288  1.00  0.00    -0.348 N 
ATOM      4  H   UNL     1      11.636   3.791  -9.541  1.00  0.00     0.345 HD
ATOM      5  H   UNL     1      10.559   2.491  -9.638  1.00  0.00     0.345 HD
ATOM      6  H   UNL     1      12.236   2.210  -9.759  1.00  0.00     0.345 HD
ENDBRANCH   2   3
BRANCH   2   7
ATOM      7  C   UNL     1      11.086   3.876  -7.143  1.00  0.00     0.102 C 
ATOM      8  O   UNL     1      10.933   4.943  -7.793  1.00  0.00    -0.544 OA
ATOM      9  O   UNL     1      10.825   3.861  -5.778  1.00  0.00    -0.544 OA
ENDBRANCH   2   7
ENDBRANCH   1   2
BRANCH   1  10
ATOM     10  O   UNL     1      13.544   3.350  -6.642  1.00  0.00    -0.390 OA
ATOM     11  H   UNL     1      14.518   3.176  -6.570  1.00  0.00     0.210 HD
ENDBRANCH   1  10
TORSDOF 4
ENDMDL
MODEL 4
REMARK VINA RESULT:    -2.729     22.290     22.620
REMARK INTER + INTRA:          -3.433
REMARK INTER:                  -3.093
REMARK INTRA:                  -0.340
REMARK UNBOUND:                -0.226
REMARK SMILES [NH3+][C@@H](CO)C(=O)[O-]
REMARK SMILES IDX 3 1 2 2 1 3 5 7 6 8 7 9 4 10
REMARK H PARENT 1 4 1 5 1 6 4 11
REMARK Flexibility Score: inf
ROOT
ATOM      1  C   UNL     1      12.589   2.833  -5.699  1.00  0.00     0.227 C 
ENDROOT
BRANCH   1   2
ATOM      2  C   UNL     1      11.140   3.176  -6.085  1.00  0.00     0.253 C 
BRANCH   2   3
ATOM      3  N   UNL     1      10.251   2.021  -5.906  1.00  0.00    -0.348 N 
ATOM      4  H   UNL     1       9.624   1.923  -6.738  1.00  0.00     0.345 HD
ATOM      5  H   UNL     1       9.647   2.162  -5.065  1.00  0.00     0.345 HD
ATOM      6  H   UNL     1      10.805   1.141  -5.789  1.00  0.00     0.345 HD
ENDBRANCH   2   3
BRANCH   2   7
ATOM      7  C   UNL     1      11.088   3.662  -7.510  1.00  0.00     0.102 C 
ATOM      8  O   UNL     1      11.252   2.858  -8.465  1.00  0.00    -0.544 OA
ATOM      9  O   UNL     1      10.874   5.008  -7.776  1.00  0.00    -0.544 OA
ENDBRANCH   2   7
ENDBRANCH   1   2
BRANCH   1  10
ATOM     10  O   UNL     1      13.488   3.363  -6.636  1.00  0.00    -0.390 OA
ATOM     11  H   UNL     1      14.085   2.621  -6.915  1.00  0.00     0.210 HD
ENDBRANCH   1  10
TORSDOF 4
ENDMDL
MODEL 5
REMARK VINA RESULT:    -2.704     21.797     22.236
REMARK INTER + INTRA:          -3.405
REMARK INTER:                  -3.377
REMARK INTRA:                  -0.028
REMARK UNBOUND:                -0.226
REMARK SMILES [NH3+][C@@H](CO)C(=O)[O-]
REMARK SMILES IDX 3 1 2 2 1 3 5 7 6 8 7 9 4 10
REMARK H PARENT 1 4 1 5 1 6 4 11
REMARK Flexibility Score: inf
ROOT
ATOM      1  C   UNL     1      11.529   3.452  -5.419  1.00  0.00     0.227 C 
ENDROOT
BRANCH   1   2
ATOM      2  C   UNL     1      11.963   2.842  -6.763  1.00  0.00     0.253 C 
BRANCH   2   3
ATOM      3  N   UNL     1      13.423   2.875  -6.918  1.00  0.00    -0.348 N 
ATOM      4  H   UNL     1      13.841   1.997  -6.530  1.00  0.00     0.345 HD
ATOM      5  H   UNL     1      13.820   3.681  -6.385  1.00  0.00     0.345 HD
ATOM      6  H   UNL     1      13.687   2.963  -7.926  1.00  0.00     0.345 HD
ENDBRANCH   2   3
BRANCH   2   7
ATOM      7  C   UNL     1      11.298   3.573  -7.899  1.00  0.00     0.102 C 
ATOM      8  O   UNL     1      11.126   3.006  -9.010  1.00  0.00    -0.544 OA
ATOM      9  O   UNL     1      10.884   4.889  -7.729  1.00  0.00    -0.544 OA
ENDBRANCH   2   7
ENDBRANCH   1   2
BRANCH   1  10
ATOM     10  O   UNL     1      12.651   3.806  -4.652  1.00  0.00    -0.390 OA
ATOM     11  H   UNL     1      12.410   4.629  -4.152  1.00  0.00     0.210 HD
ENDBRANCH   1  10
TORSDOF 4
ENDMDL
MODEL 6
REMARK VINA RESULT:    -2.643     21.896     22.323
REMARK INTER + INTRA:          -3.333
REMARK INTER:                  -3.079
REMARK INTRA:                  -0.253
REMARK UNBOUND:                -0.226
REMARK SMILES [NH3+][C@@H](CO)C(=O)[O-]
REMARK SMILES IDX 3 1 2 2 1 3 5 7 6 8 7 9 4 10
REMARK H PARENT 1 4 1 5 1 6 4 11
REMARK Flexibility Score: inf
ROOT
ATOM      1  C   UNL     1      10.568   4.120  -6.672  1.00  0.00     0.227 C 
ENDROOT
BRANCH   1   2
ATOM      2  C   UNL     1      11.626   3.109  -6.196  1.00  0.00     0.253 C 
BRANCH   2   3
ATOM      3  N   UNL     1      12.434   3.658  -5.100  1.00  0.00    -0.348 N 
ATOM      4  H   UNL     1      11.811   4.119  -4.396  1.00  0.00     0.345 HD
ATOM      5  H   UNL     1      13.091   4.383  -5.468  1.00  0.00     0.345 HD
ATOM      6  H   UNL     1      12.984   2.904  -4.629  1.00  0.00     0.345 HD
ENDBRANCH   2   3
BRANCH   2   7
ATOM      7  C   UNL     1      12.509   2.707  -7.348  1.00  0.00     0.102 C 
ATOM      8  O   UNL     1      13.763   2.728  -7.229  1.00  0.00    -0.544 OA
ATOM      9  O   UNL     1      11.941   2.326  -8.557  1.00  0.00    -0.544 OA
ENDBRANCH   2   7
ENDBRANCH   1   2
BRANCH   1  10
ATOM     10  O   UNL     1      11.074   4.909  -7.716  1.00  0.00    -0.390 OA
ATOM     11  H   UNL     1      11.789   5.477  -7.328  1.00  0.00     0.210 HD
ENDBRANCH   1  10
TORSDOF 4
ENDMDL
MODEL 7
REMARK VINA RESULT:    -2.605      1.733      2.032
REMARK INTER + INTRA:          -3.288
REMARK INTER:                  -3.061
REMARK INTRA:                  -0.227
REMARK UNBOUND:                -0.226
REMARK SMILES [NH3+][C@@H](CO)C(=O)[O-]
REMARK SMILES IDX 3 1 2 2 1 3 5 7 6 8 7 9 4 10
REMARK H PARENT 1 4 1 5 1 6 4 11
REMARK Flexibility Score: inf
ROOT
ATOM      1  C   UNL     1      26.791  18.917 -15.975  1.00  0.00     0.227 C 
ENDROOT
BRANCH   1   2
ATOM      2  C   UNL     1      25.725  19.455 -16.945  1.00  0.00     0.253 C 
BRANCH   2   3
ATOM      3  N   UNL     1      25.583  20.912 -16.827  1.00  0.00    -0.348 N 
ATOM      4  H   UNL     1      25.275  21.313 -17.744  1.00  0.00     0.345 HD
ATOM      5  H   UNL     1      26.504  21.342 -16.582  1.00  0.00     0.345 HD
ATOM      6  H   UNL     1      24.881  21.159 -16.092  1.00  0.00     0.345 HD
ENDBRANCH   2   3
BRANCH   2   7
ATOM      7  C   UNL     1      24.405  18.777 -16.687  1.00  0.00     0.102 C 
ATOM      8  O   UNL     1      24.265  17.545 -16.907  1.00  0.00    -0.544 OA
ATOM      9  O   UNL     1      23.325  19.515 -16.217  1.00  0.00    -0.544 OA
ENDBRANCH   2   7
ENDBRANCH   1   2
BRANCH   1  10
ATOM     10  O   UNL     1      27.107  17.584 -16.279  1.00  0.00    -0.390 OA
ATOM     11  H   UNL     1      26.305  17.041 -16.061  1.00  0.00     0.210 HD
ENDBRANCH   1  10
TORSDOF 4
ENDMDL
MODEL 8
REMARK VINA RESULT:    -2.593     21.729     22.382
REMARK INTER + INTRA:          -3.274
REMARK INTER:                  -2.877
REMARK INTRA:                  -0.397
REMARK UNBOUND:                -0.226
REMARK SMILES [NH3+][C@@H](CO)C(=O)[O-]
REMARK SMILES IDX 3 1 2 2 1 3 5 7 6 8 7 9 4 10
REMARK H PARENT 1 4 1 5 1 6 4 11
REMARK Flexibility Score: inf
ROOT
ATOM      1  C   UNL     1      11.721   2.094  -8.469  1.00  0.00     0.227 C 
ENDROOT
BRANCH   1   2
ATOM      2  C   UNL     1      12.252   3.351  -7.758  1.00  0.00     0.253 C 
BRANCH   2   3
ATOM      3  N   UNL     1      13.246   3.006  -6.735  1.00  0.00    -0.348 N 
ATOM      4  H   UNL     1      13.623   2.046  -6.916  1.00  0.00     0.345 HD
ATOM      5  H   UNL     1      12.800   3.002  -5.790  1.00  0.00     0.345 HD
ATOM      6  H   UNL     1      14.037   3.690  -6.739  1.00  0.00     0.345 HD
ENDBRANCH   2   3
BRANCH   2   7
ATOM      7  C   UNL     1      11.109   4.115  -7.142  1.00  0.00     0.102 C 
ATOM      8  O   UNL     1      10.460   4.952  -7.823  1.00  0.00    -0.544 OA
ATOM      9  O   UNL     1      10.775   3.909  -5.809  1.00  0.00    -0.544 OA
ENDBRANCH   2   7
ENDBRANCH   1   2
BRANCH   1  10
ATOM     10  O   UNL     1      10.373   1.875  -8.145  1.00  0.00    -0.390 OA
ATOM     11  H   UNL     1       9.854   1.980  -8.985  1.00  0.00     0.210 HD
ENDBRANCH   1  10
TORSDOF 4
ENDMDL
MODEL 9
REMARK VINA RESULT:    -2.546     21.690     22.718
REMARK INTER + INTRA:          -3.219
REMARK INTER:                  -3.018
REMARK INTRA:                  -0.201
REMARK UNBOUND:                -0.226
REMARK SMILES [NH3+][C@@H](CO)C(=O)[O-]
REMARK SMILES IDX 3 1 2 2 1 3 5 7 6 8 7 9 4 10
REMARK H PARENT 1 4 1 5 1 6 4 11
REMARK Flexibility Score: inf
ROOT
ATOM      1  C   UNL     1      11.791   3.174  -7.809  1.00  0.00     0.227 C 
ENDROOT
BRANCH   1   2
ATOM      2  C   UNL     1      10.788   3.304  -6.650  1.00  0.00     0.253 C 
BRANCH   2   3
ATOM      3  N   UNL     1       9.961   4.508  -6.792  1.00  0.00    -0.348 N 
ATOM      4  H   UNL     1       9.298   4.391  -7.594  1.00  0.00     0.345 HD
ATOM      5  H   UNL     1      10.567   5.336  -6.994  1.00  0.00     0.345 HD
ATOM      6  H   UNL     1       9.414   4.688  -5.919  1.00  0.00     0.345 HD
ENDBRANCH   2   3
BRANCH   2   7
ATOM      7  C   UNL     1      11.522   3.322  -5.334  1.00  0.00     0.102 C 
ATOM      8  O   UNL     1      10.888   3.243  -4.249  1.00  0.00    -0.544 OA
ATOM      9  O   UNL     1      12.905   3.445  -5.313  1.00  0.00    -0.544 OA
ENDBRANCH   2   7
ENDBRANCH   1   2
BRANCH   1  10
ATOM     10  O   UNL     1      12.270   4.437  -8.191  1.00  0.00    -0.390 OA
ATOM     11  H   UNL     1      11.972   5.080  -7.497  1.00  0.00     0.210 HD
ENDBRANCH   1  10
TORSDOF 4
ENDMDL
