MODEL 1
REMARK VINA RESULT:    -2.406      0.000      0.000
REMARK INTER + INTRA:          -2.406
REMARK INTER:                  -2.406
REMARK INTRA:                   0.000
REMARK UNBOUND:                 0.000
REMARK SMILES c1cc[nH]c1
REMARK SMILES IDX 1 1 5 2 4 3 3 4 2 5
REMARK H PARENT 4 6
REMARK Flexibility Score: inf
ROOT
ATOM      1  C   UNL     1     128.037  28.908 -16.462  1.00  0.00     0.019 A 
ATOM      2  C   UNL     1     127.272  28.559 -17.555  1.00  0.00     0.082 A 
ATOM      3  N   UNL     1     126.893  29.665 -18.222  1.00  0.00    -0.368 N 
ATOM      4  C   UNL     1     127.409  30.719 -17.566  1.00  0.00     0.082 A 
ATOM      5  C   UNL     1     128.125  30.286 -16.468  1.00  0.00     0.019 A 
ATOM      6  H   UNL     1     126.308  29.698 -19.086  1.00  0.00     0.165 HD
ENDROOT
TORSDOF 0
ENDMDL
MODEL 2
REMARK VINA RESULT:    -2.381      0.071      1.625
REMARK INTER + INTRA:          -2.381
REMARK INTER:                  -2.381
REMARK INTRA:                   0.000
REMARK UNBOUND:                 0.000
REMARK SMILES c1cc[nH]c1
REMARK SMILES IDX 1 1 5 2 4 3 3 4 2 5
REMARK H PARENT 4 6
REMARK Flexibility Score: inf
ROOT
ATOM      1  C   UNL     1     128.125  30.358 -16.471  1.00  0.00     0.019 A 
ATOM      2  C   UNL     1     127.422  30.751 -17.592  1.00  0.00     0.082 A 
ATOM      3  N   UNL     1     126.954  29.672 -18.243  1.00  0.00    -0.368 N 
ATOM      4  C   UNL     1     127.349  28.589 -17.551  1.00  0.00     0.082 A 
ATOM      5  C   UNL     1     128.079  28.978 -16.446  1.00  0.00     0.019 A 
ATOM      6  H   UNL     1     126.389  29.674 -19.121  1.00  0.00     0.165 HD
ENDROOT
TORSDOF 0
ENDMDL
