MODEL 1
REMARK VINA RESULT:    -4.745      0.000      0.000
REMARK INTER + INTRA:         -11.175
REMARK INTER:                  -8.906
REMARK INTRA:                  -2.269
REMARK UNBOUND:                -2.269
REMARK SMILES CCCCCCCCC=CCCCCCCCC(=O)[O-]
REMARK SMILES IDX 10 1 9 2 11 3 12 4 13 5 14 6 15 7 16 8 17 9 18 10 19 11
REMARK SMILES IDX 20 12 8 13 7 14 6 15 5 16 4 17 3 18 2 19 1 20
REMARK H PARENT
REMARK Flexibility Score: inf
ROOT
ATOM      1  C   UNL     1       6.230   6.939  16.699  1.00  0.00    -0.031 C 
ATOM      2  C   UNL     1       6.418   7.271  17.989  1.00  0.00    -0.031 C 
ENDROOT
BRANCH   1   3
ATOM      3  C   UNL     1       5.803   5.576  16.203  1.00  0.00     0.027 C 
BRANCH   3   4
ATOM      4  C   UNL     1       6.919   4.900  15.399  1.00  0.00     0.004 C 
BRANCH   4   5
ATOM      5  C   UNL     1       8.170   5.789  15.287  1.00  0.00     0.000 C 
BRANCH   5   6
ATOM      6  C   UNL     1       9.417   5.138  15.907  1.00  0.00     0.000 C 
BRANCH   6   7
ATOM      7  C   UNL     1      10.721   5.814  15.460  1.00  0.00     0.000 C 
BRANCH   7   8
ATOM      8  C   UNL     1      10.445   6.894  14.404  1.00  0.00     0.006 C 
BRANCH   8   9
ATOM      9  C   UNL     1      11.045   6.540  13.037  1.00  0.00     0.053 C 
BRANCH   9  10
ATOM     10  C   UNL     1      10.179   5.576  12.285  1.00  0.00     0.041 C 
ATOM     11  O   UNL     1       9.049   5.935  11.862  1.00  0.00    -0.550 OA
ATOM     12  O   UNL     1      10.636   4.290  12.022  1.00  0.00    -0.550 OA
ENDBRANCH   9  10
ENDBRANCH   8   9
ENDBRANCH   7   8
ENDBRANCH   6   7
ENDBRANCH   5   6
ENDBRANCH   4   5
ENDBRANCH   3   4
ENDBRANCH   1   3
BRANCH   2  13
ATOM     13  C   UNL     1       6.290   6.321  19.154  1.00  0.00     0.027 C 
BRANCH  13  14
ATOM     14  C   UNL     1       7.606   5.584  19.449  1.00  0.00     0.004 C 
BRANCH  14  15
ATOM     15  C   UNL     1       7.493   4.075  19.174  1.00  0.00     0.000 C 
BRANCH  15  16
ATOM     16  C   UNL     1       6.042   3.571  19.223  1.00  0.00     0.000 C 
BRANCH  16  17
ATOM     17  C   UNL     1       5.883   2.301  20.073  1.00  0.00    -0.000 C 
BRANCH  17  18
ATOM     18  C   UNL     1       5.664   2.651  21.549  1.00  0.00    -0.000 C 
BRANCH  18  19
ATOM     19  C   UNL     1       4.470   3.598  21.719  1.00  0.00    -0.003 C 
ATOM     20  C   UNL     1       4.878   4.872  22.453  1.00  0.00     0.004 C 
ENDBRANCH  18  19
ENDBRANCH  17  18
ENDBRANCH  16  17
ENDBRANCH  15  16
ENDBRANCH  14  15
ENDBRANCH  13  14
ENDBRANCH   2  13
TORSDOF 15
ENDMDL
MODEL 2
REMARK VINA RESULT:    -4.632      1.615      3.575
REMARK INTER + INTRA:         -10.963
REMARK INTER:                  -8.890
REMARK INTRA:                  -2.073
REMARK UNBOUND:                -2.269
REMARK SMILES CCCCCCCCC=CCCCCCCCC(=O)[O-]
REMARK SMILES IDX 10 1 9 2 11 3 12 4 13 5 14 6 15 7 16 8 17 9 18 10 19 11
REMARK SMILES IDX 20 12 8 13 7 14 6 15 5 16 4 17 3 18 2 19 1 20
REMARK H PARENT
REMARK Flexibility Score: inf
ROOT
ATOM      1  C   UNL     1       7.228   4.303  19.050  1.00  0.00    -0.031 C 
ATOM      2  C   UNL     1       7.223   3.159  19.759  1.00  0.00    -0.031 C 
ENDROOT
BRANCH   1   3
ATOM      3  C   UNL     1       5.996   5.068  18.623  1.00  0.00     0.027 C 
BRANCH   3   4
ATOM      4  C   UNL     1       6.352   6.486  18.162  1.00  0.00     0.004 C 
BRANCH   4   5
ATOM      5  C   UNL     1       6.208   6.650  16.639  1.00  0.00     0.000 C 
BRANCH   5   6
ATOM      6  C   UNL     1       5.983   5.312  15.918  1.00  0.00     0.000 C 
BRANCH   6   7
ATOM      7  C   UNL     1       7.211   4.859  15.115  1.00  0.00     0.000 C 
BRANCH   7   8
ATOM      8  C   UNL     1       8.418   5.766  15.399  1.00  0.00     0.006 C 
BRANCH   8   9
ATOM      9  C   UNL     1       9.591   5.488  14.450  1.00  0.00     0.053 C 
BRANCH   9  10
ATOM     10  C   UNL     1      10.372   6.732  14.155  1.00  0.00     0.041 C 
ATOM     11  O   UNL     1      10.529   7.116  12.966  1.00  0.00    -0.550 OA
ATOM     12  O   UNL     1      10.900   7.485  15.198  1.00  0.00    -0.550 OA
ENDBRANCH   9  10
ENDBRANCH   8   9
ENDBRANCH   7   8
ENDBRANCH   6   7
ENDBRANCH   5   6
ENDBRANCH   4   5
ENDBRANCH   3   4
ENDBRANCH   1   3
BRANCH   2  13
ATOM     13  C   UNL     1       5.984   2.418  20.196  1.00  0.00     0.027 C 
BRANCH  13  14
ATOM     14  C   UNL     1       5.782   2.474  21.719  1.00  0.00     0.004 C 
BRANCH  14  15
ATOM     15  C   UNL     1       4.451   3.146  22.096  1.00  0.00     0.000 C 
BRANCH  15  16
ATOM     16  C   UNL     1       4.492   4.674  21.936  1.00  0.00     0.000 C 
BRANCH  16  17
ATOM     17  C   UNL     1       5.487   5.345  22.896  1.00  0.00    -0.000 C 
BRANCH  17  18
ATOM     18  C   UNL     1       6.520   6.175  22.125  1.00  0.00    -0.000 C 
BRANCH  18  19
ATOM     19  C   UNL     1       5.927   7.517  21.682  1.00  0.00    -0.003 C 
ATOM     20  C   UNL     1       7.018   8.470  21.202  1.00  0.00     0.004 C 
ENDBRANCH  18  19
ENDBRANCH  17  18
ENDBRANCH  16  17
ENDBRANCH  15  16
ENDBRANCH  14  15
ENDBRANCH  13  14
ENDBRANCH   2  13
TORSDOF 15
ENDMDL
MODEL 3
REMARK VINA RESULT:    -4.534      5.019      7.619
REMARK INTER + INTRA:         -10.779
REMARK INTER:                  -8.505
REMARK INTRA:                  -2.274
REMARK UNBOUND:                -2.269
REMARK SMILES CCCCCCCCC=CCCCCCCCC(=O)[O-]
REMARK SMILES IDX 10 1 9 2 11 3 12 4 13 5 14 6 15 7 16 8 17 9 18 10 19 11
REMARK SMILES IDX 20 12 8 13 7 14 6 15 5 16 4 17 3 18 2 19 1 20
REMARK H PARENT
REMARK Flexibility Score: inf
ROOT
ATOM      1  C   UNL     1       4.560   4.884  21.957  1.00  0.00    -0.031 C 
ATOM      2  C   UNL     1       4.472   3.815  21.146  1.00  0.00    -0.031 C 
ENDROOT
BRANCH   1   3
ATOM      3  C   UNL     1       5.659   5.121  22.968  1.00  0.00     0.027 C 
BRANCH   3   4
ATOM      4  C   UNL     1       6.596   6.249  22.520  1.00  0.00     0.004 C 
BRANCH   4   5
ATOM      5  C   UNL     1       5.956   7.134  21.437  1.00  0.00     0.000 C 
BRANCH   5   6
ATOM      6  C   UNL     1       6.923   8.200  20.896  1.00  0.00     0.000 C 
BRANCH   6   7
ATOM      7  C   UNL     1       8.162   8.380  21.785  1.00  0.00     0.000 C 
BRANCH   7   8
ATOM      8  C   UNL     1       8.247   9.815  22.325  1.00  0.00     0.006 C 
BRANCH   8   9
ATOM      9  C   UNL     1       7.278  10.765  21.608  1.00  0.00     0.053 C 
BRANCH   9  10
ATOM     10  C   UNL     1       6.896  11.925  22.476  1.00  0.00     0.041 C 
ATOM     11  O   UNL     1       7.390  12.046  23.628  1.00  0.00    -0.550 OA
ATOM     12  O   UNL     1       6.017  12.890  21.998  1.00  0.00    -0.550 OA
ENDBRANCH   9  10
ENDBRANCH   8   9
ENDBRANCH   7   8
ENDBRANCH   6   7
ENDBRANCH   5   6
ENDBRANCH   4   5
ENDBRANCH   3   4
ENDBRANCH   1   3
BRANCH   2  13
ATOM     13  C   UNL     1       5.423   2.645  21.150  1.00  0.00     0.027 C 
BRANCH  13  14
ATOM     14  C   UNL     1       6.350   2.646  19.923  1.00  0.00     0.004 C 
BRANCH  14  15
ATOM     15  C   UNL     1       7.633   3.456  20.175  1.00  0.00     0.000 C 
BRANCH  15  16
ATOM     16  C   UNL     1       7.824   4.593  19.158  1.00  0.00     0.000 C 
BRANCH  16  17
ATOM     17  C   UNL     1       6.557   4.871  18.334  1.00  0.00    -0.000 C 
BRANCH  17  18
ATOM     18  C   UNL     1       6.503   6.337  17.888  1.00  0.00    -0.000 C 
BRANCH  18  19
ATOM     19  C   UNL     1       5.990   6.455  16.448  1.00  0.00    -0.003 C 
ATOM     20  C   UNL     1       5.591   5.091  15.892  1.00  0.00     0.004 C 
ENDBRANCH  18  19
ENDBRANCH  17  18
ENDBRANCH  16  17
ENDBRANCH  15  16
ENDBRANCH  14  15
ENDBRANCH  13  14
ENDBRANCH   2  13
TORSDOF 15
ENDMDL
MODEL 4
REMARK VINA RESULT:    -4.515      1.229      2.249
REMARK INTER + INTRA:         -10.742
REMARK INTER:                  -8.254
REMARK INTRA:                  -2.488
REMARK UNBOUND:                -2.269
REMARK SMILES CCCCCCCCC=CCCCCCCCC(=O)[O-]
REMARK SMILES IDX 10 1 9 2 11 3 12 4 13 5 14 6 15 7 16 8 17 9 18 10 19 11
REMARK SMILES IDX 20 12 8 13 7 14 6 15 5 16 4 17 3 18 2 19 1 20
REMARK H PARENT
REMARK Flexibility Score: inf
ROOT
ATOM      1  C   UNL     1       6.419   4.609  18.327  1.00  0.00    -0.031 C 
ATOM      2  C   UNL     1       7.398   4.474  19.240  1.00  0.00    -0.031 C 
ENDROOT
BRANCH   1   3
ATOM      3  C   UNL     1       6.096   5.880  17.577  1.00  0.00     0.027 C 
BRANCH   3   4
ATOM      4  C   UNL     1       6.033   5.635  16.065  1.00  0.00     0.004 C 
BRANCH   4   5
ATOM      5  C   UNL     1       7.421   5.339  15.470  1.00  0.00     0.000 C 
BRANCH   5   6
ATOM      6  C   UNL     1       8.462   6.410  15.835  1.00  0.00     0.000 C 
BRANCH   6   7
ATOM      7  C   UNL     1       9.808   5.805  16.258  1.00  0.00     0.000 C 
BRANCH   7   8
ATOM      8  C   UNL     1      10.735   5.628  15.046  1.00  0.00     0.006 C 
BRANCH   8   9
ATOM      9  C   UNL     1      10.677   6.826  14.089  1.00  0.00     0.053 C 
BRANCH   9  10
ATOM     10  C   UNL     1      10.493   6.391  12.667  1.00  0.00     0.041 C 
ATOM     11  O   UNL     1       9.385   5.937  12.280  1.00  0.00    -0.550 OA
ATOM     12  O   UNL     1      11.539   6.518  11.761  1.00  0.00    -0.550 OA
ENDBRANCH   9  10
ENDBRANCH   8   9
ENDBRANCH   7   8
ENDBRANCH   6   7
ENDBRANCH   5   6
ENDBRANCH   4   5
ENDBRANCH   3   4
ENDBRANCH   1   3
BRANCH   2  13
ATOM     13  C   UNL     1       8.301   5.587  19.709  1.00  0.00     0.027 C 
BRANCH  13  14
ATOM     14  C   UNL     1       7.875   6.142  21.078  1.00  0.00     0.004 C 
BRANCH  14  15
ATOM     15  C   UNL     1       6.866   7.296  20.940  1.00  0.00     0.000 C 
BRANCH  15  16
ATOM     16  C   UNL     1       5.428   6.868  21.274  1.00  0.00     0.000 C 
BRANCH  16  17
ATOM     17  C   UNL     1       5.372   5.592  22.128  1.00  0.00    -0.000 C 
BRANCH  17  18
ATOM     18  C   UNL     1       4.321   4.616  21.588  1.00  0.00    -0.000 C 
BRANCH  18  19
ATOM     19  C   UNL     1       4.897   3.201  21.463  1.00  0.00    -0.003 C 
ATOM     20  C   UNL     1       5.890   2.910  22.584  1.00  0.00     0.004 C 
ENDBRANCH  18  19
ENDBRANCH  17  18
ENDBRANCH  16  17
ENDBRANCH  15  16
ENDBRANCH  14  15
ENDBRANCH  13  14
ENDBRANCH   2  13
TORSDOF 15
ENDMDL
MODEL 5
REMARK VINA RESULT:    -4.503      3.783      7.627
REMARK INTER + INTRA:         -10.720
REMARK INTER:                  -8.619
REMARK INTRA:                  -2.101
REMARK UNBOUND:                -2.269
REMARK SMILES CCCCCCCCC=CCCCCCCCC(=O)[O-]
REMARK SMILES IDX 10 1 9 2 11 3 12 4 13 5 14 6 15 7 16 8 17 9 18 10 19 11
REMARK SMILES IDX 20 12 8 13 7 14 6 15 5 16 4 17 3 18 2 19 1 20
REMARK H PARENT
REMARK Flexibility Score: inf
ROOT
ATOM      1  C   UNL     1       7.339   4.400  19.288  1.00  0.00    -0.031 C 
ATOM      2  C   UNL     1       7.582   5.690  18.991  1.00  0.00    -0.031 C 
ENDROOT
BRANCH   1   3
ATOM      3  C   UNL     1       5.998   3.715  19.157  1.00  0.00     0.027 C 
BRANCH   3   4
ATOM      4  C   UNL     1       5.959   2.408  19.957  1.00  0.00     0.004 C 
BRANCH   4   5
ATOM      5  C   UNL     1       5.409   2.617  21.378  1.00  0.00     0.000 C 
BRANCH   5   6
ATOM      6  C   UNL     1       4.451   3.816  21.471  1.00  0.00     0.000 C 
BRANCH   6   7
ATOM      7  C   UNL     1       4.910   4.861  22.498  1.00  0.00     0.000 C 
BRANCH   7   8
ATOM      8  C   UNL     1       5.194   6.209  21.821  1.00  0.00     0.006 C 
BRANCH   8   9
ATOM      9  C   UNL     1       6.351   6.964  22.488  1.00  0.00     0.053 C 
BRANCH   9  10
ATOM     10  C   UNL     1       6.372   8.409  22.093  1.00  0.00     0.041 C 
ATOM     11  O   UNL     1       7.143   8.807  21.181  1.00  0.00    -0.550 OA
ATOM     12  O   UNL     1       5.513   9.311  22.711  1.00  0.00    -0.550 OA
ENDBRANCH   9  10
ENDBRANCH   8   9
ENDBRANCH   7   8
ENDBRANCH   6   7
ENDBRANCH   5   6
ENDBRANCH   4   5
ENDBRANCH   3   4
ENDBRANCH   1   3
BRANCH   2  13
ATOM     13  C   UNL     1       6.544   6.683  18.532  1.00  0.00     0.027 C 
BRANCH  13  14
ATOM     14  C   UNL     1       6.613   6.936  17.017  1.00  0.00     0.004 C 
BRANCH  14  15
ATOM     15  C   UNL     1       5.691   5.987  16.234  1.00  0.00     0.000 C 
BRANCH  15  16
ATOM     16  C   UNL     1       6.471   4.949  15.411  1.00  0.00     0.000 C 
BRANCH  16  17
ATOM     17  C   UNL     1       7.981   5.230  15.378  1.00  0.00    -0.000 C 
BRANCH  17  18
ATOM     18  C   UNL     1       8.584   4.839  14.024  1.00  0.00    -0.000 C 
BRANCH  18  19
ATOM     19  C   UNL     1       9.000   3.363  14.013  1.00  0.00    -0.003 C 
ATOM     20  C   UNL     1       8.108   2.546  13.084  1.00  0.00     0.004 C 
ENDBRANCH  18  19
ENDBRANCH  17  18
ENDBRANCH  16  17
ENDBRANCH  15  16
ENDBRANCH  14  15
ENDBRANCH  13  14
ENDBRANCH   2  13
TORSDOF 15
ENDMDL
MODEL 6
REMARK VINA RESULT:    -4.480      2.886      5.299
REMARK INTER + INTRA:         -10.678
REMARK INTER:                  -8.773
REMARK INTRA:                  -1.905
REMARK UNBOUND:                -2.269
REMARK SMILES CCCCCCCCC=CCCCCCCCC(=O)[O-]
REMARK SMILES IDX 10 1 9 2 11 3 12 4 13 5 14 6 15 7 16 8 17 9 18 10 19 11
REMARK SMILES IDX 20 12 8 13 7 14 6 15 5 16 4 17 3 18 2 19 1 20
REMARK H PARENT
REMARK Flexibility Score: inf
ROOT
ATOM      1  C   UNL     1       5.235   2.610  21.445  1.00  0.00    -0.031 C 
ATOM      2  C   UNL     1       4.651   3.607  22.134  1.00  0.00    -0.031 C 
ENDROOT
BRANCH   1   3
ATOM      3  C   UNL     1       5.795   2.729  20.046  1.00  0.00     0.027 C 
BRANCH   3   4
ATOM      4  C   UNL     1       7.285   3.092  20.071  1.00  0.00     0.004 C 
BRANCH   4   5
ATOM      5  C   UNL     1       7.588   4.345  19.232  1.00  0.00     0.000 C 
BRANCH   5   6
ATOM      6  C   UNL     1       6.359   4.851  18.459  1.00  0.00     0.000 C 
BRANCH   6   7
ATOM      7  C   UNL     1       6.468   6.336  18.083  1.00  0.00     0.000 C 
BRANCH   7   8
ATOM      8  C   UNL     1       6.281   6.535  16.572  1.00  0.00     0.006 C 
BRANCH   8   9
ATOM      9  C   UNL     1       6.480   5.233  15.785  1.00  0.00     0.053 C 
BRANCH   9  10
ATOM     10  C   UNL     1       7.854   5.146  15.195  1.00  0.00     0.041 C 
ATOM     11  O   UNL     1       8.699   6.053  15.417  1.00  0.00    -0.550 OA
ATOM     12  O   UNL     1       8.213   4.045  14.427  1.00  0.00    -0.550 OA
ENDBRANCH   9  10
ENDBRANCH   8   9
ENDBRANCH   7   8
ENDBRANCH   6   7
ENDBRANCH   5   6
ENDBRANCH   4   5
ENDBRANCH   3   4
ENDBRANCH   1   3
BRANCH   2  13
ATOM     13  C   UNL     1       4.406   4.997  21.603  1.00  0.00     0.027 C 
BRANCH  13  14
ATOM     14  C   UNL     1       5.511   5.981  22.020  1.00  0.00     0.004 C 
BRANCH  14  15
ATOM     15  C   UNL     1       5.320   7.365  21.377  1.00  0.00     0.000 C 
BRANCH  15  16
ATOM     16  C   UNL     1       6.641   8.138  21.234  1.00  0.00     0.000 C 
BRANCH  16  17
ATOM     17  C   UNL     1       7.029   8.892  22.515  1.00  0.00    -0.000 C 
BRANCH  17  18
ATOM     18  C   UNL     1       5.915   9.852  22.947  1.00  0.00    -0.000 C 
BRANCH  18  19
ATOM     19  C   UNL     1       6.292  11.306  22.639  1.00  0.00    -0.003 C 
ATOM     20  C   UNL     1       7.759  11.420  22.235  1.00  0.00     0.004 C 
ENDBRANCH  18  19
ENDBRANCH  17  18
ENDBRANCH  16  17
ENDBRANCH  15  16
ENDBRANCH  14  15
ENDBRANCH  13  14
ENDBRANCH   2  13
TORSDOF 15
ENDMDL
MODEL 7
REMARK VINA RESULT:    -4.447      3.910      7.777
REMARK INTER + INTRA:         -10.615
REMARK INTER:                  -8.256
REMARK INTRA:                  -2.359
REMARK UNBOUND:                -2.269
REMARK SMILES CCCCCCCCC=CCCCCCCCC(=O)[O-]
REMARK SMILES IDX 10 1 9 2 11 3 12 4 13 5 14 6 15 7 16 8 17 9 18 10 19 11
REMARK SMILES IDX 20 12 8 13 7 14 6 15 5 16 4 17 3 18 2 19 1 20
REMARK H PARENT
REMARK Flexibility Score: inf
ROOT
ATOM      1  C   UNL     1       8.769   5.170  16.092  1.00  0.00    -0.031 C 
ATOM      2  C   UNL     1       9.914   5.793  15.758  1.00  0.00    -0.031 C 
ENDROOT
BRANCH   1   3
ATOM      3  C   UNL     1       7.483   5.230  15.301  1.00  0.00     0.027 C 
BRANCH   3   4
ATOM      4  C   UNL     1       6.299   5.629  16.191  1.00  0.00     0.004 C 
BRANCH   4   5
ATOM      5  C   UNL     1       6.441   7.063  16.731  1.00  0.00     0.000 C 
BRANCH   5   6
ATOM      6  C   UNL     1       6.357   7.129  18.265  1.00  0.00     0.000 C 
BRANCH   6   7
ATOM      7  C   UNL     1       6.765   5.810  18.936  1.00  0.00     0.000 C 
BRANCH   7   8
ATOM      8  C   UNL     1       5.853   5.498  20.133  1.00  0.00     0.006 C 
BRANCH   8   9
ATOM      9  C   UNL     1       5.773   3.994  20.427  1.00  0.00     0.053 C 
BRANCH   9  10
ATOM     10  C   UNL     1       4.897   3.706  21.608  1.00  0.00     0.041 C 
ATOM     11  O   UNL     1       4.200   4.621  22.119  1.00  0.00    -0.550 OA
ATOM     12  O   UNL     1       4.825   2.417  22.122  1.00  0.00    -0.550 OA
ENDBRANCH   9  10
ENDBRANCH   8   9
ENDBRANCH   7   8
ENDBRANCH   6   7
ENDBRANCH   5   6
ENDBRANCH   4   5
ENDBRANCH   3   4
ENDBRANCH   1   3
BRANCH   2  13
ATOM     13  C   UNL     1      10.088   6.703  14.567  1.00  0.00     0.027 C 
BRANCH  13  14
ATOM     14  C   UNL     1      11.296   6.305  13.705  1.00  0.00     0.004 C 
BRANCH  14  15
ATOM     15  C   UNL     1      10.865   5.711  12.352  1.00  0.00     0.000 C 
BRANCH  15  16
ATOM     16  C   UNL     1       9.355   5.854  12.097  1.00  0.00     0.000 C 
BRANCH  16  17
ATOM     17  C   UNL     1       8.655   4.499  11.908  1.00  0.00    -0.000 C 
BRANCH  17  18
ATOM     18  C   UNL     1       9.625   3.339  12.163  1.00  0.00    -0.000 C 
BRANCH  18  19
ATOM     19  C   UNL     1       9.210   2.537  13.401  1.00  0.00    -0.003 C 
ATOM     20  C   UNL     1      10.386   2.348  14.355  1.00  0.00     0.004 C 
ENDBRANCH  18  19
ENDBRANCH  17  18
ENDBRANCH  16  17
ENDBRANCH  15  16
ENDBRANCH  14  15
ENDBRANCH  13  14
ENDBRANCH   2  13
TORSDOF 15
ENDMDL
MODEL 8
REMARK VINA RESULT:    -4.391      4.879      8.428
REMARK INTER + INTRA:         -10.509
REMARK INTER:                  -8.877
REMARK INTRA:                  -1.632
REMARK UNBOUND:                -2.269
REMARK SMILES CCCCCCCCC=CCCCCCCCC(=O)[O-]
REMARK SMILES IDX 10 1 9 2 11 3 12 4 13 5 14 6 15 7 16 8 17 9 18 10 19 11
REMARK SMILES IDX 20 12 8 13 7 14 6 15 5 16 4 17 3 18 2 19 1 20
REMARK H PARENT
REMARK Flexibility Score: inf
ROOT
ATOM      1  C   UNL     1       6.351   6.751  17.961  1.00  0.00    -0.031 C 
ATOM      2  C   UNL     1       6.326   6.625  16.621  1.00  0.00    -0.031 C 
ENDROOT
BRANCH   1   3
ATOM      3  C   UNL     1       6.434   5.603  18.941  1.00  0.00     0.027 C 
BRANCH   3   4
ATOM      4  C   UNL     1       7.056   6.049  20.270  1.00  0.00     0.004 C 
BRANCH   4   5
ATOM      5  C   UNL     1       5.987   6.410  21.315  1.00  0.00     0.000 C 
BRANCH   5   6
ATOM      6  C   UNL     1       5.941   7.916  21.619  1.00  0.00     0.000 C 
BRANCH   6   7
ATOM      7  C   UNL     1       7.195   8.656  21.131  1.00  0.00     0.000 C 
BRANCH   7   8
ATOM      8  C   UNL     1       7.542   9.824  22.067  1.00  0.00     0.006 C 
BRANCH   8   9
ATOM      9  C   UNL     1       6.291  10.544  22.587  1.00  0.00     0.053 C 
BRANCH   9  10
ATOM     10  C   UNL     1       6.550  11.999  22.831  1.00  0.00     0.041 C 
ATOM     11  O   UNL     1       7.418  12.358  23.669  1.00  0.00    -0.550 OA
ATOM     12  O   UNL     1       5.855  12.960  22.106  1.00  0.00    -0.550 OA
ENDBRANCH   9  10
ENDBRANCH   8   9
ENDBRANCH   7   8
ENDBRANCH   6   7
ENDBRANCH   5   6
ENDBRANCH   4   5
ENDBRANCH   3   4
ENDBRANCH   1   3
BRANCH   2  13
ATOM     13  C   UNL     1       6.318   5.315  15.875  1.00  0.00     0.027 C 
BRANCH  13  14
ATOM     14  C   UNL     1       7.638   5.065  15.128  1.00  0.00     0.004 C 
BRANCH  14  15
ATOM     15  C   UNL     1       8.751   4.584  16.075  1.00  0.00     0.000 C 
BRANCH  15  16
ATOM     16  C   UNL     1       9.903   5.595  16.195  1.00  0.00     0.000 C 
BRANCH  16  17
ATOM     17  C   UNL     1       9.754   6.782  15.232  1.00  0.00    -0.000 C 
BRANCH  17  18
ATOM     18  C   UNL     1      10.865   6.775  14.175  1.00  0.00    -0.000 C 
BRANCH  18  19
ATOM     19  C   UNL     1      10.278   6.826  12.759  1.00  0.00    -0.003 C 
ATOM     20  C   UNL     1      10.010   5.423  12.224  1.00  0.00     0.004 C 
ENDBRANCH  18  19
ENDBRANCH  17  18
ENDBRANCH  16  17
ENDBRANCH  15  16
ENDBRANCH  14  15
ENDBRANCH  13  14
ENDBRANCH   2  13
TORSDOF 15
ENDMDL
MODEL 9
REMARK VINA RESULT:    -4.379      1.190      1.703
REMARK INTER + INTRA:         -10.488
REMARK INTER:                  -8.852
REMARK INTRA:                  -1.636
REMARK UNBOUND:                -2.269
REMARK SMILES CCCCCCCCC=CCCCCCCCC(=O)[O-]
REMARK SMILES IDX 10 1 9 2 11 3 12 4 13 5 14 6 15 7 16 8 17 9 18 10 19 11
REMARK SMILES IDX 20 12 8 13 7 14 6 15 5 16 4 17 3 18 2 19 1 20
REMARK H PARENT
REMARK Flexibility Score: inf
ROOT
ATOM      1  C   UNL     1       6.060   7.119  18.471  1.00  0.00    -0.031 C 
ATOM      2  C   UNL     1       6.659   6.390  19.431  1.00  0.00    -0.031 C 
ENDROOT
BRANCH   1   3
ATOM      3  C   UNL     1       6.510   7.198  17.030  1.00  0.00     0.027 C 
BRANCH   3   4
ATOM      4  C   UNL     1       6.071   5.959  16.240  1.00  0.00     0.004 C 
BRANCH   4   5
ATOM      5  C   UNL     1       7.255   5.270  15.542  1.00  0.00     0.000 C 
BRANCH   5   6
ATOM      6  C   UNL     1       8.546   6.103  15.604  1.00  0.00     0.000 C 
BRANCH   6   7
ATOM      7  C   UNL     1       9.802   5.236  15.768  1.00  0.00     0.000 C 
BRANCH   7   8
ATOM      8  C   UNL     1      10.947   5.757  14.886  1.00  0.00     0.006 C 
BRANCH   8   9
ATOM      9  C   UNL     1      10.488   6.869  13.933  1.00  0.00     0.053 C 
BRANCH   9  10
ATOM     10  C   UNL     1      10.482   6.409  12.507  1.00  0.00     0.041 C 
ATOM     11  O   UNL     1       9.424   5.963  11.989  1.00  0.00    -0.550 OA
ATOM     12  O   UNL     1      11.637   6.504  11.741  1.00  0.00    -0.550 OA
ENDBRANCH   9  10
ENDBRANCH   8   9
ENDBRANCH   7   8
ENDBRANCH   6   7
ENDBRANCH   5   6
ENDBRANCH   4   5
ENDBRANCH   3   4
ENDBRANCH   1   3
BRANCH   2  13
ATOM     13  C   UNL     1       7.913   5.575  19.242  1.00  0.00     0.027 C 
BRANCH  13  14
ATOM     14  C   UNL     1       7.631   4.064  19.256  1.00  0.00     0.004 C 
BRANCH  14  15
ATOM     15  C   UNL     1       6.122   3.762  19.223  1.00  0.00     0.000 C 
BRANCH  15  16
ATOM     16  C   UNL     1       5.707   2.705  20.259  1.00  0.00     0.000 C 
BRANCH  16  17
ATOM     17  C   UNL     1       5.159   3.327  21.553  1.00  0.00    -0.000 C 
BRANCH  17  18
ATOM     18  C   UNL     1       4.923   2.252  22.621  1.00  0.00    -0.000 C 
BRANCH  18  19
ATOM     19  C   UNL     1       3.978   2.761  23.715  1.00  0.00    -0.003 C 
ATOM     20  C   UNL     1       4.672   2.783  25.075  1.00  0.00     0.004 C 
ENDBRANCH  18  19
ENDBRANCH  17  18
ENDBRANCH  16  17
ENDBRANCH  15  16
ENDBRANCH  14  15
ENDBRANCH  13  14
ENDBRANCH   2  13
TORSDOF 15
ENDMDL
