MODEL 1
REMARK VINA RESULT:    -2.554      0.000      0.000
REMARK INTER + INTRA:          -2.778
REMARK INTER:                  -2.778
REMARK INTRA:                   0.000
REMARK UNBOUND:                 0.000
REMARK SMILES [NH3+]CC(=O)[O-]
REMARK SMILES IDX 2 1 1 2 3 6 4 7 5 8
REMARK H PARENT 1 3 1 4 1 5
REMARK Flexibility Score: inf
ROOT
ATOM      1  C   UNL     1     167.865 176.571  74.298  1.00  0.00     0.312 C 
ENDROOT
BRANCH   1   2
ATOM      2  N   UNL     1     167.728 177.611  75.316  1.00  0.00    -0.353 N 
ATOM      3  H   UNL     1     166.717 177.833  75.468  1.00  0.00     0.344 HD
ATOM      4  H   UNL     1     168.220 178.474  74.991  1.00  0.00     0.344 HD
ATOM      5  H   UNL     1     168.159 177.293  76.214  1.00  0.00     0.344 HD
ENDBRANCH   1   2
BRANCH   1   6
ATOM      6  C   UNL     1     169.266 176.525  73.773  1.00  0.00     0.096 C 
ATOM      7  O   UNL     1     170.126 175.790  74.325  1.00  0.00    -0.544 OA
ATOM      8  O   UNL     1     169.609 177.256  72.642  1.00  0.00    -0.544 OA
ENDBRANCH   1   6
TORSDOF 2
ENDMDL
MODEL 2
REMARK VINA RESULT:    -2.480      2.446      2.927
REMARK INTER + INTRA:          -2.698
REMARK INTER:                  -2.698
REMARK INTRA:                   0.000
REMARK UNBOUND:                 0.000
REMARK SMILES [NH3+]CC(=O)[O-]
REMARK SMILES IDX 2 1 1 2 3 6 4 7 5 8
REMARK H PARENT 1 3 1 4 1 5
REMARK Flexibility Score: inf
ROOT
ATOM      1  C   UNL     1     169.174 175.779  74.389  1.00  0.00     0.312 C 
ENDROOT
BRANCH   1   2
ATOM      2  N   UNL     1     170.020 176.884  73.940  1.00  0.00    -0.353 N 
ATOM      3  H   UNL     1     170.597 177.240  74.737  1.00  0.00     0.344 HD
ATOM      4  H   UNL     1     169.413 177.658  73.588  1.00  0.00     0.344 HD
ATOM      5  H   UNL     1     170.646 176.564  73.165  1.00  0.00     0.344 HD
ENDBRANCH   1   2
BRANCH   1   6
ATOM      6  C   UNL     1     167.965 176.296  75.106  1.00  0.00     0.096 C 
ATOM      7  O   UNL     1     167.610 177.496  74.966  1.00  0.00    -0.544 OA
ATOM      8  O   UNL     1     167.201 175.439  75.888  1.00  0.00    -0.544 OA
ENDBRANCH   1   6
TORSDOF 2
ENDMDL
MODEL 3
REMARK VINA RESULT:    -2.423      4.895      5.181
REMARK INTER + INTRA:          -2.635
REMARK INTER:                  -2.635
REMARK INTRA:                   0.000
REMARK UNBOUND:                 0.000
REMARK SMILES [NH3+]CC(=O)[O-]
REMARK SMILES IDX 2 1 1 2 3 6 4 7 5 8
REMARK H PARENT 1 3 1 4 1 5
REMARK Flexibility Score: inf
ROOT
ATOM      1  C   UNL     1     164.998 175.963  73.623  1.00  0.00     0.312 C 
ENDROOT
BRANCH   1   2
ATOM      2  N   UNL     1     164.046 176.009  72.516  1.00  0.00    -0.353 N 
ATOM      3  H   UNL     1     163.092 175.738  72.851  1.00  0.00     0.344 HD
ATOM      4  H   UNL     1     164.349 175.336  71.775  1.00  0.00     0.344 HD
ATOM      5  H   UNL     1     164.017 176.972  72.107  1.00  0.00     0.344 HD
ENDBRANCH   1   2
BRANCH   1   6
ATOM      6  C   UNL     1     164.446 176.665  74.825  1.00  0.00     0.096 C 
ATOM      7  O   UNL     1     163.216 176.609  75.083  1.00  0.00    -0.544 OA
ATOM      8  O   UNL     1     165.301 177.339  75.689  1.00  0.00    -0.544 OA
ENDBRANCH   1   6
TORSDOF 2
ENDMDL
MODEL 4
REMARK VINA RESULT:    -2.393     14.483     14.811
REMARK INTER + INTRA:          -2.603
REMARK INTER:                  -2.603
REMARK INTRA:                   0.000
REMARK UNBOUND:                 0.000
REMARK SMILES [NH3+]CC(=O)[O-]
REMARK SMILES IDX 2 1 1 2 3 6 4 7 5 8
REMARK H PARENT 1 3 1 4 1 5
REMARK Flexibility Score: inf
ROOT
ATOM      1  C   UNL     1     155.590 181.562  74.396  1.00  0.00     0.312 C 
ENDROOT
BRANCH   1   2
ATOM      2  N   UNL     1     157.016 181.404  74.116  1.00  0.00    -0.353 N 
ATOM      3  H   UNL     1     157.446 180.744  74.805  1.00  0.00     0.344 HD
ATOM      4  H   UNL     1     157.486 182.334  74.198  1.00  0.00     0.344 HD
ATOM      5  H   UNL     1     157.153 181.040  73.144  1.00  0.00     0.344 HD
ENDBRANCH   1   2
BRANCH   1   6
ATOM      6  C   UNL     1     155.233 183.011  74.521  1.00  0.00     0.096 C 
ATOM      7  O   UNL     1     154.677 183.611  73.565  1.00  0.00    -0.544 OA
ATOM      8  O   UNL     1     155.468 183.684  75.713  1.00  0.00    -0.544 OA
ENDBRANCH   1   6
TORSDOF 2
ENDMDL
MODEL 5
REMARK VINA RESULT:    -2.315      3.775      4.003
REMARK INTER + INTRA:          -2.518
REMARK INTER:                  -2.518
REMARK INTRA:                   0.000
REMARK UNBOUND:                 0.000
REMARK SMILES [NH3+]CC(=O)[O-]
REMARK SMILES IDX 2 1 1 2 3 6 4 7 5 8
REMARK H PARENT 1 3 1 4 1 5
REMARK Flexibility Score: inf
ROOT
ATOM      1  C   UNL     1     164.422 177.036  75.401  1.00  0.00     0.312 C 
ENDROOT
BRANCH   1   2
ATOM      2  N   UNL     1     163.279 177.018  74.490  1.00  0.00    -0.353 N 
ATOM      3  H   UNL     1     163.211 177.932  73.984  1.00  0.00     0.344 HD
ATOM      4  H   UNL     1     162.404 176.870  75.043  1.00  0.00     0.344 HD
ATOM      5  H   UNL     1     163.381 176.238  73.801  1.00  0.00     0.344 HD
ENDBRANCH   1   2
BRANCH   1   6
ATOM      6  C   UNL     1     165.655 176.537  74.713  1.00  0.00     0.096 C 
ATOM      7  O   UNL     1     166.786 176.704  75.238  1.00  0.00    -0.544 OA
ATOM      8  O   UNL     1     165.548 175.841  73.515  1.00  0.00    -0.544 OA
ENDBRANCH   1   6
TORSDOF 2
ENDMDL
MODEL 6
REMARK VINA RESULT:    -2.285      3.489      3.741
REMARK INTER + INTRA:          -2.486
REMARK INTER:                  -2.486
REMARK INTRA:                   0.000
REMARK UNBOUND:                 0.000
REMARK SMILES [NH3+]CC(=O)[O-]
REMARK SMILES IDX 2 1 1 2 3 6 4 7 5 8
REMARK H PARENT 1 3 1 4 1 5
REMARK Flexibility Score: inf
ROOT
ATOM      1  C   UNL     1     167.090 176.373  74.733  1.00  0.00     0.312 C 
ENDROOT
BRANCH   1   2
ATOM      2  N   UNL     1     167.815 177.547  75.215  1.00  0.00    -0.353 N 
ATOM      3  H   UNL     1     167.477 178.405  74.720  1.00  0.00     0.344 HD
ATOM      4  H   UNL     1     168.835 177.423  75.021  1.00  0.00     0.344 HD
ATOM      5  H   UNL     1     167.677 177.656  76.246  1.00  0.00     0.344 HD
ENDBRANCH   1   2
BRANCH   1   6
ATOM      6  C   UNL     1     165.611 176.595  74.811  1.00  0.00     0.096 C 
ATOM      7  O   UNL     1     165.106 177.147  75.823  1.00  0.00    -0.544 OA
ATOM      8  O   UNL     1     164.798 176.239  73.743  1.00  0.00    -0.544 OA
ENDBRANCH   1   6
TORSDOF 2
ENDMDL
MODEL 7
REMARK VINA RESULT:    -2.281      6.441      6.730
REMARK INTER + INTRA:          -2.482
REMARK INTER:                  -2.482
REMARK INTRA:                   0.000
REMARK UNBOUND:                 0.000
REMARK SMILES [NH3+]CC(=O)[O-]
REMARK SMILES IDX 2 1 1 2 3 6 4 7 5 8
REMARK H PARENT 1 3 1 4 1 5
REMARK Flexibility Score: inf
ROOT
ATOM      1  C   UNL     1     164.008 176.614  75.899  1.00  0.00     0.312 C 
ENDROOT
BRANCH   1   2
ATOM      2  N   UNL     1     163.713 177.416  74.713  1.00  0.00    -0.353 N 
ATOM      3  H   UNL     1     162.873 177.032  74.221  1.00  0.00     0.344 HD
ATOM      4  H   UNL     1     164.532 177.382  74.064  1.00  0.00     0.344 HD
ATOM      5  H   UNL     1     163.539 178.411  74.987  1.00  0.00     0.344 HD
ENDBRANCH   1   2
BRANCH   1   6
ATOM      6  C   UNL     1     162.744 176.131  76.539  1.00  0.00     0.096 C 
ATOM      7  O   UNL     1     162.774 175.602  77.680  1.00  0.00    -0.544 OA
ATOM      8  O   UNL     1     161.525 176.315  75.897  1.00  0.00    -0.544 OA
ENDBRANCH   1   6
TORSDOF 2
ENDMDL
MODEL 8
REMARK VINA RESULT:    -2.278      2.373      2.519
REMARK INTER + INTRA:          -2.478
REMARK INTER:                  -2.478
REMARK INTRA:                   0.000
REMARK UNBOUND:                 0.000
REMARK SMILES [NH3+]CC(=O)[O-]
REMARK SMILES IDX 2 1 1 2 3 6 4 7 5 8
REMARK H PARENT 1 3 1 4 1 5
REMARK Flexibility Score: inf
ROOT
ATOM      1  C   UNL     1     168.377 177.100  74.394  1.00  0.00     0.312 C 
ENDROOT
BRANCH   1   2
ATOM      2  N   UNL     1     169.774 176.894  74.016  1.00  0.00    -0.353 N 
ATOM      3  H   UNL     1     170.111 175.971  74.376  1.00  0.00     0.344 HD
ATOM      4  H   UNL     1     170.357 177.655  74.434  1.00  0.00     0.344 HD
ATOM      5  H   UNL     1     169.873 176.925  72.975  1.00  0.00     0.344 HD
ENDBRANCH   1   2
BRANCH   1   6
ATOM      6  C   UNL     1     167.486 176.142  73.666  1.00  0.00     0.096 C 
ATOM      7  O   UNL     1     166.257 176.094  73.931  1.00  0.00    -0.544 OA
ATOM      8  O   UNL     1     168.005 175.340  72.657  1.00  0.00    -0.544 OA
ENDBRANCH   1   6
TORSDOF 2
ENDMDL
MODEL 9
REMARK VINA RESULT:    -2.212      2.427      2.498
REMARK INTER + INTRA:          -2.406
REMARK INTER:                  -2.406
REMARK INTRA:                   0.000
REMARK UNBOUND:                 0.000
REMARK SMILES [NH3+]CC(=O)[O-]
REMARK SMILES IDX 2 1 1 2 3 6 4 7 5 8
REMARK H PARENT 1 3 1 4 1 5
REMARK Flexibility Score: inf
ROOT
ATOM      1  C   UNL     1     167.642 175.895  72.928  1.00  0.00     0.312 C 
ENDROOT
BRANCH   1   2
ATOM      2  N   UNL     1     168.484 175.175  71.974  1.00  0.00    -0.353 N 
ATOM      3  H   UNL     1     168.116 175.304  71.003  1.00  0.00     0.344 HD
ATOM      4  H   UNL     1     168.472 174.156  72.208  1.00  0.00     0.344 HD
ATOM      5  H   UNL     1     169.468 175.524  72.029  1.00  0.00     0.344 HD
ENDBRANCH   1   2
BRANCH   1   6
ATOM      6  C   UNL     1     168.470 176.806  73.780  1.00  0.00     0.096 C 
ATOM      7  O   UNL     1     169.671 177.035  73.482  1.00  0.00    -0.544 OA
ATOM      8  O   UNL     1     167.898 177.444  74.874  1.00  0.00    -0.544 OA
ENDBRANCH   1   6
TORSDOF 2
ENDMDL
