MODEL 1
REMARK VINA RESULT:    -2.522      0.000      0.000
REMARK INTER + INTRA:          -3.482
REMARK INTER:                  -3.111
REMARK INTRA:                  -0.370
REMARK UNBOUND:                -0.370
REMARK SMILES Oc1cc(O)c2cc(O)c(-c3cc(O)c(O)c(O)c3)[o+]c2c1
REMARK SMILES IDX 10 1 20 2 21 3 22 4 2 5 3 6 4 7 6 8 7 9 8 10 11 11 12 12
REMARK SMILES IDX 13 13 19 14 15 15 17 16 14 17 16 19 18 21 9 23 1 25 5 27
REMARK H PARENT 14 18 16 20 18 22 9 24 1 26 5 28
REMARK Flexibility Score: inf
ROOT
ATOM      1  C   UNL     1      23.802  25.048  14.217  1.00  0.00     0.402 A 
ATOM      2  O   UNL     1      24.131  25.499  15.427  1.00  0.00    -0.202 OA
ATOM      3  C   UNL     1      24.237  26.792  15.717  1.00  0.00     0.368 A 
ATOM      4  C   UNL     1      24.584  27.183  17.015  1.00  0.00     0.162 A 
ATOM      5  C   UNL     1      24.695  28.539  17.335  1.00  0.00     0.128 A 
ATOM      6  C   UNL     1      24.458  29.512  16.354  1.00  0.00     0.093 A 
ATOM      7  C   UNL     1      24.110  29.133  15.048  1.00  0.00     0.136 A 
ATOM      8  C   UNL     1      23.998  27.767  14.726  1.00  0.00     0.125 A 
ATOM      9  C   UNL     1      23.663  27.333  13.440  1.00  0.00     0.078 A 
ATOM     10  C   UNL     1      23.572  25.963  13.170  1.00  0.00     0.223 A 
ENDROOT
BRANCH   1  11
ATOM     11  C   UNL     1      23.706  23.585  14.017  1.00  0.00     0.091 A 
ATOM     12  C   UNL     1      22.452  22.962  14.071  1.00  0.00     0.068 A 
ATOM     13  C   UNL     1      22.320  21.583  13.866  1.00  0.00     0.162 A 
ATOM     14  C   UNL     1      24.839  22.812  13.717  1.00  0.00     0.068 A 
ATOM     15  C   UNL     1      23.470  20.805  13.587  1.00  0.00     0.200 A 
ATOM     16  C   UNL     1      24.725  21.434  13.508  1.00  0.00     0.162 A 
BRANCH  13  17
ATOM     17  O   UNL     1      21.038  21.035  13.948  1.00  0.00    -0.504 OA
ATOM     18  H   UNL     1      20.683  20.328  13.321  1.00  0.00     0.293 HD
ENDBRANCH  13  17
BRANCH  15  19
ATOM     19  O   UNL     1      23.403  19.425  13.380  1.00  0.00    -0.502 OA
ATOM     20  H   UNL     1      22.576  18.866  13.535  1.00  0.00     0.293 HD
ENDBRANCH  15  19
BRANCH  16  21
ATOM     21  O   UNL     1      25.880  20.705  13.219  1.00  0.00    -0.504 OA
ATOM     22  H   UNL     1      25.881  19.930  12.566  1.00  0.00     0.293 HD
ENDBRANCH  16  21
ENDBRANCH   1  11
BRANCH  10  23
ATOM     23  O   UNL     1      23.287  25.522  11.878  1.00  0.00    -0.500 OA
ATOM     24  H   UNL     1      23.500  24.578  11.580  1.00  0.00     0.294 HD
ENDBRANCH  10  23
BRANCH   5  25
ATOM     25  O   UNL     1      25.041  28.911  18.633  1.00  0.00    -0.507 OA
ATOM     26  H   UNL     1      24.393  29.411  19.230  1.00  0.00     0.293 HD
ENDBRANCH   5  25
BRANCH   7  27
ATOM     27  O   UNL     1      23.879  30.110  14.078  1.00  0.00    -0.507 OA
ATOM     28  H   UNL     1      23.008  30.627  14.042  1.00  0.00     0.293 HD
ENDBRANCH   7  27
TORSDOF 7
ENDMDL
MODEL 2
REMARK VINA RESULT:    -2.505      0.182      1.813
REMARK INTER + INTRA:          -3.461
REMARK INTER:                  -3.090
REMARK INTRA:                  -0.371
REMARK UNBOUND:                -0.370
REMARK SMILES Oc1cc(O)c2cc(O)c(-c3cc(O)c(O)c(O)c3)[o+]c2c1
REMARK SMILES IDX 10 1 20 2 21 3 22 4 2 5 3 6 4 7 6 8 7 9 8 10 11 11 12 12
REMARK SMILES IDX 13 13 19 14 15 15 17 16 14 17 16 19 18 21 9 23 1 25 5 27
REMARK H PARENT 14 18 16 20 18 22 9 24 1 26 5 28
REMARK Flexibility Score: inf
ROOT
ATOM      1  C   UNL     1      23.867  25.061  14.189  1.00  0.00     0.402 A 
ATOM      2  O   UNL     1      24.283  25.509  15.373  1.00  0.00    -0.202 OA
ATOM      3  C   UNL     1      24.388  26.802  15.666  1.00  0.00     0.368 A 
ATOM      4  C   UNL     1      24.829  27.190  16.935  1.00  0.00     0.162 A 
ATOM      5  C   UNL     1      24.941  28.545  17.258  1.00  0.00     0.128 A 
ATOM      6  C   UNL     1      24.609  29.520  16.307  1.00  0.00     0.093 A 
ATOM      7  C   UNL     1      24.166  29.145  15.029  1.00  0.00     0.136 A 
ATOM      8  C   UNL     1      24.054  27.780  14.705  1.00  0.00     0.125 A 
ATOM      9  C   UNL     1      23.626  27.349  13.445  1.00  0.00     0.078 A 
ATOM     10  C   UNL     1      23.539  25.980  13.172  1.00  0.00     0.223 A 
ENDROOT
BRANCH   1  11
ATOM     11  C   UNL     1      23.783  23.598  13.984  1.00  0.00     0.091 A 
ATOM     12  C   UNL     1      24.955  22.866  13.748  1.00  0.00     0.068 A 
ATOM     13  C   UNL     1      24.916  21.478  13.569  1.00  0.00     0.162 A 
ATOM     14  C   UNL     1      22.560  22.916  14.076  1.00  0.00     0.068 A 
ATOM     15  C   UNL     1      23.676  20.798  13.640  1.00  0.00     0.200 A 
ATOM     16  C   UNL     1      22.504  21.530  13.901  1.00  0.00     0.162 A 
BRANCH  13  17
ATOM     17  O   UNL     1      26.125  20.822  13.327  1.00  0.00    -0.504 OA
ATOM     18  H   UNL     1      26.815  20.623  14.037  1.00  0.00     0.293 HD
ENDBRANCH  13  17
BRANCH  15  19
ATOM     19  O   UNL     1      23.573  19.416  13.464  1.00  0.00    -0.502 OA
ATOM     20  H   UNL     1      23.645  18.951  12.570  1.00  0.00     0.293 HD
ENDBRANCH  15  19
BRANCH  16  21
ATOM     21  O   UNL     1      21.265  20.894  13.995  1.00  0.00    -0.504 OA
ATOM     22  H   UNL     1      20.401  21.351  13.727  1.00  0.00     0.293 HD
ENDBRANCH  16  21
ENDBRANCH   1  11
BRANCH  10  23
ATOM     23  O   UNL     1      23.160  25.543  11.902  1.00  0.00    -0.500 OA
ATOM     24  H   UNL     1      22.925  24.574  11.722  1.00  0.00     0.294 HD
ENDBRANCH  10  23
BRANCH   5  25
ATOM     25  O   UNL     1      25.381  28.914  18.527  1.00  0.00    -0.507 OA
ATOM     26  H   UNL     1      24.839  29.536  19.115  1.00  0.00     0.293 HD
ENDBRANCH   5  25
BRANCH   7  27
ATOM     27  O   UNL     1      23.841  30.125  14.090  1.00  0.00    -0.507 OA
ATOM     28  H   UNL     1      22.929  30.567  14.077  1.00  0.00     0.293 HD
ENDBRANCH   7  27
TORSDOF 7
ENDMDL
MODEL 3
REMARK VINA RESULT:    -2.445      1.851      2.631
REMARK INTER + INTRA:          -3.387
REMARK INTER:                  -3.497
REMARK INTRA:                   0.109
REMARK UNBOUND:                -0.370
REMARK SMILES Oc1cc(O)c2cc(O)c(-c3cc(O)c(O)c(O)c3)[o+]c2c1
REMARK SMILES IDX 10 1 20 2 21 3 22 4 2 5 3 6 4 7 6 8 7 9 8 10 11 11 12 12
REMARK SMILES IDX 13 13 19 14 15 15 17 16 14 17 16 19 18 21 9 23 1 25 5 27
REMARK H PARENT 14 18 16 20 18 22 9 24 1 26 5 28
REMARK Flexibility Score: inf
ROOT
ATOM      1  C   UNL     1      24.229  24.445  14.168  1.00  0.00     0.402 A 
ATOM      2  O   UNL     1      24.572  25.492  14.916  1.00  0.00    -0.202 OA
ATOM      3  C   UNL     1      24.193  26.737  14.642  1.00  0.00     0.368 A 
ATOM      4  C   UNL     1      24.593  27.782  15.482  1.00  0.00     0.162 A 
ATOM      5  C   UNL     1      24.199  29.095  15.207  1.00  0.00     0.128 A 
ATOM      6  C   UNL     1      23.401  29.367  14.087  1.00  0.00     0.093 A 
ATOM      7  C   UNL     1      22.994  28.328  13.236  1.00  0.00     0.136 A 
ATOM      8  C   UNL     1      23.391  27.006  13.513  1.00  0.00     0.125 A 
ATOM      9  C   UNL     1      23.021  25.933  12.695  1.00  0.00     0.078 A 
ATOM     10  C   UNL     1      23.448  24.639  13.011  1.00  0.00     0.223 A 
ENDROOT
BRANCH   1  11
ATOM     11  C   UNL     1      24.704  23.104  14.580  1.00  0.00     0.091 A 
ATOM     12  C   UNL     1      25.171  22.210  13.607  1.00  0.00     0.068 A 
ATOM     13  C   UNL     1      25.646  20.942  13.961  1.00  0.00     0.162 A 
ATOM     14  C   UNL     1      24.750  22.728  15.931  1.00  0.00     0.068 A 
ATOM     15  C   UNL     1      25.669  20.558  15.324  1.00  0.00     0.200 A 
ATOM     16  C   UNL     1      25.222  21.465  16.302  1.00  0.00     0.162 A 
BRANCH  13  17
ATOM     17  O   UNL     1      26.084  20.103  12.933  1.00  0.00    -0.504 OA
ATOM     18  H   UNL     1      27.035  19.780  12.830  1.00  0.00     0.293 HD
ENDBRANCH  13  17
BRANCH  15  19
ATOM     19  O   UNL     1      26.125  19.305  15.738  1.00  0.00    -0.502 OA
ATOM     20  H   UNL     1      27.065  18.965  15.593  1.00  0.00     0.293 HD
ENDBRANCH  15  19
BRANCH  16  21
ATOM     21  O   UNL     1      25.244  21.132  17.657  1.00  0.00    -0.504 OA
ATOM     22  H   UNL     1      25.884  21.567  18.311  1.00  0.00     0.293 HD
ENDBRANCH  16  21
ENDBRANCH   1  11
BRANCH  10  23
ATOM     23  O   UNL     1      23.125  23.572  12.173  1.00  0.00    -0.500 OA
ATOM     24  H   UNL     1      23.819  22.890  11.890  1.00  0.00     0.294 HD
ENDBRANCH  10  23
BRANCH   5  25
ATOM     25  O   UNL     1      24.605  30.124  16.055  1.00  0.00    -0.507 OA
ATOM     26  H   UNL     1      25.357  30.754  15.799  1.00  0.00     0.293 HD
ENDBRANCH   5  25
BRANCH   7  27
ATOM     27  O   UNL     1      22.202  28.611  12.122  1.00  0.00    -0.507 OA
ATOM     28  H   UNL     1      22.178  27.995  11.317  1.00  0.00     0.293 HD
ENDBRANCH   7  27
TORSDOF 7
ENDMDL
MODEL 4
REMARK VINA RESULT:    -2.375      3.218      6.536
REMARK INTER + INTRA:          -3.301
REMARK INTER:                  -2.915
REMARK INTRA:                  -0.386
REMARK UNBOUND:                -0.370
REMARK SMILES Oc1cc(O)c2cc(O)c(-c3cc(O)c(O)c(O)c3)[o+]c2c1
REMARK SMILES IDX 10 1 20 2 21 3 22 4 2 5 3 6 4 7 6 8 7 9 8 10 11 11 12 12
REMARK SMILES IDX 13 13 19 14 15 15 17 16 14 17 16 19 18 21 9 23 1 25 5 27
REMARK H PARENT 14 18 16 20 18 22 9 24 1 26 5 28
REMARK Flexibility Score: inf
ROOT
ATOM      1  C   UNL     1      23.885  27.826  17.385  1.00  0.00     0.402 A 
ATOM      2  O   UNL     1      23.630  26.943  16.419  1.00  0.00    -0.202 OA
ATOM      3  C   UNL     1      23.700  27.240  15.125  1.00  0.00     0.368 A 
ATOM      4  C   UNL     1      23.420  26.255  14.173  1.00  0.00     0.162 A 
ATOM      5  C   UNL     1      23.493  26.552  12.809  1.00  0.00     0.128 A 
ATOM      6  C   UNL     1      23.847  27.843  12.393  1.00  0.00     0.093 A 
ATOM      7  C   UNL     1      24.129  28.842  13.337  1.00  0.00     0.136 A 
ATOM      8  C   UNL     1      24.055  28.542  14.710  1.00  0.00     0.125 A 
ATOM      9  C   UNL     1      24.318  29.500  15.695  1.00  0.00     0.078 A 
ATOM     10  C   UNL     1      24.224  29.151  17.046  1.00  0.00     0.223 A 
ENDROOT
BRANCH   1  11
ATOM     11  C   UNL     1      23.784  27.375  18.791  1.00  0.00     0.091 A 
ATOM     12  C   UNL     1      22.541  27.407  19.437  1.00  0.00     0.068 A 
ATOM     13  C   UNL     1      22.403  26.970  20.760  1.00  0.00     0.162 A 
ATOM     14  C   UNL     1      24.895  26.860  19.476  1.00  0.00     0.068 A 
ATOM     15  C   UNL     1      23.533  26.474  21.454  1.00  0.00     0.200 A 
ATOM     16  C   UNL     1      24.775  26.418  20.797  1.00  0.00     0.162 A 
BRANCH  13  17
ATOM     17  O   UNL     1      21.134  27.045  21.339  1.00  0.00    -0.504 OA
ATOM     18  H   UNL     1      20.364  26.438  21.098  1.00  0.00     0.293 HD
ENDBRANCH  13  17
BRANCH  15  19
ATOM     19  O   UNL     1      23.460  26.030  22.776  1.00  0.00    -0.502 OA
ATOM     20  H   UNL     1      24.153  26.231  23.483  1.00  0.00     0.293 HD
ENDBRANCH  15  19
BRANCH  16  21
ATOM     21  O   UNL     1      25.909  25.921  21.441  1.00  0.00    -0.504 OA
ATOM     22  H   UNL     1      26.034  24.933  21.630  1.00  0.00     0.293 HD
ENDBRANCH  16  21
ENDBRANCH   1  11
BRANCH  10  23
ATOM     23  O   UNL     1      24.435  30.114  18.033  1.00  0.00    -0.500 OA
ATOM     24  H   UNL     1      23.685  30.429  18.638  1.00  0.00     0.294 HD
ENDBRANCH  10  23
BRANCH   5  25
ATOM     25  O   UNL     1      23.213  25.557  11.875  1.00  0.00    -0.507 OA
ATOM     26  H   UNL     1      23.409  25.687  10.889  1.00  0.00     0.293 HD
ENDBRANCH   5  25
BRANCH   7  27
ATOM     27  O   UNL     1      24.477  30.125  12.911  1.00  0.00    -0.507 OA
ATOM     28  H   UNL     1      23.783  30.776  12.564  1.00  0.00     0.293 HD
ENDBRANCH   7  27
TORSDOF 7
ENDMDL
MODEL 5
REMARK VINA RESULT:    -2.341     21.737     24.078
REMARK INTER + INTRA:          -3.259
REMARK INTER:                  -2.874
REMARK INTRA:                  -0.384
REMARK UNBOUND:                -0.370
REMARK SMILES Oc1cc(O)c2cc(O)c(-c3cc(O)c(O)c(O)c3)[o+]c2c1
REMARK SMILES IDX 10 1 20 2 21 3 22 4 2 5 3 6 4 7 6 8 7 9 8 10 11 11 12 12
REMARK SMILES IDX 13 13 19 14 15 15 17 16 14 17 16 19 18 21 9 23 1 25 5 27
REMARK H PARENT 14 18 16 20 18 22 9 24 1 26 5 28
REMARK Flexibility Score: inf
ROOT
ATOM      1  C   UNL     1       7.369  15.858  27.468  1.00  0.00     0.402 A 
ATOM      2  O   UNL     1       7.448  14.589  27.865  1.00  0.00    -0.202 OA
ATOM      3  C   UNL     1       7.124  13.561  27.085  1.00  0.00     0.368 A 
ATOM      4  C   UNL     1       7.239  12.257  27.577  1.00  0.00     0.162 A 
ATOM      5  C   UNL     1       6.904  11.168  26.767  1.00  0.00     0.128 A 
ATOM      6  C   UNL     1       6.451  11.382  25.458  1.00  0.00     0.093 A 
ATOM      7  C   UNL     1       6.330  12.685  24.953  1.00  0.00     0.136 A 
ATOM      8  C   UNL     1       6.667  13.782  25.768  1.00  0.00     0.125 A 
ATOM      9  C   UNL     1       6.558  15.102  25.320  1.00  0.00     0.078 A 
ATOM     10  C   UNL     1       6.899  16.156  26.173  1.00  0.00     0.223 A 
ENDROOT
BRANCH   1  11
ATOM     11  C   UNL     1       7.768  16.916  28.423  1.00  0.00     0.091 A 
ATOM     12  C   UNL     1       6.816  17.439  29.310  1.00  0.00     0.068 A 
ATOM     13  C   UNL     1       7.161  18.426  30.240  1.00  0.00     0.162 A 
ATOM     14  C   UNL     1       9.093  17.371  28.500  1.00  0.00     0.068 A 
ATOM     15  C   UNL     1       8.495  18.898  30.298  1.00  0.00     0.200 A 
ATOM     16  C   UNL     1       9.455  18.356  29.424  1.00  0.00     0.162 A 
BRANCH  13  17
ATOM     17  O   UNL     1       6.154  18.904  31.081  1.00  0.00    -0.504 OA
ATOM     18  H   UNL     1       6.313  19.251  32.016  1.00  0.00     0.293 HD
ENDBRANCH  13  17
BRANCH  15  19
ATOM     19  O   UNL     1       8.898  19.886  31.199  1.00  0.00    -0.502 OA
ATOM     20  H   UNL     1       9.814  20.311  31.203  1.00  0.00     0.293 HD
ENDBRANCH  15  19
BRANCH  16  21
ATOM     21  O   UNL     1      10.784  18.782  29.460  1.00  0.00    -0.504 OA
ATOM     22  H   UNL     1      11.046  19.750  29.312  1.00  0.00     0.293 HD
ENDBRANCH  16  21
ENDBRANCH   1  11
BRANCH  10  23
ATOM     23  O   UNL     1       6.745  17.476  25.750  1.00  0.00    -0.500 OA
ATOM     24  H   UNL     1       6.387  17.701  24.829  1.00  0.00     0.294 HD
ENDBRANCH  10  23
BRANCH   5  25
ATOM     25  O   UNL     1       7.026   9.875  27.273  1.00  0.00    -0.507 OA
ATOM     26  H   UNL     1       6.414   9.534  28.005  1.00  0.00     0.293 HD
ENDBRANCH   5  25
BRANCH   7  27
ATOM     27  O   UNL     1       5.875  12.887  23.649  1.00  0.00    -0.507 OA
ATOM     28  H   UNL     1       6.125  12.256  22.896  1.00  0.00     0.293 HD
ENDBRANCH   7  27
TORSDOF 7
ENDMDL
MODEL 6
REMARK VINA RESULT:    -2.318      2.445      6.749
REMARK INTER + INTRA:          -3.230
REMARK INTER:                  -2.849
REMARK INTRA:                  -0.381
REMARK UNBOUND:                -0.370
REMARK SMILES Oc1cc(O)c2cc(O)c(-c3cc(O)c(O)c(O)c3)[o+]c2c1
REMARK SMILES IDX 10 1 20 2 21 3 22 4 2 5 3 6 4 7 6 8 7 9 8 10 11 11 12 12
REMARK SMILES IDX 13 13 19 14 15 15 17 16 14 17 16 19 18 21 9 23 1 25 5 27
REMARK H PARENT 14 18 16 20 18 22 9 24 1 26 5 28
REMARK Flexibility Score: inf
ROOT
ATOM      1  C   UNL     1      23.935  24.459  14.831  1.00  0.00     0.402 A 
ATOM      2  O   UNL     1      24.309  23.887  15.974  1.00  0.00    -0.202 OA
ATOM      3  C   UNL     1      24.833  22.666  16.039  1.00  0.00     0.368 A 
ATOM      4  C   UNL     1      25.204  22.138  17.280  1.00  0.00     0.162 A 
ATOM      5  C   UNL     1      25.759  20.858  17.362  1.00  0.00     0.128 A 
ATOM      6  C   UNL     1      25.944  20.099  16.198  1.00  0.00     0.093 A 
ATOM      7  C   UNL     1      25.575  20.616  14.947  1.00  0.00     0.136 A 
ATOM      8  C   UNL     1      25.017  21.906  14.864  1.00  0.00     0.125 A 
ATOM      9  C   UNL     1      24.623  22.468  13.646  1.00  0.00     0.078 A 
ATOM     10  C   UNL     1      24.067  23.751  13.620  1.00  0.00     0.223 A 
ENDROOT
BRANCH   1  11
ATOM     11  C   UNL     1      23.373  25.828  14.884  1.00  0.00     0.091 A 
ATOM     12  C   UNL     1      24.219  26.928  14.687  1.00  0.00     0.068 A 
ATOM     13  C   UNL     1      23.720  28.236  14.710  1.00  0.00     0.162 A 
ATOM     14  C   UNL     1      22.000  26.048  15.070  1.00  0.00     0.068 A 
ATOM     15  C   UNL     1      22.337  28.453  14.922  1.00  0.00     0.200 A 
ATOM     16  C   UNL     1      21.485  27.348  15.095  1.00  0.00     0.162 A 
BRANCH  13  17
ATOM     17  O   UNL     1      24.628  29.280  14.518  1.00  0.00    -0.504 OA
ATOM     18  H   UNL     1      24.987  29.560  13.617  1.00  0.00     0.293 HD
ENDBRANCH  13  17
BRANCH  15  19
ATOM     19  O   UNL     1      21.781  29.734  14.963  1.00  0.00    -0.502 OA
ATOM     20  H   UNL     1      22.198  30.519  15.442  1.00  0.00     0.293 HD
ENDBRANCH  15  19
BRANCH  16  21
ATOM     21  O   UNL     1      20.113  27.519  15.290  1.00  0.00    -0.504 OA
ATOM     22  H   UNL     1      19.697  28.432  15.428  1.00  0.00     0.293 HD
ENDBRANCH  16  21
ENDBRANCH   1  11
BRANCH  10  23
ATOM     23  O   UNL     1      23.627  24.298  12.414  1.00  0.00    -0.500 OA
ATOM     24  H   UNL     1      23.092  25.158  12.385  1.00  0.00     0.294 HD
ENDBRANCH  10  23
BRANCH   5  25
ATOM     25  O   UNL     1      26.124  20.348  18.606  1.00  0.00    -0.507 OA
ATOM     26  H   UNL     1      25.900  19.396  18.874  1.00  0.00     0.293 HD
ENDBRANCH   5  25
BRANCH   7  27
ATOM     27  O   UNL     1      25.762  19.851  13.794  1.00  0.00    -0.507 OA
ATOM     28  H   UNL     1      26.611  19.319  13.642  1.00  0.00     0.293 HD
ENDBRANCH   7  27
TORSDOF 7
ENDMDL
MODEL 7
REMARK VINA RESULT:    -2.312      1.516      3.247
REMARK INTER + INTRA:          -3.223
REMARK INTER:                  -2.883
REMARK INTRA:                  -0.340
REMARK UNBOUND:                -0.370
REMARK SMILES Oc1cc(O)c2cc(O)c(-c3cc(O)c(O)c(O)c3)[o+]c2c1
REMARK SMILES IDX 10 1 20 2 21 3 22 4 2 5 3 6 4 7 6 8 7 9 8 10 11 11 12 12
REMARK SMILES IDX 13 13 19 14 15 15 17 16 14 17 16 19 18 21 9 23 1 25 5 27
REMARK H PARENT 14 18 16 20 18 22 9 24 1 26 5 28
REMARK Flexibility Score: inf
ROOT
ATOM      1  C   UNL     1      24.844  24.020  15.162  1.00  0.00     0.402 A 
ATOM      2  O   UNL     1      24.295  25.067  14.547  1.00  0.00    -0.202 OA
ATOM      3  C   UNL     1      24.433  26.317  14.978  1.00  0.00     0.368 A 
ATOM      4  C   UNL     1      23.828  27.362  14.272  1.00  0.00     0.162 A 
ATOM      5  C   UNL     1      23.968  28.682  14.711  1.00  0.00     0.128 A 
ATOM      6  C   UNL     1      24.716  28.961  15.862  1.00  0.00     0.093 A 
ATOM      7  C   UNL     1      25.327  27.922  16.581  1.00  0.00     0.136 A 
ATOM      8  C   UNL     1      25.186  26.593  16.139  1.00  0.00     0.125 A 
ATOM      9  C   UNL     1      25.767  25.518  16.819  1.00  0.00     0.078 A 
ATOM     10  C   UNL     1      25.591  24.216  16.341  1.00  0.00     0.223 A 
ENDROOT
BRANCH   1  11
ATOM     11  C   UNL     1      24.628  22.675  14.583  1.00  0.00     0.091 A 
ATOM     12  C   UNL     1      25.427  22.250  13.512  1.00  0.00     0.068 A 
ATOM     13  C   UNL     1      25.265  20.977  12.952  1.00  0.00     0.162 A 
ATOM     14  C   UNL     1      23.679  21.791  15.118  1.00  0.00     0.068 A 
ATOM     15  C   UNL     1      24.289  20.098  13.481  1.00  0.00     0.200 A 
ATOM     16  C   UNL     1      23.505  20.516  14.571  1.00  0.00     0.162 A 
BRANCH  13  17
ATOM     17  O   UNL     1      26.091  20.632  11.880  1.00  0.00    -0.504 OA
ATOM     18  H   UNL     1      25.861  20.795  10.910  1.00  0.00     0.293 HD
ENDBRANCH  13  17
BRANCH  15  19
ATOM     19  O   UNL     1      24.077  18.820  12.960  1.00  0.00    -0.502 OA
ATOM     20  H   UNL     1      24.471  18.487  12.092  1.00  0.00     0.293 HD
ENDBRANCH  15  19
BRANCH  16  21
ATOM     21  O   UNL     1      22.544  19.674  15.132  1.00  0.00    -0.504 OA
ATOM     22  H   UNL     1      21.551  19.867  15.067  1.00  0.00     0.293 HD
ENDBRANCH  16  21
ENDBRANCH   1  11
BRANCH  10  23
ATOM     23  O   UNL     1      26.125  23.135  17.043  1.00  0.00    -0.500 OA
ATOM     24  H   UNL     1      27.072  23.150  17.402  1.00  0.00     0.294 HD
ENDBRANCH  10  23
BRANCH   5  25
ATOM     25  O   UNL     1      23.359  29.710  13.994  1.00  0.00    -0.507 OA
ATOM     26  H   UNL     1      23.797  30.117  13.176  1.00  0.00     0.293 HD
ENDBRANCH   5  25
BRANCH   7  27
ATOM     27  O   UNL     1      26.068  28.211  17.729  1.00  0.00    -0.507 OA
ATOM     28  H   UNL     1      26.499  29.118  17.868  1.00  0.00     0.293 HD
ENDBRANCH   7  27
TORSDOF 7
ENDMDL
MODEL 8
REMARK VINA RESULT:    -2.311     20.801     23.832
REMARK INTER + INTRA:          -3.222
REMARK INTER:                  -2.842
REMARK INTRA:                  -0.379
REMARK UNBOUND:                -0.370
REMARK SMILES Oc1cc(O)c2cc(O)c(-c3cc(O)c(O)c(O)c3)[o+]c2c1
REMARK SMILES IDX 10 1 20 2 21 3 22 4 2 5 3 6 4 7 6 8 7 9 8 10 11 11 12 12
REMARK SMILES IDX 13 13 19 14 15 15 17 16 14 17 16 19 18 21 9 23 1 25 5 27
REMARK H PARENT 14 18 16 20 18 22 9 24 1 26 5 28
REMARK Flexibility Score: inf
ROOT
ATOM      1  C   UNL     1       8.180  14.783  27.678  1.00  0.00     0.402 A 
ATOM      2  O   UNL     1       9.228  14.064  28.074  1.00  0.00    -0.202 OA
ATOM      3  C   UNL     1       9.249  12.734  28.050  1.00  0.00     0.368 A 
ATOM      4  C   UNL     1      10.393  12.053  28.480  1.00  0.00     0.162 A 
ATOM      5  C   UNL     1      10.429  10.655  28.456  1.00  0.00     0.128 A 
ATOM      6  C   UNL     1       9.318   9.934  28.002  1.00  0.00     0.093 A 
ATOM      7  C   UNL     1       8.164  10.605  27.569  1.00  0.00     0.136 A 
ATOM      8  C   UNL     1       8.127  12.012  27.592  1.00  0.00     0.125 A 
ATOM      9  C   UNL     1       7.001  12.732  27.180  1.00  0.00     0.078 A 
ATOM     10  C   UNL     1       7.014  14.130  27.230  1.00  0.00     0.223 A 
ENDROOT
BRANCH   1  11
ATOM     11  C   UNL     1       8.278  16.259  27.743  1.00  0.00     0.091 A 
ATOM     12  C   UNL     1       8.763  16.966  26.634  1.00  0.00     0.068 A 
ATOM     13  C   UNL     1       8.851  18.363  26.650  1.00  0.00     0.162 A 
ATOM     14  C   UNL     1       7.844  16.973  28.870  1.00  0.00     0.068 A 
ATOM     15  C   UNL     1       8.432  19.077  27.800  1.00  0.00     0.200 A 
ATOM     16  C   UNL     1       7.924  18.368  28.903  1.00  0.00     0.162 A 
BRANCH  13  17
ATOM     17  O   UNL     1       9.355  18.995  25.511  1.00  0.00    -0.504 OA
ATOM     18  H   UNL     1      10.314  18.929  25.204  1.00  0.00     0.293 HD
ENDBRANCH  13  17
BRANCH  15  19
ATOM     19  O   UNL     1       8.503  20.470  27.879  1.00  0.00    -0.502 OA
ATOM     20  H   UNL     1       8.269  21.004  28.703  1.00  0.00     0.293 HD
ENDBRANCH  15  19
BRANCH  16  21
ATOM     21  O   UNL     1       7.486  19.036  30.048  1.00  0.00    -0.504 OA
ATOM     22  H   UNL     1       7.027  18.555  30.813  1.00  0.00     0.293 HD
ENDBRANCH  16  21
ENDBRANCH   1  11
BRANCH  10  23
ATOM     23  O   UNL     1       5.877  14.853  26.868  1.00  0.00    -0.500 OA
ATOM     24  H   UNL     1       4.994  14.731  27.351  1.00  0.00     0.294 HD
ENDBRANCH  10  23
BRANCH   5  25
ATOM     25  O   UNL     1      11.577   9.993  28.887  1.00  0.00    -0.507 OA
ATOM     26  H   UNL     1      12.063  10.271  29.732  1.00  0.00     0.293 HD
ENDBRANCH   5  25
BRANCH   7  27
ATOM     27  O   UNL     1       7.061   9.876  27.120  1.00  0.00    -0.507 OA
ATOM     28  H   UNL     1       6.317   9.596  27.749  1.00  0.00     0.293 HD
ENDBRANCH   7  27
TORSDOF 7
ENDMDL
MODEL 9
REMARK VINA RESULT:    -2.233      1.648      7.359
REMARK INTER + INTRA:          -3.126
REMARK INTER:                  -2.741
REMARK INTRA:                  -0.385
REMARK UNBOUND:                -0.370
REMARK SMILES Oc1cc(O)c2cc(O)c(-c3cc(O)c(O)c(O)c3)[o+]c2c1
REMARK SMILES IDX 10 1 20 2 21 3 22 4 2 5 3 6 4 7 6 8 7 9 8 10 11 11 12 12
REMARK SMILES IDX 13 13 19 14 15 15 17 16 14 17 16 19 18 21 9 23 1 25 5 27
REMARK H PARENT 14 18 16 20 18 22 9 24 1 26 5 28
REMARK Flexibility Score: inf
ROOT
ATOM      1  C   UNL     1      23.697  24.084  14.383  1.00  0.00     0.402 A 
ATOM      2  O   UNL     1      24.520  23.331  13.655  1.00  0.00    -0.202 OA
ATOM      3  C   UNL     1      24.414  22.008  13.572  1.00  0.00     0.368 A 
ATOM      4  C   UNL     1      25.318  21.290  12.782  1.00  0.00     0.162 A 
ATOM      5  C   UNL     1      25.216  19.899  12.684  1.00  0.00     0.128 A 
ATOM      6  C   UNL     1      24.206  19.220  13.379  1.00  0.00     0.093 A 
ATOM      7  C   UNL     1      23.294  19.928  14.176  1.00  0.00     0.136 A 
ATOM      8  C   UNL     1      23.396  21.329  14.275  1.00  0.00     0.125 A 
ATOM      9  C   UNL     1      22.520  22.084  15.061  1.00  0.00     0.078 A 
ATOM     10  C   UNL     1      22.670  23.473  15.130  1.00  0.00     0.223 A 
ENDROOT
BRANCH   1  11
ATOM     11  C   UNL     1      23.908  25.549  14.389  1.00  0.00     0.091 A 
ATOM     12  C   UNL     1      24.788  26.114  15.323  1.00  0.00     0.068 A 
ATOM     13  C   UNL     1      25.028  27.493  15.345  1.00  0.00     0.162 A 
ATOM     14  C   UNL     1      23.290  26.381  13.444  1.00  0.00     0.068 A 
ATOM     15  C   UNL     1      24.384  28.331  14.403  1.00  0.00     0.200 A 
ATOM     16  C   UNL     1      23.520  27.760  13.451  1.00  0.00     0.162 A 
BRANCH  13  17
ATOM     17  O   UNL     1      25.909  27.981  16.313  1.00  0.00    -0.504 OA
ATOM     18  H   UNL     1      26.409  28.855  16.235  1.00  0.00     0.293 HD
ENDBRANCH  13  17
BRANCH  15  19
ATOM     19  O   UNL     1      24.578  29.714  14.380  1.00  0.00    -0.502 OA
ATOM     20  H   UNL     1      24.041  30.372  14.927  1.00  0.00     0.293 HD
ENDBRANCH  15  19
BRANCH  16  21
ATOM     21  O   UNL     1      22.878  28.550  12.496  1.00  0.00    -0.504 OA
ATOM     22  H   UNL     1      21.926  28.373  12.198  1.00  0.00     0.293 HD
ENDBRANCH  16  21
ENDBRANCH   1  11
BRANCH  10  23
ATOM     23  O   UNL     1      21.831  24.226  15.951  1.00  0.00    -0.500 OA
ATOM     24  H   UNL     1      22.181  24.704  16.774  1.00  0.00     0.294 HD
ENDBRANCH  10  23
BRANCH   5  25
ATOM     25  O   UNL     1      26.124  19.200  11.891  1.00  0.00    -0.507 OA
ATOM     26  H   UNL     1      25.885  18.897  10.954  1.00  0.00     0.293 HD
ENDBRANCH   5  25
BRANCH   7  27
ATOM     27  O   UNL     1      22.293  19.242  14.866  1.00  0.00    -0.507 OA
ATOM     28  H   UNL     1      21.335  19.571  14.879  1.00  0.00     0.293 HD
ENDBRANCH   7  27
TORSDOF 7
ENDMDL
