MODEL 1
REMARK VINA RESULT:    -5.886      0.000      0.000
REMARK INTER + INTRA:          -7.140
REMARK INTER:                  -6.402
REMARK INTRA:                  -0.738
REMARK UNBOUND:                -0.738
REMARK SMILES C=C(C)[C@@H]1CC[C@]2(C)CC[C@@]3(C)[C@H](CC[C@H]4[C@]5(C)CC[C@H](O)C(C)(C)[C@H]5CC[C@@]43C)[C@@H]12
REMARK SMILES IDX 4 1 5 2 6 3 7 4 31 5 13 6 14 7 15 8 16 9 17 10 19 11 20 12
REMARK SMILES IDX 21 13 23 14 26 15 27 16 28 17 29 18 11 19 10 20 9 21 12 22
REMARK SMILES IDX 30 23 24 24 25 25 18 26 8 27 2 28 3 29 1 30 22 31
REMARK H PARENT 22 32
REMARK Flexibility Score: inf
ROOT
ATOM      1  C   UNL     1      -3.482  38.129  44.391  1.00  0.00     0.018 C 
ATOM      2  C   UNL     1      -2.496  39.008  45.191  1.00  0.00     0.009 C 
ATOM      3  C   UNL     1      -3.050  39.094  46.622  1.00  0.00     0.008 C 
ATOM      4  C   UNL     1      -4.556  38.803  46.475  1.00  0.00    -0.029 C 
ATOM      5  C   UNL     1      -4.535  37.680  45.431  1.00  0.00     0.006 C 
ATOM      6  C   UNL     1      -5.981  37.341  44.995  1.00  0.00    -0.000 C 
ATOM      7  C   UNL     1      -6.177  36.679  43.605  1.00  0.00     0.005 C 
ATOM      8  C   UNL     1      -6.267  35.164  43.583  1.00  0.00     0.005 C 
ATOM      9  C   UNL     1      -7.272  34.636  44.634  1.00  0.00     0.002 C 
ATOM     10  C   UNL     1      -7.741  33.123  44.400  1.00  0.00    -0.026 C 
ATOM     11  C   UNL     1      -8.508  33.038  43.032  1.00  0.00     0.010 C 
ATOM     12  C   UNL     1      -9.284  31.726  42.827  1.00  0.00     0.033 C 
ATOM     13  C   UNL     1     -10.289  31.472  43.961  1.00  0.00     0.120 C 
ATOM     14  C   UNL     1      -9.597  31.447  45.367  1.00  0.00    -0.006 C 
ATOM     15  C   UNL     1      -8.762  32.777  45.545  1.00  0.00     0.003 C 
ATOM     16  C   UNL     1      -8.128  32.969  46.942  1.00  0.00     0.005 C 
ATOM     17  C   UNL     1      -7.793  34.451  47.165  1.00  0.00     0.008 C 
ATOM     18  C   UNL     1      -6.821  35.060  46.094  1.00  0.00    -0.024 C 
ATOM     19  C   UNL     1      -6.800  36.692  46.197  1.00  0.00    -0.024 C 
ATOM     20  C   UNL     1      -6.268  37.156  47.637  1.00  0.00     0.008 C 
ATOM     21  C   UNL     1      -5.236  38.317  47.782  1.00  0.00     0.007 C 
ATOM     22  C   UNL     1      -8.239  37.319  46.075  1.00  0.00     0.012 C 
ATOM     23  C   UNL     1      -5.414  34.429  46.402  1.00  0.00     0.012 C 
ATOM     24  C   UNL     1      -8.734  30.166  45.505  1.00  0.00     0.014 C 
ATOM     25  C   UNL     1     -10.695  31.345  46.471  1.00  0.00     0.014 C 
ATOM     26  C   UNL     1      -6.516  32.143  44.332  1.00  0.00     0.012 C 
ATOM     27  C   UNL     1      -5.254  40.125  46.012  1.00  0.00     0.011 C 
ENDROOT
BRANCH   1  28
ATOM     28  C   UNL     1      -2.758  36.976  43.704  1.00  0.00    -0.077 C 
ATOM     29  C   UNL     1      -2.418  37.020  42.233  1.00  0.00     0.039 C 
ATOM     30  C   UNL     1      -2.493  35.850  44.378  1.00  0.00     0.008 C 
ENDBRANCH   1  28
BRANCH  13  31
ATOM     31  O   UNL     1     -11.281  32.475  43.883  1.00  0.00    -0.393 OA
ATOM     32  H   UNL     1     -10.852  33.322  43.601  1.00  0.00     0.210 HD
ENDBRANCH  13  31
TORSDOF 2
ENDMDL
MODEL 2
REMARK VINA RESULT:    -5.750      4.276      6.818
REMARK INTER + INTRA:          -6.993
REMARK INTER:                  -6.256
REMARK INTRA:                  -0.737
REMARK UNBOUND:                -0.738
REMARK SMILES C=C(C)[C@@H]1CC[C@]2(C)CC[C@@]3(C)[C@H](CC[C@H]4[C@]5(C)CC[C@H](O)C(C)(C)[C@H]5CC[C@@]43C)[C@@H]12
REMARK SMILES IDX 4 1 5 2 6 3 7 4 31 5 13 6 14 7 15 8 16 9 17 10 19 11 20 12
REMARK SMILES IDX 21 13 23 14 26 15 27 16 28 17 29 18 11 19 10 20 9 21 12 22
REMARK SMILES IDX 30 23 24 24 25 25 18 26 8 27 2 28 3 29 1 30 22 31
REMARK H PARENT 22 32
REMARK Flexibility Score: inf
ROOT
ATOM      1  C   UNL     1      -5.732  38.370  43.774  1.00  0.00     0.018 C 
ATOM      2  C   UNL     1      -6.645  39.508  43.266  1.00  0.00     0.009 C 
ATOM      3  C   UNL     1      -7.306  40.125  44.508  1.00  0.00     0.008 C 
ATOM      4  C   UNL     1      -7.249  39.013  45.573  1.00  0.00    -0.029 C 
ATOM      5  C   UNL     1      -5.854  38.434  45.315  1.00  0.00     0.006 C 
ATOM      6  C   UNL     1      -5.643  37.165  46.176  1.00  0.00    -0.000 C 
ATOM      7  C   UNL     1      -4.593  36.131  45.690  1.00  0.00     0.005 C 
ATOM      8  C   UNL     1      -3.201  36.249  46.283  1.00  0.00     0.005 C 
ATOM      9  C   UNL     1      -3.244  36.363  47.825  1.00  0.00     0.002 C 
ATOM     10  C   UNL     1      -1.848  36.068  48.551  1.00  0.00    -0.026 C 
ATOM     11  C   UNL     1      -1.438  34.578  48.270  1.00  0.00     0.010 C 
ATOM     12  C   UNL     1      -0.292  34.063  49.156  1.00  0.00     0.033 C 
ATOM     13  C   UNL     1      -0.616  34.201  50.650  1.00  0.00     0.120 C 
ATOM     14  C   UNL     1      -0.950  35.681  51.047  1.00  0.00    -0.006 C 
ATOM     15  C   UNL     1      -2.094  36.214  50.097  1.00  0.00     0.003 C 
ATOM     16  C   UNL     1      -2.637  37.618  50.451  1.00  0.00     0.005 C 
ATOM     17  C   UNL     1      -4.024  37.817  49.823  1.00  0.00     0.008 C 
ATOM     18  C   UNL     1      -4.054  37.655  48.262  1.00  0.00    -0.024 C 
ATOM     19  C   UNL     1      -5.594  37.531  47.726  1.00  0.00    -0.024 C 
ATOM     20  C   UNL     1      -6.420  38.860  48.079  1.00  0.00     0.008 C 
ATOM     21  C   UNL     1      -7.363  39.529  47.032  1.00  0.00     0.007 C 
ATOM     22  C   UNL     1      -6.382  36.364  48.430  1.00  0.00     0.012 C 
ATOM     23  C   UNL     1      -3.331  38.932  47.698  1.00  0.00     0.012 C 
ATOM     24  C   UNL     1       0.337  36.543  50.990  1.00  0.00     0.014 C 
ATOM     25  C   UNL     1      -1.422  35.713  52.534  1.00  0.00     0.014 C 
ATOM     26  C   UNL     1      -0.707  36.997  48.005  1.00  0.00     0.012 C 
ATOM     27  C   UNL     1      -8.436  38.029  45.299  1.00  0.00     0.011 C 
ENDROOT
BRANCH   1  28
ATOM     28  C   UNL     1      -4.307  38.536  43.257  1.00  0.00    -0.077 C 
ATOM     29  C   UNL     1      -3.824  37.811  42.024  1.00  0.00     0.039 C 
ATOM     30  C   UNL     1      -3.419  39.261  43.950  1.00  0.00     0.008 C 
ENDBRANCH   1  28
BRANCH  13  31
ATOM     31  O   UNL     1      -1.689  33.327  50.935  1.00  0.00    -0.393 OA
ATOM     32  H   UNL     1      -1.415  32.721  51.669  1.00  0.00     0.210 HD
ENDBRANCH  13  31
TORSDOF 2
ENDMDL
MODEL 3
REMARK VINA RESULT:    -5.738      2.403      7.256
REMARK INTER + INTRA:          -6.979
REMARK INTER:                  -6.274
REMARK INTRA:                  -0.705
REMARK UNBOUND:                -0.738
REMARK SMILES C=C(C)[C@@H]1CC[C@]2(C)CC[C@@]3(C)[C@H](CC[C@H]4[C@]5(C)CC[C@H](O)C(C)(C)[C@H]5CC[C@@]43C)[C@@H]12
REMARK SMILES IDX 4 1 5 2 6 3 7 4 31 5 13 6 14 7 15 8 16 9 17 10 19 11 20 12
REMARK SMILES IDX 21 13 23 14 26 15 27 16 28 17 29 18 11 19 10 20 9 21 12 22
REMARK SMILES IDX 30 23 24 24 25 25 18 26 8 27 2 28 3 29 1 30 22 31
REMARK H PARENT 22 32
REMARK Flexibility Score: inf
ROOT
ATOM      1  C   UNL     1      -7.850  30.813  44.760  1.00  0.00     0.018 C 
ATOM      2  C   UNL     1      -7.804  29.443  45.471  1.00  0.00     0.009 C 
ATOM      3  C   UNL     1      -6.603  29.487  46.428  1.00  0.00     0.008 C 
ATOM      4  C   UNL     1      -5.676  30.570  45.841  1.00  0.00    -0.029 C 
ATOM      5  C   UNL     1      -6.701  31.623  45.404  1.00  0.00     0.006 C 
ATOM      6  C   UNL     1      -5.992  32.751  44.616  1.00  0.00    -0.000 C 
ATOM      7  C   UNL     1      -6.848  33.588  43.629  1.00  0.00     0.005 C 
ATOM      8  C   UNL     1      -7.412  34.893  44.159  1.00  0.00     0.005 C 
ATOM      9  C   UNL     1      -6.325  35.742  44.862  1.00  0.00     0.002 C 
ATOM     10  C   UNL     1      -6.717  37.280  45.068  1.00  0.00    -0.026 C 
ATOM     11  C   UNL     1      -6.901  37.948  43.659  1.00  0.00     0.010 C 
ATOM     12  C   UNL     1      -6.966  39.484  43.695  1.00  0.00     0.033 C 
ATOM     13  C   UNL     1      -5.725  40.095  44.361  1.00  0.00     0.120 C 
ATOM     14  C   UNL     1      -5.511  39.554  45.817  1.00  0.00    -0.006 C 
ATOM     15  C   UNL     1      -5.495  37.975  45.773  1.00  0.00     0.003 C 
ATOM     16  C   UNL     1      -5.153  37.286  47.115  1.00  0.00     0.005 C 
ATOM     17  C   UNL     1      -4.680  35.848  46.859  1.00  0.00     0.008 C 
ATOM     18  C   UNL     1      -5.719  34.954  46.097  1.00  0.00    -0.024 C 
ATOM     19  C   UNL     1      -5.013  33.579  45.563  1.00  0.00    -0.024 C 
ATOM     20  C   UNL     1      -4.462  32.715  46.797  1.00  0.00     0.008 C 
ATOM     21  C   UNL     1      -4.680  31.172  46.866  1.00  0.00     0.007 C 
ATOM     22  C   UNL     1      -3.749  33.862  44.669  1.00  0.00     0.012 C 
ATOM     23  C   UNL     1      -6.863  34.667  47.136  1.00  0.00     0.012 C 
ATOM     24  C   UNL     1      -6.605  40.125  46.755  1.00  0.00     0.014 C 
ATOM     25  C   UNL     1      -4.152  40.094  46.364  1.00  0.00     0.014 C 
ATOM     26  C   UNL     1      -8.067  37.430  45.857  1.00  0.00     0.012 C 
ATOM     27  C   UNL     1      -4.859  29.918  44.676  1.00  0.00     0.011 C 
ENDROOT
BRANCH   1  28
ATOM     28  C   UNL     1      -9.223  31.462  44.903  1.00  0.00    -0.077 C 
ATOM     29  C   UNL     1     -10.104  31.720  43.705  1.00  0.00     0.039 C 
ATOM     30  C   UNL     1      -9.636  31.906  46.097  1.00  0.00     0.008 C 
ENDBRANCH   1  28
BRANCH  13  31
ATOM     31  O   UNL     1      -4.616  39.818  43.530  1.00  0.00    -0.393 OA
ATOM     32  H   UNL     1      -4.325  40.662  43.101  1.00  0.00     0.210 HD
ENDBRANCH  13  31
TORSDOF 2
ENDMDL
MODEL 4
REMARK VINA RESULT:    -5.673      3.917      6.516
REMARK INTER + INTRA:          -6.908
REMARK INTER:                  -6.176
REMARK INTRA:                  -0.733
REMARK UNBOUND:                -0.738
REMARK SMILES C=C(C)[C@@H]1CC[C@]2(C)CC[C@@]3(C)[C@H](CC[C@H]4[C@]5(C)CC[C@H](O)C(C)(C)[C@H]5CC[C@@]43C)[C@@H]12
REMARK SMILES IDX 4 1 5 2 6 3 7 4 31 5 13 6 14 7 15 8 16 9 17 10 19 11 20 12
REMARK SMILES IDX 21 13 23 14 26 15 27 16 28 17 29 18 11 19 10 20 9 21 12 22
REMARK SMILES IDX 30 23 24 24 25 25 18 26 8 27 2 28 3 29 1 30 22 31
REMARK H PARENT 22 32
REMARK Flexibility Score: inf
ROOT
ATOM      1  C   UNL     1      -6.639  36.906  45.495  1.00  0.00     0.018 C 
ATOM      2  C   UNL     1      -7.561  38.027  44.965  1.00  0.00     0.009 C 
ATOM      3  C   UNL     1      -6.936  38.522  43.652  1.00  0.00     0.008 C 
ATOM      4  C   UNL     1      -5.448  38.137  43.759  1.00  0.00    -0.029 C 
ATOM      5  C   UNL     1      -5.551  36.752  44.407  1.00  0.00     0.006 C 
ATOM      6  C   UNL     1      -4.138  36.236  44.772  1.00  0.00    -0.000 C 
ATOM      7  C   UNL     1      -4.028  35.175  45.899  1.00  0.00     0.005 C 
ATOM      8  C   UNL     1      -3.982  33.723  45.459  1.00  0.00     0.005 C 
ATOM      9  C   UNL     1      -2.942  33.498  44.335  1.00  0.00     0.002 C 
ATOM     10  C   UNL     1      -2.528  31.968  44.113  1.00  0.00    -0.026 C 
ATOM     11  C   UNL     1      -1.831  31.439  45.416  1.00  0.00     0.010 C 
ATOM     12  C   UNL     1      -1.102  30.096  45.239  1.00  0.00     0.033 C 
ATOM     13  C   UNL     1      -0.051  30.158  44.120  1.00  0.00     0.120 C 
ATOM     14  C   UNL     1      -0.676  30.590  42.749  1.00  0.00    -0.006 C 
ATOM     15  C   UNL     1      -1.463  31.945  42.955  1.00  0.00     0.003 C 
ATOM     16  C   UNL     1      -2.023  32.580  41.662  1.00  0.00     0.005 C 
ATOM     17  C   UNL     1      -2.305  34.072  41.891  1.00  0.00     0.008 C 
ATOM     18  C   UNL     1      -3.310  34.365  43.060  1.00  0.00    -0.024 C 
ATOM     19  C   UNL     1      -3.280  35.951  43.460  1.00  0.00    -0.024 C 
ATOM     20  C   UNL     1      -3.729  36.853  42.213  1.00  0.00     0.008 C 
ATOM     21  C   UNL     1      -4.719  38.045  42.392  1.00  0.00     0.007 C 
ATOM     22  C   UNL     1      -1.831  36.450  43.822  1.00  0.00     0.012 C 
ATOM     23  C   UNL     1      -4.718  33.917  42.521  1.00  0.00     0.012 C 
ATOM     24  C   UNL     1      -1.566  29.449  42.194  1.00  0.00     0.014 C 
ATOM     25  C   UNL     1       0.471  30.784  41.708  1.00  0.00     0.014 C 
ATOM     26  C   UNL     1      -3.782  31.066  43.832  1.00  0.00     0.012 C 
ATOM     27  C   UNL     1      -4.736  39.225  44.630  1.00  0.00     0.011 C 
ENDROOT
BRANCH   1  28
ATOM     28  C   UNL     1      -7.428  35.630  45.769  1.00  0.00    -0.077 C 
ATOM     29  C   UNL     1      -7.726  35.172  47.176  1.00  0.00     0.039 C 
ATOM     30  C   UNL     1      -7.791  34.832  44.756  1.00  0.00     0.008 C 
ENDBRANCH   1  28
BRANCH  13  31
ATOM     31  O   UNL     1       0.964  31.047  44.538  1.00  0.00    -0.393 OA
ATOM     32  H   UNL     1       0.856  31.901  44.048  1.00  0.00     0.210 HD
ENDBRANCH  13  31
TORSDOF 2
ENDMDL
MODEL 5
REMARK VINA RESULT:    -5.655      1.841      2.593
REMARK INTER + INTRA:          -6.889
REMARK INTER:                  -6.151
REMARK INTRA:                  -0.738
REMARK UNBOUND:                -0.738
REMARK SMILES C=C(C)[C@@H]1CC[C@]2(C)CC[C@@]3(C)[C@H](CC[C@H]4[C@]5(C)CC[C@H](O)C(C)(C)[C@H]5CC[C@@]43C)[C@@H]12
REMARK SMILES IDX 4 1 5 2 6 3 7 4 31 5 13 6 14 7 15 8 16 9 17 10 19 11 20 12
REMARK SMILES IDX 21 13 23 14 26 15 27 16 28 17 29 18 11 19 10 20 9 21 12 22
REMARK SMILES IDX 30 23 24 24 25 25 18 26 8 27 2 28 3 29 1 30 22 31
REMARK H PARENT 22 32
REMARK Flexibility Score: inf
ROOT
ATOM      1  C   UNL     1      -4.705  37.149  42.482  1.00  0.00     0.018 C 
ATOM      2  C   UNL     1      -3.746  38.345  42.290  1.00  0.00     0.009 C 
ATOM      3  C   UNL     1      -3.883  39.220  43.545  1.00  0.00     0.008 C 
ATOM      4  C   UNL     1      -5.272  38.871  44.115  1.00  0.00    -0.029 C 
ATOM      5  C   UNL     1      -5.303  37.354  43.894  1.00  0.00     0.006 C 
ATOM      6  C   UNL     1      -6.706  36.801  44.244  1.00  0.00    -0.000 C 
ATOM      7  C   UNL     1      -7.135  35.461  43.589  1.00  0.00     0.005 C 
ATOM      8  C   UNL     1      -6.901  34.202  44.404  1.00  0.00     0.005 C 
ATOM      9  C   UNL     1      -7.435  34.349  45.848  1.00  0.00     0.002 C 
ATOM     10  C   UNL     1      -7.616  32.964  46.631  1.00  0.00    -0.026 C 
ATOM     11  C   UNL     1      -8.697  32.101  45.889  1.00  0.00     0.010 C 
ATOM     12  C   UNL     1      -9.201  30.893  46.696  1.00  0.00     0.033 C 
ATOM     13  C   UNL     1      -9.770  31.312  48.060  1.00  0.00     0.120 C 
ATOM     14  C   UNL     1      -8.723  32.105  48.916  1.00  0.00    -0.006 C 
ATOM     15  C   UNL     1      -8.177  33.314  48.058  1.00  0.00     0.003 C 
ATOM     16  C   UNL     1      -7.235  34.279  48.813  1.00  0.00     0.005 C 
ATOM     17  C   UNL     1      -7.177  35.630  48.085  1.00  0.00     0.008 C 
ATOM     18  C   UNL     1      -6.697  35.538  46.594  1.00  0.00    -0.024 C 
ATOM     19  C   UNL     1      -6.997  36.937  45.804  1.00  0.00    -0.024 C 
ATOM     20  C   UNL     1      -6.197  38.149  46.485  1.00  0.00     0.008 C 
ATOM     21  C   UNL     1      -5.439  39.204  45.621  1.00  0.00     0.007 C 
ATOM     22  C   UNL     1      -8.513  37.357  45.884  1.00  0.00     0.012 C 
ATOM     23  C   UNL     1      -5.158  35.220  46.671  1.00  0.00     0.012 C 
ATOM     24  C   UNL     1      -7.603  31.147  49.396  1.00  0.00     0.014 C 
ATOM     25  C   UNL     1      -9.421  32.631  50.210  1.00  0.00     0.014 C 
ATOM     26  C   UNL     1      -6.278  32.143  46.666  1.00  0.00     0.012 C 
ATOM     27  C   UNL     1      -6.338  39.680  43.304  1.00  0.00     0.011 C 
ENDROOT
BRANCH   1  28
ATOM     28  C   UNL     1      -3.972  35.823  42.306  1.00  0.00    -0.077 C 
ATOM     29  C   UNL     1      -4.049  35.043  41.016  1.00  0.00     0.039 C 
ATOM     30  C   UNL     1      -3.317  35.273  43.336  1.00  0.00     0.008 C 
ENDBRANCH   1  28
BRANCH  13  31
ATOM     31  O   UNL     1     -10.935  32.074  47.819  1.00  0.00    -0.393 OA
ATOM     32  H   UNL     1     -10.895  32.895  48.372  1.00  0.00     0.210 HD
ENDBRANCH  13  31
TORSDOF 2
ENDMDL
MODEL 6
REMARK VINA RESULT:    -5.509      4.358      6.816
REMARK INTER + INTRA:          -6.731
REMARK INTER:                  -5.996
REMARK INTRA:                  -0.735
REMARK UNBOUND:                -0.738
REMARK SMILES C=C(C)[C@@H]1CC[C@]2(C)CC[C@@]3(C)[C@H](CC[C@H]4[C@]5(C)CC[C@H](O)C(C)(C)[C@H]5CC[C@@]43C)[C@@H]12
REMARK SMILES IDX 4 1 5 2 6 3 7 4 31 5 13 6 14 7 15 8 16 9 17 10 19 11 20 12
REMARK SMILES IDX 21 13 23 14 26 15 27 16 28 17 29 18 11 19 10 20 9 21 12 22
REMARK SMILES IDX 30 23 24 24 25 25 18 26 8 27 2 28 3 29 1 30 22 31
REMARK H PARENT 22 32
REMARK Flexibility Score: inf
ROOT
ATOM      1  C   UNL     1      -5.352  36.578  42.938  1.00  0.00     0.018 C 
ATOM      2  C   UNL     1      -6.264  37.602  43.649  1.00  0.00     0.009 C 
ATOM      3  C   UNL     1      -6.495  37.067  45.071  1.00  0.00     0.008 C 
ATOM      4  C   UNL     1      -6.243  35.550  44.963  1.00  0.00    -0.029 C 
ATOM      5  C   UNL     1      -5.033  35.523  44.023  1.00  0.00     0.006 C 
ATOM      6  C   UNL     1      -4.705  34.062  43.630  1.00  0.00    -0.000 C 
ATOM      7  C   UNL     1      -3.929  33.829  42.306  1.00  0.00     0.005 C 
ATOM      8  C   UNL     1      -2.422  33.689  42.420  1.00  0.00     0.005 C 
ATOM      9  C   UNL     1      -2.024  32.679  43.522  1.00  0.00     0.002 C 
ATOM     10  C   UNL     1      -0.513  32.157  43.427  1.00  0.00    -0.026 C 
ATOM     11  C   UNL     1      -0.332  31.374  42.078  1.00  0.00     0.010 C 
ATOM     12  C   UNL     1       0.965  30.552  41.997  1.00  0.00     0.033 C 
ATOM     13  C   UNL     1       1.083  29.552  43.157  1.00  0.00     0.120 C 
ATOM     14  C   UNL     1       1.008  30.259  44.554  1.00  0.00    -0.006 C 
ATOM     15  C   UNL     1      -0.304  31.139  44.606  1.00  0.00     0.003 C 
ATOM     16  C   UNL     1      -0.598  31.794  45.975  1.00  0.00     0.005 C 
ATOM     17  C   UNL     1      -2.082  32.180  46.063  1.00  0.00     0.008 C 
ATOM     18  C   UNL     1      -2.560  33.159  44.935  1.00  0.00    -0.024 C 
ATOM     19  C   UNL     1      -4.193  33.235  44.892  1.00  0.00    -0.024 C 
ATOM     20  C   UNL     1      -4.765  33.798  46.280  1.00  0.00     0.008 C 
ATOM     21  C   UNL     1      -5.899  34.869  46.314  1.00  0.00     0.007 C 
ATOM     22  C   UNL     1      -4.855  31.816  44.726  1.00  0.00     0.012 C 
ATOM     23  C   UNL     1      -1.912  34.548  45.286  1.00  0.00     0.012 C 
ATOM     24  C   UNL     1       2.299  31.080  44.798  1.00  0.00     0.014 C 
ATOM     25  C   UNL     1       0.974  29.170  45.672  1.00  0.00     0.014 C 
ATOM     26  C   UNL     1       0.510  33.349  43.436  1.00  0.00     0.012 C 
ATOM     27  C   UNL     1      -7.542  34.891  44.389  1.00  0.00     0.011 C 
ENDROOT
BRANCH   1  28
ATOM     28  C   UNL     1      -4.119  37.256  42.350  1.00  0.00    -0.077 C 
ATOM     29  C   UNL     1      -3.979  37.494  40.866  1.00  0.00     0.039 C 
ATOM     30  C   UNL     1      -3.083  37.571  43.139  1.00  0.00     0.008 C 
ENDBRANCH   1  28
BRANCH  13  31
ATOM     31  O   UNL     1       0.059  28.592  42.998  1.00  0.00    -0.393 OA
ATOM     32  H   UNL     1      -0.535  28.632  43.790  1.00  0.00     0.210 HD
ENDBRANCH  13  31
TORSDOF 2
ENDMDL
MODEL 7
REMARK VINA RESULT:    -5.475      4.127      5.942
REMARK INTER + INTRA:          -6.693
REMARK INTER:                  -5.981
REMARK INTRA:                  -0.713
REMARK UNBOUND:                -0.738
REMARK SMILES C=C(C)[C@@H]1CC[C@]2(C)CC[C@@]3(C)[C@H](CC[C@H]4[C@]5(C)CC[C@H](O)C(C)(C)[C@H]5CC[C@@]43C)[C@@H]12
REMARK SMILES IDX 4 1 5 2 6 3 7 4 31 5 13 6 14 7 15 8 16 9 17 10 19 11 20 12
REMARK SMILES IDX 21 13 23 14 26 15 27 16 28 17 29 18 11 19 10 20 9 21 12 22
REMARK SMILES IDX 30 23 24 24 25 25 18 26 8 27 2 28 3 29 1 30 22 31
REMARK H PARENT 22 32
REMARK Flexibility Score: inf
ROOT
ATOM      1  C   UNL     1      -4.808  37.199  42.341  1.00  0.00     0.018 C 
ATOM      2  C   UNL     1      -5.109  38.646  42.789  1.00  0.00     0.009 C 
ATOM      3  C   UNL     1      -4.995  38.663  44.321  1.00  0.00     0.008 C 
ATOM      4  C   UNL     1      -5.226  37.199  44.745  1.00  0.00    -0.029 C 
ATOM      5  C   UNL     1      -4.454  36.454  43.650  1.00  0.00     0.006 C 
ATOM      6  C   UNL     1      -4.696  34.931  43.780  1.00  0.00    -0.000 C 
ATOM      7  C   UNL     1      -4.500  34.059  42.511  1.00  0.00     0.005 C 
ATOM      8  C   UNL     1      -3.144  33.401  42.344  1.00  0.00     0.005 C 
ATOM      9  C   UNL     1      -2.700  32.670  43.634  1.00  0.00     0.002 C 
ATOM     10  C   UNL     1      -1.515  31.614  43.423  1.00  0.00    -0.026 C 
ATOM     11  C   UNL     1      -2.018  30.474  42.468  1.00  0.00     0.010 C 
ATOM     12  C   UNL     1      -1.105  29.238  42.428  1.00  0.00     0.033 C 
ATOM     13  C   UNL     1      -0.891  28.638  43.826  1.00  0.00     0.120 C 
ATOM     14  C   UNL     1      -0.300  29.685  44.832  1.00  0.00    -0.006 C 
ATOM     15  C   UNL     1      -1.219  30.970  44.826  1.00  0.00     0.003 C 
ATOM     16  C   UNL     1      -0.848  32.045  45.873  1.00  0.00     0.005 C 
ATOM     17  C   UNL     1      -2.049  32.969  46.123  1.00  0.00     0.008 C 
ATOM     18  C   UNL     1      -2.581  33.695  44.838  1.00  0.00    -0.024 C 
ATOM     19  C   UNL     1      -4.046  34.365  45.120  1.00  0.00    -0.024 C 
ATOM     20  C   UNL     1      -3.944  35.468  46.279  1.00  0.00     0.008 C 
ATOM     21  C   UNL     1      -4.657  36.850  46.145  1.00  0.00     0.007 C 
ATOM     22  C   UNL     1      -5.093  33.315  45.651  1.00  0.00     0.012 C 
ATOM     23  C   UNL     1      -1.493  34.775  44.489  1.00  0.00     0.012 C 
ATOM     24  C   UNL     1       1.175  29.992  44.464  1.00  0.00     0.014 C 
ATOM     25  C   UNL     1      -0.262  29.053  46.258  1.00  0.00     0.014 C 
ATOM     26  C   UNL     1      -0.258  32.284  42.760  1.00  0.00     0.012 C 
ATOM     27  C   UNL     1      -6.770  36.945  44.757  1.00  0.00     0.011 C 
ENDROOT
BRANCH   1  28
ATOM     28  C   UNL     1      -3.702  37.167  41.291  1.00  0.00    -0.077 C 
ATOM     29  C   UNL     1      -3.970  36.716  39.875  1.00  0.00     0.039 C 
ATOM     30  C   UNL     1      -2.439  37.450  41.634  1.00  0.00     0.008 C 
ENDBRANCH   1  28
BRANCH  13  31
ATOM     31  O   UNL     1      -2.135  28.132  44.267  1.00  0.00    -0.393 OA
ATOM     32  H   UNL     1      -2.673  27.884  43.473  1.00  0.00     0.210 HD
ENDBRANCH  13  31
TORSDOF 2
ENDMDL
MODEL 8
REMARK VINA RESULT:    -5.428      1.437      2.048
REMARK INTER + INTRA:          -6.642
REMARK INTER:                  -5.917
REMARK INTRA:                  -0.726
REMARK UNBOUND:                -0.738
REMARK SMILES C=C(C)[C@@H]1CC[C@]2(C)CC[C@@]3(C)[C@H](CC[C@H]4[C@]5(C)CC[C@H](O)C(C)(C)[C@H]5CC[C@@]43C)[C@@H]12
REMARK SMILES IDX 4 1 5 2 6 3 7 4 31 5 13 6 14 7 15 8 16 9 17 10 19 11 20 12
REMARK SMILES IDX 21 13 23 14 26 15 27 16 28 17 29 18 11 19 10 20 9 21 12 22
REMARK SMILES IDX 30 23 24 24 25 25 18 26 8 27 2 28 3 29 1 30 22 31
REMARK H PARENT 22 32
REMARK Flexibility Score: inf
ROOT
ATOM      1  C   UNL     1      -4.083  36.169  42.920  1.00  0.00     0.018 C 
ATOM      2  C   UNL     1      -2.798  36.976  43.212  1.00  0.00     0.009 C 
ATOM      3  C   UNL     1      -2.857  37.371  44.696  1.00  0.00     0.008 C 
ATOM      4  C   UNL     1      -4.356  37.324  45.051  1.00  0.00    -0.029 C 
ATOM      5  C   UNL     1      -4.798  36.071  44.288  1.00  0.00     0.006 C 
ATOM      6  C   UNL     1      -6.337  35.923  44.365  1.00  0.00    -0.000 C 
ATOM      7  C   UNL     1      -7.038  35.102  43.250  1.00  0.00     0.005 C 
ATOM      8  C   UNL     1      -7.308  33.640  43.553  1.00  0.00     0.005 C 
ATOM      9  C   UNL     1      -7.984  33.457  44.933  1.00  0.00     0.002 C 
ATOM     10  C   UNL     1      -8.678  32.030  45.147  1.00  0.00    -0.026 C 
ATOM     11  C   UNL     1      -9.841  31.872  44.104  1.00  0.00     0.010 C 
ATOM     12  C   UNL     1     -10.791  30.699  44.395  1.00  0.00     0.033 C 
ATOM     13  C   UNL     1     -11.409  30.796  45.797  1.00  0.00     0.120 C 
ATOM     14  C   UNL     1     -10.316  30.864  46.919  1.00  0.00    -0.006 C 
ATOM     15  C   UNL     1      -9.318  32.041  46.583  1.00  0.00     0.003 C 
ATOM     16  C   UNL     1      -8.257  32.331  47.670  1.00  0.00     0.005 C 
ATOM     17  C   UNL     1      -7.697  33.750  47.491  1.00  0.00     0.008 C 
ATOM     18  C   UNL     1      -7.049  34.013  46.086  1.00  0.00    -0.024 C 
ATOM     19  C   UNL     1      -6.805  35.613  45.856  1.00  0.00    -0.024 C 
ATOM     20  C   UNL     1      -5.795  36.192  46.959  1.00  0.00     0.008 C 
ATOM     21  C   UNL     1      -4.641  37.166  46.569  1.00  0.00     0.007 C 
ATOM     22  C   UNL     1      -8.125  36.453  46.035  1.00  0.00     0.012 C 
ATOM     23  C   UNL     1      -5.701  33.203  46.092  1.00  0.00     0.012 C 
ATOM     24  C   UNL     1      -9.611  29.489  47.050  1.00  0.00     0.014 C 
ATOM     25  C   UNL     1     -11.013  31.120  48.292  1.00  0.00     0.014 C 
ATOM     26  C   UNL     1      -7.660  30.855  44.920  1.00  0.00     0.012 C 
ATOM     27  C   UNL     1      -5.005  38.662  44.560  1.00  0.00     0.011 C 
ENDROOT
BRANCH   1  28
ATOM     28  C   UNL     1      -3.753  34.818  42.294  1.00  0.00    -0.077 C 
ATOM     29  C   UNL     1      -3.454  33.605  43.141  1.00  0.00     0.039 C 
ATOM     30  C   UNL     1      -3.628  34.705  40.965  1.00  0.00     0.008 C 
ENDBRANCH   1  28
BRANCH  13  31
ATOM     31  O   UNL     1     -12.250  31.931  45.815  1.00  0.00    -0.393 OA
ATOM     32  H   UNL     1     -12.235  32.319  46.726  1.00  0.00     0.210 HD
ENDBRANCH  13  31
TORSDOF 2
ENDMDL
MODEL 9
REMARK VINA RESULT:    -5.426      3.394      7.058
REMARK INTER + INTRA:          -6.639
REMARK INTER:                  -5.901
REMARK INTRA:                  -0.738
REMARK UNBOUND:                -0.738
REMARK SMILES C=C(C)[C@@H]1CC[C@]2(C)CC[C@@]3(C)[C@H](CC[C@H]4[C@]5(C)CC[C@H](O)C(C)(C)[C@H]5CC[C@@]43C)[C@@H]12
REMARK SMILES IDX 4 1 5 2 6 3 7 4 31 5 13 6 14 7 15 8 16 9 17 10 19 11 20 12
REMARK SMILES IDX 21 13 23 14 26 15 27 16 28 17 29 18 11 19 10 20 9 21 12 22
REMARK SMILES IDX 30 23 24 24 25 25 18 26 8 27 2 28 3 29 1 30 22 31
REMARK H PARENT 22 32
REMARK Flexibility Score: inf
ROOT
ATOM      1  C   UNL     1      -2.756  29.892  45.215  1.00  0.00     0.018 C 
ATOM      2  C   UNL     1      -1.440  29.099  45.053  1.00  0.00     0.009 C 
ATOM      3  C   UNL     1      -0.542  29.929  44.124  1.00  0.00     0.008 C 
ATOM      4  C   UNL     1      -1.518  30.816  43.328  1.00  0.00    -0.029 C 
ATOM      5  C   UNL     1      -2.522  31.199  44.421  1.00  0.00     0.006 C 
ATOM      6  C   UNL     1      -3.712  31.966  43.797  1.00  0.00    -0.000 C 
ATOM      7  C   UNL     1      -5.060  31.954  44.566  1.00  0.00     0.005 C 
ATOM      8  C   UNL     1      -5.328  33.135  45.482  1.00  0.00     0.005 C 
ATOM      9  C   UNL     1      -5.070  34.483  44.767  1.00  0.00     0.002 C 
ATOM     10  C   UNL     1      -5.719  35.753  45.494  1.00  0.00    -0.026 C 
ATOM     11  C   UNL     1      -7.281  35.591  45.496  1.00  0.00     0.010 C 
ATOM     12  C   UNL     1      -8.046  36.870  45.873  1.00  0.00     0.033 C 
ATOM     13  C   UNL     1      -7.683  38.046  44.954  1.00  0.00     0.120 C 
ATOM     14  C   UNL     1      -6.144  38.345  44.960  1.00  0.00    -0.006 C 
ATOM     15  C   UNL     1      -5.367  37.012  44.620  1.00  0.00     0.003 C 
ATOM     16  C   UNL     1      -3.839  37.170  44.449  1.00  0.00     0.005 C 
ATOM     17  C   UNL     1      -3.276  35.983  43.653  1.00  0.00     0.008 C 
ATOM     18  C   UNL     1      -3.558  34.582  44.301  1.00  0.00    -0.024 C 
ATOM     19  C   UNL     1      -3.244  33.382  43.235  1.00  0.00    -0.024 C 
ATOM     20  C   UNL     1      -1.699  33.402  42.805  1.00  0.00     0.008 C 
ATOM     21  C   UNL     1      -0.866  32.086  42.720  1.00  0.00     0.007 C 
ATOM     22  C   UNL     1      -4.042  33.552  41.888  1.00  0.00     0.012 C 
ATOM     23  C   UNL     1      -2.623  34.511  45.564  1.00  0.00     0.012 C 
ATOM     24  C   UNL     1      -5.732  38.956  46.324  1.00  0.00     0.014 C 
ATOM     25  C   UNL     1      -5.835  39.439  43.891  1.00  0.00     0.014 C 
ATOM     26  C   UNL     1      -5.242  35.869  46.986  1.00  0.00     0.012 C 
ATOM     27  C   UNL     1      -2.105  29.952  42.162  1.00  0.00     0.011 C 
ENDROOT
BRANCH   1  28
ATOM     28  C   UNL     1      -3.087  30.113  46.688  1.00  0.00    -0.077 C 
ATOM     29  C   UNL     1      -4.096  29.251  47.409  1.00  0.00     0.039 C 
ATOM     30  C   UNL     1      -2.554  31.147  47.351  1.00  0.00     0.008 C 
ENDBRANCH   1  28
BRANCH  13  31
ATOM     31  O   UNL     1      -8.152  37.735  43.659  1.00  0.00    -0.393 OA
ATOM     32  H   UNL     1      -8.046  36.761  43.511  1.00  0.00     0.210 HD
ENDBRANCH  13  31
TORSDOF 2
ENDMDL
