MODEL 1
REMARK VINA RESULT:    -5.050      0.000      0.000
REMARK INTER + INTRA:          -5.840
REMARK INTER:                  -5.789
REMARK INTRA:                  -0.052
REMARK UNBOUND:                -0.052
REMARK SMILES COc1ccc(C=O)c(O)c1
REMARK SMILES IDX 3 1 11 2 9 3 6 4 5 5 4 6 2 7 1 8 10 9 7 11 8 12
REMARK H PARENT 10 10
REMARK Flexibility Score: inf
ROOT
ATOM      1  C   UNL     1     -13.543   0.277  -9.735  1.00  0.00     0.122 A 
ATOM      2  C   UNL     1     -13.957   1.595  -9.463  1.00  0.00     0.093 A 
ATOM      3  C   UNL     1     -13.013   2.619  -9.290  1.00  0.00     0.129 A 
ATOM      4  C   UNL     1     -11.635   2.329  -9.389  1.00  0.00     0.056 A 
ATOM      5  C   UNL     1     -11.232   1.012  -9.659  1.00  0.00     0.019 A 
ATOM      6  C   UNL     1     -12.178  -0.001  -9.830  1.00  0.00     0.047 A 
ENDROOT
BRANCH   1   7
ATOM      7  O   UNL     1     -14.452  -0.776  -9.914  1.00  0.00    -0.497 OA
ATOM      8  C   UNL     1     -15.468  -1.131  -8.982  1.00  0.00     0.278 C 
ENDBRANCH   1   7
BRANCH   3   9
ATOM      9  O   UNL     1     -13.450   3.916  -9.021  1.00  0.00    -0.507 OA
ATOM     10  H   UNL     1     -14.339   4.097  -8.568  1.00  0.00     0.293 HD
ENDBRANCH   3   9
BRANCH   4  11
ATOM     11  C   UNL     1     -10.593   3.365  -9.216  1.00  0.00     0.263 C 
ATOM     12  O   UNL     1      -9.621   3.464 -10.010  1.00  0.00    -0.298 OA
ENDBRANCH   4  11
TORSDOF 3
ENDMDL
MODEL 2
REMARK VINA RESULT:    -4.975      1.163      4.412
REMARK INTER + INTRA:          -5.754
REMARK INTER:                  -5.484
REMARK INTRA:                  -0.270
REMARK UNBOUND:                -0.052
REMARK SMILES COc1ccc(C=O)c(O)c1
REMARK SMILES IDX 3 1 11 2 9 3 6 4 5 5 4 6 2 7 1 8 10 9 7 11 8 12
REMARK H PARENT 10 10
REMARK Flexibility Score: inf
ROOT
ATOM      1  C   UNL     1     -12.076   2.207  -9.623  1.00  0.00     0.122 A 
ATOM      2  C   UNL     1     -13.482   2.263  -9.624  1.00  0.00     0.093 A 
ATOM      3  C   UNL     1     -14.244   1.087  -9.700  1.00  0.00     0.129 A 
ATOM      4  C   UNL     1     -13.598  -0.165  -9.777  1.00  0.00     0.056 A 
ATOM      5  C   UNL     1     -12.195  -0.211  -9.777  1.00  0.00     0.019 A 
ATOM      6  C   UNL     1     -11.445   0.964  -9.700  1.00  0.00     0.047 A 
ENDROOT
BRANCH   1   7
ATOM      7  O   UNL     1     -11.276   3.357  -9.549  1.00  0.00    -0.497 OA
ATOM      8  C   UNL     1      -9.856   3.357  -9.646  1.00  0.00     0.278 C 
ENDBRANCH   1   7
BRANCH   3   9
ATOM      9  O   UNL     1     -15.637   1.171  -9.699  1.00  0.00    -0.507 OA
ATOM     10  H   UNL     1     -16.126   1.931  -9.240  1.00  0.00     0.293 HD
ENDBRANCH   3   9
BRANCH   4  11
ATOM     11  C   UNL     1     -14.346  -1.439  -9.860  1.00  0.00     0.263 C 
ATOM     12  O   UNL     1     -15.258  -1.726  -9.040  1.00  0.00    -0.298 OA
ENDBRANCH   4  11
TORSDOF 3
ENDMDL
MODEL 3
REMARK VINA RESULT:    -4.876     15.778     16.562
REMARK INTER + INTRA:          -5.640
REMARK INTER:                  -5.588
REMARK INTRA:                  -0.052
REMARK UNBOUND:                -0.052
REMARK SMILES COc1ccc(C=O)c(O)c1
REMARK SMILES IDX 3 1 11 2 9 3 6 4 5 5 4 6 2 7 1 8 10 9 7 11 8 12
REMARK H PARENT 10 10
REMARK Flexibility Score: inf
ROOT
ATOM      1  C   UNL     1     -11.354   4.229   7.724  1.00  0.00     0.122 A 
ATOM      2  C   UNL     1     -11.343   2.957   7.121  1.00  0.00     0.093 A 
ATOM      3  C   UNL     1     -11.855   2.775   5.827  1.00  0.00     0.129 A 
ATOM      4  C   UNL     1     -12.385   3.876   5.119  1.00  0.00     0.056 A 
ATOM      5  C   UNL     1     -12.392   5.141   5.729  1.00  0.00     0.019 A 
ATOM      6  C   UNL     1     -11.881   5.312   7.016  1.00  0.00     0.047 A 
ENDROOT
BRANCH   1   7
ATOM      7  O   UNL     1     -10.854   4.456   9.014  1.00  0.00    -0.497 OA
ATOM      8  C   UNL     1     -11.646   4.863  10.125  1.00  0.00     0.278 C 
ENDBRANCH   1   7
BRANCH   3   9
ATOM      9  O   UNL     1     -11.832   1.504   5.253  1.00  0.00    -0.507 OA
ATOM     10  H   UNL     1     -12.461   0.769   5.558  1.00  0.00     0.293 HD
ENDBRANCH   3   9
BRANCH   4  11
ATOM     11  C   UNL     1     -12.938   3.748   3.753  1.00  0.00     0.263 C 
ATOM     12  O   UNL     1     -13.863   4.495   3.340  1.00  0.00    -0.298 OA
ENDBRANCH   4  11
TORSDOF 3
ENDMDL
MODEL 4
REMARK VINA RESULT:    -4.800     15.961     16.932
REMARK INTER + INTRA:          -5.553
REMARK INTER:                  -5.494
REMARK INTRA:                  -0.059
REMARK UNBOUND:                -0.052
REMARK SMILES COc1ccc(C=O)c(O)c1
REMARK SMILES IDX 3 1 11 2 9 3 6 4 5 5 4 6 2 7 1 8 10 9 7 11 8 12
REMARK H PARENT 10 10
REMARK Flexibility Score: inf
ROOT
ATOM      1  C   UNL     1     -10.373   5.117   5.511  1.00  0.00     0.122 A 
ATOM      2  C   UNL     1     -11.077   3.967   5.106  1.00  0.00     0.093 A 
ATOM      3  C   UNL     1     -11.673   3.122   6.055  1.00  0.00     0.129 A 
ATOM      4  C   UNL     1     -11.567   3.425   7.430  1.00  0.00     0.056 A 
ATOM      5  C   UNL     1     -10.863   4.573   7.825  1.00  0.00     0.019 A 
ATOM      6  C   UNL     1     -10.274   5.408   6.873  1.00  0.00     0.047 A 
ENDROOT
BRANCH   1   7
ATOM      7  O   UNL     1      -9.763   5.988   4.597  1.00  0.00    -0.497 OA
ATOM      8  C   UNL     1      -9.392   7.331   4.889  1.00  0.00     0.278 C 
ENDBRANCH   1   7
BRANCH   3   9
ATOM      9  O   UNL     1     -12.365   1.989   5.627  1.00  0.00    -0.507 OA
ATOM     10  H   UNL     1     -11.883   1.137   5.363  1.00  0.00     0.293 HD
ENDBRANCH   3   9
BRANCH   4  11
ATOM     11  C   UNL     1     -12.173   2.574   8.478  1.00  0.00     0.263 C 
ATOM     12  O   UNL     1     -12.025   2.826   9.703  1.00  0.00    -0.298 OA
ENDBRANCH   4  11
TORSDOF 3
ENDMDL
MODEL 5
REMARK VINA RESULT:    -4.764     16.130     17.182
REMARK INTER + INTRA:          -5.512
REMARK INTER:                  -5.344
REMARK INTRA:                  -0.168
REMARK UNBOUND:                -0.052
REMARK SMILES COc1ccc(C=O)c(O)c1
REMARK SMILES IDX 3 1 11 2 9 3 6 4 5 5 4 6 2 7 1 8 10 9 7 11 8 12
REMARK H PARENT 10 10
REMARK Flexibility Score: inf
ROOT
ATOM      1  C   UNL     1     -10.007   5.848   5.422  1.00  0.00     0.122 A 
ATOM      2  C   UNL     1      -9.906   5.970   6.820  1.00  0.00     0.093 A 
ATOM      3  C   UNL     1     -10.533   5.042   7.666  1.00  0.00     0.129 A 
ATOM      4  C   UNL     1     -11.272   3.974   7.113  1.00  0.00     0.056 A 
ATOM      5  C   UNL     1     -11.367   3.860   5.717  1.00  0.00     0.019 A 
ATOM      6  C   UNL     1     -10.740   4.788   4.883  1.00  0.00     0.047 A 
ENDROOT
BRANCH   1   7
ATOM      7  O   UNL     1      -9.397   6.752   4.540  1.00  0.00    -0.497 OA
ATOM      8  C   UNL     1      -9.335   8.160   4.746  1.00  0.00     0.278 C 
ENDBRANCH   1   7
BRANCH   3   9
ATOM      9  O   UNL     1     -10.418   5.188   9.049  1.00  0.00    -0.507 OA
ATOM     10  H   UNL     1     -10.570   6.079   9.507  1.00  0.00     0.293 HD
ENDBRANCH   3   9
BRANCH   4  11
ATOM     11  C   UNL     1     -11.955   2.965   7.952  1.00  0.00     0.263 C 
ATOM     12  O   UNL     1     -12.053   3.098   9.200  1.00  0.00    -0.298 OA
ENDBRANCH   4  11
TORSDOF 3
ENDMDL
MODEL 6
REMARK VINA RESULT:    -4.726      1.479      4.766
REMARK INTER + INTRA:          -5.469
REMARK INTER:                  -5.204
REMARK INTRA:                  -0.264
REMARK UNBOUND:                -0.052
REMARK SMILES COc1ccc(C=O)c(O)c1
REMARK SMILES IDX 3 1 11 2 9 3 6 4 5 5 4 6 2 7 1 8 10 9 7 11 8 12
REMARK H PARENT 10 10
REMARK Flexibility Score: inf
ROOT
ATOM      1  C   UNL     1     -11.008   2.236  -9.406  1.00  0.00     0.122 A 
ATOM      2  C   UNL     1     -11.152   0.858  -9.654  1.00  0.00     0.093 A 
ATOM      3  C   UNL     1     -12.426   0.284  -9.783  1.00  0.00     0.129 A 
ATOM      4  C   UNL     1     -13.577   1.093  -9.664  1.00  0.00     0.056 A 
ATOM      5  C   UNL     1     -13.423   2.467  -9.417  1.00  0.00     0.019 A 
ATOM      6  C   UNL     1     -12.151   3.029  -9.290  1.00  0.00     0.047 A 
ENDROOT
BRANCH   1   7
ATOM      7  O   UNL     1      -9.754   2.850  -9.270  1.00  0.00    -0.497 OA
ATOM      8  C   UNL     1      -9.267   3.883 -10.121  1.00  0.00     0.278 C 
ENDBRANCH   1   7
BRANCH   3   9
ATOM      9  O   UNL     1     -12.541  -1.085 -10.028  1.00  0.00    -0.507 OA
ATOM     10  H   UNL     1     -13.154  -1.449 -10.749  1.00  0.00     0.293 HD
ENDBRANCH   3   9
BRANCH   4  11
ATOM     11  C   UNL     1     -14.946   0.548  -9.790  1.00  0.00     0.263 C 
ATOM     12  O   UNL     1     -15.273  -0.549  -9.265  1.00  0.00    -0.298 OA
ENDBRANCH   4  11
TORSDOF 3
ENDMDL
MODEL 7
REMARK VINA RESULT:    -4.690     16.311     16.799
REMARK INTER + INTRA:          -5.427
REMARK INTER:                  -5.172
REMARK INTRA:                  -0.255
REMARK UNBOUND:                -0.052
REMARK SMILES COc1ccc(C=O)c(O)c1
REMARK SMILES IDX 3 1 11 2 9 3 6 4 5 5 4 6 2 7 1 8 10 9 7 11 8 12
REMARK H PARENT 10 10
REMARK Flexibility Score: inf
ROOT
ATOM      1  C   UNL     1     -12.065   3.091   7.589  1.00  0.00     0.122 A 
ATOM      2  C   UNL     1     -11.233   4.118   8.071  1.00  0.00     0.093 A 
ATOM      3  C   UNL     1     -10.537   4.951   7.182  1.00  0.00     0.129 A 
ATOM      4  C   UNL     1     -10.671   4.760   5.789  1.00  0.00     0.056 A 
ATOM      5  C   UNL     1     -11.504   3.733   5.318  1.00  0.00     0.019 A 
ATOM      6  C   UNL     1     -12.192   2.909   6.210  1.00  0.00     0.047 A 
ENDROOT
BRANCH   1   7
ATOM      7  O   UNL     1     -12.778   2.235   8.442  1.00  0.00    -0.497 OA
ATOM      8  C   UNL     1     -12.365   1.884   9.759  1.00  0.00     0.278 C 
ENDBRANCH   1   7
BRANCH   3   9
ATOM      9  O   UNL     1      -9.718   5.962   7.686  1.00  0.00    -0.507 OA
ATOM     10  H   UNL     1      -9.689   6.181   8.676  1.00  0.00     0.293 HD
ENDBRANCH   3   9
BRANCH   4  11
ATOM     11  C   UNL     1      -9.965   5.605   4.802  1.00  0.00     0.263 C 
ATOM     12  O   UNL     1      -9.743   6.827   5.014  1.00  0.00    -0.298 OA
ENDBRANCH   4  11
TORSDOF 3
ENDMDL
MODEL 8
REMARK VINA RESULT:    -4.512     16.394     16.951
REMARK INTER + INTRA:          -5.224
REMARK INTER:                  -4.958
REMARK INTRA:                  -0.266
REMARK UNBOUND:                -0.052
REMARK SMILES COc1ccc(C=O)c(O)c1
REMARK SMILES IDX 3 1 11 2 9 3 6 4 5 5 4 6 2 7 1 8 10 9 7 11 8 12
REMARK H PARENT 10 10
REMARK Flexibility Score: inf
ROOT
ATOM      1  C   UNL     1     -11.624   3.595   8.461  1.00  0.00     0.122 A 
ATOM      2  C   UNL     1     -11.808   2.967   7.215  1.00  0.00     0.093 A 
ATOM      3  C   UNL     1     -11.313   3.553   6.040  1.00  0.00     0.129 A 
ATOM      4  C   UNL     1     -10.623   4.783   6.103  1.00  0.00     0.056 A 
ATOM      5  C   UNL     1     -10.445   5.402   7.351  1.00  0.00     0.019 A 
ATOM      6  C   UNL     1     -10.941   4.813   8.515  1.00  0.00     0.047 A 
ENDROOT
BRANCH   1   7
ATOM      7  O   UNL     1     -12.102   3.046   9.660  1.00  0.00    -0.497 OA
ATOM      8  C   UNL     1     -12.378   1.663   9.858  1.00  0.00     0.278 C 
ENDBRANCH   1   7
BRANCH   3   9
ATOM      9  O   UNL     1     -11.509   2.909   4.818  1.00  0.00    -0.507 OA
ATOM     10  H   UNL     1     -10.911   2.149   4.512  1.00  0.00     0.293 HD
ENDBRANCH   3   9
BRANCH   4  11
ATOM     11  C   UNL     1     -10.078   5.449   4.900  1.00  0.00     0.263 C 
ATOM     12  O   UNL     1      -9.483   4.803   3.998  1.00  0.00    -0.298 OA
ENDBRANCH   4  11
TORSDOF 3
ENDMDL
MODEL 9
REMARK VINA RESULT:    -4.412     16.158     16.781
REMARK INTER + INTRA:          -5.109
REMARK INTER:                  -4.866
REMARK INTRA:                  -0.244
REMARK UNBOUND:                -0.052
REMARK SMILES COc1ccc(C=O)c(O)c1
REMARK SMILES IDX 3 1 11 2 9 3 6 4 5 5 4 6 2 7 1 8 10 9 7 11 8 12
REMARK H PARENT 10 10
REMARK Flexibility Score: inf
ROOT
ATOM      1  C   UNL     1     -12.276   4.061   5.262  1.00  0.00     0.122 A 
ATOM      2  C   UNL     1     -11.203   4.859   5.703  1.00  0.00     0.093 A 
ATOM      3  C   UNL     1     -10.858   4.905   7.062  1.00  0.00     0.129 A 
ATOM      4  C   UNL     1     -11.591   4.145   8.000  1.00  0.00     0.056 A 
ATOM      5  C   UNL     1     -12.659   3.353   7.551  1.00  0.00     0.019 A 
ATOM      6  C   UNL     1     -12.996   3.313   6.196  1.00  0.00     0.047 A 
ENDROOT
BRANCH   1   7
ATOM      7  O   UNL     1     -12.655   3.986   3.914  1.00  0.00    -0.497 OA
ATOM      8  C   UNL     1     -13.888   4.474   3.395  1.00  0.00     0.278 C 
ENDBRANCH   1   7
BRANCH   3   9
ATOM      9  O   UNL     1      -9.791   5.704   7.472  1.00  0.00    -0.507 OA
ATOM     10  H   UNL     1      -9.357   5.591   8.382  1.00  0.00     0.293 HD
ENDBRANCH   3   9
BRANCH   4  11
ATOM     11  C   UNL     1     -11.275   4.151   9.445  1.00  0.00     0.263 C 
ATOM     12  O   UNL     1     -11.307   5.211  10.125  1.00  0.00    -0.298 OA
ENDBRANCH   4  11
TORSDOF 3
ENDMDL
