MODEL 1
REMARK VINA RESULT:    11.047      0.000      0.000
REMARK INTER + INTRA:          27.808
REMARK INTER:                  29.129
REMARK INTRA:                  -1.321
REMARK UNBOUND:                -1.321
REMARK SMILES CCCCCCCCCCCCCCCCCCCCCCCCCCCCCC(=O)[O-]
REMARK SMILES IDX 16 1 17 2 18 3 19 4 20 5 21 6 22 7 23 8 24 9 25 10 26 11
REMARK SMILES IDX 27 12 28 13 29 14 30 15 31 16 32 17 15 18 14 19 13 20 12 21
REMARK SMILES IDX 11 22 10 23 9 24 8 25 7 26 6 27 5 28 4 29 3 30 2 31 1 32
REMARK H PARENT
REMARK Flexibility Score: inf
ROOT
ATOM      1  C   UNL     1      14.657  15.421  -7.625  1.00  0.00     0.000 C 
ENDROOT
BRANCH   1   2
ATOM      2  C   UNL     1      15.777  15.866  -8.578  1.00  0.00     0.000 C 
BRANCH   2   3
ATOM      3  C   UNL     1      15.333  15.756 -10.041  1.00  0.00     0.000 C 
BRANCH   3   4
ATOM      4  C   UNL     1      14.639  14.411 -10.307  1.00  0.00     0.000 C 
BRANCH   4   5
ATOM      5  C   UNL     1      14.920  13.865 -11.714  1.00  0.00     0.000 C 
BRANCH   5   6
ATOM      6  C   UNL     1      15.710  14.848 -12.591  1.00  0.00     0.000 C 
BRANCH   6   7
ATOM      7  C   UNL     1      16.469  14.109 -13.699  1.00  0.00     0.000 C 
BRANCH   7   8
ATOM      8  C   UNL     1      17.988  14.195 -13.483  1.00  0.00     0.000 C 
BRANCH   8   9
ATOM      9  C   UNL     1      18.553  15.596 -13.770  1.00  0.00     0.000 C 
BRANCH   9  10
ATOM     10  C   UNL     1      18.071  16.704 -12.814  1.00  0.00     0.000 C 
BRANCH  10  11
ATOM     11  C   UNL     1      19.029  16.979 -11.634  1.00  0.00     0.000 C 
BRANCH  11  12
ATOM     12  C   UNL     1      18.371  17.808 -10.517  1.00  0.00     0.000 C 
BRANCH  12  13
ATOM     13  C   UNL     1      17.734  19.112 -11.028  1.00  0.00     0.006 C 
BRANCH  13  14
ATOM     14  C   UNL     1      18.695  20.315 -11.039  1.00  0.00     0.053 C 
BRANCH  14  15
ATOM     15  C   UNL     1      18.956  20.836 -12.419  1.00  0.00     0.041 C 
ATOM     16  O   UNL     1      18.107  20.664 -13.335  1.00  0.00    -0.550 OA
ATOM     17  O   UNL     1      20.118  21.550 -12.687  1.00  0.00    -0.550 OA
ENDBRANCH  14  15
ENDBRANCH  13  14
ENDBRANCH  12  13
ENDBRANCH  11  12
ENDBRANCH  10  11
ENDBRANCH   9  10
ENDBRANCH   8   9
ENDBRANCH   7   8
ENDBRANCH   6   7
ENDBRANCH   5   6
ENDBRANCH   4   5
ENDBRANCH   3   4
ENDBRANCH   2   3
ENDBRANCH   1   2
BRANCH   1  18
ATOM     18  C   UNL     1      13.587  16.514  -7.425  1.00  0.00     0.000 C 
BRANCH  18  19
ATOM     19  C   UNL     1      13.717  17.277  -6.096  1.00  0.00     0.000 C 
BRANCH  19  20
ATOM     20  C   UNL     1      12.548  17.007  -5.135  1.00  0.00     0.000 C 
BRANCH  20  21
ATOM     21  C   UNL     1      11.441  16.148  -5.770  1.00  0.00     0.000 C 
BRANCH  21  22
ATOM     22  C   UNL     1      10.676  15.304  -4.739  1.00  0.00     0.000 C 
BRANCH  22  23
ATOM     23  C   UNL     1      11.421  13.992  -4.442  1.00  0.00     0.000 C 
BRANCH  23  24
ATOM     24  C   UNL     1      10.976  13.345  -3.119  1.00  0.00    -0.000 C 
BRANCH  24  25
ATOM     25  C   UNL     1      11.307  14.221  -1.897  1.00  0.00    -0.000 C 
BRANCH  25  26
ATOM     26  C   UNL     1      10.480  13.852  -0.652  1.00  0.00    -0.000 C 
BRANCH  26  27
ATOM     27  C   UNL     1      11.261  13.136   0.464  1.00  0.00    -0.000 C 
BRANCH  27  28
ATOM     28  C   UNL     1      11.249  13.910   1.795  1.00  0.00    -0.000 C 
BRANCH  28  29
ATOM     29  C   UNL     1      11.693  15.373   1.627  1.00  0.00    -0.000 C 
BRANCH  29  30
ATOM     30  C   UNL     1      10.631  16.373   2.120  1.00  0.00    -0.000 C 
BRANCH  30  31
ATOM     31  C   UNL     1       9.251  16.121   1.494  1.00  0.00    -0.003 C 
ATOM     32  C   UNL     1       8.531  14.926   2.119  1.00  0.00     0.004 C 
ENDBRANCH  30  31
ENDBRANCH  29  30
ENDBRANCH  28  29
ENDBRANCH  27  28
ENDBRANCH  26  27
ENDBRANCH  25  26
ENDBRANCH  24  25
ENDBRANCH  23  24
ENDBRANCH  22  23
ENDBRANCH  21  22
ENDBRANCH  20  21
ENDBRANCH  19  20
ENDBRANCH  18  19
ENDBRANCH   1  18
TORSDOF 28
ENDMDL
MODEL 2
REMARK VINA RESULT:    11.331      4.743     13.117
REMARK INTER + INTRA:          28.558
REMARK INTER:                  29.483
REMARK INTRA:                  -0.925
REMARK UNBOUND:                -1.321
REMARK SMILES CCCCCCCCCCCCCCCCCCCCCCCCCCCCCC(=O)[O-]
REMARK SMILES IDX 16 1 17 2 18 3 19 4 20 5 21 6 22 7 23 8 24 9 25 10 26 11
REMARK SMILES IDX 27 12 28 13 29 14 30 15 31 16 32 17 15 18 14 19 13 20 12 21
REMARK SMILES IDX 11 22 10 23 9 24 8 25 7 26 6 27 5 28 4 29 3 30 2 31 1 32
REMARK H PARENT
REMARK Flexibility Score: inf
ROOT
ATOM      1  C   UNL     1      13.288  18.094  -6.111  1.00  0.00     0.000 C 
ENDROOT
BRANCH   1   2
ATOM      2  C   UNL     1      12.702  17.359  -4.895  1.00  0.00     0.000 C 
BRANCH   2   3
ATOM      3  C   UNL     1      12.499  15.869  -5.195  1.00  0.00     0.000 C 
BRANCH   3   4
ATOM      4  C   UNL     1      11.004  15.523  -5.285  1.00  0.00     0.000 C 
BRANCH   4   5
ATOM      5  C   UNL     1      10.696  14.093  -4.819  1.00  0.00     0.000 C 
BRANCH   5   6
ATOM      6  C   UNL     1      11.514  13.676  -3.588  1.00  0.00     0.000 C 
BRANCH   6   7
ATOM      7  C   UNL     1      11.094  14.480  -2.352  1.00  0.00     0.000 C 
BRANCH   7   8
ATOM      8  C   UNL     1      11.938  14.097  -1.127  1.00  0.00     0.000 C 
BRANCH   8   9
ATOM      9  C   UNL     1      11.204  13.143  -0.170  1.00  0.00     0.000 C 
BRANCH   9  10
ATOM     10  C   UNL     1      11.865  12.964   1.210  1.00  0.00     0.000 C 
BRANCH  10  11
ATOM     11  C   UNL     1      11.765  14.206   2.122  1.00  0.00     0.000 C 
BRANCH  11  12
ATOM     12  C   UNL     1      11.156  15.423   1.402  1.00  0.00     0.000 C 
BRANCH  12  13
ATOM     13  C   UNL     1       9.632  15.531   1.583  1.00  0.00     0.006 C 
BRANCH  13  14
ATOM     14  C   UNL     1       9.162  16.894   2.125  1.00  0.00     0.053 C 
BRANCH  14  15
ATOM     15  C   UNL     1       7.831  17.308   1.575  1.00  0.00     0.041 C 
ATOM     16  O   UNL     1       7.764  18.101   0.598  1.00  0.00    -0.550 OA
ATOM     17  O   UNL     1       6.662  16.784   2.114  1.00  0.00    -0.550 OA
ENDBRANCH  14  15
ENDBRANCH  13  14
ENDBRANCH  12  13
ENDBRANCH  11  12
ENDBRANCH  10  11
ENDBRANCH   9  10
ENDBRANCH   8   9
ENDBRANCH   7   8
ENDBRANCH   6   7
ENDBRANCH   5   6
ENDBRANCH   4   5
ENDBRANCH   3   4
ENDBRANCH   2   3
ENDBRANCH   1   2
BRANCH   1  18
ATOM     18  C   UNL     1      14.494  17.349  -6.721  1.00  0.00     0.000 C 
BRANCH  18  19
ATOM     19  C   UNL     1      14.130  16.444  -7.910  1.00  0.00     0.000 C 
BRANCH  19  20
ATOM     20  C   UNL     1      15.121  15.285  -8.103  1.00  0.00     0.000 C 
BRANCH  20  21
ATOM     21  C   UNL     1      14.729  14.353  -9.263  1.00  0.00     0.000 C 
BRANCH  21  22
ATOM     22  C   UNL     1      14.663  15.079 -10.615  1.00  0.00     0.000 C 
BRANCH  22  23
ATOM     23  C   UNL     1      15.400  14.283 -11.703  1.00  0.00     0.000 C 
BRANCH  23  24
ATOM     24  C   UNL     1      15.726  15.134 -12.942  1.00  0.00    -0.000 C 
BRANCH  24  25
ATOM     25  C   UNL     1      17.200  15.012 -13.369  1.00  0.00    -0.000 C 
BRANCH  25  26
ATOM     26  C   UNL     1      17.999  16.309 -13.147  1.00  0.00    -0.000 C 
BRANCH  26  27
ATOM     27  C   UNL     1      18.498  16.534 -11.709  1.00  0.00    -0.000 C 
BRANCH  27  28
ATOM     28  C   UNL     1      18.570  18.023 -11.326  1.00  0.00    -0.000 C 
BRANCH  28  29
ATOM     29  C   UNL     1      19.183  18.887 -12.442  1.00  0.00    -0.000 C 
BRANCH  29  30
ATOM     30  C   UNL     1      18.331  20.128 -12.763  1.00  0.00    -0.000 C 
BRANCH  30  31
ATOM     31  C   UNL     1      19.135  21.433 -12.669  1.00  0.00    -0.003 C 
ATOM     32  C   UNL     1      19.487  21.805 -11.229  1.00  0.00     0.004 C 
ENDBRANCH  30  31
ENDBRANCH  29  30
ENDBRANCH  28  29
ENDBRANCH  27  28
ENDBRANCH  26  27
ENDBRANCH  25  26
ENDBRANCH  24  25
ENDBRANCH  23  24
ENDBRANCH  22  23
ENDBRANCH  21  22
ENDBRANCH  20  21
ENDBRANCH  19  20
ENDBRANCH  18  19
ENDBRANCH   1  18
TORSDOF 28
ENDMDL
MODEL 3
REMARK VINA RESULT:    11.450      4.460     12.820
REMARK INTER + INTRA:          28.870
REMARK INTER:                  27.961
REMARK INTRA:                   0.910
REMARK UNBOUND:                -1.321
REMARK SMILES CCCCCCCCCCCCCCCCCCCCCCCCCCCCCC(=O)[O-]
REMARK SMILES IDX 16 1 17 2 18 3 19 4 20 5 21 6 22 7 23 8 24 9 25 10 26 11
REMARK SMILES IDX 27 12 28 13 29 14 30 15 31 16 32 17 15 18 14 19 13 20 12 21
REMARK SMILES IDX 11 22 10 23 9 24 8 25 7 26 6 27 5 28 4 29 3 30 2 31 1 32
REMARK H PARENT
REMARK Flexibility Score: inf
ROOT
ATOM      1  C   UNL     1      14.479  15.102  -9.422  1.00  0.00     0.000 C 
ENDROOT
BRANCH   1   2
ATOM      2  C   UNL     1      15.503  16.088  -8.838  1.00  0.00     0.000 C 
BRANCH   2   3
ATOM      3  C   UNL     1      15.341  16.216  -7.319  1.00  0.00     0.000 C 
BRANCH   3   4
ATOM      4  C   UNL     1      13.863  16.103  -6.911  1.00  0.00     0.000 C 
BRANCH   4   5
ATOM      5  C   UNL     1      13.404  17.261  -6.012  1.00  0.00     0.000 C 
BRANCH   5   6
ATOM      6  C   UNL     1      12.108  16.949  -5.250  1.00  0.00     0.000 C 
BRANCH   6   7
ATOM      7  C   UNL     1      11.832  15.441  -5.233  1.00  0.00     0.000 C 
BRANCH   7   8
ATOM      8  C   UNL     1      10.697  15.096  -4.256  1.00  0.00     0.000 C 
BRANCH   8   9
ATOM      9  C   UNL     1      11.201  14.420  -2.970  1.00  0.00     0.000 C 
BRANCH   9  10
ATOM     10  C   UNL     1      10.145  13.600  -2.204  1.00  0.00     0.000 C 
BRANCH  10  11
ATOM     11  C   UNL     1      10.312  13.635  -0.670  1.00  0.00     0.000 C 
BRANCH  11  12
ATOM     12  C   UNL     1      11.766  13.896  -0.237  1.00  0.00     0.000 C 
BRANCH  12  13
ATOM     13  C   UNL     1      11.917  14.103   1.280  1.00  0.00     0.006 C 
BRANCH  13  14
ATOM     14  C   UNL     1      10.651  14.653   1.964  1.00  0.00     0.053 C 
BRANCH  14  15
ATOM     15  C   UNL     1      10.515  16.138   1.822  1.00  0.00     0.041 C 
ATOM     16  O   UNL     1      11.540  16.867   1.743  1.00  0.00    -0.550 OA
ATOM     17  O   UNL     1       9.255  16.717   1.732  1.00  0.00    -0.550 OA
ENDBRANCH  14  15
ENDBRANCH  13  14
ENDBRANCH  12  13
ENDBRANCH  11  12
ENDBRANCH  10  11
ENDBRANCH   9  10
ENDBRANCH   8   9
ENDBRANCH   7   8
ENDBRANCH   6   7
ENDBRANCH   5   6
ENDBRANCH   4   5
ENDBRANCH   3   4
ENDBRANCH   2   3
ENDBRANCH   1   2
BRANCH   1  18
ATOM     18  C   UNL     1      14.519  15.061 -10.964  1.00  0.00     0.000 C 
BRANCH  18  19
ATOM     19  C   UNL     1      14.771  13.658 -11.543  1.00  0.00     0.000 C 
BRANCH  19  20
ATOM     20  C   UNL     1      15.728  13.672 -12.746  1.00  0.00     0.000 C 
BRANCH  20  21
ATOM     21  C   UNL     1      16.015  15.092 -13.263  1.00  0.00     0.000 C 
BRANCH  21  22
ATOM     22  C   UNL     1      17.517  15.385 -13.397  1.00  0.00     0.000 C 
BRANCH  22  23
ATOM     23  C   UNL     1      18.299  14.104 -13.731  1.00  0.00     0.000 C 
BRANCH  23  24
ATOM     24  C   UNL     1      19.572  13.949 -12.881  1.00  0.00    -0.000 C 
BRANCH  24  25
ATOM     25  C   UNL     1      20.002  15.272 -12.221  1.00  0.00    -0.000 C 
BRANCH  25  26
ATOM     26  C   UNL     1      18.851  16.288 -12.106  1.00  0.00    -0.000 C 
BRANCH  26  27
ATOM     27  C   UNL     1      19.240  17.654 -11.513  1.00  0.00    -0.000 C 
BRANCH  27  28
ATOM     28  C   UNL     1      18.031  18.439 -10.974  1.00  0.00    -0.000 C 
BRANCH  28  29
ATOM     29  C   UNL     1      18.171  19.956 -11.188  1.00  0.00    -0.000 C 
BRANCH  29  30
ATOM     30  C   UNL     1      18.566  20.314 -12.632  1.00  0.00    -0.000 C 
BRANCH  30  31
ATOM     31  C   UNL     1      20.087  20.315 -12.843  1.00  0.00    -0.003 C 
ATOM     32  C   UNL     1      20.794  21.403 -12.035  1.00  0.00     0.004 C 
ENDBRANCH  30  31
ENDBRANCH  29  30
ENDBRANCH  28  29
ENDBRANCH  27  28
ENDBRANCH  26  27
ENDBRANCH  25  26
ENDBRANCH  24  25
ENDBRANCH  23  24
ENDBRANCH  22  23
ENDBRANCH  21  22
ENDBRANCH  20  21
ENDBRANCH  19  20
ENDBRANCH  18  19
ENDBRANCH   1  18
TORSDOF 28
ENDMDL
MODEL 4
REMARK VINA RESULT:    11.791      4.153     13.105
REMARK INTER + INTRA:          29.770
REMARK INTER:                  29.698
REMARK INTRA:                   0.072
REMARK UNBOUND:                -1.321
REMARK SMILES CCCCCCCCCCCCCCCCCCCCCCCCCCCCCC(=O)[O-]
REMARK SMILES IDX 16 1 17 2 18 3 19 4 20 5 21 6 22 7 23 8 24 9 25 10 26 11
REMARK SMILES IDX 27 12 28 13 29 14 30 15 31 16 32 17 15 18 14 19 13 20 12 21
REMARK SMILES IDX 11 22 10 23 9 24 8 25 7 26 6 27 5 28 4 29 3 30 2 31 1 32
REMARK H PARENT
REMARK Flexibility Score: inf
ROOT
ATOM      1  C   UNL     1      12.772  18.171  -6.243  1.00  0.00     0.000 C 
ENDROOT
BRANCH   1   2
ATOM      2  C   UNL     1      11.994  17.452  -5.129  1.00  0.00     0.000 C 
BRANCH   2   3
ATOM      3  C   UNL     1      11.952  15.939  -5.373  1.00  0.00     0.000 C 
BRANCH   3   4
ATOM      4  C   UNL     1      10.631  15.336  -4.869  1.00  0.00     0.000 C 
BRANCH   4   5
ATOM      5  C   UNL     1      10.746  13.838  -4.547  1.00  0.00     0.000 C 
BRANCH   5   6
ATOM      6  C   UNL     1      11.371  13.569  -3.171  1.00  0.00     0.000 C 
BRANCH   6   7
ATOM      7  C   UNL     1      10.333  13.734  -2.054  1.00  0.00     0.000 C 
BRANCH   7   8
ATOM      8  C   UNL     1      10.998  14.158  -0.736  1.00  0.00     0.000 C 
BRANCH   8   9
ATOM      9  C   UNL     1      10.829  13.114   0.380  1.00  0.00     0.000 C 
BRANCH   9  10
ATOM     10  C   UNL     1       9.900  13.535   1.535  1.00  0.00     0.000 C 
BRANCH  10  11
ATOM     11  C   UNL     1       8.556  14.141   1.074  1.00  0.00     0.000 C 
BRANCH  11  12
ATOM     12  C   UNL     1       8.151  15.378   1.895  1.00  0.00     0.000 C 
BRANCH  12  13
ATOM     13  C   UNL     1       9.246  16.458   1.940  1.00  0.00     0.006 C 
BRANCH  13  14
ATOM     14  C   UNL     1      10.669  15.897   2.122  1.00  0.00     0.053 C 
BRANCH  14  15
ATOM     15  C   UNL     1      11.726  16.822   1.600  1.00  0.00     0.041 C 
ATOM     16  O   UNL     1      12.875  16.832   2.118  1.00  0.00    -0.550 OA
ATOM     17  O   UNL     1      11.458  17.645   0.513  1.00  0.00    -0.550 OA
ENDBRANCH  14  15
ENDBRANCH  13  14
ENDBRANCH  12  13
ENDBRANCH  11  12
ENDBRANCH  10  11
ENDBRANCH   9  10
ENDBRANCH   8   9
ENDBRANCH   7   8
ENDBRANCH   6   7
ENDBRANCH   5   6
ENDBRANCH   4   5
ENDBRANCH   3   4
ENDBRANCH   2   3
ENDBRANCH   1   2
BRANCH   1  18
ATOM     18  C   UNL     1      14.104  17.467  -6.576  1.00  0.00     0.000 C 
BRANCH  18  19
ATOM     19  C   UNL     1      14.036  16.556  -7.813  1.00  0.00     0.000 C 
BRANCH  19  20
ATOM     20  C   UNL     1      15.256  15.631  -7.942  1.00  0.00     0.000 C 
BRANCH  20  21
ATOM     21  C   UNL     1      15.102  14.594  -9.068  1.00  0.00     0.000 C 
BRANCH  21  22
ATOM     22  C   UNL     1      14.941  15.238 -10.454  1.00  0.00     0.000 C 
BRANCH  22  23
ATOM     23  C   UNL     1      15.318  14.248 -11.567  1.00  0.00     0.000 C 
BRANCH  23  24
ATOM     24  C   UNL     1      15.581  14.943 -12.914  1.00  0.00    -0.000 C 
BRANCH  24  25
ATOM     25  C   UNL     1      16.874  14.448 -13.589  1.00  0.00    -0.000 C 
BRANCH  25  26
ATOM     26  C   UNL     1      18.126  15.212 -13.121  1.00  0.00    -0.000 C 
BRANCH  26  27
ATOM     27  C   UNL     1      17.848  16.520 -12.357  1.00  0.00    -0.000 C 
BRANCH  27  28
ATOM     28  C   UNL     1      18.260  17.774 -13.149  1.00  0.00    -0.000 C 
BRANCH  28  29
ATOM     29  C   UNL     1      18.903  18.848 -12.255  1.00  0.00    -0.000 C 
BRANCH  29  30
ATOM     30  C   UNL     1      18.594  20.278 -12.734  1.00  0.00    -0.000 C 
BRANCH  30  31
ATOM     31  C   UNL     1      19.720  21.267 -12.395  1.00  0.00    -0.003 C 
ATOM     32  C   UNL     1      19.508  21.962 -11.050  1.00  0.00     0.004 C 
ENDBRANCH  30  31
ENDBRANCH  29  30
ENDBRANCH  28  29
ENDBRANCH  27  28
ENDBRANCH  26  27
ENDBRANCH  25  26
ENDBRANCH  24  25
ENDBRANCH  23  24
ENDBRANCH  22  23
ENDBRANCH  21  22
ENDBRANCH  20  21
ENDBRANCH  19  20
ENDBRANCH  18  19
ENDBRANCH   1  18
TORSDOF 28
ENDMDL
MODEL 5
REMARK VINA RESULT:    11.867      2.355      3.514
REMARK INTER + INTRA:          29.971
REMARK INTER:                  31.454
REMARK INTRA:                  -1.483
REMARK UNBOUND:                -1.321
REMARK SMILES CCCCCCCCCCCCCCCCCCCCCCCCCCCCCC(=O)[O-]
REMARK SMILES IDX 16 1 17 2 18 3 19 4 20 5 21 6 22 7 23 8 24 9 25 10 26 11
REMARK SMILES IDX 27 12 28 13 29 14 30 15 31 16 32 17 15 18 14 19 13 20 12 21
REMARK SMILES IDX 11 22 10 23 9 24 8 25 7 26 6 27 5 28 4 29 3 30 2 31 1 32
REMARK H PARENT
REMARK Flexibility Score: inf
ROOT
ATOM      1  C   UNL     1      14.789  15.867  -9.225  1.00  0.00     0.000 C 
ENDROOT
BRANCH   1   2
ATOM      2  C   UNL     1      14.803  14.784 -10.315  1.00  0.00     0.000 C 
BRANCH   2   3
ATOM      3  C   UNL     1      15.126  15.387 -11.687  1.00  0.00     0.000 C 
BRANCH   3   4
ATOM      4  C   UNL     1      16.074  14.474 -12.481  1.00  0.00     0.000 C 
BRANCH   4   5
ATOM      5  C   UNL     1      17.114  15.259 -13.294  1.00  0.00     0.000 C 
BRANCH   5   6
ATOM      6  C   UNL     1      18.068  16.078 -12.411  1.00  0.00     0.000 C 
BRANCH   6   7
ATOM      7  C   UNL     1      17.965  17.574 -12.735  1.00  0.00     0.000 C 
BRANCH   7   8
ATOM      8  C   UNL     1      18.883  18.403 -11.823  1.00  0.00     0.000 C 
BRANCH   8   9
ATOM      9  C   UNL     1      19.440  19.656 -12.517  1.00  0.00     0.000 C 
BRANCH   9  10
ATOM     10  C   UNL     1      18.870  20.994 -12.008  1.00  0.00     0.000 C 
BRANCH  10  11
ATOM     11  C   UNL     1      19.175  22.199 -12.925  1.00  0.00     0.000 C 
BRANCH  11  12
ATOM     12  C   UNL     1      17.909  22.783 -13.578  1.00  0.00     0.000 C 
BRANCH  12  13
ATOM     13  C   UNL     1      18.026  24.287 -13.882  1.00  0.00     0.006 C 
BRANCH  13  14
ATOM     14  C   UNL     1      19.084  24.628 -14.947  1.00  0.00     0.053 C 
BRANCH  14  15
ATOM     15  C   UNL     1      18.663  25.754 -15.841  1.00  0.00     0.041 C 
ATOM     16  O   UNL     1      17.849  26.624 -15.430  1.00  0.00    -0.550 OA
ATOM     17  O   UNL     1      19.202  25.870 -17.117  1.00  0.00    -0.550 OA
ENDBRANCH  14  15
ENDBRANCH  13  14
ENDBRANCH  12  13
ENDBRANCH  11  12
ENDBRANCH  10  11
ENDBRANCH   9  10
ENDBRANCH   8   9
ENDBRANCH   7   8
ENDBRANCH   6   7
ENDBRANCH   5   6
ENDBRANCH   4   5
ENDBRANCH   3   4
ENDBRANCH   2   3
ENDBRANCH   1   2
BRANCH   1  18
ATOM     18  C   UNL     1      15.380  15.364  -7.891  1.00  0.00     0.000 C 
BRANCH  18  19
ATOM     19  C   UNL     1      14.631  15.871  -6.647  1.00  0.00     0.000 C 
BRANCH  19  20
ATOM     20  C   UNL     1      13.836  17.159  -6.912  1.00  0.00     0.000 C 
BRANCH  20  21
ATOM     21  C   UNL     1      12.843  17.489  -5.784  1.00  0.00     0.000 C 
BRANCH  21  22
ATOM     22  C   UNL     1      11.743  16.428  -5.630  1.00  0.00     0.000 C 
BRANCH  22  23
ATOM     23  C   UNL     1      11.851  15.718  -4.270  1.00  0.00     0.000 C 
BRANCH  23  24
ATOM     24  C   UNL     1      10.964  14.464  -4.184  1.00  0.00    -0.000 C 
BRANCH  24  25
ATOM     25  C   UNL     1      11.286  13.600  -2.952  1.00  0.00    -0.000 C 
BRANCH  25  26
ATOM     26  C   UNL     1      10.992  14.316  -1.622  1.00  0.00    -0.000 C 
BRANCH  26  27
ATOM     27  C   UNL     1      10.077  13.547  -0.652  1.00  0.00    -0.000 C 
BRANCH  27  28
ATOM     28  C   UNL     1      10.581  13.582   0.802  1.00  0.00    -0.000 C 
BRANCH  28  29
ATOM     29  C   UNL     1      11.599  14.709   1.044  1.00  0.00    -0.000 C 
BRANCH  29  30
ATOM     30  C   UNL     1      11.041  15.827   1.943  1.00  0.00    -0.000 C 
BRANCH  30  31
ATOM     31  C   UNL     1       9.518  15.731   2.123  1.00  0.00    -0.003 C 
ATOM     32  C   UNL     1       8.775  16.910   1.494  1.00  0.00     0.004 C 
ENDBRANCH  30  31
ENDBRANCH  29  30
ENDBRANCH  28  29
ENDBRANCH  27  28
ENDBRANCH  26  27
ENDBRANCH  25  26
ENDBRANCH  24  25
ENDBRANCH  23  24
ENDBRANCH  22  23
ENDBRANCH  21  22
ENDBRANCH  20  21
ENDBRANCH  19  20
ENDBRANCH  18  19
ENDBRANCH   1  18
TORSDOF 28
ENDMDL
MODEL 6
REMARK VINA RESULT:    11.878      1.110      3.187
REMARK INTER + INTRA:          30.001
REMARK INTER:                  31.811
REMARK INTRA:                  -1.811
REMARK UNBOUND:                -1.321
REMARK SMILES CCCCCCCCCCCCCCCCCCCCCCCCCCCCCC(=O)[O-]
REMARK SMILES IDX 16 1 17 2 18 3 19 4 20 5 21 6 22 7 23 8 24 9 25 10 26 11
REMARK SMILES IDX 27 12 28 13 29 14 30 15 31 16 32 17 15 18 14 19 13 20 12 21
REMARK SMILES IDX 11 22 10 23 9 24 8 25 7 26 6 27 5 28 4 29 3 30 2 31 1 32
REMARK H PARENT
REMARK Flexibility Score: inf
ROOT
ATOM      1  C   UNL     1      11.718  16.818  -6.013  1.00  0.00     0.000 C 
ENDROOT
BRANCH   1   2
ATOM      2  C   UNL     1      13.039  16.901  -5.231  1.00  0.00     0.000 C 
BRANCH   2   3
ATOM      3  C   UNL     1      14.244  16.867  -6.179  1.00  0.00     0.000 C 
BRANCH   3   4
ATOM      4  C   UNL     1      14.167  15.657  -7.123  1.00  0.00     0.000 C 
BRANCH   4   5
ATOM      5  C   UNL     1      14.880  15.901  -8.462  1.00  0.00     0.000 C 
BRANCH   5   6
ATOM      6  C   UNL     1      14.338  15.021  -9.597  1.00  0.00     0.000 C 
BRANCH   6   7
ATOM      7  C   UNL     1      14.688  15.615 -10.967  1.00  0.00     0.000 C 
BRANCH   7   8
ATOM      8  C   UNL     1      15.928  14.935 -11.567  1.00  0.00     0.000 C 
BRANCH   8   9
ATOM      9  C   UNL     1      16.331  15.522 -12.929  1.00  0.00     0.000 C 
BRANCH   9  10
ATOM     10  C   UNL     1      17.752  16.115 -12.991  1.00  0.00     0.000 C 
BRANCH  10  11
ATOM     11  C   UNL     1      18.409  16.323 -11.609  1.00  0.00     0.000 C 
BRANCH  11  12
ATOM     12  C   UNL     1      18.979  17.742 -11.432  1.00  0.00     0.000 C 
BRANCH  12  13
ATOM     13  C   UNL     1      18.392  18.758 -12.427  1.00  0.00     0.006 C 
BRANCH  13  14
ATOM     14  C   UNL     1      18.540  20.225 -11.983  1.00  0.00     0.053 C 
BRANCH  14  15
ATOM     15  C   UNL     1      19.799  20.860 -12.492  1.00  0.00     0.041 C 
ATOM     16  O   UNL     1      20.050  22.068 -12.238  1.00  0.00    -0.550 OA
ATOM     17  O   UNL     1      20.718  20.105 -13.211  1.00  0.00    -0.550 OA
ENDBRANCH  14  15
ENDBRANCH  13  14
ENDBRANCH  12  13
ENDBRANCH  11  12
ENDBRANCH  10  11
ENDBRANCH   9  10
ENDBRANCH   8   9
ENDBRANCH   7   8
ENDBRANCH   6   7
ENDBRANCH   5   6
ENDBRANCH   4   5
ENDBRANCH   3   4
ENDBRANCH   2   3
ENDBRANCH   1   2
BRANCH   1  18
ATOM     18  C   UNL     1      10.849  15.622  -5.572  1.00  0.00     0.000 C 
BRANCH  18  19
ATOM     19  C   UNL     1      11.140  15.134  -4.143  1.00  0.00     0.000 C 
BRANCH  19  20
ATOM     20  C   UNL     1      10.495  13.773  -3.834  1.00  0.00     0.000 C 
BRANCH  20  21
ATOM     21  C   UNL     1      10.789  13.285  -2.404  1.00  0.00     0.000 C 
BRANCH  21  22
ATOM     22  C   UNL     1       9.958  14.019  -1.341  1.00  0.00     0.000 C 
BRANCH  22  23
ATOM     23  C   UNL     1      10.085  13.330   0.027  1.00  0.00     0.000 C 
BRANCH  23  24
ATOM     24  C   UNL     1      11.490  13.475   0.635  1.00  0.00    -0.000 C 
BRANCH  24  25
ATOM     25  C   UNL     1      12.150  14.819   0.276  1.00  0.00    -0.000 C 
BRANCH  25  26
ATOM     26  C   UNL     1      11.902  15.911   1.333  1.00  0.00    -0.000 C 
BRANCH  26  27
ATOM     27  C   UNL     1      10.590  15.770   2.125  1.00  0.00    -0.000 C 
BRANCH  27  28
ATOM     28  C   UNL     1       9.486  16.720   1.627  1.00  0.00    -0.000 C 
BRANCH  28  29
ATOM     29  C   UNL     1       8.168  15.986   1.329  1.00  0.00    -0.000 C 
BRANCH  29  30
ATOM     30  C   UNL     1       8.072  14.629   2.050  1.00  0.00    -0.000 C 
BRANCH  30  31
ATOM     31  C   UNL     1       6.631  14.100   2.117  1.00  0.00    -0.003 C 
ATOM     32  C   UNL     1       6.131  13.580   0.769  1.00  0.00     0.004 C 
ENDBRANCH  30  31
ENDBRANCH  29  30
ENDBRANCH  28  29
ENDBRANCH  27  28
ENDBRANCH  26  27
ENDBRANCH  25  26
ENDBRANCH  24  25
ENDBRANCH  23  24
ENDBRANCH  22  23
ENDBRANCH  21  22
ENDBRANCH  20  21
ENDBRANCH  19  20
ENDBRANCH  18  19
ENDBRANCH   1  18
TORSDOF 28
ENDMDL
MODEL 7
REMARK VINA RESULT:    12.186      4.963     13.155
REMARK INTER + INTRA:          30.812
REMARK INTER:                  29.415
REMARK INTRA:                   1.396
REMARK UNBOUND:                -1.321
REMARK SMILES CCCCCCCCCCCCCCCCCCCCCCCCCCCCCC(=O)[O-]
REMARK SMILES IDX 16 1 17 2 18 3 19 4 20 5 21 6 22 7 23 8 24 9 25 10 26 11
REMARK SMILES IDX 27 12 28 13 29 14 30 15 31 16 32 17 15 18 14 19 13 20 12 21
REMARK SMILES IDX 11 22 10 23 9 24 8 25 7 26 6 27 5 28 4 29 3 30 2 31 1 32
REMARK H PARENT
REMARK Flexibility Score: inf
ROOT
ATOM      1  C   UNL     1      13.895  16.513  -7.635  1.00  0.00     0.000 C 
ENDROOT
BRANCH   1   2
ATOM      2  C   UNL     1      14.178  17.544  -6.531  1.00  0.00     0.000 C 
BRANCH   2   3
ATOM      3  C   UNL     1      13.444  17.180  -5.235  1.00  0.00     0.000 C 
BRANCH   3   4
ATOM      4  C   UNL     1      11.948  16.947  -5.497  1.00  0.00     0.000 C 
BRANCH   4   5
ATOM      5  C   UNL     1      11.600  15.461  -5.672  1.00  0.00     0.000 C 
BRANCH   5   6
ATOM      6  C   UNL     1      10.623  14.946  -4.606  1.00  0.00     0.000 C 
BRANCH   6   7
ATOM      7  C   UNL     1      11.233  13.778  -3.820  1.00  0.00     0.000 C 
BRANCH   7   8
ATOM      8  C   UNL     1      11.430  14.147  -2.342  1.00  0.00     0.000 C 
BRANCH   8   9
ATOM      9  C   UNL     1      10.523  13.339  -1.399  1.00  0.00     0.000 C 
BRANCH   9  10
ATOM     10  C   UNL     1      10.038  14.098  -0.149  1.00  0.00     0.000 C 
BRANCH  10  11
ATOM     11  C   UNL     1      10.879  13.828   1.117  1.00  0.00     0.000 C 
BRANCH  11  12
ATOM     12  C   UNL     1      11.130  15.102   1.945  1.00  0.00     0.000 C 
BRANCH  12  13
ATOM     13  C   UNL     1      10.557  16.370   1.290  1.00  0.00     0.006 C 
BRANCH  13  14
ATOM     14  C   UNL     1       9.466  17.066   2.125  1.00  0.00     0.053 C 
BRANCH  14  15
ATOM     15  C   UNL     1       8.140  16.373   2.038  1.00  0.00     0.041 C 
ATOM     16  O   UNL     1       8.083  15.119   1.929  1.00  0.00    -0.550 OA
ATOM     17  O   UNL     1       6.963  17.108   2.120  1.00  0.00    -0.550 OA
ENDBRANCH  14  15
ENDBRANCH  13  14
ENDBRANCH  12  13
ENDBRANCH  11  12
ENDBRANCH  10  11
ENDBRANCH   9  10
ENDBRANCH   8   9
ENDBRANCH   7   8
ENDBRANCH   6   7
ENDBRANCH   5   6
ENDBRANCH   4   5
ENDBRANCH   3   4
ENDBRANCH   2   3
ENDBRANCH   1   2
BRANCH   1  18
ATOM     18  C   UNL     1      15.171  15.772  -8.087  1.00  0.00     0.000 C 
BRANCH  18  19
ATOM     19  C   UNL     1      15.335  15.689  -9.614  1.00  0.00     0.000 C 
BRANCH  19  20
ATOM     20  C   UNL     1      14.300  14.767 -10.277  1.00  0.00     0.000 C 
BRANCH  20  21
ATOM     21  C   UNL     1      14.698  14.355 -11.706  1.00  0.00     0.000 C 
BRANCH  21  22
ATOM     22  C   UNL     1      16.185  14.596 -12.003  1.00  0.00     0.000 C 
BRANCH  22  23
ATOM     23  C   UNL     1      16.380  15.874 -12.836  1.00  0.00     0.000 C 
BRANCH  23  24
ATOM     24  C   UNL     1      17.823  16.036 -13.343  1.00  0.00    -0.000 C 
BRANCH  24  25
ATOM     25  C   UNL     1      18.539  14.685 -13.520  1.00  0.00    -0.000 C 
BRANCH  25  26
ATOM     26  C   UNL     1      19.764  14.529 -12.600  1.00  0.00    -0.000 C 
BRANCH  26  27
ATOM     27  C   UNL     1      20.460  15.845 -12.208  1.00  0.00    -0.000 C 
BRANCH  27  28
ATOM     28  C   UNL     1      19.717  16.606 -11.096  1.00  0.00    -0.000 C 
BRANCH  28  29
ATOM     29  C   UNL     1      18.665  17.581 -11.652  1.00  0.00    -0.000 C 
BRANCH  29  30
ATOM     30  C   UNL     1      19.064  19.055 -11.455  1.00  0.00    -0.000 C 
BRANCH  30  31
ATOM     31  C   UNL     1      18.351  19.993 -12.441  1.00  0.00    -0.003 C 
ATOM     32  C   UNL     1      19.156  21.258 -12.737  1.00  0.00     0.004 C 
ENDBRANCH  30  31
ENDBRANCH  29  30
ENDBRANCH  28  29
ENDBRANCH  27  28
ENDBRANCH  26  27
ENDBRANCH  25  26
ENDBRANCH  24  25
ENDBRANCH  23  24
ENDBRANCH  22  23
ENDBRANCH  21  22
ENDBRANCH  20  21
ENDBRANCH  19  20
ENDBRANCH  18  19
ENDBRANCH   1  18
TORSDOF 28
ENDMDL
MODEL 8
REMARK VINA RESULT:    12.335      1.213      2.175
REMARK INTER + INTRA:          31.204
REMARK INTER:                  32.982
REMARK INTRA:                  -1.778
REMARK UNBOUND:                -1.321
REMARK SMILES CCCCCCCCCCCCCCCCCCCCCCCCCCCCCC(=O)[O-]
REMARK SMILES IDX 16 1 17 2 18 3 19 4 20 5 21 6 22 7 23 8 24 9 25 10 26 11
REMARK SMILES IDX 27 12 28 13 29 14 30 15 31 16 32 17 15 18 14 19 13 20 12 21
REMARK SMILES IDX 11 22 10 23 9 24 8 25 7 26 6 27 5 28 4 29 3 30 2 31 1 32
REMARK H PARENT
REMARK Flexibility Score: inf
ROOT
ATOM      1  C   UNL     1      15.800  15.979  -9.368  1.00  0.00     0.000 C 
ENDROOT
BRANCH   1   2
ATOM      2  C   UNL     1      14.864  15.673 -10.548  1.00  0.00     0.000 C 
BRANCH   2   3
ATOM      3  C   UNL     1      14.987  14.208 -10.984  1.00  0.00     0.000 C 
BRANCH   3   4
ATOM      4  C   UNL     1      15.158  14.099 -12.508  1.00  0.00     0.000 C 
BRANCH   4   5
ATOM      5  C   UNL     1      16.199  15.084 -13.061  1.00  0.00     0.000 C 
BRANCH   5   6
ATOM      6  C   UNL     1      17.504  14.397 -13.488  1.00  0.00     0.000 C 
BRANCH   6   7
ATOM      7  C   UNL     1      18.722  15.251 -13.114  1.00  0.00     0.000 C 
BRANCH   7   8
ATOM      8  C   UNL     1      18.304  16.687 -12.761  1.00  0.00     0.000 C 
BRANCH   8   9
ATOM      9  C   UNL     1      19.241  17.346 -11.735  1.00  0.00     0.000 C 
BRANCH   9  10
ATOM     10  C   UNL     1      20.689  16.818 -11.738  1.00  0.00     0.000 C 
BRANCH  10  11
ATOM     11  C   UNL     1      21.762  17.923 -11.626  1.00  0.00     0.000 C 
BRANCH  11  12
ATOM     12  C   UNL     1      21.519  19.087 -12.604  1.00  0.00     0.000 C 
BRANCH  12  13
ATOM     13  C   UNL     1      20.938  20.337 -11.922  1.00  0.00     0.006 C 
BRANCH  13  14
ATOM     14  C   UNL     1      19.833  21.037 -12.735  1.00  0.00     0.053 C 
BRANCH  14  15
ATOM     15  C   UNL     1      18.463  20.529 -12.406  1.00  0.00     0.041 C 
ATOM     16  O   UNL     1      17.679  20.171 -13.325  1.00  0.00    -0.550 OA
ATOM     17  O   UNL     1      18.064  20.410 -11.080  1.00  0.00    -0.550 OA
ENDBRANCH  14  15
ENDBRANCH  13  14
ENDBRANCH  12  13
ENDBRANCH  11  12
ENDBRANCH  10  11
ENDBRANCH   9  10
ENDBRANCH   8   9
ENDBRANCH   7   8
ENDBRANCH   6   7
ENDBRANCH   5   6
ENDBRANCH   4   5
ENDBRANCH   3   4
ENDBRANCH   2   3
ENDBRANCH   1   2
BRANCH   1  18
ATOM     18  C   UNL     1      15.257  15.432  -8.031  1.00  0.00     0.000 C 
BRANCH  18  19
ATOM     19  C   UNL     1      13.897  16.022  -7.623  1.00  0.00     0.000 C 
BRANCH  19  20
ATOM     20  C   UNL     1      14.002  17.010  -6.451  1.00  0.00     0.000 C 
BRANCH  20  21
ATOM     21  C   UNL     1      12.717  17.074  -5.607  1.00  0.00     0.000 C 
BRANCH  21  22
ATOM     22  C   UNL     1      11.784  15.878  -5.852  1.00  0.00     0.000 C 
BRANCH  22  23
ATOM     23  C   UNL     1      10.939  15.576  -4.604  1.00  0.00     0.000 C 
BRANCH  23  24
ATOM     24  C   UNL     1      11.646  14.620  -3.628  1.00  0.00    -0.000 C 
BRANCH  24  25
ATOM     25  C   UNL     1      10.738  13.461  -3.178  1.00  0.00    -0.000 C 
BRANCH  25  26
ATOM     26  C   UNL     1      10.370  13.530  -1.685  1.00  0.00    -0.000 C 
BRANCH  26  27
ATOM     27  C   UNL     1      11.524  13.922  -0.744  1.00  0.00    -0.000 C 
BRANCH  27  28
ATOM     28  C   UNL     1      11.168  15.099   0.181  1.00  0.00    -0.000 C 
BRANCH  28  29
ATOM     29  C   UNL     1      11.027  14.670   1.651  1.00  0.00    -0.000 C 
BRANCH  29  30
ATOM     30  C   UNL     1       9.636  14.090   1.966  1.00  0.00    -0.000 C 
BRANCH  30  31
ATOM     31  C   UNL     1       8.566  15.182   2.123  1.00  0.00    -0.003 C 
ATOM     32  C   UNL     1       9.155  16.592   2.088  1.00  0.00     0.004 C 
ENDBRANCH  30  31
ENDBRANCH  29  30
ENDBRANCH  28  29
ENDBRANCH  27  28
ENDBRANCH  26  27
ENDBRANCH  25  26
ENDBRANCH  24  25
ENDBRANCH  23  24
ENDBRANCH  22  23
ENDBRANCH  21  22
ENDBRANCH  20  21
ENDBRANCH  19  20
ENDBRANCH  18  19
ENDBRANCH   1  18
TORSDOF 28
ENDMDL
MODEL 9
REMARK VINA RESULT:    12.616      1.001      2.637
REMARK INTER + INTRA:          31.945
REMARK INTER:                  33.660
REMARK INTRA:                  -1.715
REMARK UNBOUND:                -1.321
REMARK SMILES CCCCCCCCCCCCCCCCCCCCCCCCCCCCCC(=O)[O-]
REMARK SMILES IDX 16 1 17 2 18 3 19 4 20 5 21 6 22 7 23 8 24 9 25 10 26 11
REMARK SMILES IDX 27 12 28 13 29 14 30 15 31 16 32 17 15 18 14 19 13 20 12 21
REMARK SMILES IDX 11 22 10 23 9 24 8 25 7 26 6 27 5 28 4 29 3 30 2 31 1 32
REMARK H PARENT
REMARK Flexibility Score: inf
ROOT
ATOM      1  C   UNL     1      12.709  17.186  -6.650  1.00  0.00     0.000 C 
ENDROOT
BRANCH   1   2
ATOM      2  C   UNL     1      13.871  16.392  -6.033  1.00  0.00     0.000 C 
BRANCH   2   3
ATOM      3  C   UNL     1      15.026  16.241  -7.030  1.00  0.00     0.000 C 
BRANCH   3   4
ATOM      4  C   UNL     1      14.750  15.104  -8.026  1.00  0.00     0.000 C 
BRANCH   4   5
ATOM      5  C   UNL     1      15.312  15.390  -9.427  1.00  0.00     0.000 C 
BRANCH   5   6
ATOM      6  C   UNL     1      14.569  14.630 -10.536  1.00  0.00     0.000 C 
BRANCH   6   7
ATOM      7  C   UNL     1      15.126  14.994 -11.918  1.00  0.00     0.000 C 
BRANCH   7   8
ATOM      8  C   UNL     1      16.071  13.902 -12.441  1.00  0.00     0.000 C 
BRANCH   8   9
ATOM      9  C   UNL     1      16.879  14.350 -13.670  1.00  0.00     0.000 C 
BRANCH   9  10
ATOM     10  C   UNL     1      18.408  14.370 -13.475  1.00  0.00     0.000 C 
BRANCH  10  11
ATOM     11  C   UNL     1      18.954  15.703 -12.920  1.00  0.00     0.000 C 
BRANCH  11  12
ATOM     12  C   UNL     1      18.168  16.925 -13.431  1.00  0.00     0.000 C 
BRANCH  12  13
ATOM     13  C   UNL     1      18.088  18.065 -12.400  1.00  0.00     0.006 C 
BRANCH  13  14
ATOM     14  C   UNL     1      19.380  18.897 -12.287  1.00  0.00     0.053 C 
BRANCH  14  15
ATOM     15  C   UNL     1      19.121  20.372 -12.304  1.00  0.00     0.041 C 
ATOM     16  O   UNL     1      19.927  21.167 -11.749  1.00  0.00    -0.550 OA
ATOM     17  O   UNL     1      18.010  20.877 -12.969  1.00  0.00    -0.550 OA
ENDBRANCH  14  15
ENDBRANCH  13  14
ENDBRANCH  12  13
ENDBRANCH  11  12
ENDBRANCH  10  11
ENDBRANCH   9  10
ENDBRANCH   8   9
ENDBRANCH   7   8
ENDBRANCH   6   7
ENDBRANCH   5   6
ENDBRANCH   4   5
ENDBRANCH   3   4
ENDBRANCH   2   3
ENDBRANCH   1   2
BRANCH   1  18
ATOM     18  C   UNL     1      11.334  16.701  -6.144  1.00  0.00     0.000 C 
BRANCH  18  19
ATOM     19  C   UNL     1      11.399  15.904  -4.830  1.00  0.00     0.000 C 
BRANCH  19  20
ATOM     20  C   UNL     1      10.833  14.481  -4.967  1.00  0.00     0.000 C 
BRANCH  20  21
ATOM     21  C   UNL     1      11.671  13.433  -4.215  1.00  0.00     0.000 C 
BRANCH  21  22
ATOM     22  C   UNL     1      11.018  12.979  -2.900  1.00  0.00     0.000 C 
BRANCH  22  23
ATOM     23  C   UNL     1      11.754  13.573  -1.688  1.00  0.00     0.000 C 
BRANCH  23  24
ATOM     24  C   UNL     1      10.851  13.693  -0.448  1.00  0.00    -0.000 C 
BRANCH  24  25
ATOM     25  C   UNL     1       9.383  13.977  -0.815  1.00  0.00    -0.000 C 
BRANCH  25  26
ATOM     26  C   UNL     1       8.477  14.146   0.418  1.00  0.00    -0.000 C 
BRANCH  26  27
ATOM     27  C   UNL     1       9.158  14.767   1.651  1.00  0.00    -0.000 C 
BRANCH  27  28
ATOM     28  C   UNL     1       9.139  16.306   1.634  1.00  0.00    -0.000 C 
BRANCH  28  29
ATOM     29  C   UNL     1      10.463  16.915   2.125  1.00  0.00    -0.000 C 
BRANCH  29  30
ATOM     30  C   UNL     1      11.673  16.446   1.296  1.00  0.00    -0.000 C 
BRANCH  30  31
ATOM     31  C   UNL     1      12.666  15.617   2.124  1.00  0.00    -0.003 C 
ATOM     32  C   UNL     1      12.672  14.140   1.731  1.00  0.00     0.004 C 
ENDBRANCH  30  31
ENDBRANCH  29  30
ENDBRANCH  28  29
ENDBRANCH  27  28
ENDBRANCH  26  27
ENDBRANCH  25  26
ENDBRANCH  24  25
ENDBRANCH  23  24
ENDBRANCH  22  23
ENDBRANCH  21  22
ENDBRANCH  20  21
ENDBRANCH  19  20
ENDBRANCH  18  19
ENDBRANCH   1  18
TORSDOF 28
ENDMDL
