MODEL 1
REMARK VINA RESULT:    -5.350      0.000      0.000
REMARK INTER + INTRA:          -5.754
REMARK INTER:                  -5.663
REMARK INTRA:                  -0.091
REMARK UNBOUND:                -0.091
REMARK SMILES C=C(C)[C@@H]1CC=C(C)C(=O)C1
REMARK SMILES IDX 8 1 7 2 6 3 5 4 4 5 11 6 9 7 10 8 2 9 1 10 3 11
REMARK H PARENT
REMARK Flexibility Score: inf
ROOT
ATOM      1  C   UNL     1      -9.104  -0.176   9.802  1.00  0.00     0.048 C 
ATOM      2  C   UNL     1      -8.167  -1.263   9.350  1.00  0.00    -0.012 C 
ATOM      3  C   UNL     1      -7.489  -1.982  10.260  1.00  0.00    -0.019 C 
ATOM      4  C   UNL     1      -6.552  -3.092   9.864  1.00  0.00     0.036 C 
ATOM      5  C   UNL     1      -5.876  -2.793   8.512  1.00  0.00     0.025 C 
ATOM      6  C   UNL     1      -6.939  -2.513   7.435  1.00  0.00     0.089 C 
ATOM      7  C   UNL     1      -7.902  -1.457   7.902  1.00  0.00     0.158 C 
ATOM      8  O   UNL     1      -8.511  -0.759   7.047  1.00  0.00    -0.295 OA
ENDROOT
BRANCH   5   9
ATOM      9  C   UNL     1      -4.933  -3.914   8.095  1.00  0.00    -0.077 C 
ATOM     10  C   UNL     1      -3.778  -4.136   8.745  1.00  0.00     0.008 C 
ATOM     11  C   UNL     1      -5.286  -4.802   6.929  1.00  0.00     0.039 C 
ENDBRANCH   5   9
TORSDOF 1
ENDMDL
MODEL 2
REMARK VINA RESULT:    -5.332      1.855      4.687
REMARK INTER + INTRA:          -5.735
REMARK INTER:                  -5.637
REMARK INTRA:                  -0.098
REMARK UNBOUND:                -0.091
REMARK SMILES C=C(C)[C@@H]1CC=C(C)C(=O)C1
REMARK SMILES IDX 8 1 7 2 6 3 5 4 4 5 11 6 9 7 10 8 2 9 1 10 3 11
REMARK H PARENT
REMARK Flexibility Score: inf
ROOT
ATOM      1  C   UNL     1      -4.991  -4.509   7.235  1.00  0.00     0.048 C 
ATOM      2  C   UNL     1      -6.060  -3.571   7.724  1.00  0.00    -0.012 C 
ATOM      3  C   UNL     1      -6.777  -2.856   6.839  1.00  0.00    -0.019 C 
ATOM      4  C   UNL     1      -7.870  -1.916   7.273  1.00  0.00     0.036 C 
ATOM      5  C   UNL     1      -7.550  -1.283   8.641  1.00  0.00     0.025 C 
ATOM      6  C   UNL     1      -7.276  -2.382   9.685  1.00  0.00     0.089 C 
ATOM      7  C   UNL     1      -6.237  -3.345   9.180  1.00  0.00     0.158 C 
ATOM      8  O   UNL     1      -5.542  -3.989  10.011  1.00  0.00    -0.295 OA
ENDROOT
BRANCH   5   9
ATOM      9  C   UNL     1      -8.653  -0.338   9.096  1.00  0.00    -0.077 C 
ATOM     10  C   UNL     1      -8.719   0.102  10.364  1.00  0.00     0.008 C 
ATOM     11  C   UNL     1      -9.703   0.125   8.118  1.00  0.00     0.039 C 
ENDBRANCH   5   9
TORSDOF 1
ENDMDL
MODEL 3
REMARK VINA RESULT:    -5.244      1.723      2.090
REMARK INTER + INTRA:          -5.642
REMARK INTER:                  -5.545
REMARK INTRA:                  -0.098
REMARK UNBOUND:                -0.091
REMARK SMILES C=C(C)[C@@H]1CC=C(C)C(=O)C1
REMARK SMILES IDX 8 1 7 2 6 3 5 4 4 5 11 6 9 7 10 8 2 9 1 10 3 11
REMARK H PARENT
REMARK Flexibility Score: inf
ROOT
ATOM      1  C   UNL     1      -8.731   0.045  10.458  1.00  0.00     0.048 C 
ATOM      2  C   UNL     1      -7.696  -0.822   9.794  1.00  0.00    -0.012 C 
ATOM      3  C   UNL     1      -8.076  -1.748   8.897  1.00  0.00    -0.019 C 
ATOM      4  C   UNL     1      -7.081  -2.630   8.191  1.00  0.00     0.036 C 
ATOM      5  C   UNL     1      -5.869  -2.934   9.092  1.00  0.00     0.025 C 
ATOM      6  C   UNL     1      -5.235  -1.622   9.592  1.00  0.00     0.089 C 
ATOM      7  C   UNL     1      -6.276  -0.736  10.218  1.00  0.00     0.158 C 
ATOM      8  O   UNL     1      -5.923   0.108  11.084  1.00  0.00    -0.295 OA
ENDROOT
BRANCH   5   9
ATOM      9  C   UNL     1      -4.849  -3.817   8.385  1.00  0.00    -0.077 C 
ATOM     10  C   UNL     1      -3.601  -3.963   8.860  1.00  0.00     0.008 C 
ATOM     11  C   UNL     1      -5.230  -4.549   7.123  1.00  0.00     0.039 C 
ENDBRANCH   5   9
TORSDOF 1
ENDMDL
MODEL 4
REMARK VINA RESULT:    -5.187      1.627      2.471
REMARK INTER + INTRA:          -5.582
REMARK INTER:                  -5.491
REMARK INTRA:                  -0.090
REMARK UNBOUND:                -0.091
REMARK SMILES C=C(C)[C@@H]1CC=C(C)C(=O)C1
REMARK SMILES IDX 8 1 7 2 6 3 5 4 4 5 11 6 9 7 10 8 2 9 1 10 3 11
REMARK H PARENT
REMARK Flexibility Score: inf
ROOT
ATOM      1  C   UNL     1      -8.685  -1.101   6.117  1.00  0.00     0.048 C 
ATOM      2  C   UNL     1      -7.539  -1.734   6.858  1.00  0.00    -0.012 C 
ATOM      3  C   UNL     1      -7.148  -2.981   6.544  1.00  0.00    -0.019 C 
ATOM      4  C   UNL     1      -5.997  -3.656   7.241  1.00  0.00     0.036 C 
ATOM      5  C   UNL     1      -5.892  -3.201   8.710  1.00  0.00     0.025 C 
ATOM      6  C   UNL     1      -5.804  -1.666   8.787  1.00  0.00     0.089 C 
ATOM      7  C   UNL     1      -6.924  -1.030   8.012  1.00  0.00     0.158 C 
ATOM      8  O   UNL     1      -7.313   0.125   8.330  1.00  0.00    -0.295 OA
ENDROOT
BRANCH   5   9
ATOM      9  C   UNL     1      -4.725  -3.869   9.424  1.00  0.00    -0.077 C 
ATOM     10  C   UNL     1      -4.853  -4.356  10.670  1.00  0.00     0.008 C 
ATOM     11  C   UNL     1      -3.390  -3.993   8.735  1.00  0.00     0.039 C 
ENDBRANCH   5   9
TORSDOF 1
ENDMDL
MODEL 5
REMARK VINA RESULT:    -5.145      1.707      4.328
REMARK INTER + INTRA:          -5.537
REMARK INTER:                  -5.446
REMARK INTRA:                  -0.091
REMARK UNBOUND:                -0.091
REMARK SMILES C=C(C)[C@@H]1CC=C(C)C(=O)C1
REMARK SMILES IDX 8 1 7 2 6 3 5 4 4 5 11 6 9 7 10 8 2 9 1 10 3 11
REMARK H PARENT
REMARK Flexibility Score: inf
ROOT
ATOM      1  C   UNL     1      -3.761  -4.256   8.798  1.00  0.00     0.048 C 
ATOM      2  C   UNL     1      -4.871  -3.243   8.725  1.00  0.00    -0.012 C 
ATOM      3  C   UNL     1      -4.891  -2.211   9.586  1.00  0.00    -0.019 C 
ATOM      4  C   UNL     1      -5.967  -1.159   9.546  1.00  0.00     0.036 C 
ATOM      5  C   UNL     1      -7.311  -1.756   9.083  1.00  0.00     0.025 C 
ATOM      6  C   UNL     1      -7.139  -2.468   7.729  1.00  0.00     0.089 C 
ATOM      7  C   UNL     1      -6.002  -3.451   7.787  1.00  0.00     0.158 C 
ATOM      8  O   UNL     1      -6.003  -4.437   7.003  1.00  0.00    -0.295 OA
ENDROOT
BRANCH   5   9
ATOM      9  C   UNL     1      -8.406  -0.700   9.028  1.00  0.00    -0.077 C 
ATOM     10  C   UNL     1      -8.907  -0.153  10.149  1.00  0.00     0.008 C 
ATOM     11  C   UNL     1      -8.954  -0.248   7.699  1.00  0.00     0.039 C 
ENDBRANCH   5   9
TORSDOF 1
ENDMDL
MODEL 6
REMARK VINA RESULT:    -5.049      1.184      1.572
REMARK INTER + INTRA:          -5.436
REMARK INTER:                  -5.340
REMARK INTRA:                  -0.096
REMARK UNBOUND:                -0.091
REMARK SMILES C=C(C)[C@@H]1CC=C(C)C(=O)C1
REMARK SMILES IDX 8 1 7 2 6 3 5 4 4 5 11 6 9 7 10 8 2 9 1 10 3 11
REMARK H PARENT
REMARK Flexibility Score: inf
ROOT
ATOM      1  C   UNL     1      -8.949  -0.153   7.958  1.00  0.00     0.048 C 
ATOM      2  C   UNL     1      -7.972  -1.236   8.325  1.00  0.00    -0.012 C 
ATOM      3  C   UNL     1      -7.443  -1.268   9.559  1.00  0.00    -0.019 C 
ATOM      4  C   UNL     1      -6.474  -2.339   9.985  1.00  0.00     0.036 C 
ATOM      5  C   UNL     1      -5.605  -2.805   8.800  1.00  0.00     0.025 C 
ATOM      6  C   UNL     1      -6.497  -3.255   7.629  1.00  0.00     0.089 C 
ATOM      7  C   UNL     1      -7.503  -2.191   7.289  1.00  0.00     0.158 C 
ATOM      8  O   UNL     1      -7.972  -2.140   6.121  1.00  0.00    -0.295 OA
ENDROOT
BRANCH   5   9
ATOM      9  C   UNL     1      -4.627  -3.897   9.215  1.00  0.00    -0.077 C 
ATOM     10  C   UNL     1      -3.773  -4.443   8.332  1.00  0.00     0.008 C 
ATOM     11  C   UNL     1      -4.604  -4.389  10.639  1.00  0.00     0.039 C 
ENDBRANCH   5   9
TORSDOF 1
ENDMDL
MODEL 7
REMARK VINA RESULT:    -4.975      1.930      4.555
REMARK INTER + INTRA:          -5.357
REMARK INTER:                  -5.263
REMARK INTRA:                  -0.094
REMARK UNBOUND:                -0.091
REMARK SMILES C=C(C)[C@@H]1CC=C(C)C(=O)C1
REMARK SMILES IDX 8 1 7 2 6 3 5 4 4 5 11 6 9 7 10 8 2 9 1 10 3 11
REMARK H PARENT
REMARK Flexibility Score: inf
ROOT
ATOM      1  C   UNL     1      -3.748  -4.374   8.747  1.00  0.00     0.048 C 
ATOM      2  C   UNL     1      -5.010  -3.624   8.417  1.00  0.00    -0.012 C 
ATOM      3  C   UNL     1      -5.740  -3.984   7.347  1.00  0.00    -0.019 C 
ATOM      4  C   UNL     1      -7.020  -3.279   6.981  1.00  0.00     0.036 C 
ATOM      5  C   UNL     1      -6.962  -1.788   7.364  1.00  0.00     0.025 C 
ATOM      6  C   UNL     1      -6.616  -1.634   8.857  1.00  0.00     0.089 C 
ATOM      7  C   UNL     1      -5.379  -2.417   9.198  1.00  0.00     0.158 C 
ATOM      8  O   UNL     1      -4.676  -2.058  10.180  1.00  0.00    -0.295 OA
ENDROOT
BRANCH   5   9
ATOM      9  C   UNL     1      -8.255  -1.066   7.009  1.00  0.00    -0.077 C 
ATOM     10  C   UNL     1      -8.772  -1.125   5.770  1.00  0.00     0.008 C 
ATOM     11  C   UNL     1      -8.983  -0.261   8.055  1.00  0.00     0.039 C 
ENDBRANCH   5   9
TORSDOF 1
ENDMDL
MODEL 8
REMARK VINA RESULT:    -4.842      1.496      2.387
REMARK INTER + INTRA:          -5.217
REMARK INTER:                  -5.122
REMARK INTRA:                  -0.094
REMARK UNBOUND:                -0.091
REMARK SMILES C=C(C)[C@@H]1CC=C(C)C(=O)C1
REMARK SMILES IDX 8 1 7 2 6 3 5 4 4 5 11 6 9 7 10 8 2 9 1 10 3 11
REMARK H PARENT
REMARK Flexibility Score: inf
ROOT
ATOM      1  C   UNL     1      -9.431  -0.219   7.135  1.00  0.00     0.048 C 
ATOM      2  C   UNL     1      -8.241  -0.919   7.731  1.00  0.00    -0.012 C 
ATOM      3  C   UNL     1      -7.546  -1.802   6.994  1.00  0.00    -0.019 C 
ATOM      4  C   UNL     1      -6.338  -2.518   7.536  1.00  0.00     0.036 C 
ATOM      5  C   UNL     1      -6.472  -2.770   9.050  1.00  0.00     0.025 C 
ATOM      6  C   UNL     1      -6.747  -1.446   9.788  1.00  0.00     0.089 C 
ATOM      7  C   UNL     1      -7.911  -0.724   9.166  1.00  0.00     0.158 C 
ATOM      8  O   UNL     1      -8.582   0.078   9.868  1.00  0.00    -0.295 OA
ENDROOT
BRANCH   5   9
ATOM      9  C   UNL     1      -5.251  -3.484   9.613  1.00  0.00    -0.077 C 
ATOM     10  C   UNL     1      -4.015  -3.227   9.149  1.00  0.00     0.008 C 
ATOM     11  C   UNL     1      -5.411  -4.503  10.711  1.00  0.00     0.039 C 
ENDBRANCH   5   9
TORSDOF 1
ENDMDL
MODEL 9
REMARK VINA RESULT:    -4.023      2.104      3.483
REMARK INTER + INTRA:          -4.350
REMARK INTER:                  -4.255
REMARK INTRA:                  -0.095
REMARK UNBOUND:                -0.091
REMARK SMILES C=C(C)[C@@H]1CC=C(C)C(=O)C1
REMARK SMILES IDX 8 1 7 2 6 3 5 4 4 5 11 6 9 7 10 8 2 9 1 10 3 11
REMARK H PARENT
REMARK Flexibility Score: inf
ROOT
ATOM      1  C   UNL     1      -9.369  -0.950   5.112  1.00  0.00     0.048 C 
ATOM      2  C   UNL     1      -8.618  -1.028   6.413  1.00  0.00    -0.012 C 
ATOM      3  C   UNL     1      -8.775  -0.063   7.335  1.00  0.00    -0.019 C 
ATOM      4  C   UNL     1      -8.062  -0.101   8.661  1.00  0.00     0.036 C 
ATOM      5  C   UNL     1      -6.682  -0.774   8.530  1.00  0.00     0.025 C 
ATOM      6  C   UNL     1      -6.828  -2.173   7.904  1.00  0.00     0.089 C 
ATOM      7  C   UNL     1      -7.615  -2.103   6.625  1.00  0.00     0.158 C 
ATOM      8  O   UNL     1      -7.440  -2.989   5.747  1.00  0.00    -0.295 OA
ENDROOT
BRANCH   5   9
ATOM      9  C   UNL     1      -5.953  -0.828   9.866  1.00  0.00    -0.077 C 
ATOM     10  C   UNL     1      -6.182   0.084  10.826  1.00  0.00     0.008 C 
ATOM     11  C   UNL     1      -4.950  -1.921  10.135  1.00  0.00     0.039 C 
ENDBRANCH   5   9
TORSDOF 1
ENDMDL
