MODEL 1
REMARK VINA RESULT:    -4.155      0.000      0.000
REMARK INTER + INTRA:          -4.975
REMARK INTER:                  -4.884
REMARK INTRA:                  -0.091
REMARK UNBOUND:                -0.091
REMARK SMILES O=C([O-])CCC(=O)[O-]
REMARK SMILES IDX 4 1 2 2 1 3 3 4 5 5 6 6 7 7 8 8
REMARK H PARENT
REMARK Flexibility Score: inf
ROOT
ATOM      1  C   UNL     1      10.122   3.241  -1.258  1.00  0.00     0.059 C 
ENDROOT
BRANCH   1   2
ATOM      2  C   UNL     1      10.377   3.160  -2.732  1.00  0.00     0.042 C 
ATOM      3  O   UNL     1      11.519   2.847  -3.161  1.00  0.00    -0.550 OA
ATOM      4  O   UNL     1       9.366   3.469  -3.633  1.00  0.00    -0.550 OA
ENDBRANCH   1   2
BRANCH   1   5
ATOM      5  C   UNL     1       9.096   4.330  -0.922  1.00  0.00     0.059 C 
BRANCH   5   6
ATOM      6  C   UNL     1       9.719   5.692  -0.917  1.00  0.00     0.042 C 
ATOM      7  O   UNL     1      10.946   5.828  -0.666  1.00  0.00    -0.550 OA
ATOM      8  O   UNL     1       8.954   6.807  -1.230  1.00  0.00    -0.550 OA
ENDBRANCH   5   6
ENDBRANCH   1   5
TORSDOF 3
ENDMDL
MODEL 2
REMARK VINA RESULT:    -4.134      0.066      3.341
REMARK INTER + INTRA:          -4.950
REMARK INTER:                  -4.858
REMARK INTRA:                  -0.092
REMARK UNBOUND:                -0.091
REMARK SMILES O=C([O-])CCC(=O)[O-]
REMARK SMILES IDX 4 1 2 2 1 3 3 4 5 5 6 6 7 7 8 8
REMARK H PARENT
REMARK Flexibility Score: inf
ROOT
ATOM      1  C   UNL     1       9.114   4.356  -0.933  1.00  0.00     0.059 C 
ENDROOT
BRANCH   1   2
ATOM      2  C   UNL     1       9.768   5.703  -0.971  1.00  0.00     0.042 C 
ATOM      3  O   UNL     1      10.977   5.829  -0.640  1.00  0.00    -0.550 OA
ATOM      4  O   UNL     1       9.033   6.825  -1.332  1.00  0.00    -0.550 OA
ENDBRANCH   1   2
BRANCH   1   5
ATOM      5  C   UNL     1      10.100   3.239  -1.293  1.00  0.00     0.059 C 
BRANCH   5   6
ATOM      6  C   UNL     1      10.383   3.206  -2.764  1.00  0.00     0.042 C 
ATOM      7  O   UNL     1      11.519   2.861  -3.184  1.00  0.00    -0.550 OA
ATOM      8  O   UNL     1       9.380   3.518  -3.672  1.00  0.00    -0.550 OA
ENDBRANCH   5   6
ENDBRANCH   1   5
TORSDOF 3
ENDMDL
MODEL 3
REMARK VINA RESULT:    -4.062      0.844      3.586
REMARK INTER + INTRA:          -4.865
REMARK INTER:                  -4.715
REMARK INTRA:                  -0.150
REMARK UNBOUND:                -0.091
REMARK SMILES O=C([O-])CCC(=O)[O-]
REMARK SMILES IDX 4 1 2 2 1 3 3 4 5 5 6 6 7 7 8 8
REMARK H PARENT
REMARK Flexibility Score: inf
ROOT
ATOM      1  C   UNL     1      10.601   4.632  -0.656  1.00  0.00     0.059 C 
ENDROOT
BRANCH   1   2
ATOM      2  C   UNL     1      10.088   5.874  -1.320  1.00  0.00     0.042 C 
ATOM      3  O   UNL     1       8.921   6.285  -1.078  1.00  0.00    -0.550 OA
ATOM      4  O   UNL     1      10.880   6.554  -2.235  1.00  0.00    -0.550 OA
ENDBRANCH   1   2
BRANCH   1   5
ATOM      5  C   UNL     1       9.931   3.373  -1.220  1.00  0.00     0.059 C 
BRANCH   5   6
ATOM      6  C   UNL     1      10.268   3.169  -2.665  1.00  0.00     0.042 C 
ATOM      7  O   UNL     1       9.392   3.347  -3.552  1.00  0.00    -0.550 OA
ATOM      8  O   UNL     1      11.561   2.822  -3.035  1.00  0.00    -0.550 OA
ENDBRANCH   5   6
ENDBRANCH   1   5
TORSDOF 3
ENDMDL
MODEL 4
REMARK VINA RESULT:    -4.045      1.677      3.455
REMARK INTER + INTRA:          -4.845
REMARK INTER:                  -4.709
REMARK INTRA:                  -0.136
REMARK UNBOUND:                -0.091
REMARK SMILES O=C([O-])CCC(=O)[O-]
REMARK SMILES IDX 4 1 2 2 1 3 3 4 5 5 6 6 7 7 8 8
REMARK H PARENT
REMARK Flexibility Score: inf
ROOT
ATOM      1  C   UNL     1       9.017   5.351  -2.711  1.00  0.00     0.059 C 
ENDROOT
BRANCH   1   2
ATOM      2  C   UNL     1      10.259   6.106  -2.348  1.00  0.00     0.042 C 
ATOM      3  O   UNL     1      10.627   6.178  -1.145  1.00  0.00    -0.550 OA
ATOM      4  O   UNL     1      10.989   6.763  -3.330  1.00  0.00    -0.550 OA
ENDBRANCH   1   2
BRANCH   1   5
ATOM      5  C   UNL     1       9.343   4.065  -3.479  1.00  0.00     0.059 C 
BRANCH   5   6
ATOM      6  C   UNL     1      10.308   3.203  -2.726  1.00  0.00     0.042 C 
ATOM      7  O   UNL     1      11.413   2.887  -3.242  1.00  0.00    -0.550 OA
ATOM      8  O   UNL     1      10.006   2.780  -1.438  1.00  0.00    -0.550 OA
ENDBRANCH   5   6
ENDBRANCH   1   5
TORSDOF 3
ENDMDL
MODEL 5
REMARK VINA RESULT:    -4.039      1.629      1.827
REMARK INTER + INTRA:          -4.839
REMARK INTER:                  -4.701
REMARK INTRA:                  -0.138
REMARK UNBOUND:                -0.091
REMARK SMILES O=C([O-])CCC(=O)[O-]
REMARK SMILES IDX 4 1 2 2 1 3 3 4 5 5 6 6 7 7 8 8
REMARK H PARENT
REMARK Flexibility Score: inf
ROOT
ATOM      1  C   UNL     1       9.356   4.091  -3.450  1.00  0.00     0.059 C 
ENDROOT
BRANCH   1   2
ATOM      2  C   UNL     1      10.343   3.246  -2.705  1.00  0.00     0.042 C 
ATOM      3  O   UNL     1      11.436   2.926  -3.244  1.00  0.00    -0.550 OA
ATOM      4  O   UNL     1      10.041   2.778  -1.432  1.00  0.00    -0.550 OA
ENDBRANCH   1   2
BRANCH   1   5
ATOM      5  C   UNL     1       8.987   5.354  -2.663  1.00  0.00     0.059 C 
BRANCH   5   6
ATOM      6  C   UNL     1      10.205   6.121  -2.247  1.00  0.00     0.042 C 
ATOM      7  O   UNL     1      10.534   6.180  -1.033  1.00  0.00    -0.550 OA
ATOM      8  O   UNL     1      10.999   6.736  -3.206  1.00  0.00    -0.550 OA
ENDBRANCH   5   6
ENDBRANCH   1   5
TORSDOF 3
ENDMDL
MODEL 6
REMARK VINA RESULT:    -3.927      2.185      2.622
REMARK INTER + INTRA:          -4.706
REMARK INTER:                  -4.551
REMARK INTRA:                  -0.156
REMARK UNBOUND:                -0.091
REMARK SMILES O=C([O-])CCC(=O)[O-]
REMARK SMILES IDX 4 1 2 2 1 3 3 4 5 5 6 6 7 7 8 8
REMARK H PARENT
REMARK Flexibility Score: inf
ROOT
ATOM      1  C   UNL     1      10.869   3.288  -2.832  1.00  0.00     0.059 C 
ENDROOT
BRANCH   1   2
ATOM      2  C   UNL     1       9.985   3.643  -1.676  1.00  0.00     0.042 C 
ATOM      3  O   UNL     1      10.307   3.306  -0.506  1.00  0.00    -0.550 OA
ATOM      4  O   UNL     1       8.787   4.310  -1.895  1.00  0.00    -0.550 OA
ENDBRANCH   1   2
BRANCH   1   5
ATOM      5  C   UNL     1      10.999   4.451  -3.822  1.00  0.00     0.059 C 
BRANCH   5   6
ATOM      6  C   UNL     1      11.701   5.623  -3.208  1.00  0.00     0.042 C 
ATOM      7  O   UNL     1      12.936   5.568  -2.969  1.00  0.00    -0.550 OA
ATOM      8  O   UNL     1      10.999   6.790  -2.937  1.00  0.00    -0.550 OA
ENDBRANCH   5   6
ENDBRANCH   1   5
TORSDOF 3
ENDMDL
MODEL 7
REMARK VINA RESULT:    -3.898      2.383      2.866
REMARK INTER + INTRA:          -4.673
REMARK INTER:                  -4.526
REMARK INTRA:                  -0.147
REMARK UNBOUND:                -0.091
REMARK SMILES O=C([O-])CCC(=O)[O-]
REMARK SMILES IDX 4 1 2 2 1 3 3 4 5 5 6 6 7 7 8 8
REMARK H PARENT
REMARK Flexibility Score: inf
ROOT
ATOM      1  C   UNL     1      12.169   5.061  -2.954  1.00  0.00     0.059 C 
ENDROOT
BRANCH   1   2
ATOM      2  C   UNL     1      11.402   3.866  -2.475  1.00  0.00     0.042 C 
ATOM      3  O   UNL     1      11.271   2.858  -3.220  1.00  0.00    -0.550 OA
ATOM      4  O   UNL     1      10.797   3.881  -1.225  1.00  0.00    -0.550 OA
ENDBRANCH   1   2
BRANCH   1   5
ATOM      5  C   UNL     1      11.491   5.720  -4.161  1.00  0.00     0.059 C 
BRANCH   5   6
ATOM      6  C   UNL     1      10.296   6.525  -3.751  1.00  0.00     0.042 C 
ATOM      7  O   UNL     1      10.443   7.684  -3.280  1.00  0.00    -0.550 OA
ATOM      8  O   UNL     1       9.018   6.011  -3.927  1.00  0.00    -0.550 OA
ENDBRANCH   5   6
ENDBRANCH   1   5
TORSDOF 3
ENDMDL
MODEL 8
REMARK VINA RESULT:    -3.881      2.399      2.981
REMARK INTER + INTRA:          -4.653
REMARK INTER:                  -4.477
REMARK INTRA:                  -0.176
REMARK UNBOUND:                -0.091
REMARK SMILES O=C([O-])CCC(=O)[O-]
REMARK SMILES IDX 4 1 2 2 1 3 3 4 5 5 6 6 7 7 8 8
REMARK H PARENT
REMARK Flexibility Score: inf
ROOT
ATOM      1  C   UNL     1       9.182   3.885  -4.019  1.00  0.00     0.059 C 
ENDROOT
BRANCH   1   2
ATOM      2  C   UNL     1      10.069   3.414  -2.908  1.00  0.00     0.042 C 
ATOM      3  O   UNL     1       9.706   3.546  -1.709  1.00  0.00    -0.550 OA
ATOM      4  O   UNL     1      11.313   2.867  -3.194  1.00  0.00    -0.550 OA
ENDBRANCH   1   2
BRANCH   1   5
ATOM      5  C   UNL     1       9.074   5.414  -4.046  1.00  0.00     0.059 C 
BRANCH   5   6
ATOM      6  C   UNL     1      10.414   6.058  -4.231  1.00  0.00     0.042 C 
ATOM      7  O   UNL     1      11.088   5.832  -5.270  1.00  0.00    -0.550 OA
ATOM      8  O   UNL     1      10.900   6.940  -3.275  1.00  0.00    -0.550 OA
ENDBRANCH   5   6
ENDBRANCH   1   5
TORSDOF 3
ENDMDL
MODEL 9
REMARK VINA RESULT:    -3.865      2.424      3.780
REMARK INTER + INTRA:          -4.634
REMARK INTER:                  -4.490
REMARK INTRA:                  -0.144
REMARK UNBOUND:                -0.091
REMARK SMILES O=C([O-])CCC(=O)[O-]
REMARK SMILES IDX 4 1 2 2 1 3 3 4 5 5 6 6 7 7 8 8
REMARK H PARENT
REMARK Flexibility Score: inf
ROOT
ATOM      1  C   UNL     1      11.617   5.691  -4.189  1.00  0.00     0.059 C 
ENDROOT
BRANCH   1   2
ATOM      2  C   UNL     1      10.366   6.470  -3.917  1.00  0.00     0.042 C 
ATOM      3  O   UNL     1       9.252   6.038  -4.317  1.00  0.00    -0.550 OA
ATOM      4  O   UNL     1      10.434   7.691  -3.259  1.00  0.00    -0.550 OA
ENDBRANCH   1   2
BRANCH   1   5
ATOM      5  C   UNL     1      12.197   5.089  -2.904  1.00  0.00     0.059 C 
BRANCH   5   6
ATOM      6  C   UNL     1      11.407   3.902  -2.445  1.00  0.00     0.042 C 
ATOM      7  O   UNL     1      11.331   2.873  -3.168  1.00  0.00    -0.550 OA
ATOM      8  O   UNL     1      10.788   3.917  -1.202  1.00  0.00    -0.550 OA
ENDBRANCH   5   6
ENDBRANCH   1   5
TORSDOF 3
ENDMDL
