MODEL 1
REMARK VINA RESULT:    -5.500      0.000      0.000
REMARK INTER + INTRA:          -6.156
REMARK INTER:                  -5.822
REMARK INTRA:                  -0.335
REMARK UNBOUND:                -0.335
REMARK SMILES CC1=C[C@H]2C(=C(C)CC[C@@H]2C(C)C)CC1
REMARK SMILES IDX 1 1 2 2 3 3 4 4 10 5 9 6 8 7 6 8 5 9 14 10 15 11 7 12 11 13
REMARK SMILES IDX 12 14 13 15
REMARK H PARENT
REMARK Flexibility Score: inf
ROOT
ATOM      1  C   UNL     1     133.113 137.903 135.215  1.00  0.00     0.039 C 
ATOM      2  C   UNL     1     133.944 138.167 133.989  1.00  0.00    -0.076 C 
ATOM      3  C   UNL     1     135.173 138.720 134.138  1.00  0.00    -0.020 C 
ATOM      4  C   UNL     1     136.112 138.981 132.968  1.00  0.00     0.041 C 
ATOM      5  C   UNL     1     137.140 140.126 133.289  1.00  0.00     0.003 C 
ATOM      6  C   UNL     1     137.423 140.978 132.032  1.00  0.00     0.009 C 
ATOM      7  C   UNL     1     136.124 141.473 131.411  1.00  0.00     0.031 C 
ATOM      8  C   UNL     1     135.252 140.319 130.997  1.00  0.00    -0.073 C 
ATOM      9  C   UNL     1     135.266 139.166 131.715  1.00  0.00    -0.064 C 
ATOM     10  C   UNL     1     134.314 138.019 131.464  1.00  0.00     0.036 C 
ATOM     11  C   UNL     1     133.314 137.945 132.623  1.00  0.00     0.035 C 
ATOM     12  C   UNL     1     134.321 140.518 129.824  1.00  0.00     0.039 C 
ENDROOT
BRANCH   5  13
ATOM     13  C   UNL     1     138.482 139.565 133.884  1.00  0.00    -0.013 C 
ATOM     14  C   UNL     1     138.798 138.140 133.392  1.00  0.00     0.007 C 
ATOM     15  C   UNL     1     138.482 139.557 135.426  1.00  0.00     0.007 C 
ENDBRANCH   5  13
TORSDOF 1
ENDMDL
MODEL 2
REMARK VINA RESULT:    -5.496      4.269      6.770
REMARK INTER + INTRA:          -6.152
REMARK INTER:                  -5.816
REMARK INTRA:                  -0.336
REMARK UNBOUND:                -0.335
REMARK SMILES CC1=C[C@H]2C(=C(C)CC[C@@H]2C(C)C)CC1
REMARK SMILES IDX 1 1 2 2 3 3 4 4 10 5 9 6 8 7 6 8 5 9 14 10 15 11 7 12 11 13
REMARK SMILES IDX 12 14 13 15
REMARK H PARENT
REMARK Flexibility Score: inf
ROOT
ATOM      1  C   UNL     1     140.551 135.867 135.343  1.00  0.00     0.039 C 
ATOM      2  C   UNL     1     139.738 135.615 134.103  1.00  0.00    -0.076 C 
ATOM      3  C   UNL     1     138.497 135.085 134.230  1.00  0.00    -0.020 C 
ATOM      4  C   UNL     1     137.575 134.840 133.043  1.00  0.00     0.041 C 
ATOM      5  C   UNL     1     136.519 133.715 133.349  1.00  0.00     0.003 C 
ATOM      6  C   UNL     1     136.243 132.864 132.089  1.00  0.00     0.009 C 
ATOM      7  C   UNL     1     137.544 132.343 131.493  1.00  0.00     0.031 C 
ATOM      8  C   UNL     1     138.446 133.479 131.092  1.00  0.00    -0.073 C 
ATOM      9  C   UNL     1     138.440 134.635 131.807  1.00  0.00    -0.064 C 
ATOM     10  C   UNL     1     139.418 135.763 131.571  1.00  0.00     0.036 C 
ATOM     11  C   UNL     1     140.397 135.821 132.748  1.00  0.00     0.035 C 
ATOM     12  C   UNL     1     139.394 133.259 129.938  1.00  0.00     0.039 C 
ENDROOT
BRANCH   5  13
ATOM     13  C   UNL     1     135.177 134.303 133.917  1.00  0.00    -0.013 C 
ATOM     14  C   UNL     1     134.913 135.743 133.441  1.00  0.00     0.007 C 
ATOM     15  C   UNL     1     135.135 134.286 135.458  1.00  0.00     0.007 C 
ENDBRANCH   5  13
TORSDOF 1
ENDMDL
MODEL 3
REMARK VINA RESULT:    -5.494      3.179      4.816
REMARK INTER + INTRA:          -6.150
REMARK INTER:                  -5.813
REMARK INTRA:                  -0.337
REMARK UNBOUND:                -0.335
REMARK SMILES CC1=C[C@H]2C(=C(C)CC[C@@H]2C(C)C)CC1
REMARK SMILES IDX 1 1 2 2 3 3 4 4 10 5 9 6 8 7 6 8 5 9 14 10 15 11 7 12 11 13
REMARK SMILES IDX 12 14 13 15
REMARK H PARENT
REMARK Flexibility Score: inf
ROOT
ATOM      1  C   UNL     1     137.897 140.609 135.349  1.00  0.00     0.039 C 
ATOM      2  C   UNL     1     138.140 139.796 134.107  1.00  0.00    -0.076 C 
ATOM      3  C   UNL     1     138.641 138.543 134.232  1.00  0.00    -0.020 C 
ATOM      4  C   UNL     1     138.875 137.620 133.044  1.00  0.00     0.041 C 
ATOM      5  C   UNL     1     139.973 136.538 133.353  1.00  0.00     0.003 C 
ATOM      6  C   UNL     1     140.826 136.249 132.098  1.00  0.00     0.009 C 
ATOM      7  C   UNL     1     141.381 137.540 131.512  1.00  0.00     0.031 C 
ATOM      8  C   UNL     1     140.269 138.469 131.107  1.00  0.00    -0.073 C 
ATOM      9  C   UNL     1     139.108 138.487 131.813  1.00  0.00    -0.064 C 
ATOM     10  C   UNL     1     138.004 139.490 131.573  1.00  0.00     0.036 C 
ATOM     11  C   UNL     1     137.959 140.466 132.754  1.00  0.00     0.035 C 
ATOM     12  C   UNL     1     140.519 139.417 129.958  1.00  0.00     0.039 C 
ENDROOT
BRANCH   5  13
ATOM     13  C   UNL     1     139.350 135.208 133.911  1.00  0.00    -0.013 C 
ATOM     14  C   UNL     1     137.899 134.991 133.442  1.00  0.00     0.007 C 
ATOM     15  C   UNL     1     139.377 135.148 135.451  1.00  0.00     0.007 C 
ENDBRANCH   5  13
TORSDOF 1
ENDMDL
MODEL 4
REMARK VINA RESULT:    -5.474      3.176      4.758
REMARK INTER + INTRA:          -6.129
REMARK INTER:                  -5.792
REMARK INTRA:                  -0.337
REMARK UNBOUND:                -0.335
REMARK SMILES CC1=C[C@H]2C(=C(C)CC[C@@H]2C(C)C)CC1
REMARK SMILES IDX 1 1 2 2 3 3 4 4 10 5 9 6 8 7 6 8 5 9 14 10 15 11 7 12 11 13
REMARK SMILES IDX 12 14 13 15
REMARK H PARENT
REMARK Flexibility Score: inf
ROOT
ATOM      1  C   UNL     1     135.788 133.107 135.315  1.00  0.00     0.039 C 
ATOM      2  C   UNL     1     135.542 133.933 134.083  1.00  0.00    -0.076 C 
ATOM      3  C   UNL     1     135.056 135.190 134.223  1.00  0.00    -0.020 C 
ATOM      4  C   UNL     1     134.820 136.125 133.045  1.00  0.00     0.041 C 
ATOM      5  C   UNL     1     133.736 137.216 133.373  1.00  0.00     0.003 C 
ATOM      6  C   UNL     1     132.873 137.524 132.129  1.00  0.00     0.009 C 
ATOM      7  C   UNL     1     132.300 136.244 131.537  1.00  0.00     0.031 C 
ATOM      8  C   UNL     1     133.399 135.308 131.113  1.00  0.00    -0.073 C 
ATOM      9  C   UNL     1     134.566 135.272 131.809  1.00  0.00    -0.064 C 
ATOM     10  C   UNL     1     135.657 134.260 131.550  1.00  0.00     0.036 C 
ATOM     11  C   UNL     1     135.703 133.273 132.722  1.00  0.00     0.035 C 
ATOM     12  C   UNL     1     133.129 134.372 129.960  1.00  0.00     0.039 C 
ENDROOT
BRANCH   5  13
ATOM     13  C   UNL     1     134.377 138.535 133.937  1.00  0.00    -0.013 C 
ATOM     14  C   UNL     1     135.827 138.738 133.461  1.00  0.00     0.007 C 
ATOM     15  C   UNL     1     134.360 138.584 135.478  1.00  0.00     0.007 C 
ENDBRANCH   5  13
TORSDOF 1
ENDMDL
MODEL 5
REMARK VINA RESULT:    -5.336      3.961      5.944
REMARK INTER + INTRA:          -5.983
REMARK INTER:                  -5.665
REMARK INTRA:                  -0.318
REMARK UNBOUND:                -0.335
REMARK SMILES CC1=C[C@H]2C(=C(C)CC[C@@H]2C(C)C)CC1
REMARK SMILES IDX 1 1 2 2 3 3 4 4 10 5 9 6 8 7 6 8 5 9 14 10 15 11 7 12 11 13
REMARK SMILES IDX 12 14 13 15
REMARK H PARENT
REMARK Flexibility Score: inf
ROOT
ATOM      1  C   UNL     1     132.892 134.475 129.761  1.00  0.00     0.039 C 
ATOM      2  C   UNL     1     133.646 134.972 130.964  1.00  0.00    -0.076 C 
ATOM      3  C   UNL     1     134.729 134.278 131.390  1.00  0.00    -0.020 C 
ATOM      4  C   UNL     1     135.590 134.723 132.564  1.00  0.00     0.041 C 
ATOM      5  C   UNL     1     136.353 133.514 133.220  1.00  0.00     0.003 C 
ATOM      6  C   UNL     1     136.447 133.690 134.752  1.00  0.00     0.009 C 
ATOM      7  C   UNL     1     135.071 133.950 135.352  1.00  0.00     0.031 C 
ATOM      8  C   UNL     1     134.463 135.203 134.782  1.00  0.00    -0.073 C 
ATOM      9  C   UNL     1     134.723 135.558 133.496  1.00  0.00    -0.064 C 
ATOM     10  C   UNL     1     134.036 136.709 132.798  1.00  0.00     0.036 C 
ATOM     11  C   UNL     1     133.076 136.145 131.745  1.00  0.00     0.035 C 
ATOM     12  C   UNL     1     133.510 135.988 135.651  1.00  0.00     0.039 C 
ENDROOT
BRANCH   5  13
ATOM     13  C   UNL     1     137.784 133.313 132.603  1.00  0.00    -0.013 C 
ATOM     14  C   UNL     1     138.437 134.642 132.179  1.00  0.00     0.007 C 
ATOM     15  C   UNL     1     137.770 132.368 131.385  1.00  0.00     0.007 C 
ENDBRANCH   5  13
TORSDOF 1
ENDMDL
MODEL 6
REMARK VINA RESULT:    -5.288      4.614      6.981
REMARK INTER + INTRA:          -5.932
REMARK INTER:                  -5.617
REMARK INTRA:                  -0.315
REMARK UNBOUND:                -0.335
REMARK SMILES CC1=C[C@H]2C(=C(C)CC[C@@H]2C(C)C)CC1
REMARK SMILES IDX 1 1 2 2 3 3 4 4 10 5 9 6 8 7 6 8 5 9 14 10 15 11 7 12 11 13
REMARK SMILES IDX 12 14 13 15
REMARK H PARENT
REMARK Flexibility Score: inf
ROOT
ATOM      1  C   UNL     1     139.391 138.936 128.598  1.00  0.00     0.039 C 
ATOM      2  C   UNL     1     139.804 137.991 129.692  1.00  0.00    -0.076 C 
ATOM      3  C   UNL     1     139.123 136.829 129.846  1.00  0.00    -0.020 C 
ATOM      4  C   UNL     1     139.492 135.783 130.889  1.00  0.00     0.041 C 
ATOM      5  C   UNL     1     138.262 134.881 131.272  1.00  0.00     0.003 C 
ATOM      6  C   UNL     1     138.295 134.517 132.773  1.00  0.00     0.009 C 
ATOM      7  C   UNL     1     138.433 135.768 133.630  1.00  0.00     0.031 C 
ATOM      8  C   UNL     1     139.705 136.503 133.308  1.00  0.00    -0.073 C 
ATOM      9  C   UNL     1     140.194 136.491 132.040  1.00  0.00    -0.064 C 
ATOM     10  C   UNL     1     141.374 137.324 131.596  1.00  0.00     0.036 C 
ATOM     11  C   UNL     1     140.870 138.443 130.678  1.00  0.00     0.035 C 
ATOM     12  C   UNL     1     140.359 137.305 134.408  1.00  0.00     0.039 C 
ENDROOT
BRANCH   5  13
ATOM     13  C   UNL     1     138.188 133.580 130.393  1.00  0.00    -0.013 C 
ATOM     14  C   UNL     1     137.709 132.353 131.191  1.00  0.00     0.007 C 
ATOM     15  C   UNL     1     139.541 133.237 129.739  1.00  0.00     0.007 C 
ENDBRANCH   5  13
TORSDOF 1
ENDMDL
MODEL 7
REMARK VINA RESULT:    -5.282      2.159      4.246
REMARK INTER + INTRA:          -5.925
REMARK INTER:                  -5.602
REMARK INTRA:                  -0.323
REMARK UNBOUND:                -0.335
REMARK SMILES CC1=C[C@H]2C(=C(C)CC[C@@H]2C(C)C)CC1
REMARK SMILES IDX 1 1 2 2 3 3 4 4 10 5 9 6 8 7 6 8 5 9 14 10 15 11 7 12 11 13
REMARK SMILES IDX 12 14 13 15
REMARK H PARENT
REMARK Flexibility Score: inf
ROOT
ATOM      1  C   UNL     1     134.765 139.163 128.512  1.00  0.00     0.039 C 
ATOM      2  C   UNL     1     135.675 139.649 129.606  1.00  0.00    -0.076 C 
ATOM      3  C   UNL     1     136.853 139.010 129.811  1.00  0.00    -0.020 C 
ATOM      4  C   UNL     1     137.866 139.454 130.856  1.00  0.00     0.041 C 
ATOM      5  C   UNL     1     138.796 138.269 131.307  1.00  0.00     0.003 C 
ATOM      6  C   UNL     1     139.129 138.374 132.812  1.00  0.00     0.009 C 
ATOM      7  C   UNL     1     137.858 138.509 133.639  1.00  0.00     0.031 C 
ATOM      8  C   UNL     1     137.092 139.745 133.251  1.00  0.00    -0.073 C 
ATOM      9  C   UNL     1     137.115 140.181 131.964  1.00  0.00    -0.064 C 
ATOM     10  C   UNL     1     136.256 141.316 131.456  1.00  0.00     0.036 C 
ATOM     11  C   UNL     1     135.172 140.741 130.539  1.00  0.00     0.035 C 
ATOM     12  C   UNL     1     136.249 140.418 134.307  1.00  0.00     0.039 C 
ENDROOT
BRANCH   5  13
ATOM     13  C   UNL     1     140.116 138.198 130.457  1.00  0.00    -0.013 C 
ATOM     14  C   UNL     1     141.330 137.738 131.285  1.00  0.00     0.007 C 
ATOM     15  C   UNL     1     140.462 139.548 129.797  1.00  0.00     0.007 C 
ENDBRANCH   5  13
TORSDOF 1
ENDMDL
MODEL 8
REMARK VINA RESULT:    -5.254      1.976      4.645
REMARK INTER + INTRA:          -5.896
REMARK INTER:                  -5.590
REMARK INTRA:                  -0.305
REMARK UNBOUND:                -0.335
REMARK SMILES CC1=C[C@H]2C(=C(C)CC[C@@H]2C(C)C)CC1
REMARK SMILES IDX 1 1 2 2 3 3 4 4 10 5 9 6 8 7 6 8 5 9 14 10 15 11 7 12 11 13
REMARK SMILES IDX 12 14 13 15
REMARK H PARENT
REMARK Flexibility Score: inf
ROOT
ATOM      1  C   UNL     1     134.216 134.880 128.371  1.00  0.00     0.039 C 
ATOM      2  C   UNL     1     133.870 135.757 129.543  1.00  0.00    -0.076 C 
ATOM      3  C   UNL     1     134.593 136.883 129.754  1.00  0.00    -0.020 C 
ATOM      4  C   UNL     1     134.292 137.864 130.879  1.00  0.00     0.041 C 
ATOM      5  C   UNL     1     135.563 138.699 131.281  1.00  0.00     0.003 C 
ATOM      6  C   UNL     1     135.592 138.957 132.803  1.00  0.00     0.009 C 
ATOM      7  C   UNL     1     135.443 137.653 133.575  1.00  0.00     0.031 C 
ATOM      8  C   UNL     1     134.137 136.980 133.248  1.00  0.00    -0.073 C 
ATOM      9  C   UNL     1     133.607 137.097 132.002  1.00  0.00    -0.064 C 
ATOM     10  C   UNL     1     132.387 136.333 131.544  1.00  0.00     0.036 C 
ATOM     11  C   UNL     1     132.823 135.268 130.532  1.00  0.00     0.035 C 
ATOM     12  C   UNL     1     133.495 136.122 134.312  1.00  0.00     0.039 C 
ENDROOT
BRANCH   5  13
ATOM     13  C   UNL     1     135.650 140.056 130.493  1.00  0.00    -0.013 C 
ATOM     14  C   UNL     1     136.146 141.220 131.371  1.00  0.00     0.007 C 
ATOM     15  C   UNL     1     134.299 140.460 129.869  1.00  0.00     0.007 C 
ENDBRANCH   5  13
TORSDOF 1
ENDMDL
MODEL 9
REMARK VINA RESULT:    -5.245      1.481      4.952
REMARK INTER + INTRA:          -5.887
REMARK INTER:                  -5.572
REMARK INTRA:                  -0.314
REMARK UNBOUND:                -0.335
REMARK SMILES CC1=C[C@H]2C(=C(C)CC[C@@H]2C(C)C)CC1
REMARK SMILES IDX 1 1 2 2 3 3 4 4 10 5 9 6 8 7 6 8 5 9 14 10 15 11 7 12 11 13
REMARK SMILES IDX 12 14 13 15
REMARK H PARENT
REMARK Flexibility Score: inf
ROOT
ATOM      1  C   UNL     1     134.380 140.755 129.705  1.00  0.00     0.039 C 
ATOM      2  C   UNL     1     134.897 140.008 130.905  1.00  0.00    -0.076 C 
ATOM      3  C   UNL     1     134.232 138.905 131.326  1.00  0.00    -0.020 C 
ATOM      4  C   UNL     1     134.700 138.051 132.496  1.00  0.00     0.041 C 
ATOM      5  C   UNL     1     133.511 137.255 133.149  1.00  0.00     0.003 C 
ATOM      6  C   UNL     1     133.690 137.159 134.681  1.00  0.00     0.009 C 
ATOM      7  C   UNL     1     133.914 138.537 135.286  1.00  0.00     0.031 C 
ATOM      8  C   UNL     1     135.151 139.180 134.719  1.00  0.00    -0.073 C 
ATOM      9  C   UNL     1     135.513 138.936 133.432  1.00  0.00    -0.064 C 
ATOM     10  C   UNL     1     136.645 139.655 132.736  1.00  0.00     0.036 C 
ATOM     11  C   UNL     1     136.056 140.605 131.688  1.00  0.00     0.035 C 
ATOM     12  C   UNL     1     135.911 140.150 135.592  1.00  0.00     0.039 C 
ENDROOT
BRANCH   5  13
ATOM     13  C   UNL     1     133.348 135.822 132.525  1.00  0.00    -0.013 C 
ATOM     14  C   UNL     1     134.694 135.197 132.115  1.00  0.00     0.007 C 
ATOM     15  C   UNL     1     132.416 135.819 131.297  1.00  0.00     0.007 C 
ENDBRANCH   5  13
TORSDOF 1
ENDMDL
