MODEL 1
REMARK VINA RESULT:    -3.648      0.000      0.000
REMARK INTER + INTRA:          -5.150
REMARK INTER:                  -4.928
REMARK INTRA:                  -0.222
REMARK UNBOUND:                -0.222
REMARK SMILES CCCCCCCC(=O)[O-]
REMARK SMILES IDX 5 1 6 2 7 3 8 4 9 5 10 6 4 7 3 8 2 9 1 10
REMARK H PARENT
REMARK Flexibility Score: inf
ROOT
ATOM      1  C   UNL     1      42.617  67.011  48.109  1.00  0.00     0.000 C 
ENDROOT
BRANCH   1   2
ATOM      2  C   UNL     1      42.323  67.179  46.604  1.00  0.00     0.006 C 
BRANCH   2   3
ATOM      3  C   UNL     1      41.213  66.264  46.064  1.00  0.00     0.053 C 
BRANCH   3   4
ATOM      4  C   UNL     1      41.525  64.815  46.280  1.00  0.00     0.041 C 
ATOM      5  O   UNL     1      42.603  64.328  45.849  1.00  0.00    -0.550 OA
ATOM      6  O   UNL     1      40.610  63.995  46.927  1.00  0.00    -0.550 OA
ENDBRANCH   3   4
ENDBRANCH   2   3
ENDBRANCH   1   2
BRANCH   1   7
ATOM      7  C   UNL     1      44.056  66.587  48.453  1.00  0.00     0.000 C 
BRANCH   7   8
ATOM      8  C   UNL     1      44.402  66.791  49.938  1.00  0.00    -0.000 C 
BRANCH   8   9
ATOM      9  C   UNL     1      45.498  65.830  50.424  1.00  0.00    -0.003 C 
ATOM     10  C   UNL     1      45.137  65.133  51.737  1.00  0.00     0.004 C 
ENDBRANCH   8   9
ENDBRANCH   7   8
ENDBRANCH   1   7
TORSDOF 6
ENDMDL
MODEL 2
REMARK VINA RESULT:    -3.620      1.225      2.314
REMARK INTER + INTRA:          -5.111
REMARK INTER:                  -4.907
REMARK INTRA:                  -0.204
REMARK UNBOUND:                -0.222
REMARK SMILES CCCCCCCC(=O)[O-]
REMARK SMILES IDX 5 1 6 2 7 3 8 4 9 5 10 6 4 7 3 8 2 9 1 10
REMARK H PARENT
REMARK Flexibility Score: inf
ROOT
ATOM      1  C   UNL     1      44.335  66.559  49.518  1.00  0.00     0.000 C 
ENDROOT
BRANCH   1   2
ATOM      2  C   UNL     1      44.226  66.331  47.996  1.00  0.00     0.006 C 
BRANCH   2   3
ATOM      3  C   UNL     1      42.788  66.209  47.469  1.00  0.00     0.053 C 
BRANCH   3   4
ATOM      4  C   UNL     1      42.631  65.052  46.531  1.00  0.00     0.041 C 
ATOM      5  O   UNL     1      41.519  64.468  46.427  1.00  0.00    -0.550 OA
ATOM      6  O   UNL     1      43.719  64.595  45.798  1.00  0.00    -0.550 OA
ENDBRANCH   3   4
ENDBRANCH   2   3
ENDBRANCH   1   2
BRANCH   1   7
ATOM      7  C   UNL     1      45.470  65.788  50.217  1.00  0.00     0.000 C 
BRANCH   7   8
ATOM      8  C   UNL     1      45.105  65.350  51.645  1.00  0.00    -0.000 C 
BRANCH   8   9
ATOM      9  C   UNL     1      44.181  66.355  52.351  1.00  0.00    -0.003 C 
ATOM     10  C   UNL     1      43.249  65.693  53.366  1.00  0.00     0.004 C 
ENDBRANCH   8   9
ENDBRANCH   7   8
ENDBRANCH   1   7
TORSDOF 6
ENDMDL
MODEL 3
REMARK VINA RESULT:    -3.562     11.676     13.021
REMARK INTER + INTRA:          -5.033
REMARK INTER:                  -4.790
REMARK INTRA:                  -0.243
REMARK UNBOUND:                -0.222
REMARK SMILES CCCCCCCC(=O)[O-]
REMARK SMILES IDX 5 1 6 2 7 3 8 4 9 5 10 6 4 7 3 8 2 9 1 10
REMARK H PARENT
REMARK Flexibility Score: inf
ROOT
ATOM      1  C   UNL     1      37.204  57.921  55.676  1.00  0.00     0.000 C 
ENDROOT
BRANCH   1   2
ATOM      2  C   UNL     1      37.241  59.354  55.106  1.00  0.00     0.006 C 
BRANCH   2   3
ATOM      3  C   UNL     1      36.374  60.367  55.869  1.00  0.00     0.053 C 
BRANCH   3   4
ATOM      4  C   UNL     1      36.942  61.752  55.806  1.00  0.00     0.041 C 
ATOM      5  O   UNL     1      36.198  62.729  55.525  1.00  0.00    -0.550 OA
ATOM      6  O   UNL     1      38.298  61.960  56.022  1.00  0.00    -0.550 OA
ENDBRANCH   3   4
ENDBRANCH   2   3
ENDBRANCH   1   2
BRANCH   1   7
ATOM      7  C   UNL     1      37.663  57.785  57.139  1.00  0.00     0.000 C 
BRANCH   7   8
ATOM      8  C   UNL     1      37.331  56.411  57.746  1.00  0.00    -0.000 C 
BRANCH   8   9
ATOM      9  C   UNL     1      37.012  55.357  56.674  1.00  0.00    -0.003 C 
ATOM     10  C   UNL     1      35.828  54.466  57.051  1.00  0.00     0.004 C 
ENDBRANCH   8   9
ENDBRANCH   7   8
ENDBRANCH   1   7
TORSDOF 6
ENDMDL
MODEL 4
REMARK VINA RESULT:    -3.531     10.357     11.398
REMARK INTER + INTRA:          -4.991
REMARK INTER:                  -4.821
REMARK INTRA:                  -0.170
REMARK UNBOUND:                -0.222
REMARK SMILES CCCCCCCC(=O)[O-]
REMARK SMILES IDX 5 1 6 2 7 3 8 4 9 5 10 6 4 7 3 8 2 9 1 10
REMARK H PARENT
REMARK Flexibility Score: inf
ROOT
ATOM      1  C   UNL     1      36.015  64.459  54.848  1.00  0.00     0.000 C 
ENDROOT
BRANCH   1   2
ATOM      2  C   UNL     1      36.410  63.418  55.916  1.00  0.00     0.006 C 
BRANCH   2   3
ATOM      3  C   UNL     1      36.197  61.957  55.494  1.00  0.00     0.053 C 
BRANCH   3   4
ATOM      4  C   UNL     1      37.405  61.113  55.762  1.00  0.00     0.041 C 
ATOM      5  O   UNL     1      38.429  61.623  56.290  1.00  0.00    -0.550 OA
ATOM      6  O   UNL     1      37.414  59.772  55.399  1.00  0.00    -0.550 OA
ENDBRANCH   3   4
ENDBRANCH   2   3
ENDBRANCH   1   2
BRANCH   1   7
ATOM      7  C   UNL     1      34.979  65.504  55.301  1.00  0.00     0.000 C 
BRANCH   7   8
ATOM      8  C   UNL     1      34.781  66.634  54.277  1.00  0.00    -0.000 C 
BRANCH   8   9
ATOM      9  C   UNL     1      33.321  67.106  54.197  1.00  0.00    -0.003 C 
ATOM     10  C   UNL     1      32.368  66.231  55.012  1.00  0.00     0.004 C 
ENDBRANCH   8   9
ENDBRANCH   7   8
ENDBRANCH   1   7
TORSDOF 6
ENDMDL
MODEL 5
REMARK VINA RESULT:    -3.515     10.947     12.058
REMARK INTER + INTRA:          -4.969
REMARK INTER:                  -4.497
REMARK INTRA:                  -0.472
REMARK UNBOUND:                -0.222
REMARK SMILES CCCCCCCC(=O)[O-]
REMARK SMILES IDX 5 1 6 2 7 3 8 4 9 5 10 6 4 7 3 8 2 9 1 10
REMARK H PARENT
REMARK Flexibility Score: inf
ROOT
ATOM      1  C   UNL     1      32.645  66.192  55.101  1.00  0.00     0.000 C 
ENDROOT
BRANCH   1   2
ATOM      2  C   UNL     1      34.112  66.563  55.405  1.00  0.00     0.006 C 
BRANCH   2   3
ATOM      3  C   UNL     1      35.153  65.649  54.740  1.00  0.00     0.053 C 
BRANCH   3   4
ATOM      4  C   UNL     1      35.707  64.639  55.698  1.00  0.00     0.041 C 
ATOM      5  O   UNL     1      36.299  63.615  55.266  1.00  0.00    -0.550 OA
ATOM      6  O   UNL     1      35.539  64.811  57.066  1.00  0.00    -0.550 OA
ENDBRANCH   3   4
ENDBRANCH   2   3
ENDBRANCH   1   2
BRANCH   1   7
ATOM      7  C   UNL     1      31.791  67.329  54.510  1.00  0.00     0.000 C 
BRANCH   7   8
ATOM      8  C   UNL     1      31.637  67.230  52.983  1.00  0.00    -0.000 C 
BRANCH   8   9
ATOM      9  C   UNL     1      32.674  68.080  52.231  1.00  0.00    -0.003 C 
ATOM     10  C   UNL     1      33.768  67.238  51.575  1.00  0.00     0.004 C 
ENDBRANCH   8   9
ENDBRANCH   7   8
ENDBRANCH   1   7
TORSDOF 6
ENDMDL
MODEL 6
REMARK VINA RESULT:    -3.443      5.637      7.831
REMARK INTER + INTRA:          -4.872
REMARK INTER:                  -4.702
REMARK INTRA:                  -0.170
REMARK UNBOUND:                -0.222
REMARK SMILES CCCCCCCC(=O)[O-]
REMARK SMILES IDX 5 1 6 2 7 3 8 4 9 5 10 6 4 7 3 8 2 9 1 10
REMARK H PARENT
REMARK Flexibility Score: inf
ROOT
ATOM      1  C   UNL     1      42.837  65.479  53.768  1.00  0.00     0.000 C 
ENDROOT
BRANCH   1   2
ATOM      2  C   UNL     1      43.561  64.371  54.562  1.00  0.00     0.006 C 
BRANCH   2   3
ATOM      3  C   UNL     1      43.383  64.456  56.085  1.00  0.00     0.053 C 
BRANCH   3   4
ATOM      4  C   UNL     1      43.964  63.266  56.785  1.00  0.00     0.041 C 
ATOM      5  O   UNL     1      45.124  62.867  56.499  1.00  0.00    -0.550 OA
ATOM      6  O   UNL     1      43.213  62.576  57.728  1.00  0.00    -0.550 OA
ENDBRANCH   3   4
ENDBRANCH   2   3
ENDBRANCH   1   2
BRANCH   1   7
ATOM      7  C   UNL     1      43.721  66.264  52.782  1.00  0.00     0.000 C 
BRANCH   7   8
ATOM      8  C   UNL     1      44.718  65.367  52.028  1.00  0.00    -0.000 C 
BRANCH   8   9
ATOM      9  C   UNL     1      45.522  66.140  50.971  1.00  0.00    -0.003 C 
ATOM     10  C   UNL     1      44.797  66.236  49.628  1.00  0.00     0.004 C 
ENDBRANCH   8   9
ENDBRANCH   7   8
ENDBRANCH   1   7
TORSDOF 6
ENDMDL
MODEL 7
REMARK VINA RESULT:    -3.366     10.601     11.732
REMARK INTER + INTRA:          -4.769
REMARK INTER:                  -4.661
REMARK INTRA:                  -0.108
REMARK UNBOUND:                -0.222
REMARK SMILES CCCCCCCC(=O)[O-]
REMARK SMILES IDX 5 1 6 2 7 3 8 4 9 5 10 6 4 7 3 8 2 9 1 10
REMARK H PARENT
REMARK Flexibility Score: inf
ROOT
ATOM      1  C   UNL     1      36.087  61.636  55.572  1.00  0.00     0.000 C 
ENDROOT
BRANCH   1   2
ATOM      2  C   UNL     1      36.558  60.318  56.222  1.00  0.00     0.006 C 
BRANCH   2   3
ATOM      3  C   UNL     1      37.177  59.309  55.243  1.00  0.00     0.053 C 
BRANCH   3   4
ATOM      4  C   UNL     1      37.338  57.954  55.861  1.00  0.00     0.041 C 
ATOM      5  O   UNL     1      37.962  57.824  56.947  1.00  0.00    -0.550 OA
ATOM      6  O   UNL     1      36.830  56.831  55.221  1.00  0.00    -0.550 OA
ENDBRANCH   3   4
ENDBRANCH   2   3
ENDBRANCH   1   2
BRANCH   1   7
ATOM      7  C   UNL     1      36.909  62.883  55.947  1.00  0.00     0.000 C 
BRANCH   7   8
ATOM      8  C   UNL     1      36.071  64.173  55.954  1.00  0.00    -0.000 C 
BRANCH   8   9
ATOM      9  C   UNL     1      35.995  64.833  54.568  1.00  0.00    -0.003 C 
ATOM     10  C   UNL     1      35.196  66.136  54.574  1.00  0.00     0.004 C 
ENDBRANCH   8   9
ENDBRANCH   7   8
ENDBRANCH   1   7
TORSDOF 6
ENDMDL
MODEL 8
REMARK VINA RESULT:    -3.333      3.854      5.616
REMARK INTER + INTRA:          -4.723
REMARK INTER:                  -4.503
REMARK INTRA:                  -0.221
REMARK UNBOUND:                -0.222
REMARK SMILES CCCCCCCC(=O)[O-]
REMARK SMILES IDX 5 1 6 2 7 3 8 4 9 5 10 6 4 7 3 8 2 9 1 10
REMARK H PARENT
REMARK Flexibility Score: inf
ROOT
ATOM      1  C   UNL     1      42.525  66.556  53.128  1.00  0.00     0.000 C 
ENDROOT
BRANCH   1   2
ATOM      2  C   UNL     1      43.987  66.615  52.639  1.00  0.00     0.006 C 
BRANCH   2   3
ATOM      3  C   UNL     1      44.161  67.145  51.207  1.00  0.00     0.053 C 
BRANCH   3   4
ATOM      4  C   UNL     1      44.892  66.172  50.334  1.00  0.00     0.041 C 
ATOM      5  O   UNL     1      44.787  66.243  49.081  1.00  0.00    -0.550 OA
ATOM      6  O   UNL     1      45.661  65.165  50.904  1.00  0.00    -0.550 OA
ENDBRANCH   3   4
ENDBRANCH   2   3
ENDBRANCH   1   2
BRANCH   1   7
ATOM      7  C   UNL     1      42.162  65.311  53.959  1.00  0.00     0.000 C 
BRANCH   7   8
ATOM      8  C   UNL     1      43.393  64.486  54.369  1.00  0.00    -0.000 C 
BRANCH   8   9
ATOM      9  C   UNL     1      43.490  64.290  55.890  1.00  0.00    -0.003 C 
ATOM     10  C   UNL     1      44.305  63.056  56.280  1.00  0.00     0.004 C 
ENDBRANCH   8   9
ENDBRANCH   7   8
ENDBRANCH   1   7
TORSDOF 6
ENDMDL
MODEL 9
REMARK VINA RESULT:    -3.296     10.656     11.796
REMARK INTER + INTRA:          -4.673
REMARK INTER:                  -4.487
REMARK INTRA:                  -0.186
REMARK UNBOUND:                -0.222
REMARK SMILES CCCCCCCC(=O)[O-]
REMARK SMILES IDX 5 1 6 2 7 3 8 4 9 5 10 6 4 7 3 8 2 9 1 10
REMARK H PARENT
REMARK Flexibility Score: inf
ROOT
ATOM      1  C   UNL     1      34.788  65.500  55.515  1.00  0.00     0.000 C 
ENDROOT
BRANCH   1   2
ATOM      2  C   UNL     1      35.857  64.769  54.676  1.00  0.00     0.006 C 
BRANCH   2   3
ATOM      3  C   UNL     1      37.096  64.326  55.467  1.00  0.00     0.053 C 
BRANCH   3   4
ATOM      4  C   UNL     1      37.079  62.857  55.760  1.00  0.00     0.041 C 
ATOM      5  O   UNL     1      36.100  62.151  55.401  1.00  0.00    -0.550 OA
ATOM      6  O   UNL     1      38.128  62.274  56.461  1.00  0.00    -0.550 OA
ENDBRANCH   3   4
ENDBRANCH   2   3
ENDBRANCH   1   2
BRANCH   1   7
ATOM      7  C   UNL     1      33.882  66.465  54.727  1.00  0.00     0.000 C 
BRANCH   7   8
ATOM      8  C   UNL     1      32.401  66.357  55.128  1.00  0.00    -0.000 C 
BRANCH   8   9
ATOM      9  C   UNL     1      31.461  66.959  54.072  1.00  0.00    -0.003 C 
ATOM     10  C   UNL     1      32.193  67.387  52.799  1.00  0.00     0.004 C 
ENDBRANCH   8   9
ENDBRANCH   7   8
ENDBRANCH   1   7
TORSDOF 6
ENDMDL
