MODEL 1
REMARK VINA RESULT:    -5.225      0.000      0.000
REMARK INTER + INTRA:          -5.378
REMARK INTER:                  -5.378
REMARK INTRA:                   0.000
REMARK UNBOUND:                 0.000
REMARK SMILES O=c1ccc2ccc(O)cc2o1
REMARK SMILES IDX 6 1 7 2 8 3 10 4 11 5 5 6 4 7 3 8 2 9 1 10 12 11 9 12
REMARK H PARENT 9 13
REMARK Flexibility Score: inf
ROOT
ATOM      1  C   UNL     1      22.049  14.068  21.797  1.00  0.00     0.016 A 
ATOM      2  C   UNL     1      20.869  14.772  22.058  1.00  0.00     0.047 A 
ATOM      3  C   UNL     1      19.983  15.078  21.018  1.00  0.00     0.119 A 
ATOM      4  C   UNL     1      20.278  14.676  19.706  1.00  0.00     0.094 A 
ATOM      5  C   UNL     1      21.455  13.972  19.435  1.00  0.00     0.142 A 
ATOM      6  C   UNL     1      22.347  13.665  20.488  1.00  0.00     0.018 A 
ATOM      7  C   UNL     1      23.517  12.960  20.187  1.00  0.00     0.019 A 
ATOM      8  C   UNL     1      23.767  12.581  18.868  1.00  0.00     0.094 A 
ATOM      9  C   UNL     1      22.838  12.919  17.877  1.00  0.00     0.336 A 
ATOM     10  O   UNL     1      23.047  12.586  16.681  1.00  0.00    -0.246 OA
ATOM     11  O   UNL     1      21.733  13.592  18.191  1.00  0.00    -0.423 OA
ENDROOT
BRANCH   3  12
ATOM     12  O   UNL     1      18.813  15.781  21.297  1.00  0.00    -0.508 OA
ATOM     13  H   UNL     1      18.825  16.775  21.490  1.00  0.00     0.293 HD
ENDBRANCH   3  12
TORSDOF 1
ENDMDL
MODEL 2
REMARK VINA RESULT:    -5.179      2.538      3.332
REMARK INTER + INTRA:          -5.330
REMARK INTER:                  -5.330
REMARK INTRA:                   0.000
REMARK UNBOUND:                 0.000
REMARK SMILES O=c1ccc2ccc(O)cc2o1
REMARK SMILES IDX 6 1 7 2 8 3 10 4 11 5 5 6 4 7 3 8 2 9 1 10 12 11 9 12
REMARK H PARENT 9 13
REMARK Flexibility Score: inf
ROOT
ATOM      1  C   UNL     1      18.706  14.999  22.102  1.00  0.00     0.016 A 
ATOM      2  C   UNL     1      17.728  14.332  22.848  1.00  0.00     0.047 A 
ATOM      3  C   UNL     1      17.456  12.980  22.609  1.00  0.00     0.119 A 
ATOM      4  C   UNL     1      18.166  12.288  21.615  1.00  0.00     0.094 A 
ATOM      5  C   UNL     1      19.145  12.947  20.864  1.00  0.00     0.142 A 
ATOM      6  C   UNL     1      19.417  14.311  21.109  1.00  0.00     0.018 A 
ATOM      7  C   UNL     1      20.400  14.944  20.342  1.00  0.00     0.019 A 
ATOM      8  C   UNL     1      21.080  14.215  19.366  1.00  0.00     0.094 A 
ATOM      9  C   UNL     1      20.758  12.866  19.180  1.00  0.00     0.336 A 
ATOM     10  O   UNL     1      21.361  12.192  18.304  1.00  0.00    -0.246 OA
ATOM     11  O   UNL     1      19.817  12.289  19.923  1.00  0.00    -0.423 OA
ENDROOT
BRANCH   3  12
ATOM     12  O   UNL     1      16.479  12.332  23.361  1.00  0.00    -0.508 OA
ATOM     13  H   UNL     1      16.431  11.322  23.410  1.00  0.00     0.293 HD
ENDBRANCH   3  12
TORSDOF 1
ENDMDL
MODEL 3
REMARK VINA RESULT:    -5.162      1.261      4.518
REMARK INTER + INTRA:          -5.313
REMARK INTER:                  -5.313
REMARK INTRA:                   0.000
REMARK UNBOUND:                 0.000
REMARK SMILES O=c1ccc2ccc(O)cc2o1
REMARK SMILES IDX 6 1 7 2 8 3 10 4 11 5 5 6 4 7 3 8 2 9 1 10 12 11 9 12
REMARK H PARENT 9 13
REMARK Flexibility Score: inf
ROOT
ATOM      1  C   UNL     1      24.522  12.206  19.629  1.00  0.00     0.016 A 
ATOM      2  C   UNL     1      25.042  11.886  18.370  1.00  0.00     0.047 A 
ATOM      3  C   UNL     1      24.327  12.202  17.209  1.00  0.00     0.119 A 
ATOM      4  C   UNL     1      23.083  12.844  17.305  1.00  0.00     0.094 A 
ATOM      5  C   UNL     1      22.555  13.168  18.559  1.00  0.00     0.142 A 
ATOM      6  C   UNL     1      23.280  12.847  19.729  1.00  0.00     0.018 A 
ATOM      7  C   UNL     1      22.727  13.183  20.969  1.00  0.00     0.019 A 
ATOM      8  C   UNL     1      21.488  13.821  21.015  1.00  0.00     0.094 A 
ATOM      9  C   UNL     1      20.827  14.108  19.815  1.00  0.00     0.336 A 
ATOM     10  O   UNL     1      19.707  14.683  19.836  1.00  0.00    -0.246 OA
ATOM     11  O   UNL     1      21.375  13.776  18.648  1.00  0.00    -0.423 OA
ENDROOT
BRANCH   3  12
ATOM     12  O   UNL     1      24.860  11.875  15.964  1.00  0.00    -0.508 OA
ATOM     13  H   UNL     1      25.552  12.461  15.513  1.00  0.00     0.293 HD
ENDBRANCH   3  12
TORSDOF 1
ENDMDL
MODEL 4
REMARK VINA RESULT:    -5.128      2.183      2.880
REMARK INTER + INTRA:          -5.278
REMARK INTER:                  -5.278
REMARK INTRA:                   0.000
REMARK UNBOUND:                 0.000
REMARK SMILES O=c1ccc2ccc(O)cc2o1
REMARK SMILES IDX 6 1 7 2 8 3 10 4 11 5 5 6 4 7 3 8 2 9 1 10 12 11 9 12
REMARK H PARENT 9 13
REMARK Flexibility Score: inf
ROOT
ATOM      1  C   UNL     1      18.140  12.257  21.063  1.00  0.00     0.016 A 
ATOM      2  C   UNL     1      17.558  13.096  22.020  1.00  0.00     0.047 A 
ATOM      3  C   UNL     1      18.099  14.363  22.272  1.00  0.00     0.119 A 
ATOM      4  C   UNL     1      19.230  14.795  21.562  1.00  0.00     0.094 A 
ATOM      5  C   UNL     1      19.818  13.963  20.604  1.00  0.00     0.142 A 
ATOM      6  C   UNL     1      19.269  12.685  20.353  1.00  0.00     0.018 A 
ATOM      7  C   UNL     1      19.879  11.875  19.390  1.00  0.00     0.019 A 
ATOM      8  C   UNL     1      21.002  12.348  18.710  1.00  0.00     0.094 A 
ATOM      9  C   UNL     1      21.490  13.624  19.011  1.00  0.00     0.336 A 
ATOM     10  O   UNL     1      22.502  14.068  18.408  1.00  0.00    -0.246 OA
ATOM     11  O   UNL     1      20.891  14.375  19.933  1.00  0.00    -0.423 OA
ENDROOT
BRANCH   3  12
ATOM     12  O   UNL     1      17.506  15.184  23.228  1.00  0.00    -0.508 OA
ATOM     13  H   UNL     1      16.822  14.827  23.884  1.00  0.00     0.293 HD
ENDBRANCH   3  12
TORSDOF 1
ENDMDL
MODEL 5
REMARK VINA RESULT:    -5.054      2.264      5.178
REMARK INTER + INTRA:          -5.201
REMARK INTER:                  -5.201
REMARK INTRA:                   0.000
REMARK UNBOUND:                 0.000
REMARK SMILES O=c1ccc2ccc(O)cc2o1
REMARK SMILES IDX 6 1 7 2 8 3 10 4 11 5 5 6 4 7 3 8 2 9 1 10 12 11 9 12
REMARK H PARENT 9 13
REMARK Flexibility Score: inf
ROOT
ATOM      1  C   UNL     1      19.576  11.924  19.809  1.00  0.00     0.016 A 
ATOM      2  C   UNL     1      20.606  12.423  19.005  1.00  0.00     0.047 A 
ATOM      3  C   UNL     1      21.085  13.725  19.197  1.00  0.00     0.119 A 
ATOM      4  C   UNL     1      20.530  14.534  20.200  1.00  0.00     0.094 A 
ATOM      5  C   UNL     1      19.499  14.043  21.009  1.00  0.00     0.142 A 
ATOM      6  C   UNL     1      19.019  12.729  20.812  1.00  0.00     0.018 A 
ATOM      7  C   UNL     1      17.988  12.266  21.635  1.00  0.00     0.019 A 
ATOM      8  C   UNL     1      17.468  13.107  22.619  1.00  0.00     0.094 A 
ATOM      9  C   UNL     1      17.994  14.397  22.757  1.00  0.00     0.336 A 
ATOM     10  O   UNL     1      17.538  15.170  23.639  1.00  0.00    -0.246 OA
ATOM     11  O   UNL     1      18.975  14.813  21.959  1.00  0.00    -0.423 OA
ENDROOT
BRANCH   3  12
ATOM     12  O   UNL     1      22.111  14.205  18.387  1.00  0.00    -0.508 OA
ATOM     13  H   UNL     1      21.993  15.035  17.818  1.00  0.00     0.293 HD
ENDBRANCH   3  12
TORSDOF 1
ENDMDL
MODEL 6
REMARK VINA RESULT:    -4.958      2.813      5.884
REMARK INTER + INTRA:          -5.103
REMARK INTER:                  -5.103
REMARK INTRA:                   0.000
REMARK UNBOUND:                 0.000
REMARK SMILES O=c1ccc2ccc(O)cc2o1
REMARK SMILES IDX 6 1 7 2 8 3 10 4 11 5 5 6 4 7 3 8 2 9 1 10 12 11 9 12
REMARK H PARENT 9 13
REMARK Flexibility Score: inf
ROOT
ATOM      1  C   UNL     1      17.950  13.016  20.829  1.00  0.00     0.016 A 
ATOM      2  C   UNL     1      18.866  13.315  19.815  1.00  0.00     0.047 A 
ATOM      3  C   UNL     1      19.904  14.227  20.046  1.00  0.00     0.119 A 
ATOM      4  C   UNL     1      20.027  14.844  21.301  1.00  0.00     0.094 A 
ATOM      5  C   UNL     1      19.115  14.551  22.320  1.00  0.00     0.142 A 
ATOM      6  C   UNL     1      18.069  13.631  22.082  1.00  0.00     0.018 A 
ATOM      7  C   UNL     1      17.172  13.358  23.120  1.00  0.00     0.019 A 
ATOM      8  C   UNL     1      17.334  13.996  24.350  1.00  0.00     0.094 A 
ATOM      9  C   UNL     1      18.394  14.896  24.512  1.00  0.00     0.336 A 
ATOM     10  O   UNL     1      18.557  15.481  25.615  1.00  0.00    -0.246 OA
ATOM     11  O   UNL     1      19.233  15.138  23.508  1.00  0.00    -0.423 OA
ENDROOT
BRANCH   3  12
ATOM     12  O   UNL     1      20.807  14.512  19.025  1.00  0.00    -0.508 OA
ATOM     13  H   UNL     1      20.501  14.650  18.070  1.00  0.00     0.293 HD
ENDBRANCH   3  12
TORSDOF 1
ENDMDL
MODEL 7
REMARK VINA RESULT:    -4.927      2.445      5.247
REMARK INTER + INTRA:          -5.071
REMARK INTER:                  -5.071
REMARK INTRA:                   0.000
REMARK UNBOUND:                 0.000
REMARK SMILES O=c1ccc2ccc(O)cc2o1
REMARK SMILES IDX 6 1 7 2 8 3 10 4 11 5 5 6 4 7 3 8 2 9 1 10 12 11 9 12
REMARK H PARENT 9 13
REMARK Flexibility Score: inf
ROOT
ATOM      1  C   UNL     1      20.423  14.916  20.288  1.00  0.00     0.016 A 
ATOM      2  C   UNL     1      21.040  14.115  19.321  1.00  0.00     0.047 A 
ATOM      3  C   UNL     1      20.642  12.785  19.144  1.00  0.00     0.119 A 
ATOM      4  C   UNL     1      19.617  12.249  19.941  1.00  0.00     0.094 A 
ATOM      5  C   UNL     1      18.995  13.042  20.911  1.00  0.00     0.142 A 
ATOM      6  C   UNL     1      19.400  14.384  21.086  1.00  0.00     0.018 A 
ATOM      7  C   UNL     1      18.760  15.152  22.064  1.00  0.00     0.019 A 
ATOM      8  C   UNL     1      17.748  14.576  22.831  1.00  0.00     0.094 A 
ATOM      9  C   UNL     1      17.399  13.240  22.602  1.00  0.00     0.336 A 
ATOM     10  O   UNL     1      16.487  12.703  23.284  1.00  0.00    -0.246 OA
ATOM     11  O   UNL     1      18.025  12.531  21.665  1.00  0.00    -0.423 OA
ENDROOT
BRANCH   3  12
ATOM     12  O   UNL     1      21.268  12.004  18.176  1.00  0.00    -0.508 OA
ATOM     13  H   UNL     1      20.819  11.793  17.293  1.00  0.00     0.293 HD
ENDBRANCH   3  12
TORSDOF 1
ENDMDL
MODEL 8
REMARK VINA RESULT:    -4.828      1.686      2.360
REMARK INTER + INTRA:          -4.969
REMARK INTER:                  -4.969
REMARK INTRA:                   0.000
REMARK UNBOUND:                 0.000
REMARK SMILES O=c1ccc2ccc(O)cc2o1
REMARK SMILES IDX 6 1 7 2 8 3 10 4 11 5 5 6 4 7 3 8 2 9 1 10 12 11 9 12
REMARK H PARENT 9 13
REMARK Flexibility Score: inf
ROOT
ATOM      1  C   UNL     1      20.244  14.865  19.421  1.00  0.00     0.016 A 
ATOM      2  C   UNL     1      19.541  15.383  20.514  1.00  0.00     0.047 A 
ATOM      3  C   UNL     1      19.996  15.157  21.819  1.00  0.00     0.119 A 
ATOM      4  C   UNL     1      21.165  14.409  22.033  1.00  0.00     0.094 A 
ATOM      5  C   UNL     1      21.873  13.888  20.946  1.00  0.00     0.142 A 
ATOM      6  C   UNL     1      21.410  14.117  19.631  1.00  0.00     0.018 A 
ATOM      7  C   UNL     1      22.140  13.583  18.564  1.00  0.00     0.019 A 
ATOM      8  C   UNL     1      23.294  12.846  18.826  1.00  0.00     0.094 A 
ATOM      9  C   UNL     1      23.693  12.660  20.155  1.00  0.00     0.336 A 
ATOM     10  O   UNL     1      24.733  11.997  20.411  1.00  0.00    -0.246 OA
ATOM     11  O   UNL     1      22.980  13.178  21.152  1.00  0.00    -0.423 OA
ENDROOT
BRANCH   3  12
ATOM     12  O   UNL     1      19.283  15.680  22.895  1.00  0.00    -0.508 OA
ATOM     13  H   UNL     1      18.411  15.268  23.204  1.00  0.00     0.293 HD
ENDBRANCH   3  12
TORSDOF 1
ENDMDL
MODEL 9
REMARK VINA RESULT:    -4.759      2.993      4.540
REMARK INTER + INTRA:          -4.898
REMARK INTER:                  -4.898
REMARK INTRA:                   0.000
REMARK UNBOUND:                 0.000
REMARK SMILES O=c1ccc2ccc(O)cc2o1
REMARK SMILES IDX 6 1 7 2 8 3 10 4 11 5 5 6 4 7 3 8 2 9 1 10 12 11 9 12
REMARK H PARENT 9 13
REMARK Flexibility Score: inf
ROOT
ATOM      1  C   UNL     1      17.078  13.474  23.379  1.00  0.00     0.016 A 
ATOM      2  C   UNL     1      17.340  14.120  24.592  1.00  0.00     0.047 A 
ATOM      3  C   UNL     1      18.478  14.923  24.734  1.00  0.00     0.119 A 
ATOM      4  C   UNL     1      19.361  15.083  23.655  1.00  0.00     0.094 A 
ATOM      5  C   UNL     1      19.107  14.442  22.439  1.00  0.00     0.142 A 
ATOM      6  C   UNL     1      17.958  13.632  22.300  1.00  0.00     0.018 A 
ATOM      7  C   UNL     1      17.730  13.002  21.072  1.00  0.00     0.019 A 
ATOM      8  C   UNL     1      18.636  13.191  20.028  1.00  0.00     0.094 A 
ATOM      9  C   UNL     1      19.753  14.008  20.239  1.00  0.00     0.336 A 
ATOM     10  O   UNL     1      20.581  14.191  19.308  1.00  0.00    -0.246 OA
ATOM     11  O   UNL     1      19.946  14.595  21.418  1.00  0.00    -0.423 OA
ENDROOT
BRANCH   3  12
ATOM     12  O   UNL     1      18.723  15.558  25.950  1.00  0.00    -0.508 OA
ATOM     13  H   UNL     1      19.660  15.818  26.233  1.00  0.00     0.293 HD
ENDBRANCH   3  12
TORSDOF 1
ENDMDL
