MODEL 1
REMARK VINA RESULT:    -5.657      0.000      0.000
REMARK INTER + INTRA:         -13.123
REMARK INTER:                 -10.617
REMARK INTRA:                  -2.507
REMARK UNBOUND:                -2.507
REMARK SMILES CCCCCCCCCCCCCC=CC=CC(=O)OC
REMARK SMILES IDX 9 1 8 2 7 3 6 4 5 5 4 6 3 7 2 8 1 9 10 10 11 11 12 12 13 13
REMARK SMILES IDX 14 14 15 15 16 16 17 17 18 18 19 19 20 20 21 21
REMARK H PARENT
REMARK Flexibility Score: inf
ROOT
ATOM      1  C   UNL     1      34.478   1.263  15.199  1.00  0.00     0.000 C 
ENDROOT
BRANCH   1   2
ATOM      2  C   UNL     1      35.526   0.229  14.749  1.00  0.00     0.000 C 
BRANCH   2   3
ATOM      3  C   UNL     1      35.526  -1.033  15.626  1.00  0.00     0.000 C 
BRANCH   3   4
ATOM      4  C   UNL     1      36.932  -1.402  16.132  1.00  0.00    -0.000 C 
BRANCH   4   5
ATOM      5  C   UNL     1      37.386  -0.520  17.308  1.00  0.00    -0.000 C 
BRANCH   5   6
ATOM      6  C   UNL     1      38.425   0.534  16.895  1.00  0.00    -0.000 C 
BRANCH   6   7
ATOM      7  C   UNL     1      39.166   0.104  15.622  1.00  0.00    -0.000 C 
BRANCH   7   8
ATOM      8  C   UNL     1      39.301   1.245  14.602  1.00  0.00    -0.003 C 
ATOM      9  C   UNL     1      38.677   2.553  15.090  1.00  0.00     0.004 C 
ENDBRANCH   7   8
ENDBRANCH   6   7
ENDBRANCH   5   6
ENDBRANCH   4   5
ENDBRANCH   3   4
ENDBRANCH   2   3
ENDBRANCH   1   2
BRANCH   1  10
ATOM     10  C   UNL     1      34.886   1.990  16.490  1.00  0.00     0.000 C 
BRANCH  10  11
ATOM     11  C   UNL     1      33.824   1.872  17.597  1.00  0.00     0.000 C 
BRANCH  11  12
ATOM     12  C   UNL     1      34.073   0.677  18.538  1.00  0.00     0.004 C 
BRANCH  12  13
ATOM     13  C   UNL     1      33.037  -0.453  18.406  1.00  0.00     0.027 C 
BRANCH  13  14
ATOM     14  C   UNL     1      32.072  -0.217  17.273  1.00  0.00    -0.027 C 
ATOM     15  C   UNL     1      31.111  -1.071  16.892  1.00  0.00    -0.004 C 
BRANCH  15  16
ATOM     16  C   UNL     1      30.861  -2.376  17.549  1.00  0.00     0.007 C 
ATOM     17  C   UNL     1      29.689  -2.754  18.081  1.00  0.00     0.093 C 
BRANCH  17  18
ATOM     18  C   UNL     1      28.406  -2.031  17.977  1.00  0.00     0.330 C 
ATOM     19  O   UNL     1      27.573  -2.300  17.070  1.00  0.00    -0.247 OA
BRANCH  18  20
ATOM     20  O   UNL     1      28.097  -1.078  18.954  1.00  0.00    -0.466 OA
ATOM     21  C   UNL     1      28.202   0.321  18.720  1.00  0.00     0.282 C 
ENDBRANCH  18  20
ENDBRANCH  17  18
ENDBRANCH  15  16
ENDBRANCH  13  14
ENDBRANCH  12  13
ENDBRANCH  11  12
ENDBRANCH  10  11
ENDBRANCH   1  10
TORSDOF 15
ENDMDL
MODEL 2
REMARK VINA RESULT:    -5.510      3.791      7.991
REMARK INTER + INTRA:         -12.849
REMARK INTER:                 -10.546
REMARK INTRA:                  -2.303
REMARK UNBOUND:                -2.507
REMARK SMILES CCCCCCCCCCCCCC=CC=CC(=O)OC
REMARK SMILES IDX 9 1 8 2 7 3 6 4 5 5 4 6 3 7 2 8 1 9 10 10 11 11 12 12 13 13
REMARK SMILES IDX 14 14 15 15 16 16 17 17 18 18 19 19 20 20 21 21
REMARK H PARENT
REMARK Flexibility Score: inf
ROOT
ATOM      1  C   UNL     1      34.950  -1.854  18.381  1.00  0.00     0.000 C 
ENDROOT
BRANCH   1   2
ATOM      2  C   UNL     1      33.749  -0.944  18.694  1.00  0.00     0.000 C 
BRANCH   2   3
ATOM      3  C   UNL     1      32.521  -1.267  17.827  1.00  0.00     0.000 C 
BRANCH   3   4
ATOM      4  C   UNL     1      31.673  -0.021  17.514  1.00  0.00    -0.000 C 
BRANCH   4   5
ATOM      5  C   UNL     1      30.243  -0.375  17.075  1.00  0.00    -0.000 C 
BRANCH   5   6
ATOM      6  C   UNL     1      30.197  -1.551  16.087  1.00  0.00    -0.000 C 
BRANCH   6   7
ATOM      7  C   UNL     1      29.185  -2.611  16.545  1.00  0.00    -0.000 C 
BRANCH   7   8
ATOM      8  C   UNL     1      29.820  -3.683  17.445  1.00  0.00    -0.003 C 
ATOM      9  C   UNL     1      29.176  -5.059  17.272  1.00  0.00     0.004 C 
ENDBRANCH   7   8
ENDBRANCH   6   7
ENDBRANCH   5   6
ENDBRANCH   4   5
ENDBRANCH   3   4
ENDBRANCH   2   3
ENDBRANCH   1   2
BRANCH   1  10
ATOM     10  C   UNL     1      34.988  -2.290  16.907  1.00  0.00     0.000 C 
BRANCH  10  11
ATOM     11  C   UNL     1      36.256  -1.809  16.179  1.00  0.00     0.000 C 
BRANCH  11  12
ATOM     12  C   UNL     1      35.950  -0.808  15.049  1.00  0.00     0.004 C 
BRANCH  12  13
ATOM     13  C   UNL     1      34.696   0.051  15.292  1.00  0.00     0.027 C 
BRANCH  13  14
ATOM     14  C   UNL     1      34.981   1.526  15.186  1.00  0.00    -0.027 C 
ATOM     15  C   UNL     1      35.494   2.282  16.167  1.00  0.00    -0.004 C 
BRANCH  15  16
ATOM     16  C   UNL     1      35.861   1.757  17.504  1.00  0.00     0.007 C 
ATOM     17  C   UNL     1      37.083   1.322  17.848  1.00  0.00     0.093 C 
BRANCH  17  18
ATOM     18  C   UNL     1      38.311   1.428  17.036  1.00  0.00     0.330 C 
ATOM     19  O   UNL     1      38.949   0.402  16.675  1.00  0.00    -0.247 OA
BRANCH  18  20
ATOM     20  O   UNL     1      38.722   2.696  16.612  1.00  0.00    -0.466 OA
ATOM     21  C   UNL     1      39.072   2.977  15.262  1.00  0.00     0.282 C 
ENDBRANCH  18  20
ENDBRANCH  17  18
ENDBRANCH  15  16
ENDBRANCH  13  14
ENDBRANCH  12  13
ENDBRANCH  11  12
ENDBRANCH  10  11
ENDBRANCH   1  10
TORSDOF 15
ENDMDL
MODEL 3
REMARK VINA RESULT:    -5.503      3.970      8.449
REMARK INTER + INTRA:         -12.836
REMARK INTER:                 -10.700
REMARK INTRA:                  -2.136
REMARK UNBOUND:                -2.507
REMARK SMILES CCCCCCCCCCCCCC=CC=CC(=O)OC
REMARK SMILES IDX 9 1 8 2 7 3 6 4 5 5 4 6 3 7 2 8 1 9 10 10 11 11 12 12 13 13
REMARK SMILES IDX 14 14 15 15 16 16 17 17 18 18 19 19 20 20 21 21
REMARK H PARENT
REMARK Flexibility Score: inf
ROOT
ATOM      1  C   UNL     1      33.153   1.116  17.777  1.00  0.00     0.000 C 
ENDROOT
BRANCH   1   2
ATOM      2  C   UNL     1      33.481  -0.214  18.480  1.00  0.00     0.000 C 
BRANCH   2   3
ATOM      3  C   UNL     1      32.931  -1.434  17.723  1.00  0.00     0.000 C 
BRANCH   3   4
ATOM      4  C   UNL     1      31.573  -1.154  17.057  1.00  0.00    -0.000 C 
BRANCH   4   5
ATOM      5  C   UNL     1      30.466  -2.100  17.552  1.00  0.00    -0.000 C 
BRANCH   5   6
ATOM      6  C   UNL     1      29.966  -1.745  18.961  1.00  0.00    -0.000 C 
BRANCH   6   7
ATOM      7  C   UNL     1      28.549  -2.289  19.192  1.00  0.00    -0.000 C 
BRANCH   7   8
ATOM      8  C   UNL     1      28.331  -2.776  20.633  1.00  0.00    -0.003 C 
ATOM      9  C   UNL     1      27.480  -4.044  20.707  1.00  0.00     0.004 C 
ENDBRANCH   7   8
ENDBRANCH   6   7
ENDBRANCH   5   6
ENDBRANCH   4   5
ENDBRANCH   3   4
ENDBRANCH   2   3
ENDBRANCH   1   2
BRANCH   1  10
ATOM     10  C   UNL     1      34.415   1.911  17.406  1.00  0.00     0.000 C 
BRANCH  10  11
ATOM     11  C   UNL     1      34.575   2.093  15.886  1.00  0.00     0.000 C 
BRANCH  11  12
ATOM     12  C   UNL     1      34.410   0.774  15.108  1.00  0.00     0.004 C 
BRANCH  12  13
ATOM     13  C   UNL     1      35.739   0.072  14.771  1.00  0.00     0.027 C 
BRANCH  13  14
ATOM     14  C   UNL     1      35.920  -1.211  15.539  1.00  0.00    -0.027 C 
ATOM     15  C   UNL     1      36.650  -1.340  16.657  1.00  0.00    -0.004 C 
BRANCH  15  16
ATOM     16  C   UNL     1      37.380  -0.220  17.297  1.00  0.00     0.007 C 
ATOM     17  C   UNL     1      38.617   0.180  16.962  1.00  0.00     0.093 C 
BRANCH  17  18
ATOM     18  C   UNL     1      39.410  -0.296  15.811  1.00  0.00     0.330 C 
ATOM     19  O   UNL     1      39.839  -1.480  15.755  1.00  0.00    -0.247 OA
BRANCH  18  20
ATOM     20  O   UNL     1      39.622   0.579  14.741  1.00  0.00    -0.466 OA
ATOM     21  C   UNL     1      39.080   1.894  14.706  1.00  0.00     0.282 C 
ENDBRANCH  18  20
ENDBRANCH  17  18
ENDBRANCH  15  16
ENDBRANCH  13  14
ENDBRANCH  12  13
ENDBRANCH  11  12
ENDBRANCH  10  11
ENDBRANCH   1  10
TORSDOF 15
ENDMDL
MODEL 4
REMARK VINA RESULT:    -5.453      3.949      8.166
REMARK INTER + INTRA:         -12.742
REMARK INTER:                 -10.616
REMARK INTRA:                  -2.126
REMARK UNBOUND:                -2.507
REMARK SMILES CCCCCCCCCCCCCC=CC=CC(=O)OC
REMARK SMILES IDX 9 1 8 2 7 3 6 4 5 5 4 6 3 7 2 8 1 9 10 10 11 11 12 12 13 13
REMARK SMILES IDX 14 14 15 15 16 16 17 17 18 18 19 19 20 20 21 21
REMARK H PARENT
REMARK Flexibility Score: inf
ROOT
ATOM      1  C   UNL     1      33.128   1.148  16.501  1.00  0.00     0.000 C 
ENDROOT
BRANCH   1   2
ATOM      2  C   UNL     1      33.357   1.082  18.022  1.00  0.00     0.000 C 
BRANCH   2   3
ATOM      3  C   UNL     1      33.073  -0.313  18.603  1.00  0.00     0.000 C 
BRANCH   3   4
ATOM      4  C   UNL     1      32.813  -1.366  17.511  1.00  0.00    -0.000 C 
BRANCH   4   5
ATOM      5  C   UNL     1      31.496  -2.130  17.730  1.00  0.00    -0.000 C 
BRANCH   5   6
ATOM      6  C   UNL     1      30.390  -1.704  16.751  1.00  0.00    -0.000 C 
BRANCH   6   7
ATOM      7  C   UNL     1      29.776  -0.361  17.171  1.00  0.00    -0.000 C 
BRANCH   7   8
ATOM      8  C   UNL     1      28.248  -0.333  17.003  1.00  0.00    -0.003 C 
ATOM      9  C   UNL     1      27.511  -0.985  18.173  1.00  0.00     0.004 C 
ENDBRANCH   7   8
ENDBRANCH   6   7
ENDBRANCH   5   6
ENDBRANCH   4   5
ENDBRANCH   3   4
ENDBRANCH   2   3
ENDBRANCH   1   2
BRANCH   1  10
ATOM     10  C   UNL     1      34.089   2.124  15.804  1.00  0.00     0.000 C 
BRANCH  10  11
ATOM     11  C   UNL     1      35.468   1.501  15.527  1.00  0.00     0.000 C 
BRANCH  11  12
ATOM     12  C   UNL     1      35.377   0.171  14.754  1.00  0.00     0.004 C 
BRANCH  12  13
ATOM     13  C   UNL     1      36.009  -1.026  15.487  1.00  0.00     0.027 C 
BRANCH  13  14
ATOM     14  C   UNL     1      36.335  -0.711  16.924  1.00  0.00    -0.027 C 
ATOM     15  C   UNL     1      37.563  -0.444  17.392  1.00  0.00    -0.004 C 
BRANCH  15  16
ATOM     16  C   UNL     1      38.779  -0.416  16.544  1.00  0.00     0.007 C 
ATOM     17  C   UNL     1      39.577   0.651  16.385  1.00  0.00     0.093 C 
BRANCH  17  18
ATOM     18  C   UNL     1      39.496   1.925  17.128  1.00  0.00     0.330 C 
ATOM     19  O   UNL     1      39.876   2.010  18.327  1.00  0.00    -0.247 OA
BRANCH  18  20
ATOM     20  O   UNL     1      39.049   3.064  16.451  1.00  0.00    -0.466 OA
ATOM     21  C   UNL     1      38.839   3.087  15.044  1.00  0.00     0.282 C 
ENDBRANCH  18  20
ENDBRANCH  17  18
ENDBRANCH  15  16
ENDBRANCH  13  14
ENDBRANCH  12  13
ENDBRANCH  11  12
ENDBRANCH  10  11
ENDBRANCH   1  10
TORSDOF 15
ENDMDL
MODEL 5
REMARK VINA RESULT:    -5.452      3.830      8.151
REMARK INTER + INTRA:         -12.740
REMARK INTER:                 -10.512
REMARK INTRA:                  -2.228
REMARK UNBOUND:                -2.507
REMARK SMILES CCCCCCCCCCCCCC=CC=CC(=O)OC
REMARK SMILES IDX 9 1 8 2 7 3 6 4 5 5 4 6 3 7 2 8 1 9 10 10 11 11 12 12 13 13
REMARK SMILES IDX 14 14 15 15 16 16 17 17 18 18 19 19 20 20 21 21
REMARK H PARENT
REMARK Flexibility Score: inf
ROOT
ATOM      1  C   UNL     1      32.985  -0.612  18.718  1.00  0.00     0.000 C 
ENDROOT
BRANCH   1   2
ATOM      2  C   UNL     1      32.410  -1.627  17.712  1.00  0.00     0.000 C 
BRANCH   2   3
ATOM      3  C   UNL     1      31.127  -2.303  18.222  1.00  0.00     0.000 C 
BRANCH   3   4
ATOM      4  C   UNL     1      30.250  -2.844  17.079  1.00  0.00    -0.000 C 
BRANCH   4   5
ATOM      5  C   UNL     1      30.000  -1.797  15.980  1.00  0.00    -0.000 C 
BRANCH   5   6
ATOM      6  C   UNL     1      28.510  -1.635  15.640  1.00  0.00    -0.000 C 
BRANCH   6   7
ATOM      7  C   UNL     1      27.719  -1.148  16.861  1.00  0.00    -0.000 C 
BRANCH   7   8
ATOM      8  C   UNL     1      28.075   0.293  17.259  1.00  0.00    -0.003 C 
ATOM      9  C   UNL     1      28.661   0.391  18.668  1.00  0.00     0.004 C 
ENDBRANCH   7   8
ENDBRANCH   6   7
ENDBRANCH   5   6
ENDBRANCH   4   5
ENDBRANCH   3   4
ENDBRANCH   2   3
ENDBRANCH   1   2
BRANCH   1  10
ATOM     10  C   UNL     1      33.471   0.678  18.038  1.00  0.00     0.000 C 
BRANCH  10  11
ATOM     11  C   UNL     1      32.924   0.836  16.608  1.00  0.00     0.000 C 
BRANCH  11  12
ATOM     12  C   UNL     1      33.594   1.990  15.838  1.00  0.00     0.004 C 
BRANCH  12  13
ATOM     13  C   UNL     1      35.111   1.818  15.642  1.00  0.00     0.027 C 
BRANCH  13  14
ATOM     14  C   UNL     1      35.450   0.582  14.851  1.00  0.00    -0.027 C 
ATOM     15  C   UNL     1      36.124  -0.475  15.328  1.00  0.00    -0.004 C 
BRANCH  15  16
ATOM     16  C   UNL     1      36.625  -0.571  16.720  1.00  0.00     0.007 C 
ATOM     17  C   UNL     1      37.893  -0.339  17.095  1.00  0.00     0.093 C 
BRANCH  17  18
ATOM     18  C   UNL     1      38.973   0.202  16.247  1.00  0.00     0.330 C 
ATOM     19  O   UNL     1      39.697  -0.554  15.546  1.00  0.00    -0.247 OA
BRANCH  18  20
ATOM     20  O   UNL     1      39.136   1.590  16.180  1.00  0.00    -0.466 OA
ATOM     21  C   UNL     1      38.801   2.348  15.024  1.00  0.00     0.282 C 
ENDBRANCH  18  20
ENDBRANCH  17  18
ENDBRANCH  15  16
ENDBRANCH  13  14
ENDBRANCH  12  13
ENDBRANCH  11  12
ENDBRANCH  10  11
ENDBRANCH   1  10
TORSDOF 15
ENDMDL
MODEL 6
REMARK VINA RESULT:    -5.430      1.392      2.622
REMARK INTER + INTRA:         -12.697
REMARK INTER:                  -9.981
REMARK INTRA:                  -2.717
REMARK UNBOUND:                -2.507
REMARK SMILES CCCCCCCCCCCCCC=CC=CC(=O)OC
REMARK SMILES IDX 9 1 8 2 7 3 6 4 5 5 4 6 3 7 2 8 1 9 10 10 11 11 12 12 13 13
REMARK SMILES IDX 14 14 15 15 16 16 17 17 18 18 19 19 20 20 21 21
REMARK H PARENT
REMARK Flexibility Score: inf
ROOT
ATOM      1  C   UNL     1      36.177  -1.765  17.558  1.00  0.00     0.000 C 
ENDROOT
BRANCH   1   2
ATOM      2  C   UNL     1      36.148  -1.882  16.022  1.00  0.00     0.000 C 
BRANCH   2   3
ATOM      3  C   UNL     1      35.145  -0.913  15.375  1.00  0.00     0.000 C 
BRANCH   3   4
ATOM      4  C   UNL     1      35.769   0.456  15.053  1.00  0.00    -0.000 C 
BRANCH   4   5
ATOM      5  C   UNL     1      35.377   1.538  16.072  1.00  0.00    -0.000 C 
BRANCH   5   6
ATOM      6  C   UNL     1      36.509   1.866  17.058  1.00  0.00    -0.000 C 
BRANCH   6   7
ATOM      7  C   UNL     1      37.880   1.752  16.376  1.00  0.00    -0.000 C 
BRANCH   7   8
ATOM      8  C   UNL     1      38.869   0.892  17.178  1.00  0.00    -0.003 C 
ATOM      9  C   UNL     1      39.542  -0.186  16.327  1.00  0.00     0.004 C 
ENDBRANCH   7   8
ENDBRANCH   6   7
ENDBRANCH   5   6
ENDBRANCH   4   5
ENDBRANCH   3   4
ENDBRANCH   2   3
ENDBRANCH   1   2
BRANCH   1  10
ATOM     10  C   UNL     1      34.780  -1.906  18.184  1.00  0.00     0.000 C 
BRANCH  10  11
ATOM     11  C   UNL     1      34.337  -0.638  18.935  1.00  0.00     0.000 C 
BRANCH  11  12
ATOM     12  C   UNL     1      32.816  -0.406  18.867  1.00  0.00     0.004 C 
BRANCH  12  13
ATOM     13  C   UNL     1      32.304   0.002  17.474  1.00  0.00     0.027 C 
BRANCH  13  14
ATOM     14  C   UNL     1      31.582  -1.122  16.777  1.00  0.00    -0.027 C 
ATOM     15  C   UNL     1      30.256  -1.182  16.586  1.00  0.00    -0.004 C 
BRANCH  15  16
ATOM     16  C   UNL     1      29.311  -0.133  17.036  1.00  0.00     0.007 C 
ATOM     17  C   UNL     1      28.614  -0.170  18.182  1.00  0.00     0.093 C 
BRANCH  17  18
ATOM     18  C   UNL     1      28.767  -1.158  19.269  1.00  0.00     0.330 C 
ATOM     19  O   UNL     1      29.648  -1.021  20.160  1.00  0.00    -0.247 OA
BRANCH  18  20
ATOM     20  O   UNL     1      27.864  -2.224  19.332  1.00  0.00    -0.466 OA
ATOM     21  C   UNL     1      26.650  -2.247  18.591  1.00  0.00     0.282 C 
ENDBRANCH  18  20
ENDBRANCH  17  18
ENDBRANCH  15  16
ENDBRANCH  13  14
ENDBRANCH  12  13
ENDBRANCH  11  12
ENDBRANCH  10  11
ENDBRANCH   1  10
TORSDOF 15
ENDMDL
MODEL 7
REMARK VINA RESULT:    -5.413      1.133      2.242
REMARK INTER + INTRA:         -12.666
REMARK INTER:                 -10.039
REMARK INTRA:                  -2.627
REMARK UNBOUND:                -2.507
REMARK SMILES CCCCCCCCCCCCCC=CC=CC(=O)OC
REMARK SMILES IDX 9 1 8 2 7 3 6 4 5 5 4 6 3 7 2 8 1 9 10 10 11 11 12 12 13 13
REMARK SMILES IDX 14 14 15 15 16 16 17 17 18 18 19 19 20 20 21 21
REMARK H PARENT
REMARK Flexibility Score: inf
ROOT
ATOM      1  C   UNL     1      35.100   1.715  17.628  1.00  0.00     0.000 C 
ENDROOT
BRANCH   1   2
ATOM      2  C   UNL     1      35.075   2.036  16.123  1.00  0.00     0.000 C 
BRANCH   2   3
ATOM      3  C   UNL     1      34.579   0.853  15.274  1.00  0.00     0.000 C 
BRANCH   3   4
ATOM      4  C   UNL     1      35.733   0.056  14.640  1.00  0.00    -0.000 C 
BRANCH   4   5
ATOM      5  C   UNL     1      36.019  -1.260  15.382  1.00  0.00    -0.000 C 
BRANCH   5   6
ATOM      6  C   UNL     1      37.207  -1.151  16.350  1.00  0.00    -0.000 C 
BRANCH   6   7
ATOM      7  C   UNL     1      38.216  -0.102  15.863  1.00  0.00    -0.000 C 
BRANCH   7   8
ATOM      8  C   UNL     1      38.677   0.841  16.986  1.00  0.00    -0.003 C 
ATOM      9  C   UNL     1      38.834   2.288  16.519  1.00  0.00     0.004 C 
ENDBRANCH   7   8
ENDBRANCH   6   7
ENDBRANCH   5   6
ENDBRANCH   4   5
ENDBRANCH   3   4
ENDBRANCH   2   3
ENDBRANCH   1   2
BRANCH   1  10
ATOM     10  C   UNL     1      33.764   1.142  18.129  1.00  0.00     0.000 C 
BRANCH  10  11
ATOM     11  C   UNL     1      33.934  -0.195  18.872  1.00  0.00     0.000 C 
BRANCH  11  12
ATOM     12  C   UNL     1      33.632  -1.414  17.981  1.00  0.00     0.004 C 
BRANCH  12  13
ATOM     13  C   UNL     1      32.148  -1.823  17.957  1.00  0.00     0.027 C 
BRANCH  13  14
ATOM     14  C   UNL     1      31.397  -1.189  16.814  1.00  0.00    -0.027 C 
ATOM     15  C   UNL     1      30.249  -0.508  16.934  1.00  0.00    -0.004 C 
BRANCH  15  16
ATOM     16  C   UNL     1      29.558  -0.277  18.225  1.00  0.00     0.007 C 
ATOM     17  C   UNL     1      28.543  -1.019  18.694  1.00  0.00     0.093 C 
BRANCH  17  18
ATOM     18  C   UNL     1      28.033  -2.276  18.110  1.00  0.00     0.330 C 
ATOM     19  O   UNL     1      27.027  -2.286  17.351  1.00  0.00    -0.247 OA
BRANCH  18  20
ATOM     20  O   UNL     1      28.734  -3.460  18.362  1.00  0.00    -0.466 OA
ATOM     21  C   UNL     1      29.338  -4.228  17.329  1.00  0.00     0.282 C 
ENDBRANCH  18  20
ENDBRANCH  17  18
ENDBRANCH  15  16
ENDBRANCH  13  14
ENDBRANCH  12  13
ENDBRANCH  11  12
ENDBRANCH  10  11
ENDBRANCH   1  10
TORSDOF 15
ENDMDL
MODEL 8
REMARK VINA RESULT:    -5.386      3.375      8.155
REMARK INTER + INTRA:         -12.615
REMARK INTER:                 -10.219
REMARK INTRA:                  -2.396
REMARK UNBOUND:                -2.507
REMARK SMILES CCCCCCCCCCCCCC=CC=CC(=O)OC
REMARK SMILES IDX 9 1 8 2 7 3 6 4 5 5 4 6 3 7 2 8 1 9 10 10 11 11 12 12 13 13
REMARK SMILES IDX 14 14 15 15 16 16 17 17 18 18 19 19 20 20 21 21
REMARK H PARENT
REMARK Flexibility Score: inf
ROOT
ATOM      1  C   UNL     1      32.026  -1.894  17.727  1.00  0.00     0.000 C 
ENDROOT
BRANCH   1   2
ATOM      2  C   UNL     1      30.984  -1.118  18.554  1.00  0.00     0.000 C 
BRANCH   2   3
ATOM      3  C   UNL     1      29.563  -1.241  17.979  1.00  0.00     0.000 C 
BRANCH   3   4
ATOM      4  C   UNL     1      29.542  -1.902  16.590  1.00  0.00    -0.000 C 
BRANCH   4   5
ATOM      5  C   UNL     1      28.701  -3.189  16.561  1.00  0.00    -0.000 C 
BRANCH   5   6
ATOM      6  C   UNL     1      29.496  -4.430  16.996  1.00  0.00    -0.000 C 
BRANCH   6   7
ATOM      7  C   UNL     1      28.858  -5.084  18.230  1.00  0.00    -0.000 C 
BRANCH   7   8
ATOM      8  C   UNL     1      29.452  -4.564  19.548  1.00  0.00    -0.003 C 
ATOM      9  C   UNL     1      28.430  -3.816  20.404  1.00  0.00     0.004 C 
ENDBRANCH   7   8
ENDBRANCH   6   7
ENDBRANCH   5   6
ENDBRANCH   4   5
ENDBRANCH   3   4
ENDBRANCH   2   3
ENDBRANCH   1   2
BRANCH   1  10
ATOM     10  C   UNL     1      33.429  -1.272  17.817  1.00  0.00     0.000 C 
BRANCH  10  11
ATOM     11  C   UNL     1      33.496  -0.106  18.820  1.00  0.00     0.000 C 
BRANCH  11  12
ATOM     12  C   UNL     1      33.801   1.245  18.144  1.00  0.00     0.004 C 
BRANCH  12  13
ATOM     13  C   UNL     1      33.450   1.291  16.646  1.00  0.00     0.027 C 
BRANCH  13  14
ATOM     14  C   UNL     1      34.519   1.969  15.828  1.00  0.00    -0.027 C 
ATOM     15  C   UNL     1      35.462   1.332  15.119  1.00  0.00    -0.004 C 
BRANCH  15  16
ATOM     16  C   UNL     1      35.578  -0.143  15.039  1.00  0.00     0.007 C 
ATOM     17  C   UNL     1      36.433  -0.886  15.759  1.00  0.00     0.093 C 
BRANCH  17  18
ATOM     18  C   UNL     1      37.292  -0.410  16.862  1.00  0.00     0.330 C 
ATOM     19  O   UNL     1      36.910  -0.464  18.061  1.00  0.00    -0.247 OA
BRANCH  18  20
ATOM     20  O   UNL     1      38.579   0.044  16.555  1.00  0.00    -0.466 OA
ATOM     21  C   UNL     1      39.544  -0.770  15.900  1.00  0.00     0.282 C 
ENDBRANCH  18  20
ENDBRANCH  17  18
ENDBRANCH  15  16
ENDBRANCH  13  14
ENDBRANCH  12  13
ENDBRANCH  11  12
ENDBRANCH  10  11
ENDBRANCH   1  10
TORSDOF 15
ENDMDL
MODEL 9
REMARK VINA RESULT:    -5.308      3.378      8.328
REMARK INTER + INTRA:         -12.468
REMARK INTER:                  -9.659
REMARK INTRA:                  -2.809
REMARK UNBOUND:                -2.507
REMARK SMILES CCCCCCCCCCCCCC=CC=CC(=O)OC
REMARK SMILES IDX 9 1 8 2 7 3 6 4 5 5 4 6 3 7 2 8 1 9 10 10 11 11 12 12 13 13
REMARK SMILES IDX 14 14 15 15 16 16 17 17 18 18 19 19 20 20 21 21
REMARK H PARENT
REMARK Flexibility Score: inf
ROOT
ATOM      1  C   UNL     1      29.243  -0.506  17.407  1.00  0.00     0.000 C 
ENDROOT
BRANCH   1   2
ATOM      2  C   UNL     1      27.801  -1.043  17.479  1.00  0.00     0.000 C 
BRANCH   2   3
ATOM      3  C   UNL     1      27.423  -1.535  18.886  1.00  0.00     0.000 C 
BRANCH   3   4
ATOM      4  C   UNL     1      28.404  -1.045  19.966  1.00  0.00    -0.000 C 
BRANCH   4   5
ATOM      5  C   UNL     1      29.065  -2.203  20.732  1.00  0.00    -0.000 C 
BRANCH   5   6
ATOM      6  C   UNL     1      28.568  -3.582  20.271  1.00  0.00    -0.000 C 
BRANCH   6   7
ATOM      7  C   UNL     1      29.697  -4.375  19.598  1.00  0.00    -0.000 C 
BRANCH   7   8
ATOM      8  C   UNL     1      29.299  -4.910  18.213  1.00  0.00    -0.003 C 
ATOM      9  C   UNL     1      27.791  -5.114  18.068  1.00  0.00     0.004 C 
ENDBRANCH   7   8
ENDBRANCH   6   7
ENDBRANCH   5   6
ENDBRANCH   4   5
ENDBRANCH   3   4
ENDBRANCH   2   3
ENDBRANCH   1   2
BRANCH   1  10
ATOM     10  C   UNL     1      30.180  -1.442  16.626  1.00  0.00     0.000 C 
BRANCH  10  11
ATOM     11  C   UNL     1      31.397  -1.888  17.455  1.00  0.00     0.000 C 
BRANCH  11  12
ATOM     12  C   UNL     1      31.820  -0.842  18.504  1.00  0.00     0.004 C 
BRANCH  12  13
ATOM     13  C   UNL     1      33.293  -0.409  18.402  1.00  0.00     0.027 C 
BRANCH  13  14
ATOM     14  C   UNL     1      33.538   0.523  17.243  1.00  0.00    -0.027 C 
ATOM     15  C   UNL     1      34.168   0.188  16.108  1.00  0.00    -0.004 C 
BRANCH  15  16
ATOM     16  C   UNL     1      34.709  -1.165  15.835  1.00  0.00     0.007 C 
ATOM     17  C   UNL     1      35.952  -1.569  16.140  1.00  0.00     0.093 C 
BRANCH  17  18
ATOM     18  C   UNL     1      36.947  -0.821  16.934  1.00  0.00     0.330 C 
ATOM     19  O   UNL     1      36.875  -0.765  18.191  1.00  0.00    -0.247 OA
BRANCH  18  20
ATOM     20  O   UNL     1      38.020  -0.224  16.264  1.00  0.00    -0.466 OA
ATOM     21  C   UNL     1      37.849   0.846  15.342  1.00  0.00     0.282 C 
ENDBRANCH  18  20
ENDBRANCH  17  18
ENDBRANCH  15  16
ENDBRANCH  13  14
ENDBRANCH  12  13
ENDBRANCH  11  12
ENDBRANCH  10  11
ENDBRANCH   1  10
TORSDOF 15
ENDMDL
