MODEL 1
REMARK VINA RESULT:    -5.126      0.000      0.000
REMARK INTER + INTRA:          -5.276
REMARK INTER:                  -5.276
REMARK INTRA:                   0.000
REMARK UNBOUND:                 0.000
REMARK SMILES Oc1ccc2[nH]ccc2c1
REMARK SMILES IDX 3 1 4 2 5 3 9 4 8 5 7 6 6 7 10 8 2 9 1 11
REMARK H PARENT 6 10 1 12
REMARK Flexibility Score: inf
ROOT
ATOM      1  C   UNL     1      21.558  24.114  32.093  1.00  0.00     0.048 A 
ATOM      2  C   UNL     1      20.913  24.301  30.857  1.00  0.00     0.030 A 
ATOM      3  C   UNL     1      21.598  25.000  29.864  1.00  0.00     0.046 A 
ATOM      4  C   UNL     1      22.858  25.494  30.071  1.00  0.00     0.003 A 
ATOM      5  C   UNL     1      23.249  26.125  28.911  1.00  0.00     0.028 A 
ATOM      6  C   UNL     1      22.176  25.975  28.037  1.00  0.00     0.083 A 
ATOM      7  N   UNL     1      21.170  25.287  28.624  1.00  0.00    -0.361 N 
ATOM      8  C   UNL     1      23.525  25.327  31.283  1.00  0.00     0.056 A 
ATOM      9  C   UNL     1      22.860  24.624  32.309  1.00  0.00     0.116 A 
ATOM     10  H   UNL     1      20.251  25.034  28.197  1.00  0.00     0.166 HD
ENDROOT
BRANCH   9  11
ATOM     11  O   UNL     1      23.476  24.425  33.543  1.00  0.00    -0.508 OA
ATOM     12  H   UNL     1      24.454  24.650  33.687  1.00  0.00     0.293 HD
ENDBRANCH   9  11
TORSDOF 1
ENDMDL
MODEL 2
REMARK VINA RESULT:    -5.082      0.832      2.350
REMARK INTER + INTRA:          -5.231
REMARK INTER:                  -5.231
REMARK INTRA:                   0.000
REMARK UNBOUND:                 0.000
REMARK SMILES Oc1ccc2[nH]ccc2c1
REMARK SMILES IDX 3 1 4 2 5 3 9 4 8 5 7 6 6 7 10 8 2 9 1 11
REMARK H PARENT 6 10 1 12
REMARK Flexibility Score: inf
ROOT
ATOM      1  C   UNL     1      23.526  25.381  31.082  1.00  0.00     0.048 A 
ATOM      2  C   UNL     1      22.819  25.480  29.869  1.00  0.00     0.030 A 
ATOM      3  C   UNL     1      21.555  24.895  29.802  1.00  0.00     0.046 A 
ATOM      4  C   UNL     1      21.007  24.243  30.874  1.00  0.00     0.003 A 
ATOM      5  C   UNL     1      19.767  23.785  30.486  1.00  0.00     0.028 A 
ATOM      6  C   UNL     1      19.625  24.195  29.164  1.00  0.00     0.083 A 
ATOM      7  N   UNL     1      20.720  24.874  28.751  1.00  0.00    -0.361 N 
ATOM      8  C   UNL     1      21.679  24.127  32.089  1.00  0.00     0.056 A 
ATOM      9  C   UNL     1      22.961  24.708  32.190  1.00  0.00     0.116 A 
ATOM     10  H   UNL     1      20.879  25.292  27.808  1.00  0.00     0.166 HD
ENDROOT
BRANCH   9  11
ATOM     11  O   UNL     1      23.681  24.624  33.380  1.00  0.00    -0.508 OA
ATOM     12  H   UNL     1      24.686  24.753  33.399  1.00  0.00     0.293 HD
ENDBRANCH   9  11
TORSDOF 1
ENDMDL
MODEL 3
REMARK VINA RESULT:    -5.077      1.328      2.602
REMARK INTER + INTRA:          -5.225
REMARK INTER:                  -5.225
REMARK INTRA:                   0.000
REMARK UNBOUND:                 0.000
REMARK SMILES Oc1ccc2[nH]ccc2c1
REMARK SMILES IDX 3 1 4 2 5 3 9 4 8 5 7 6 6 7 10 8 2 9 1 11
REMARK H PARENT 6 10 1 12
REMARK Flexibility Score: inf
ROOT
ATOM      1  C   UNL     1      23.445  26.044  29.654  1.00  0.00     0.048 A 
ATOM      2  C   UNL     1      22.445  25.949  28.670  1.00  0.00     0.030 A 
ATOM      3  C   UNL     1      21.300  25.213  28.973  1.00  0.00     0.046 A 
ATOM      4  C   UNL     1      21.141  24.599  30.187  1.00  0.00     0.003 A 
ATOM      5  C   UNL     1      19.919  23.962  30.168  1.00  0.00     0.028 A 
ATOM      6  C   UNL     1      19.387  24.233  28.911  1.00  0.00     0.083 A 
ATOM      7  N   UNL     1      20.235  24.998  28.185  1.00  0.00    -0.361 N 
ATOM      8  C   UNL     1      22.111  24.673  31.183  1.00  0.00     0.056 A 
ATOM      9  C   UNL     1      23.282  25.411  30.908  1.00  0.00     0.116 A 
ATOM     10  H   UNL     1      20.087  25.345  27.212  1.00  0.00     0.166 HD
ENDROOT
BRANCH   9  11
ATOM     11  O   UNL     1      24.288  25.521  31.866  1.00  0.00    -0.508 OA
ATOM     12  H   UNL     1      24.988  24.796  31.983  1.00  0.00     0.293 HD
ENDBRANCH   9  11
TORSDOF 1
ENDMDL
MODEL 4
REMARK VINA RESULT:    -5.013     17.346     18.643
REMARK INTER + INTRA:          -5.160
REMARK INTER:                  -5.160
REMARK INTRA:                   0.000
REMARK UNBOUND:                 0.000
REMARK SMILES Oc1ccc2[nH]ccc2c1
REMARK SMILES IDX 3 1 4 2 5 3 9 4 8 5 7 6 6 7 10 8 2 9 1 11
REMARK H PARENT 6 10 1 12
REMARK Flexibility Score: inf
ROOT
ATOM      1  C   UNL     1       6.889  12.114  33.952  1.00  0.00     0.048 A 
ATOM      2  C   UNL     1       7.008  13.072  32.928  1.00  0.00     0.030 A 
ATOM      3  C   UNL     1       7.910  14.118  33.117  1.00  0.00     0.046 A 
ATOM      4  C   UNL     1       8.663  14.222  34.256  1.00  0.00     0.003 A 
ATOM      5  C   UNL     1       9.442  15.352  34.132  1.00  0.00     0.028 A 
ATOM      6  C   UNL     1       9.113  15.886  32.891  1.00  0.00     0.083 A 
ATOM      7  N   UNL     1       8.177  15.129  32.274  1.00  0.00    -0.361 N 
ATOM      8  C   UNL     1       8.570  13.292  35.289  1.00  0.00     0.056 A 
ATOM      9  C   UNL     1       7.665  12.220  35.129  1.00  0.00     0.116 A 
ATOM     10  H   UNL     1       7.751  15.300  31.336  1.00  0.00     0.166 HD
ENDROOT
BRANCH   9  11
ATOM     11  O   UNL     1       7.529  11.259  36.128  1.00  0.00    -0.508 OA
ATOM     12  H   UNL     1       6.932  10.449  36.004  1.00  0.00     0.293 HD
ENDBRANCH   9  11
TORSDOF 1
ENDMDL
MODEL 5
REMARK VINA RESULT:    -4.962      2.787      3.664
REMARK INTER + INTRA:          -5.107
REMARK INTER:                  -5.107
REMARK INTRA:                   0.000
REMARK UNBOUND:                 0.000
REMARK SMILES Oc1ccc2[nH]ccc2c1
REMARK SMILES IDX 3 1 4 2 5 3 9 4 8 5 7 6 6 7 10 8 2 9 1 11
REMARK H PARENT 6 10 1 12
REMARK Flexibility Score: inf
ROOT
ATOM      1  C   UNL     1      19.465  23.753  30.059  1.00  0.00     0.048 A 
ATOM      2  C   UNL     1      20.093  23.614  31.310  1.00  0.00     0.030 A 
ATOM      3  C   UNL     1      21.357  24.179  31.471  1.00  0.00     0.046 A 
ATOM      4  C   UNL     1      21.979  24.852  30.453  1.00  0.00     0.003 A 
ATOM      5  C   UNL     1      23.198  25.282  30.928  1.00  0.00     0.028 A 
ATOM      6  C   UNL     1      23.253  24.836  32.245  1.00  0.00     0.083 A 
ATOM      7  N   UNL     1      22.125  24.164  32.572  1.00  0.00    -0.361 N 
ATOM      8  C   UNL     1      21.385  25.007  29.202  1.00  0.00     0.056 A 
ATOM      9  C   UNL     1      20.105  24.446  29.006  1.00  0.00     0.116 A 
ATOM     10  H   UNL     1      21.903  23.724  33.493  1.00  0.00     0.166 HD
ENDROOT
BRANCH   9  11
ATOM     11  O   UNL     1      19.462  24.570  27.777  1.00  0.00    -0.508 OA
ATOM     12  H   UNL     1      19.968  24.836  26.940  1.00  0.00     0.293 HD
ENDBRANCH   9  11
TORSDOF 1
ENDMDL
MODEL 6
REMARK VINA RESULT:    -4.930      2.587      4.000
REMARK INTER + INTRA:          -5.074
REMARK INTER:                  -5.074
REMARK INTRA:                   0.000
REMARK UNBOUND:                 0.000
REMARK SMILES Oc1ccc2[nH]ccc2c1
REMARK SMILES IDX 3 1 4 2 5 3 9 4 8 5 7 6 6 7 10 8 2 9 1 11
REMARK H PARENT 6 10 1 12
REMARK Flexibility Score: inf
ROOT
ATOM      1  C   UNL     1      22.480  25.934  28.671  1.00  0.00     0.048 A 
ATOM      2  C   UNL     1      23.495  26.034  29.639  1.00  0.00     0.030 A 
ATOM      3  C   UNL     1      23.266  25.452  30.886  1.00  0.00     0.046 A 
ATOM      4  C   UNL     1      22.096  24.801  31.171  1.00  0.00     0.003 A 
ATOM      5  C   UNL     1      22.183  24.348  32.469  1.00  0.00     0.028 A 
ATOM      6  C   UNL     1      23.436  24.758  32.914  1.00  0.00     0.083 A 
ATOM      7  N   UNL     1      24.094  25.432  31.942  1.00  0.00    -0.361 N 
ATOM      8  C   UNL     1      21.070  24.684  30.236  1.00  0.00     0.056 A 
ATOM      9  C   UNL     1      21.270  25.262  28.964  1.00  0.00     0.116 A 
ATOM     10  H   UNL     1      25.049  25.850  32.006  1.00  0.00     0.166 HD
ENDROOT
BRANCH   9  11
ATOM     11  O   UNL     1      20.280  25.176  27.987  1.00  0.00    -0.508 OA
ATOM     12  H   UNL     1      19.921  26.004  27.525  1.00  0.00     0.293 HD
ENDBRANCH   9  11
TORSDOF 1
ENDMDL
MODEL 7
REMARK VINA RESULT:    -4.856      1.530      2.033
REMARK INTER + INTRA:          -4.998
REMARK INTER:                  -4.998
REMARK INTRA:                   0.000
REMARK UNBOUND:                 0.000
REMARK SMILES Oc1ccc2[nH]ccc2c1
REMARK SMILES IDX 3 1 4 2 5 3 9 4 8 5 7 6 6 7 10 8 2 9 1 11
REMARK H PARENT 6 10 1 12
REMARK Flexibility Score: inf
ROOT
ATOM      1  C   UNL     1      19.682  23.628  30.421  1.00  0.00     0.048 A 
ATOM      2  C   UNL     1      20.135  24.238  29.237  1.00  0.00     0.030 A 
ATOM      3  C   UNL     1      21.361  24.902  29.275  1.00  0.00     0.046 A 
ATOM      4  C   UNL     1      22.110  24.963  30.419  1.00  0.00     0.003 A 
ATOM      5  C   UNL     1      23.250  25.680  30.126  1.00  0.00     0.028 A 
ATOM      6  C   UNL     1      23.128  26.024  28.784  1.00  0.00     0.083 A 
ATOM      7  N   UNL     1      21.973  25.545  28.268  1.00  0.00    -0.361 N 
ATOM      8  C   UNL     1      21.691  24.370  31.608  1.00  0.00     0.056 A 
ATOM      9  C   UNL     1      20.454  23.690  31.604  1.00  0.00     0.116 A 
ATOM     10  H   UNL     1      21.630  25.657  27.287  1.00  0.00     0.166 HD
ENDROOT
BRANCH   9  11
ATOM     11  O   UNL     1      19.983  23.077  32.762  1.00  0.00    -0.508 OA
ATOM     12  H   UNL     1      20.257  22.133  33.010  1.00  0.00     0.293 HD
ENDBRANCH   9  11
TORSDOF 1
ENDMDL
MODEL 8
REMARK VINA RESULT:    -4.792     18.046     19.428
REMARK INTER + INTRA:          -4.932
REMARK INTER:                  -4.932
REMARK INTRA:                   0.000
REMARK UNBOUND:                 0.000
REMARK SMILES Oc1ccc2[nH]ccc2c1
REMARK SMILES IDX 3 1 4 2 5 3 9 4 8 5 7 6 6 7 10 8 2 9 1 11
REMARK H PARENT 6 10 1 12
REMARK Flexibility Score: inf
ROOT
ATOM      1  C   UNL     1       6.228  12.033  33.694  1.00  0.00     0.048 A 
ATOM      2  C   UNL     1       7.045  11.950  34.836  1.00  0.00     0.030 A 
ATOM      3  C   UNL     1       8.058  12.897  34.983  1.00  0.00     0.046 A 
ATOM      4  C   UNL     1       8.263  13.881  34.053  1.00  0.00     0.003 A 
ATOM      5  C   UNL     1       9.326  14.642  34.486  1.00  0.00     0.028 A 
ATOM      6  C   UNL     1       9.720  14.064  35.689  1.00  0.00     0.083 A 
ATOM      7  N   UNL     1       8.942  12.999  35.988  1.00  0.00    -0.361 N 
ATOM      8  C   UNL     1       7.473  13.992  32.911  1.00  0.00     0.056 A 
ATOM      9  C   UNL     1       6.438  13.049  32.733  1.00  0.00     0.116 A 
ATOM     10  H   UNL     1       9.018  12.384  36.829  1.00  0.00     0.166 HD
ENDROOT
BRANCH   9  11
ATOM     11  O   UNL     1       5.615  13.109  31.610  1.00  0.00    -0.508 OA
ATOM     12  H   UNL     1       5.822  12.575  30.774  1.00  0.00     0.293 HD
ENDBRANCH   9  11
TORSDOF 1
ENDMDL
MODEL 9
REMARK VINA RESULT:    -4.652     17.774     19.165
REMARK INTER + INTRA:          -4.787
REMARK INTER:                  -4.787
REMARK INTRA:                   0.000
REMARK UNBOUND:                 0.000
REMARK SMILES Oc1ccc2[nH]ccc2c1
REMARK SMILES IDX 3 1 4 2 5 3 9 4 8 5 7 6 6 7 10 8 2 9 1 11
REMARK H PARENT 6 10 1 12
REMARK Flexibility Score: inf
ROOT
ATOM      1  C   UNL     1       9.274  14.463  34.481  1.00  0.00     0.048 A 
ATOM      2  C   UNL     1       8.466  14.717  33.357  1.00  0.00     0.030 A 
ATOM      3  C   UNL     1       7.360  13.893  33.151  1.00  0.00     0.046 A 
ATOM      4  C   UNL     1       7.057  12.868  34.006  1.00  0.00     0.003 A 
ATOM      5  C   UNL     1       5.920  12.255  33.527  1.00  0.00     0.028 A 
ATOM      6  C   UNL     1       5.584  12.961  32.377  1.00  0.00     0.083 A 
ATOM      7  N   UNL     1       6.466  13.961  32.151  1.00  0.00    -0.361 N 
ATOM      8  C   UNL     1       7.836  12.589  35.127  1.00  0.00     0.056 A 
ATOM      9  C   UNL     1       8.963  13.404  35.365  1.00  0.00     0.116 A 
ATOM     10  H   UNL     1       6.452  14.643  31.360  1.00  0.00     0.166 HD
ENDROOT
BRANCH   9  11
ATOM     11  O   UNL     1       9.779  13.173  36.470  1.00  0.00    -0.508 OA
ATOM     12  H   UNL     1       9.534  13.522  37.390  1.00  0.00     0.293 HD
ENDBRANCH   9  11
TORSDOF 1
ENDMDL
