MODEL 1
REMARK VINA RESULT:    -3.345      0.000      0.000
REMARK INTER + INTRA:          -4.754
REMARK INTER:                  -4.519
REMARK INTRA:                  -0.235
REMARK UNBOUND:                -0.235
REMARK SMILES CCCCCCCC(=O)[O-]
REMARK SMILES IDX 5 1 6 2 7 3 8 4 9 5 10 6 4 7 3 8 2 9 1 10
REMARK H PARENT
REMARK Flexibility Score: inf
ROOT
ATOM      1  C   UNL     1      -2.065 -16.531 -25.868  1.00  0.00     0.000 C 
ENDROOT
BRANCH   1   2
ATOM      2  C   UNL     1      -1.929 -18.017 -25.516  1.00  0.00     0.006 C 
BRANCH   2   3
ATOM      3  C   UNL     1      -0.553 -18.554 -25.919  1.00  0.00     0.053 C 
BRANCH   3   4
ATOM      4  C   UNL     1      -0.563 -20.049 -25.950  1.00  0.00     0.041 C 
ATOM      5  O   UNL     1      -1.324 -20.662 -26.746  1.00  0.00    -0.550 OA
ATOM      6  O   UNL     1       0.303 -20.767 -25.135  1.00  0.00    -0.550 OA
ENDBRANCH   3   4
ENDBRANCH   2   3
ENDBRANCH   1   2
BRANCH   1   7
ATOM      7  C   UNL     1      -1.089 -16.136 -26.982  1.00  0.00     0.000 C 
BRANCH   7   8
ATOM      8  C   UNL     1      -0.548 -14.718 -26.764  1.00  0.00    -0.000 C 
BRANCH   8   9
ATOM      9  C   UNL     1      -1.692 -13.700 -26.679  1.00  0.00    -0.003 C 
ATOM     10  C   UNL     1      -1.190 -12.282 -26.933  1.00  0.00     0.004 C 
ENDBRANCH   8   9
ENDBRANCH   7   8
ENDBRANCH   1   7
TORSDOF 6
ENDMDL
MODEL 2
REMARK VINA RESULT:    -3.182      0.454      1.119
REMARK INTER + INTRA:          -4.534
REMARK INTER:                  -4.370
REMARK INTRA:                  -0.164
REMARK UNBOUND:                -0.235
REMARK SMILES CCCCCCCC(=O)[O-]
REMARK SMILES IDX 5 1 6 2 7 3 8 4 9 5 10 6 4 7 3 8 2 9 1 10
REMARK H PARENT
REMARK Flexibility Score: inf
ROOT
ATOM      1  C   UNL     1      -1.905 -16.642 -25.642  1.00  0.00     0.000 C 
ENDROOT
BRANCH   1   2
ATOM      2  C   UNL     1      -1.874 -18.174 -25.610  1.00  0.00     0.006 C 
BRANCH   2   3
ATOM      3  C   UNL     1      -0.477 -18.703 -25.948  1.00  0.00     0.053 C 
BRANCH   3   4
ATOM      4  C   UNL     1      -0.460 -20.198 -25.911  1.00  0.00     0.041 C 
ATOM      5  O   UNL     1       0.287 -20.803 -25.097  1.00  0.00    -0.550 OA
ATOM      6  O   UNL     1      -1.306 -20.923 -26.741  1.00  0.00    -0.550 OA
ENDBRANCH   3   4
ENDBRANCH   2   3
ENDBRANCH   1   2
BRANCH   1   7
ATOM      7  C   UNL     1      -1.269 -16.103 -26.929  1.00  0.00     0.000 C 
BRANCH   7   8
ATOM      8  C   UNL     1      -0.633 -14.728 -26.695  1.00  0.00    -0.000 C 
BRANCH   8   9
ATOM      9  C   UNL     1      -1.076 -13.726 -27.768  1.00  0.00    -0.003 C 
ATOM     10  C   UNL     1      -0.925 -12.290 -27.278  1.00  0.00     0.004 C 
ENDBRANCH   8   9
ENDBRANCH   7   8
ENDBRANCH   1   7
TORSDOF 6
ENDMDL
MODEL 3
REMARK VINA RESULT:    -3.081      3.474      5.710
REMARK INTER + INTRA:          -4.396
REMARK INTER:                  -4.121
REMARK INTRA:                  -0.276
REMARK UNBOUND:                -0.235
REMARK SMILES CCCCCCCC(=O)[O-]
REMARK SMILES IDX 5 1 6 2 7 3 8 4 9 5 10 6 4 7 3 8 2 9 1 10
REMARK H PARENT
REMARK Flexibility Score: inf
ROOT
ATOM      1  C   UNL     1      -2.124 -16.479 -25.797  1.00  0.00     0.000 C 
ENDROOT
BRANCH   1   2
ATOM      2  C   UNL     1      -1.145 -16.180 -26.937  1.00  0.00     0.006 C 
BRANCH   2   3
ATOM      3  C   UNL     1      -0.451 -14.832 -26.727  1.00  0.00     0.053 C 
BRANCH   3   4
ATOM      4  C   UNL     1      -1.407 -13.707 -26.969  1.00  0.00     0.041 C 
ATOM      5  O   UNL     1      -1.954 -13.572 -28.096  1.00  0.00    -0.550 OA
ATOM      6  O   UNL     1      -1.730 -12.836 -25.937  1.00  0.00    -0.550 OA
ENDBRANCH   3   4
ENDBRANCH   2   3
ENDBRANCH   1   2
BRANCH   1   7
ATOM      7  C   UNL     1      -2.090 -17.964 -25.415  1.00  0.00     0.000 C 
BRANCH   7   8
ATOM      8  C   UNL     1      -0.752 -18.603 -25.806  1.00  0.00    -0.000 C 
BRANCH   8   9
ATOM      9  C   UNL     1      -0.929 -20.088 -26.144  1.00  0.00    -0.003 C 
ATOM     10  C   UNL     1       0.145 -20.939 -25.474  1.00  0.00     0.004 C 
ENDBRANCH   8   9
ENDBRANCH   7   8
ENDBRANCH   1   7
TORSDOF 6
ENDMDL
