MODEL 1
REMARK VINA RESULT:    -2.634      0.000      0.000
REMARK INTER + INTRA:          -3.239
REMARK INTER:                  -3.173
REMARK INTRA:                  -0.066
REMARK UNBOUND:                -0.066
REMARK SMILES CCCCCO
REMARK SMILES IDX 4 1 3 2 2 3 1 4 5 5 6 6
REMARK H PARENT 6 7
REMARK Flexibility Score: inf
ROOT
ATOM      1  C   UNL     1     -13.423  24.324 -35.006  1.00  0.00     0.028 C 
ENDROOT
BRANCH   1   2
ATOM      2  C   UNL     1     -13.684  25.286 -33.838  1.00  0.00     0.002 C 
BRANCH   2   3
ATOM      3  C   UNL     1     -14.403  26.551 -34.321  1.00  0.00    -0.003 C 
ATOM      4  C   UNL     1     -14.197  26.764 -35.818  1.00  0.00     0.004 C 
ENDBRANCH   2   3
ENDBRANCH   1   2
BRANCH   1   5
ATOM      5  C   UNL     1     -14.008  22.933 -34.745  1.00  0.00     0.156 C 
BRANCH   5   6
ATOM      6  O   UNL     1     -15.279  22.812 -35.327  1.00  0.00    -0.396 OA
ATOM      7  H   UNL     1     -15.930  22.721 -34.583  1.00  0.00     0.210 HD
ENDBRANCH   5   6
ENDBRANCH   1   5
TORSDOF 4
ENDMDL
MODEL 2
REMARK VINA RESULT:    -2.604     15.566     16.694
REMARK INTER + INTRA:          -3.203
REMARK INTER:                  -3.193
REMARK INTRA:                  -0.009
REMARK UNBOUND:                -0.066
REMARK SMILES CCCCCO
REMARK SMILES IDX 4 1 3 2 2 3 1 4 5 5 6 6
REMARK H PARENT 6 7
REMARK Flexibility Score: inf
ROOT
ATOM      1  C   UNL     1     -23.743  12.304 -32.749  1.00  0.00     0.028 C 
ENDROOT
BRANCH   1   2
ATOM      2  C   UNL     1     -25.069  13.010 -33.069  1.00  0.00     0.002 C 
BRANCH   2   3
ATOM      3  C   UNL     1     -25.879  12.211 -34.097  1.00  0.00    -0.003 C 
ATOM      4  C   UNL     1     -27.312  11.992 -33.618  1.00  0.00     0.004 C 
ENDBRANCH   2   3
ENDBRANCH   1   2
BRANCH   1   5
ATOM      5  C   UNL     1     -23.103  12.843 -31.466  1.00  0.00     0.156 C 
BRANCH   5   6
ATOM      6  O   UNL     1     -23.550  12.122 -30.348  1.00  0.00    -0.396 OA
ATOM      7  H   UNL     1     -24.088  12.749 -29.797  1.00  0.00     0.210 HD
ENDBRANCH   5   6
ENDBRANCH   1   5
TORSDOF 4
ENDMDL
MODEL 3
REMARK VINA RESULT:    -2.556     21.229     21.906
REMARK INTER + INTRA:          -3.145
REMARK INTER:                  -3.133
REMARK INTRA:                  -0.011
REMARK UNBOUND:                -0.066
REMARK SMILES CCCCCO
REMARK SMILES IDX 4 1 3 2 2 3 1 4 5 5 6 6
REMARK H PARENT 6 7
REMARK Flexibility Score: inf
ROOT
ATOM      1  C   UNL     1     -16.255  10.054 -18.797  1.00  0.00     0.028 C 
ENDROOT
BRANCH   1   2
ATOM      2  C   UNL     1     -16.503   8.888 -19.764  1.00  0.00     0.002 C 
BRANCH   2   3
ATOM      3  C   UNL     1     -15.767   9.110 -21.090  1.00  0.00    -0.003 C 
ATOM      4  C   UNL     1     -16.564   8.548 -22.264  1.00  0.00     0.004 C 
ENDBRANCH   2   3
ENDBRANCH   1   2
BRANCH   1   5
ATOM      5  C   UNL     1     -17.563  10.699 -18.330  1.00  0.00     0.156 C 
BRANCH   5   6
ATOM      6  O   UNL     1     -18.262   9.839 -17.470  1.00  0.00    -0.396 OA
ATOM      7  H   UNL     1     -19.068   9.532 -17.962  1.00  0.00     0.210 HD
ENDBRANCH   5   6
ENDBRANCH   1   5
TORSDOF 4
ENDMDL
MODEL 4
REMARK VINA RESULT:    -2.554     20.845     21.157
REMARK INTER + INTRA:          -3.143
REMARK INTER:                  -3.114
REMARK INTRA:                  -0.029
REMARK UNBOUND:                -0.066
REMARK SMILES CCCCCO
REMARK SMILES IDX 4 1 3 2 2 3 1 4 5 5 6 6
REMARK H PARENT 6 7
REMARK Flexibility Score: inf
ROOT
ATOM      1  C   UNL     1     -28.217  23.053 -19.890  1.00  0.00     0.028 C 
ENDROOT
BRANCH   1   2
ATOM      2  C   UNL     1     -29.448  23.896 -20.256  1.00  0.00     0.002 C 
BRANCH   2   3
ATOM      3  C   UNL     1     -29.886  23.628 -21.700  1.00  0.00    -0.003 C 
ATOM      4  C   UNL     1     -30.752  24.766 -22.233  1.00  0.00     0.004 C 
ENDBRANCH   2   3
ENDBRANCH   1   2
BRANCH   1   5
ATOM      5  C   UNL     1     -28.435  22.248 -18.606  1.00  0.00     0.156 C 
BRANCH   5   6
ATOM      6  O   UNL     1     -29.030  21.010 -18.890  1.00  0.00    -0.396 OA
ATOM      7  H   UNL     1     -29.816  21.194 -19.468  1.00  0.00     0.210 HD
ENDBRANCH   5   6
ENDBRANCH   1   5
TORSDOF 4
ENDMDL
MODEL 5
REMARK VINA RESULT:    -2.465     14.949     15.545
REMARK INTER + INTRA:          -3.035
REMARK INTER:                  -3.008
REMARK INTRA:                  -0.027
REMARK UNBOUND:                -0.066
REMARK SMILES CCCCCO
REMARK SMILES IDX 4 1 3 2 2 3 1 4 5 5 6 6
REMARK H PARENT 6 7
REMARK Flexibility Score: inf
ROOT
ATOM      1  C   UNL     1     -27.162  25.549 -27.085  1.00  0.00     0.028 C 
ENDROOT
BRANCH   1   2
ATOM      2  C   UNL     1     -26.902  25.537 -25.571  1.00  0.00     0.002 C 
BRANCH   2   3
ATOM      3  C   UNL     1     -27.911  26.426 -24.836  1.00  0.00    -0.003 C 
ATOM      4  C   UNL     1     -27.257  27.139 -23.654  1.00  0.00     0.004 C 
ENDBRANCH   2   3
ENDBRANCH   1   2
BRANCH   1   5
ATOM      5  C   UNL     1     -25.915  25.956 -27.876  1.00  0.00     0.156 C 
BRANCH   5   6
ATOM      6  O   UNL     1     -24.750  25.660 -27.153  1.00  0.00    -0.396 OA
ATOM      7  H   UNL     1     -24.975  24.919 -26.533  1.00  0.00     0.210 HD
ENDBRANCH   5   6
ENDBRANCH   1   5
TORSDOF 4
ENDMDL
MODEL 6
REMARK VINA RESULT:    -2.464      1.474      3.233
REMARK INTER + INTRA:          -3.035
REMARK INTER:                  -2.993
REMARK INTRA:                  -0.042
REMARK UNBOUND:                -0.066
REMARK SMILES CCCCCO
REMARK SMILES IDX 4 1 3 2 2 3 1 4 5 5 6 6
REMARK H PARENT 6 7
REMARK Flexibility Score: inf
ROOT
ATOM      1  C   UNL     1     -13.781  25.475 -33.665  1.00  0.00     0.028 C 
ENDROOT
BRANCH   1   2
ATOM      2  C   UNL     1     -13.187  24.273 -34.413  1.00  0.00     0.002 C 
BRANCH   2   3
ATOM      3  C   UNL     1     -14.033  23.015 -34.187  1.00  0.00    -0.003 C 
ATOM      4  C   UNL     1     -14.026  22.117 -35.421  1.00  0.00     0.004 C 
ENDBRANCH   2   3
ENDBRANCH   1   2
BRANCH   1   5
ATOM      5  C   UNL     1     -14.416  26.488 -34.622  1.00  0.00     0.156 C 
BRANCH   5   6
ATOM      6  O   UNL     1     -14.567  25.934 -35.902  1.00  0.00    -0.396 OA
ATOM      7  H   UNL     1     -15.524  26.029 -36.146  1.00  0.00     0.210 HD
ENDBRANCH   5   6
ENDBRANCH   1   5
TORSDOF 4
ENDMDL
MODEL 7
REMARK VINA RESULT:    -2.412     14.026     14.609
REMARK INTER + INTRA:          -2.972
REMARK INTER:                  -2.869
REMARK INTRA:                  -0.102
REMARK UNBOUND:                -0.066
REMARK SMILES CCCCCO
REMARK SMILES IDX 4 1 3 2 2 3 1 4 5 5 6 6
REMARK H PARENT 6 7
REMARK Flexibility Score: inf
ROOT
ATOM      1  C   UNL     1     -26.903  25.532 -27.171  1.00  0.00     0.028 C 
ENDROOT
BRANCH   1   2
ATOM      2  C   UNL     1     -26.376  24.904 -25.872  1.00  0.00     0.002 C 
BRANCH   2   3
ATOM      3  C   UNL     1     -26.567  23.383 -25.883  1.00  0.00    -0.003 C 
ATOM      4  C   UNL     1     -25.238  22.662 -26.096  1.00  0.00     0.004 C 
ENDBRANCH   2   3
ENDBRANCH   1   2
BRANCH   1   5
ATOM      5  C   UNL     1     -25.765  25.995 -28.086  1.00  0.00     0.156 C 
BRANCH   5   6
ATOM      6  O   UNL     1     -24.525  25.861 -27.443  1.00  0.00    -0.396 OA
ATOM      7  H   UNL     1     -24.700  25.908 -26.467  1.00  0.00     0.210 HD
ENDBRANCH   5   6
ENDBRANCH   1   5
TORSDOF 4
ENDMDL
MODEL 8
REMARK VINA RESULT:    -2.373     19.739     20.191
REMARK INTER + INTRA:          -2.925
REMARK INTER:                  -2.833
REMARK INTRA:                  -0.092
REMARK UNBOUND:                -0.066
REMARK SMILES CCCCCO
REMARK SMILES IDX 4 1 3 2 2 3 1 4 5 5 6 6
REMARK H PARENT 6 7
REMARK Flexibility Score: inf
ROOT
ATOM      1  C   UNL     1     -28.440  22.781 -20.326  1.00  0.00     0.028 C 
ENDROOT
BRANCH   1   2
ATOM      2  C   UNL     1     -27.052  22.724 -20.980  1.00  0.00     0.002 C 
BRANCH   2   3
ATOM      3  C   UNL     1     -27.060  21.796 -22.201  1.00  0.00    -0.003 C 
ATOM      4  C   UNL     1     -26.869  20.339 -21.787  1.00  0.00     0.004 C 
ENDBRANCH   2   3
ENDBRANCH   1   2
BRANCH   1   5
ATOM      5  C   UNL     1     -28.423  22.226 -18.899  1.00  0.00     0.156 C 
BRANCH   5   6
ATOM      6  O   UNL     1     -29.039  20.966 -18.848  1.00  0.00    -0.396 OA
ATOM      7  H   UNL     1     -29.774  21.031 -18.184  1.00  0.00     0.210 HD
ENDBRANCH   5   6
ENDBRANCH   1   5
TORSDOF 4
ENDMDL
MODEL 9
REMARK VINA RESULT:    -2.315     20.764     21.171
REMARK INTER + INTRA:          -2.855
REMARK INTER:                  -2.752
REMARK INTRA:                  -0.103
REMARK UNBOUND:                -0.066
REMARK SMILES CCCCCO
REMARK SMILES IDX 4 1 3 2 2 3 1 4 5 5 6 6
REMARK H PARENT 6 7
REMARK Flexibility Score: inf
ROOT
ATOM      1  C   UNL     1     -27.847  22.929 -20.383  1.00  0.00     0.028 C 
ENDROOT
BRANCH   1   2
ATOM      2  C   UNL     1     -29.076  23.664 -19.827  1.00  0.00     0.002 C 
BRANCH   2   3
ATOM      3  C   UNL     1     -28.681  24.593 -18.673  1.00  0.00    -0.003 C 
ATOM      4  C   UNL     1     -28.102  23.804 -17.503  1.00  0.00     0.004 C 
ENDBRANCH   2   3
ENDBRANCH   1   2
BRANCH   1   5
ATOM      5  C   UNL     1     -28.116  21.434 -20.582  1.00  0.00     0.156 C 
BRANCH   5   6
ATOM      6  O   UNL     1     -28.799  20.901 -19.478  1.00  0.00    -0.396 OA
ATOM      7  H   UNL     1     -28.968  21.654 -18.853  1.00  0.00     0.210 HD
ENDBRANCH   5   6
ENDBRANCH   1   5
TORSDOF 4
ENDMDL
