MODEL 1
REMARK VINA RESULT:    -4.458      0.000      0.000
REMARK INTER + INTRA:          -6.870
REMARK INTER:                  -6.544
REMARK INTRA:                  -0.326
REMARK UNBOUND:                -0.326
REMARK SMILES CCCCCC(=O)CCCCC
REMARK SMILES IDX 6 1 7 2 5 3 4 4 3 5 2 6 1 7 8 8 9 9 10 10 11 11 12 12
REMARK H PARENT
REMARK Flexibility Score: inf
ROOT
ATOM      1  C   UNL     1     116.909 116.282 116.892  1.00  0.00     0.132 C 
ATOM      2  O   UNL     1     117.155 115.194 117.391  1.00  0.00    -0.300 OA
ENDROOT
BRANCH   1   3
ATOM      3  C   UNL     1     116.085 116.351 115.634  1.00  0.00     0.075 C 
BRANCH   3   4
ATOM      4  C   UNL     1     116.936 116.841 114.455  1.00  0.00     0.008 C 
BRANCH   4   5
ATOM      5  C   UNL     1     116.139 116.943 113.142  1.00  0.00     0.000 C 
BRANCH   5   6
ATOM      6  C   UNL     1     116.333 115.764 112.172  1.00  0.00    -0.003 C 
ATOM      7  C   UNL     1     117.794 115.549 111.776  1.00  0.00     0.004 C 
ENDBRANCH   5   6
ENDBRANCH   4   5
ENDBRANCH   3   4
ENDBRANCH   1   3
BRANCH   1   8
ATOM      8  C   UNL     1     117.441 117.534 117.544  1.00  0.00     0.075 C 
BRANCH   8   9
ATOM      9  C   UNL     1     118.880 117.351 118.052  1.00  0.00     0.008 C 
BRANCH   9  10
ATOM     10  C   UNL     1     119.850 118.459 117.601  1.00  0.00     0.000 C 
BRANCH  10  11
ATOM     11  C   UNL     1     119.676 119.761 118.398  1.00  0.00    -0.003 C 
ATOM     12  C   UNL     1     120.404 120.919 117.723  1.00  0.00     0.004 C 
ENDBRANCH  10  11
ENDBRANCH   9  10
ENDBRANCH   8   9
ENDBRANCH   1   8
TORSDOF 8
ENDMDL
MODEL 2
REMARK VINA RESULT:    -4.398      2.568      5.748
REMARK INTER + INTRA:          -6.781
REMARK INTER:                  -6.324
REMARK INTRA:                  -0.457
REMARK UNBOUND:                -0.326
REMARK SMILES CCCCCC(=O)CCCCC
REMARK SMILES IDX 6 1 7 2 5 3 4 4 3 5 2 6 1 7 8 8 9 9 10 10 11 11 12 12
REMARK H PARENT
REMARK Flexibility Score: inf
ROOT
ATOM      1  C   UNL     1     116.980 117.106 117.116  1.00  0.00     0.132 C 
ATOM      2  O   UNL     1     118.156 117.410 116.978  1.00  0.00    -0.300 OA
ENDROOT
BRANCH   1   3
ATOM      3  C   UNL     1     116.238 117.557 118.346  1.00  0.00     0.075 C 
BRANCH   3   4
ATOM      4  C   UNL     1     116.208 119.089 118.429  1.00  0.00     0.008 C 
BRANCH   4   5
ATOM      5  C   UNL     1     115.032 119.708 117.652  1.00  0.00     0.000 C 
BRANCH   5   6
ATOM      6  C   UNL     1     113.646 119.475 118.279  1.00  0.00    -0.003 C 
ATOM      7  C   UNL     1     112.598 120.483 117.809  1.00  0.00     0.004 C 
ENDBRANCH   5   6
ENDBRANCH   4   5
ENDBRANCH   3   4
ENDBRANCH   1   3
BRANCH   1   8
ATOM      8  C   UNL     1     116.298 116.281 116.054  1.00  0.00     0.075 C 
BRANCH   8   9
ATOM      9  C   UNL     1     116.277 116.998 114.694  1.00  0.00     0.008 C 
BRANCH   9  10
ATOM     10  C   UNL     1     117.005 116.236 113.572  1.00  0.00     0.000 C 
BRANCH  10  11
ATOM     11  C   UNL     1     116.173 116.138 112.284  1.00  0.00    -0.003 C 
ATOM     12  C   UNL     1     115.548 117.485 111.931  1.00  0.00     0.004 C 
ENDBRANCH  10  11
ENDBRANCH   9  10
ENDBRANCH   8   9
ENDBRANCH   1   8
TORSDOF 8
ENDMDL
MODEL 3
REMARK VINA RESULT:    -4.386      2.910      3.866
REMARK INTER + INTRA:          -6.764
REMARK INTER:                  -6.469
REMARK INTRA:                  -0.295
REMARK UNBOUND:                -0.326
REMARK SMILES CCCCCC(=O)CCCCC
REMARK SMILES IDX 6 1 7 2 5 3 4 4 3 5 2 6 1 7 8 8 9 9 10 10 11 11 12 12
REMARK H PARENT
REMARK Flexibility Score: inf
ROOT
ATOM      1  C   UNL     1     116.822 117.213 117.010  1.00  0.00     0.132 C 
ATOM      2  O   UNL     1     117.871 117.659 117.453  1.00  0.00    -0.300 OA
ENDROOT
BRANCH   1   3
ATOM      3  C   UNL     1     116.859 116.207 115.892  1.00  0.00     0.075 C 
BRANCH   3   4
ATOM      4  C   UNL     1     116.977 116.911 114.533  1.00  0.00     0.008 C 
BRANCH   4   5
ATOM      5  C   UNL     1     116.188 116.200 113.419  1.00  0.00     0.000 C 
BRANCH   5   6
ATOM      6  C   UNL     1     116.119 116.963 112.084  1.00  0.00    -0.003 C 
ATOM      7  C   UNL     1     117.423 117.680 111.736  1.00  0.00     0.004 C 
ENDBRANCH   5   6
ENDBRANCH   4   5
ENDBRANCH   3   4
ENDBRANCH   1   3
BRANCH   1   8
ATOM      8  C   UNL     1     115.513 117.684 117.591  1.00  0.00     0.075 C 
BRANCH   8   9
ATOM      9  C   UNL     1     115.585 119.144 118.066  1.00  0.00     0.008 C 
BRANCH   9  10
ATOM     10  C   UNL     1     114.430 120.027 117.560  1.00  0.00     0.000 C 
BRANCH  10  11
ATOM     11  C   UNL     1     113.125 119.801 118.338  1.00  0.00    -0.003 C 
ATOM     12  C   UNL     1     111.942 120.449 117.626  1.00  0.00     0.004 C 
ENDBRANCH  10  11
ENDBRANCH   9  10
ENDBRANCH   8   9
ENDBRANCH   1   8
TORSDOF 8
ENDMDL
MODEL 4
REMARK VINA RESULT:    -4.385      1.053      5.565
REMARK INTER + INTRA:          -6.763
REMARK INTER:                  -6.352
REMARK INTRA:                  -0.411
REMARK UNBOUND:                -0.326
REMARK SMILES CCCCCC(=O)CCCCC
REMARK SMILES IDX 6 1 7 2 5 3 4 4 3 5 2 6 1 7 8 8 9 9 10 10 11 11 12 12
REMARK H PARENT
REMARK Flexibility Score: inf
ROOT
ATOM      1  C   UNL     1     116.335 116.906 117.121  1.00  0.00     0.132 C 
ATOM      2  O   UNL     1     115.195 116.698 117.508  1.00  0.00    -0.300 OA
ENDROOT
BRANCH   1   3
ATOM      3  C   UNL     1     117.161 117.972 117.790  1.00  0.00     0.075 C 
BRANCH   3   4
ATOM      4  C   UNL     1     118.570 117.450 118.101  1.00  0.00     0.008 C 
BRANCH   4   5
ATOM      5  C   UNL     1     119.680 118.423 117.662  1.00  0.00     0.000 C 
BRANCH   5   6
ATOM      6  C   UNL     1     119.714 119.757 118.429  1.00  0.00    -0.003 C 
ATOM      7  C   UNL     1     120.464 120.859 117.681  1.00  0.00     0.004 C 
ENDBRANCH   5   6
ENDBRANCH   4   5
ENDBRANCH   3   4
ENDBRANCH   1   3
BRANCH   1   8
ATOM      8  C   UNL     1     116.891 116.093 115.980  1.00  0.00     0.075 C 
BRANCH   8   9
ATOM      9  C   UNL     1     116.915 116.888 114.664  1.00  0.00     0.008 C 
BRANCH   9  10
ATOM     10  C   UNL     1     116.156 116.211 113.508  1.00  0.00     0.000 C 
BRANCH  10  11
ATOM     11  C   UNL     1     116.941 116.236 112.188  1.00  0.00    -0.003 C 
ATOM     12  C   UNL     1     117.439 117.643 111.872  1.00  0.00     0.004 C 
ENDBRANCH  10  11
ENDBRANCH   9  10
ENDBRANCH   8   9
ENDBRANCH   1   8
TORSDOF 8
ENDMDL
MODEL 5
REMARK VINA RESULT:    -4.373      3.017      5.217
REMARK INTER + INTRA:          -6.745
REMARK INTER:                  -6.461
REMARK INTRA:                  -0.285
REMARK UNBOUND:                -0.326
REMARK SMILES CCCCCC(=O)CCCCC
REMARK SMILES IDX 6 1 7 2 5 3 4 4 3 5 2 6 1 7 8 8 9 9 10 10 11 11 12 12
REMARK H PARENT
REMARK Flexibility Score: inf
ROOT
ATOM      1  C   UNL     1     116.188 116.609 116.637  1.00  0.00     0.132 C 
ATOM      2  O   UNL     1     115.850 117.769 116.821  1.00  0.00    -0.300 OA
ENDROOT
BRANCH   1   3
ATOM      3  C   UNL     1     117.030 116.265 115.438  1.00  0.00     0.075 C 
BRANCH   3   4
ATOM      4  C   UNL     1     116.300 116.632 114.139  1.00  0.00     0.008 C 
BRANCH   4   5
ATOM      5  C   UNL     1     117.192 116.502 112.892  1.00  0.00     0.000 C 
BRANCH   5   6
ATOM      6  C   UNL     1     116.491 116.812 111.557  1.00  0.00    -0.003 C 
ATOM      7  C   UNL     1     115.225 117.652 111.726  1.00  0.00     0.004 C 
ENDBRANCH   5   6
ENDBRANCH   4   5
ENDBRANCH   3   4
ENDBRANCH   1   3
BRANCH   1   8
ATOM      8  C   UNL     1     115.750 115.546 117.612  1.00  0.00     0.075 C 
BRANCH   8   9
ATOM      9  C   UNL     1     114.296 115.746 118.068  1.00  0.00     0.008 C 
BRANCH   9  10
ATOM     10  C   UNL     1     113.331 114.645 117.592  1.00  0.00     0.000 C 
BRANCH  10  11
ATOM     11  C   UNL     1     113.415 113.372 118.447  1.00  0.00    -0.003 C 
ATOM     12  C   UNL     1     112.783 112.184 117.728  1.00  0.00     0.004 C 
ENDBRANCH  10  11
ENDBRANCH   9  10
ENDBRANCH   8   9
ENDBRANCH   1   8
TORSDOF 8
ENDMDL
MODEL 6
REMARK VINA RESULT:    -4.358      2.650      5.635
REMARK INTER + INTRA:          -6.723
REMARK INTER:                  -6.463
REMARK INTRA:                  -0.260
REMARK UNBOUND:                -0.326
REMARK SMILES CCCCCC(=O)CCCCC
REMARK SMILES IDX 6 1 7 2 5 3 4 4 3 5 2 6 1 7 8 8 9 9 10 10 11 11 12 12
REMARK H PARENT
REMARK Flexibility Score: inf
ROOT
ATOM      1  C   UNL     1     117.307 116.538 116.895  1.00  0.00     0.132 C 
ATOM      2  O   UNL     1     118.129 117.298 117.386  1.00  0.00    -0.300 OA
ENDROOT
BRANCH   1   3
ATOM      3  C   UNL     1     117.196 115.130 117.415  1.00  0.00     0.075 C 
BRANCH   3   4
ATOM      4  C   UNL     1     118.511 114.692 118.075  1.00  0.00     0.008 C 
BRANCH   4   5
ATOM      5  C   UNL     1     118.882 113.232 117.758  1.00  0.00     0.000 C 
BRANCH   5   6
ATOM      6  C   UNL     1     120.393 112.948 117.682  1.00  0.00    -0.003 C 
ATOM      7  C   UNL     1     120.932 112.233 118.921  1.00  0.00     0.004 C 
ENDBRANCH   5   6
ENDBRANCH   4   5
ENDBRANCH   3   4
ENDBRANCH   1   3
BRANCH   1   8
ATOM      8  C   UNL     1     116.422 117.026 115.776  1.00  0.00     0.075 C 
BRANCH   8   9
ATOM      9  C   UNL     1     116.677 116.264 114.466  1.00  0.00     0.008 C 
BRANCH   9  10
ATOM     10  C   UNL     1     116.260 117.034 113.200  1.00  0.00     0.000 C 
BRANCH  10  11
ATOM     11  C   UNL     1     117.351 117.034 112.119  1.00  0.00    -0.003 C 
ATOM     12  C   UNL     1     117.795 115.613 111.787  1.00  0.00     0.004 C 
ENDBRANCH  10  11
ENDBRANCH   9  10
ENDBRANCH   8   9
ENDBRANCH   1   8
TORSDOF 8
ENDMDL
MODEL 7
REMARK VINA RESULT:    -4.337      1.823      2.786
REMARK INTER + INTRA:          -6.691
REMARK INTER:                  -6.025
REMARK INTRA:                  -0.667
REMARK UNBOUND:                -0.326
REMARK SMILES CCCCCC(=O)CCCCC
REMARK SMILES IDX 6 1 7 2 5 3 4 4 3 5 2 6 1 7 8 8 9 9 10 10 11 11 12 12
REMARK H PARENT
REMARK Flexibility Score: inf
ROOT
ATOM      1  C   UNL     1     117.316 116.350 117.225  1.00  0.00     0.132 C 
ATOM      2  O   UNL     1     117.705 115.381 117.862  1.00  0.00    -0.300 OA
ENDROOT
BRANCH   1   3
ATOM      3  C   UNL     1     116.286 116.161 116.144  1.00  0.00     0.075 C 
BRANCH   3   4
ATOM      4  C   UNL     1     116.644 116.990 114.904  1.00  0.00     0.008 C 
BRANCH   4   5
ATOM      5  C   UNL     1     116.384 116.240 113.585  1.00  0.00     0.000 C 
BRANCH   5   6
ATOM      6  C   UNL     1     116.131 117.142 112.364  1.00  0.00    -0.003 C 
ATOM      7  C   UNL     1     117.414 117.728 111.776  1.00  0.00     0.004 C 
ENDBRANCH   5   6
ENDBRANCH   4   5
ENDBRANCH   3   4
ENDBRANCH   1   3
BRANCH   1   8
ATOM      8  C   UNL     1     117.880 117.714 117.534  1.00  0.00     0.075 C 
BRANCH   8   9
ATOM      9  C   UNL     1     117.246 118.328 118.793  1.00  0.00     0.008 C 
BRANCH   9  10
ATOM     10  C   UNL     1     116.459 119.624 118.530  1.00  0.00     0.000 C 
BRANCH  10  11
ATOM     11  C   UNL     1     115.156 119.381 117.754  1.00  0.00    -0.003 C 
ATOM     12  C   UNL     1     114.222 118.453 118.526  1.00  0.00     0.004 C 
ENDBRANCH  10  11
ENDBRANCH   9  10
ENDBRANCH   8   9
ENDBRANCH   1   8
TORSDOF 8
ENDMDL
MODEL 8
REMARK VINA RESULT:    -4.333      2.509      3.769
REMARK INTER + INTRA:          -6.686
REMARK INTER:                  -6.194
REMARK INTRA:                  -0.492
REMARK UNBOUND:                -0.326
REMARK SMILES CCCCCC(=O)CCCCC
REMARK SMILES IDX 6 1 7 2 5 3 4 4 3 5 2 6 1 7 8 8 9 9 10 10 11 11 12 12
REMARK H PARENT
REMARK Flexibility Score: inf
ROOT
ATOM      1  C   UNL     1     117.192 116.438 117.470  1.00  0.00     0.132 C 
ATOM      2  O   UNL     1     117.912 116.877 118.356  1.00  0.00    -0.300 OA
ENDROOT
BRANCH   1   3
ATOM      3  C   UNL     1     117.224 117.074 116.106  1.00  0.00     0.075 C 
BRANCH   3   4
ATOM      4  C   UNL     1     116.302 116.322 115.137  1.00  0.00     0.008 C 
BRANCH   4   5
ATOM      5  C   UNL     1     116.891 116.205 113.719  1.00  0.00     0.000 C 
BRANCH   5   6
ATOM      6  C   UNL     1     116.297 117.180 112.687  1.00  0.00    -0.003 C 
ATOM      7  C   UNL     1     117.347 117.773 111.748  1.00  0.00     0.004 C 
ENDBRANCH   5   6
ENDBRANCH   4   5
ENDBRANCH   3   4
ENDBRANCH   1   3
BRANCH   1   8
ATOM      8  C   UNL     1     116.284 115.271 117.764  1.00  0.00     0.075 C 
BRANCH   8   9
ATOM      9  C   UNL     1     117.008 114.157 118.538  1.00  0.00     0.008 C 
BRANCH   9  10
ATOM     10  C   UNL     1     118.132 113.469 117.741  1.00  0.00     0.000 C 
BRANCH  10  11
ATOM     11  C   UNL     1     119.490 113.534 118.454  1.00  0.00    -0.003 C 
ATOM     12  C   UNL     1     120.555 112.762 117.679  1.00  0.00     0.004 C 
ENDBRANCH  10  11
ENDBRANCH   9  10
ENDBRANCH   8   9
ENDBRANCH   1   8
TORSDOF 8
ENDMDL
MODEL 9
REMARK VINA RESULT:    -4.304      2.279      4.024
REMARK INTER + INTRA:          -6.644
REMARK INTER:                  -5.883
REMARK INTRA:                  -0.761
REMARK UNBOUND:                -0.326
REMARK SMILES CCCCCC(=O)CCCCC
REMARK SMILES IDX 6 1 7 2 5 3 4 4 3 5 2 6 1 7 8 8 9 9 10 10 11 11 12 12
REMARK H PARENT
REMARK Flexibility Score: inf
ROOT
ATOM      1  C   UNL     1     116.997 117.358 117.248  1.00  0.00     0.132 C 
ATOM      2  O   UNL     1     118.022 117.717 117.810  1.00  0.00    -0.300 OA
ENDROOT
BRANCH   1   3
ATOM      3  C   UNL     1     117.028 116.146 116.356  1.00  0.00     0.075 C 
BRANCH   3   4
ATOM      4  C   UNL     1     116.112 116.344 115.141  1.00  0.00     0.008 C 
BRANCH   4   5
ATOM      5  C   UNL     1     116.833 116.995 113.947  1.00  0.00     0.000 C 
BRANCH   5   6
ATOM      6  C   UNL     1     116.378 116.496 112.564  1.00  0.00    -0.003 C 
ATOM      7  C   UNL     1     117.485 115.775 111.793  1.00  0.00     0.004 C 
ENDBRANCH   5   6
ENDBRANCH   4   5
ENDBRANCH   3   4
ENDBRANCH   1   3
BRANCH   1   8
ATOM      8  C   UNL     1     115.725 118.139 117.456  1.00  0.00     0.075 C 
BRANCH   8   9
ATOM      9  C   UNL     1     115.244 118.079 118.915  1.00  0.00     0.008 C 
BRANCH   9  10
ATOM     10  C   UNL     1     114.662 116.715 119.328  1.00  0.00     0.000 C 
BRANCH  10  11
ATOM     11  C   UNL     1     113.464 116.295 118.462  1.00  0.00    -0.003 C 
ATOM     12  C   UNL     1     113.748 114.986 117.730  1.00  0.00     0.004 C 
ENDBRANCH  10  11
ENDBRANCH   9  10
ENDBRANCH   8   9
ENDBRANCH   1   8
TORSDOF 8
ENDMDL
