MODEL 1
REMARK VINA RESULT:    14.036      0.000      0.000
REMARK INTER + INTRA:          25.895
REMARK INTER:                  26.345
REMARK INTRA:                  -0.450
REMARK UNBOUND:                -0.450
REMARK SMILES O=C([O-])CCCCCCCCCCCCCCC(=O)[O-]
REMARK SMILES IDX 10 1 9 2 8 3 7 4 6 5 5 6 4 7 2 8 1 9 3 10 11 11 12 12 13 13
REMARK SMILES IDX 14 14 15 15 16 16 17 17 18 18 19 19 20 20
REMARK H PARENT
REMARK Flexibility Score: inf
ROOT
ATOM      1  C   UNL     1     -11.145  56.921  -3.240  1.00  0.00     0.000 C 
ENDROOT
BRANCH   1   2
ATOM      2  C   UNL     1     -11.802  58.299  -3.427  1.00  0.00     0.000 C 
BRANCH   2   3
ATOM      3  C   UNL     1     -13.168  58.215  -4.129  1.00  0.00     0.000 C 
BRANCH   3   4
ATOM      4  C   UNL     1     -14.012  59.485  -3.928  1.00  0.00     0.000 C 
BRANCH   4   5
ATOM      5  C   UNL     1     -15.518  59.226  -4.088  1.00  0.00     0.000 C 
BRANCH   5   6
ATOM      6  C   UNL     1     -16.291  59.719  -2.859  1.00  0.00     0.006 C 
BRANCH   6   7
ATOM      7  C   UNL     1     -17.610  58.958  -2.696  1.00  0.00     0.053 C 
BRANCH   7   8
ATOM      8  C   UNL     1     -17.378  57.647  -2.015  1.00  0.00     0.041 C 
ATOM      9  O   UNL     1     -17.013  56.643  -2.681  1.00  0.00    -0.550 OA
ATOM     10  O   UNL     1     -17.514  57.546  -0.636  1.00  0.00    -0.550 OA
ENDBRANCH   7   8
ENDBRANCH   6   7
ENDBRANCH   5   6
ENDBRANCH   4   5
ENDBRANCH   3   4
ENDBRANCH   2   3
ENDBRANCH   1   2
BRANCH   1  11
ATOM     11  C   UNL     1     -10.863  56.210  -4.576  1.00  0.00     0.000 C 
BRANCH  11  12
ATOM     12  C   UNL     1     -10.428  54.748  -4.378  1.00  0.00     0.000 C 
BRANCH  12  13
ATOM     13  C   UNL     1      -9.059  54.629  -3.685  1.00  0.00     0.000 C 
BRANCH  13  14
ATOM     14  C   UNL     1      -8.428  53.234  -3.878  1.00  0.00     0.000 C 
BRANCH  14  15
ATOM     15  C   UNL     1      -8.683  52.270  -2.703  1.00  0.00     0.000 C 
BRANCH  15  16
ATOM     16  C   UNL     1      -8.547  50.775  -3.050  1.00  0.00     0.006 C 
BRANCH  16  17
ATOM     17  C   UNL     1      -9.258  49.832  -2.066  1.00  0.00     0.053 C 
BRANCH  17  18
ATOM     18  C   UNL     1     -10.415  49.128  -2.704  1.00  0.00     0.041 C 
ATOM     19  O   UNL     1     -11.534  49.095  -2.127  1.00  0.00    -0.550 OA
ATOM     20  O   UNL     1     -10.250  48.482  -3.924  1.00  0.00    -0.550 OA
ENDBRANCH  17  18
ENDBRANCH  16  17
ENDBRANCH  15  16
ENDBRANCH  14  15
ENDBRANCH  13  14
ENDBRANCH  12  13
ENDBRANCH  11  12
ENDBRANCH   1  11
TORSDOF 15
ENDMDL
MODEL 2
REMARK VINA RESULT:    14.221      4.680      7.440
REMARK INTER + INTRA:          26.242
REMARK INTER:                  26.944
REMARK INTRA:                  -0.703
REMARK UNBOUND:                -0.450
REMARK SMILES O=C([O-])CCCCCCCCCCCCCCC(=O)[O-]
REMARK SMILES IDX 10 1 9 2 8 3 7 4 6 5 5 6 4 7 2 8 1 9 3 10 11 11 12 12 13 13
REMARK SMILES IDX 14 14 15 15 16 16 17 17 18 18 19 19 20 20
REMARK H PARENT
REMARK Flexibility Score: inf
ROOT
ATOM      1  C   UNL     1     -18.685  58.747  -3.066  1.00  0.00     0.000 C 
ENDROOT
BRANCH   1   2
ATOM      2  C   UNL     1     -19.056  58.328  -1.634  1.00  0.00     0.000 C 
BRANCH   2   3
ATOM      3  C   UNL     1     -17.847  58.326  -0.683  1.00  0.00     0.000 C 
BRANCH   3   4
ATOM      4  C   UNL     1     -17.406  56.906  -0.294  1.00  0.00     0.000 C 
BRANCH   4   5
ATOM      5  C   UNL     1     -17.433  55.932  -1.482  1.00  0.00     0.000 C 
BRANCH   5   6
ATOM      6  C   UNL     1     -16.171  56.081  -2.341  1.00  0.00     0.006 C 
BRANCH   6   7
ATOM      7  C   UNL     1     -16.524  56.495  -3.772  1.00  0.00     0.053 C 
BRANCH   7   8
ATOM      8  C   UNL     1     -17.107  55.342  -4.523  1.00  0.00     0.041 C 
ATOM      9  O   UNL     1     -17.250  55.407  -5.772  1.00  0.00    -0.550 OA
ATOM     10  O   UNL     1     -17.444  54.173  -3.852  1.00  0.00    -0.550 OA
ENDBRANCH   7   8
ENDBRANCH   6   7
ENDBRANCH   5   6
ENDBRANCH   4   5
ENDBRANCH   3   4
ENDBRANCH   2   3
ENDBRANCH   1   2
BRANCH   1  11
ATOM     11  C   UNL     1     -18.925  60.245  -3.328  1.00  0.00     0.000 C 
BRANCH  11  12
ATOM     12  C   UNL     1     -17.611  61.022  -3.514  1.00  0.00     0.000 C 
BRANCH  12  13
ATOM     13  C   UNL     1     -16.415  60.329  -2.837  1.00  0.00     0.000 C 
BRANCH  13  14
ATOM     14  C   UNL     1     -15.123  60.446  -3.673  1.00  0.00     0.000 C 
BRANCH  14  15
ATOM     15  C   UNL     1     -14.821  59.195  -4.522  1.00  0.00     0.000 C 
BRANCH  15  16
ATOM     16  C   UNL     1     -13.335  58.787  -4.566  1.00  0.00     0.006 C 
BRANCH  16  17
ATOM     17  C   UNL     1     -12.908  57.842  -3.432  1.00  0.00     0.053 C 
BRANCH  17  18
ATOM     18  C   UNL     1     -11.447  57.522  -3.491  1.00  0.00     0.041 C 
ATOM     19  O   UNL     1     -10.599  58.346  -3.056  1.00  0.00    -0.550 OA
ATOM     20  O   UNL     1     -11.018  56.326  -4.054  1.00  0.00    -0.550 OA
ENDBRANCH  17  18
ENDBRANCH  16  17
ENDBRANCH  15  16
ENDBRANCH  14  15
ENDBRANCH  13  14
ENDBRANCH  12  13
ENDBRANCH  11  12
ENDBRANCH   1  11
TORSDOF 15
ENDMDL
MODEL 3
REMARK VINA RESULT:    14.285      0.233      9.305
REMARK INTER + INTRA:          26.363
REMARK INTER:                  26.911
REMARK INTRA:                  -0.549
REMARK UNBOUND:                -0.450
REMARK SMILES O=C([O-])CCCCCCCCCCCCCCC(=O)[O-]
REMARK SMILES IDX 10 1 9 2 8 3 7 4 6 5 5 6 4 7 2 8 1 9 3 10 11 11 12 12 13 13
REMARK SMILES IDX 14 14 15 15 16 16 17 17 18 18 19 19 20 20
REMARK H PARENT
REMARK Flexibility Score: inf
ROOT
ATOM      1  C   UNL     1     -10.851  55.929  -4.562  1.00  0.00     0.000 C 
ENDROOT
BRANCH   1   2
ATOM      2  C   UNL     1     -10.328  54.514  -4.264  1.00  0.00     0.000 C 
BRANCH   2   3
ATOM      3  C   UNL     1      -8.898  54.517  -3.696  1.00  0.00     0.000 C 
BRANCH   3   4
ATOM      4  C   UNL     1      -8.270  53.114  -3.675  1.00  0.00     0.000 C 
BRANCH   4   5
ATOM      5  C   UNL     1      -9.129  52.093  -2.911  1.00  0.00     0.000 C 
BRANCH   5   6
ATOM      6  C   UNL     1      -8.453  50.717  -2.890  1.00  0.00     0.006 C 
BRANCH   6   7
ATOM      7  C   UNL     1      -9.242  49.729  -2.027  1.00  0.00     0.053 C 
BRANCH   7   8
ATOM      8  C   UNL     1     -10.350  49.110  -2.817  1.00  0.00     0.041 C 
ATOM      9  O   UNL     1     -11.531  49.133  -2.380  1.00  0.00    -0.550 OA
ATOM     10  O   UNL     1     -10.089  48.554  -4.064  1.00  0.00    -0.550 OA
ENDBRANCH   7   8
ENDBRANCH   6   7
ENDBRANCH   5   6
ENDBRANCH   4   5
ENDBRANCH   3   4
ENDBRANCH   2   3
ENDBRANCH   1   2
BRANCH   1  11
ATOM     11  C   UNL     1     -11.176  56.725  -3.284  1.00  0.00     0.000 C 
BRANCH  11  12
ATOM     12  C   UNL     1     -11.664  58.149  -3.593  1.00  0.00     0.000 C 
BRANCH  12  13
ATOM     13  C   UNL     1     -13.100  58.175  -4.148  1.00  0.00     0.000 C 
BRANCH  13  14
ATOM     14  C   UNL     1     -13.889  59.411  -3.667  1.00  0.00     0.000 C 
BRANCH  14  15
ATOM     15  C   UNL     1     -15.376  59.391  -4.070  1.00  0.00     0.000 C 
BRANCH  15  16
ATOM     16  C   UNL     1     -16.353  59.838  -2.965  1.00  0.00     0.006 C 
BRANCH  16  17
ATOM     17  C   UNL     1     -17.587  58.935  -2.813  1.00  0.00     0.053 C 
BRANCH  17  18
ATOM     18  C   UNL     1     -17.266  57.669  -2.082  1.00  0.00     0.041 C 
ATOM     19  O   UNL     1     -16.837  56.665  -2.709  1.00  0.00    -0.550 OA
ATOM     20  O   UNL     1     -17.471  57.587  -0.709  1.00  0.00    -0.550 OA
ENDBRANCH  17  18
ENDBRANCH  16  17
ENDBRANCH  15  16
ENDBRANCH  14  15
ENDBRANCH  13  14
ENDBRANCH  12  13
ENDBRANCH  11  12
ENDBRANCH   1  11
TORSDOF 15
ENDMDL
MODEL 4
REMARK VINA RESULT:    14.313      4.783      7.483
REMARK INTER + INTRA:          26.415
REMARK INTER:                  26.682
REMARK INTRA:                  -0.267
REMARK UNBOUND:                -0.450
REMARK SMILES O=C([O-])CCCCCCCCCCCCCCC(=O)[O-]
REMARK SMILES IDX 10 1 9 2 8 3 7 4 6 5 5 6 4 7 2 8 1 9 3 10 11 11 12 12 13 13
REMARK SMILES IDX 14 14 15 15 16 16 17 17 18 18 19 19 20 20
REMARK H PARENT
REMARK Flexibility Score: inf
ROOT
ATOM      1  C   UNL     1     -18.393  58.375  -2.762  1.00  0.00     0.000 C 
ENDROOT
BRANCH   1   2
ATOM      2  C   UNL     1     -18.918  57.732  -1.467  1.00  0.00     0.000 C 
BRANCH   2   3
ATOM      3  C   UNL     1     -17.792  57.386  -0.477  1.00  0.00     0.000 C 
BRANCH   3   4
ATOM      4  C   UNL     1     -16.395  57.524  -1.103  1.00  0.00     0.000 C 
BRANCH   4   5
ATOM      5  C   UNL     1     -15.562  56.239  -0.981  1.00  0.00     0.000 C 
BRANCH   5   6
ATOM      6  C   UNL     1     -15.516  55.486  -2.316  1.00  0.00     0.006 C 
BRANCH   6   7
ATOM      7  C   UNL     1     -16.330  56.217  -3.388  1.00  0.00     0.053 C 
BRANCH   7   8
ATOM      8  C   UNL     1     -17.092  55.240  -4.225  1.00  0.00     0.041 C 
ATOM      9  O   UNL     1     -17.603  54.217  -3.698  1.00  0.00    -0.550 OA
ATOM     10  O   UNL     1     -17.285  55.485  -5.579  1.00  0.00    -0.550 OA
ENDBRANCH   7   8
ENDBRANCH   6   7
ENDBRANCH   5   6
ENDBRANCH   4   5
ENDBRANCH   3   4
ENDBRANCH   2   3
ENDBRANCH   1   2
BRANCH   1  11
ATOM     11  C   UNL     1     -18.974  59.780  -3.006  1.00  0.00     0.000 C 
BRANCH  11  12
ATOM     12  C   UNL     1     -17.925  60.755  -3.564  1.00  0.00     0.000 C 
BRANCH  12  13
ATOM     13  C   UNL     1     -16.553  60.599  -2.883  1.00  0.00     0.000 C 
BRANCH  13  14
ATOM     14  C   UNL     1     -15.750  59.412  -3.456  1.00  0.00     0.000 C 
BRANCH  14  15
ATOM     15  C   UNL     1     -14.660  59.831  -4.462  1.00  0.00     0.000 C 
BRANCH  15  16
ATOM     16  C   UNL     1     -13.592  58.757  -4.744  1.00  0.00     0.006 C 
BRANCH  16  17
ATOM     17  C   UNL     1     -13.120  57.995  -3.495  1.00  0.00     0.053 C 
BRANCH  17  18
ATOM     18  C   UNL     1     -11.646  57.732  -3.524  1.00  0.00     0.041 C 
ATOM     19  O   UNL     1     -10.843  58.564  -3.025  1.00  0.00    -0.550 OA
ATOM     20  O   UNL     1     -11.156  56.581  -4.130  1.00  0.00    -0.550 OA
ENDBRANCH  17  18
ENDBRANCH  16  17
ENDBRANCH  15  16
ENDBRANCH  14  15
ENDBRANCH  13  14
ENDBRANCH  12  13
ENDBRANCH  11  12
ENDBRANCH   1  11
TORSDOF 15
ENDMDL
MODEL 5
REMARK VINA RESULT:    14.680      5.026      7.849
REMARK INTER + INTRA:          27.103
REMARK INTER:                  28.164
REMARK INTRA:                  -1.061
REMARK UNBOUND:                -0.450
REMARK SMILES O=C([O-])CCCCCCCCCCCCCCC(=O)[O-]
REMARK SMILES IDX 10 1 9 2 8 3 7 4 6 5 5 6 4 7 2 8 1 9 3 10 11 11 12 12 13 13
REMARK SMILES IDX 14 14 15 15 16 16 17 17 18 18 19 19 20 20
REMARK H PARENT
REMARK Flexibility Score: inf
ROOT
ATOM      1  C   UNL     1     -17.433  61.072  -3.723  1.00  0.00     0.000 C 
ENDROOT
BRANCH   1   2
ATOM      2  C   UNL     1     -16.606  60.312  -2.673  1.00  0.00     0.000 C 
BRANCH   2   3
ATOM      3  C   UNL     1     -15.117  60.213  -3.049  1.00  0.00     0.000 C 
BRANCH   3   4
ATOM      4  C   UNL     1     -14.880  60.369  -4.560  1.00  0.00     0.000 C 
BRANCH   4   5
ATOM      5  C   UNL     1     -14.206  59.137  -5.183  1.00  0.00     0.000 C 
BRANCH   5   6
ATOM      6  C   UNL     1     -13.765  58.146  -4.098  1.00  0.00     0.006 C 
BRANCH   6   7
ATOM      7  C   UNL     1     -12.304  57.732  -4.291  1.00  0.00     0.053 C 
BRANCH   7   8
ATOM      8  C   UNL     1     -11.502  58.053  -3.071  1.00  0.00     0.041 C 
ATOM      9  O   UNL     1     -11.183  57.141  -2.264  1.00  0.00    -0.550 OA
ATOM     10  O   UNL     1     -11.061  59.352  -2.850  1.00  0.00    -0.550 OA
ENDBRANCH   7   8
ENDBRANCH   6   7
ENDBRANCH   5   6
ENDBRANCH   4   5
ENDBRANCH   3   4
ENDBRANCH   2   3
ENDBRANCH   1   2
BRANCH   1  11
ATOM     11  C   UNL     1     -18.916  60.659  -3.724  1.00  0.00     0.000 C 
BRANCH  11  12
ATOM     12  C   UNL     1     -19.105  59.163  -3.423  1.00  0.00     0.000 C 
BRANCH  12  13
ATOM     13  C   UNL     1     -18.958  58.840  -1.925  1.00  0.00     0.000 C 
BRANCH  13  14
ATOM     14  C   UNL     1     -18.575  57.364  -1.682  1.00  0.00     0.000 C 
BRANCH  14  15
ATOM     15  C   UNL     1     -17.102  57.166  -1.275  1.00  0.00     0.000 C 
BRANCH  15  16
ATOM     16  C   UNL     1     -16.278  56.285  -2.235  1.00  0.00     0.006 C 
BRANCH  16  17
ATOM     17  C   UNL     1     -16.538  56.562  -3.724  1.00  0.00     0.053 C 
BRANCH  17  18
ATOM     18  C   UNL     1     -17.104  55.366  -4.425  1.00  0.00     0.041 C 
ATOM     19  O   UNL     1     -17.200  55.353  -5.681  1.00  0.00    -0.550 OA
ATOM     20  O   UNL     1     -17.553  54.276  -3.689  1.00  0.00    -0.550 OA
ENDBRANCH  17  18
ENDBRANCH  16  17
ENDBRANCH  15  16
ENDBRANCH  14  15
ENDBRANCH  13  14
ENDBRANCH  12  13
ENDBRANCH  11  12
ENDBRANCH   1  11
TORSDOF 15
ENDMDL
MODEL 6
REMARK VINA RESULT:    15.154      4.911      7.424
REMARK INTER + INTRA:          27.992
REMARK INTER:                  29.263
REMARK INTRA:                  -1.271
REMARK UNBOUND:                -0.450
REMARK SMILES O=C([O-])CCCCCCCCCCCCCCC(=O)[O-]
REMARK SMILES IDX 10 1 9 2 8 3 7 4 6 5 5 6 4 7 2 8 1 9 3 10 11 11 12 12 13 13
REMARK SMILES IDX 14 14 15 15 16 16 17 17 18 18 19 19 20 20
REMARK H PARENT
REMARK Flexibility Score: inf
ROOT
ATOM      1  C   UNL     1     -18.294  58.370  -3.150  1.00  0.00     0.000 C 
ENDROOT
BRANCH   1   2
ATOM      2  C   UNL     1     -18.645  59.867  -3.163  1.00  0.00     0.000 C 
BRANCH   2   3
ATOM      3  C   UNL     1     -17.426  60.761  -3.447  1.00  0.00     0.000 C 
BRANCH   3   4
ATOM      4  C   UNL     1     -16.100  60.094  -3.045  1.00  0.00     0.000 C 
BRANCH   4   5
ATOM      5  C   UNL     1     -15.228  59.732  -4.257  1.00  0.00     0.000 C 
BRANCH   5   6
ATOM      6  C   UNL     1     -13.765  59.534  -3.839  1.00  0.00     0.006 C 
BRANCH   6   7
ATOM      7  C   UNL     1     -13.326  58.082  -4.045  1.00  0.00     0.053 C 
BRANCH   7   8
ATOM      8  C   UNL     1     -11.890  57.910  -3.665  1.00  0.00     0.041 C 
ATOM      9  O   UNL     1     -11.435  58.471  -2.633  1.00  0.00    -0.550 OA
ATOM     10  O   UNL     1     -11.064  57.087  -4.421  1.00  0.00    -0.550 OA
ENDBRANCH   7   8
ENDBRANCH   6   7
ENDBRANCH   5   6
ENDBRANCH   4   5
ENDBRANCH   3   4
ENDBRANCH   2   3
ENDBRANCH   1   2
BRANCH   1  11
ATOM     11  C   UNL     1     -18.990  57.604  -2.011  1.00  0.00     0.000 C 
BRANCH  11  12
ATOM     12  C   UNL     1     -18.566  58.112  -0.623  1.00  0.00     0.000 C 
BRANCH  12  13
ATOM     13  C   UNL     1     -17.357  57.343  -0.058  1.00  0.00     0.000 C 
BRANCH  13  14
ATOM     14  C   UNL     1     -16.135  57.406  -0.999  1.00  0.00     0.000 C 
BRANCH  14  15
ATOM     15  C   UNL     1     -15.335  56.090  -1.063  1.00  0.00     0.000 C 
BRANCH  15  16
ATOM     16  C   UNL     1     -15.375  55.374  -2.428  1.00  0.00     0.006 C 
BRANCH  16  17
ATOM     17  C   UNL     1     -16.164  56.127  -3.511  1.00  0.00     0.053 C 
BRANCH  17  18
ATOM     18  C   UNL     1     -17.092  55.221  -4.258  1.00  0.00     0.041 C 
ATOM     19  O   UNL     1     -17.355  55.441  -5.470  1.00  0.00    -0.550 OA
ATOM     20  O   UNL     1     -17.692  54.149  -3.607  1.00  0.00    -0.550 OA
ENDBRANCH  17  18
ENDBRANCH  16  17
ENDBRANCH  15  16
ENDBRANCH  14  15
ENDBRANCH  13  14
ENDBRANCH  12  13
ENDBRANCH  11  12
ENDBRANCH   1  11
TORSDOF 15
ENDMDL
MODEL 7
REMARK VINA RESULT:    15.188      3.349      8.086
REMARK INTER + INTRA:          28.056
REMARK INTER:                  28.803
REMARK INTRA:                  -0.747
REMARK UNBOUND:                -0.450
REMARK SMILES O=C([O-])CCCCCCCCCCCCCCC(=O)[O-]
REMARK SMILES IDX 10 1 9 2 8 3 7 4 6 5 5 6 4 7 2 8 1 9 3 10 11 11 12 12 13 13
REMARK SMILES IDX 14 14 15 15 16 16 17 17 18 18 19 19 20 20
REMARK H PARENT
REMARK Flexibility Score: inf
ROOT
ATOM      1  C   UNL     1     -16.001  60.022  -2.930  1.00  0.00     0.000 C 
ENDROOT
BRANCH   1   2
ATOM      2  C   UNL     1     -14.652  60.240  -3.635  1.00  0.00     0.000 C 
BRANCH   2   3
ATOM      3  C   UNL     1     -14.334  59.140  -4.663  1.00  0.00     0.000 C 
BRANCH   3   4
ATOM      4  C   UNL     1     -13.507  57.993  -4.060  1.00  0.00     0.000 C 
BRANCH   4   5
ATOM      5  C   UNL     1     -12.175  58.474  -3.464  1.00  0.00     0.000 C 
BRANCH   5   6
ATOM      6  C   UNL     1     -11.171  57.319  -3.365  1.00  0.00     0.006 C 
BRANCH   6   7
ATOM      7  C   UNL     1     -11.074  56.558  -4.690  1.00  0.00     0.053 C 
BRANCH   7   8
ATOM      8  C   UNL     1     -10.630  55.150  -4.456  1.00  0.00     0.041 C 
ATOM      9  O   UNL     1      -9.510  54.917  -3.929  1.00  0.00    -0.550 OA
ATOM     10  O   UNL     1     -11.475  54.092  -4.770  1.00  0.00    -0.550 OA
ENDBRANCH   7   8
ENDBRANCH   6   7
ENDBRANCH   5   6
ENDBRANCH   4   5
ENDBRANCH   3   4
ENDBRANCH   2   3
ENDBRANCH   1   2
BRANCH   1  11
ATOM     11  C   UNL     1     -17.150  60.809  -3.587  1.00  0.00     0.000 C 
BRANCH  11  12
ATOM     12  C   UNL     1     -18.532  60.275  -3.176  1.00  0.00     0.000 C 
BRANCH  12  13
ATOM     13  C   UNL     1     -18.675  58.761  -3.417  1.00  0.00     0.000 C 
BRANCH  13  14
ATOM     14  C   UNL     1     -18.901  57.981  -2.105  1.00  0.00     0.000 C 
BRANCH  14  15
ATOM     15  C   UNL     1     -17.597  57.641  -1.355  1.00  0.00     0.000 C 
BRANCH  15  16
ATOM     16  C   UNL     1     -16.790  56.474  -1.956  1.00  0.00     0.006 C 
BRANCH  16  17
ATOM     17  C   UNL     1     -16.577  56.571  -3.475  1.00  0.00     0.053 C 
BRANCH  17  18
ATOM     18  C   UNL     1     -17.163  55.398  -4.198  1.00  0.00     0.041 C 
ATOM     19  O   UNL     1     -17.213  55.388  -5.456  1.00  0.00    -0.550 OA
ATOM     20  O   UNL     1     -17.682  54.327  -3.480  1.00  0.00    -0.550 OA
ENDBRANCH  17  18
ENDBRANCH  16  17
ENDBRANCH  15  16
ENDBRANCH  14  15
ENDBRANCH  13  14
ENDBRANCH  12  13
ENDBRANCH  11  12
ENDBRANCH   1  11
TORSDOF 15
ENDMDL
MODEL 8
REMARK VINA RESULT:    15.220      3.374      5.967
REMARK INTER + INTRA:          28.117
REMARK INTER:                  28.710
REMARK INTRA:                  -0.593
REMARK UNBOUND:                -0.450
REMARK SMILES O=C([O-])CCCCCCCCCCCCCCC(=O)[O-]
REMARK SMILES IDX 10 1 9 2 8 3 7 4 6 5 5 6 4 7 2 8 1 9 3 10 11 11 12 12 13 13
REMARK SMILES IDX 14 14 15 15 16 16 17 17 18 18 19 19 20 20
REMARK H PARENT
REMARK Flexibility Score: inf
ROOT
ATOM      1  C   UNL     1     -17.285  60.907  -3.372  1.00  0.00     0.000 C 
ENDROOT
BRANCH   1   2
ATOM      2  C   UNL     1     -18.707  60.327  -3.286  1.00  0.00     0.000 C 
BRANCH   2   3
ATOM      3  C   UNL     1     -18.715  58.795  -3.140  1.00  0.00     0.000 C 
BRANCH   3   4
ATOM      4  C   UNL     1     -18.597  58.343  -1.676  1.00  0.00     0.000 C 
BRANCH   4   5
ATOM      5  C   UNL     1     -17.344  57.491  -1.418  1.00  0.00     0.000 C 
BRANCH   5   6
ATOM      6  C   UNL     1     -17.449  56.134  -2.126  1.00  0.00     0.006 C 
BRANCH   6   7
ATOM      7  C   UNL     1     -16.468  56.048  -3.298  1.00  0.00     0.053 C 
BRANCH   7   8
ATOM      8  C   UNL     1     -17.073  55.286  -4.433  1.00  0.00     0.041 C 
ATOM      9  O   UNL     1     -17.299  54.053  -4.320  1.00  0.00    -0.550 OA
ATOM     10  O   UNL     1     -17.436  55.948  -5.600  1.00  0.00    -0.550 OA
ENDBRANCH   7   8
ENDBRANCH   6   7
ENDBRANCH   5   6
ENDBRANCH   4   5
ENDBRANCH   3   4
ENDBRANCH   2   3
ENDBRANCH   1   2
BRANCH   1  11
ATOM     11  C   UNL     1     -16.197  59.863  -3.061  1.00  0.00     0.000 C 
BRANCH  11  12
ATOM     12  C   UNL     1     -14.815  60.290  -3.581  1.00  0.00     0.000 C 
BRANCH  12  13
ATOM     13  C   UNL     1     -14.299  59.373  -4.705  1.00  0.00     0.000 C 
BRANCH  13  14
ATOM     14  C   UNL     1     -13.558  58.136  -4.155  1.00  0.00     0.000 C 
BRANCH  14  15
ATOM     15  C   UNL     1     -12.182  58.461  -3.541  1.00  0.00     0.000 C 
BRANCH  15  16
ATOM     16  C   UNL     1     -11.213  57.266  -3.455  1.00  0.00     0.006 C 
BRANCH  16  17
ATOM     17  C   UNL     1     -11.152  56.411  -4.731  1.00  0.00     0.053 C 
BRANCH  17  18
ATOM     18  C   UNL     1     -10.674  55.020  -4.450  1.00  0.00     0.041 C 
ATOM     19  O   UNL     1     -11.394  54.030  -4.745  1.00  0.00    -0.550 OA
ATOM     20  O   UNL     1      -9.444  54.819  -3.835  1.00  0.00    -0.550 OA
ENDBRANCH  17  18
ENDBRANCH  16  17
ENDBRANCH  15  16
ENDBRANCH  14  15
ENDBRANCH  13  14
ENDBRANCH  12  13
ENDBRANCH  11  12
ENDBRANCH   1  11
TORSDOF 15
ENDMDL
MODEL 9
REMARK VINA RESULT:    15.499      7.403     10.286
REMARK INTER + INTRA:          28.641
REMARK INTER:                  29.476
REMARK INTRA:                  -0.836
REMARK UNBOUND:                -0.450
REMARK SMILES O=C([O-])CCCCCCCCCCCCCCC(=O)[O-]
REMARK SMILES IDX 10 1 9 2 8 3 7 4 6 5 5 6 4 7 2 8 1 9 3 10 11 11 12 12 13 13
REMARK SMILES IDX 14 14 15 15 16 16 17 17 18 18 19 19 20 20
REMARK H PARENT
REMARK Flexibility Score: inf
ROOT
ATOM      1  C   UNL     1      -3.908  49.341  -0.901  1.00  0.00     0.000 C 
ENDROOT
BRANCH   1   2
ATOM      2  C   UNL     1      -4.735  49.925  -2.058  1.00  0.00     0.000 C 
BRANCH   2   3
ATOM      3  C   UNL     1      -6.138  50.377  -1.616  1.00  0.00     0.000 C 
BRANCH   3   4
ATOM      4  C   UNL     1      -7.025  50.788  -2.803  1.00  0.00     0.000 C 
BRANCH   4   5
ATOM      5  C   UNL     1      -8.522  50.769  -2.457  1.00  0.00     0.000 C 
BRANCH   5   6
ATOM      6  C   UNL     1      -8.895  49.483  -1.708  1.00  0.00     0.006 C 
BRANCH   6   7
ATOM      7  C   UNL     1     -10.373  49.138  -1.909  1.00  0.00     0.053 C 
BRANCH   7   8
ATOM      8  C   UNL     1     -10.737  49.210  -3.357  1.00  0.00     0.041 C 
ATOM      9  O   UNL     1     -11.456  50.152  -3.784  1.00  0.00    -0.550 OA
ATOM     10  O   UNL     1     -10.239  48.266  -4.247  1.00  0.00    -0.550 OA
ENDBRANCH   7   8
ENDBRANCH   6   7
ENDBRANCH   5   6
ENDBRANCH   4   5
ENDBRANCH   3   4
ENDBRANCH   2   3
ENDBRANCH   1   2
BRANCH   1  11
ATOM     11  C   UNL     1      -3.336  47.948  -1.222  1.00  0.00     0.000 C 
BRANCH  11  12
ATOM     12  C   UNL     1      -1.931  47.745  -0.632  1.00  0.00     0.000 C 
BRANCH  12  13
ATOM     13  C   UNL     1      -1.732  46.330  -0.058  1.00  0.00     0.000 C 
BRANCH  13  14
ATOM     14  C   UNL     1      -1.661  45.257  -1.164  1.00  0.00     0.000 C 
BRANCH  14  15
ATOM     15  C   UNL     1      -2.546  44.025  -0.890  1.00  0.00     0.000 C 
BRANCH  15  16
ATOM     16  C   UNL     1      -3.765  43.883  -1.821  1.00  0.00     0.006 C 
BRANCH  16  17
ATOM     17  C   UNL     1      -5.121  43.977  -1.102  1.00  0.00     0.053 C 
BRANCH  17  18
ATOM     18  C   UNL     1      -6.017  44.998  -1.731  1.00  0.00     0.041 C 
ATOM     19  O   UNL     1      -6.712  45.762  -1.012  1.00  0.00    -0.550 OA
ATOM     20  O   UNL     1      -6.109  45.084  -3.116  1.00  0.00    -0.550 OA
ENDBRANCH  17  18
ENDBRANCH  16  17
ENDBRANCH  15  16
ENDBRANCH  14  15
ENDBRANCH  13  14
ENDBRANCH  12  13
ENDBRANCH  11  12
ENDBRANCH   1  11
TORSDOF 15
ENDMDL
