MODEL 1
REMARK VINA RESULT:    -3.413      0.000      0.000
REMARK INTER + INTRA:          -8.351
REMARK INTER:                  -6.206
REMARK INTRA:                  -2.145
REMARK UNBOUND:                -2.145
REMARK SMILES CCCCCCCCCCCCCCCC(=O)[O-]
REMARK SMILES IDX 9 1 10 2 11 3 12 4 13 5 14 6 15 7 16 8 17 9 18 10 8 11 7 12
REMARK SMILES IDX 6 13 5 14 4 15 3 16 2 17 1 18
REMARK H PARENT
REMARK Flexibility Score: inf
ROOT
ATOM      1  C   UNL     1      16.227 -11.165 186.217  1.00  0.00     0.000 C 
ENDROOT
BRANCH   1   2
ATOM      2  C   UNL     1      17.208 -11.497 187.349  1.00  0.00     0.000 C 
BRANCH   2   3
ATOM      3  C   UNL     1      18.577 -11.978 186.834  1.00  0.00     0.000 C 
BRANCH   3   4
ATOM      4  C   UNL     1      19.798 -11.393 187.574  1.00  0.00     0.000 C 
BRANCH   4   5
ATOM      5  C   UNL     1      19.742  -9.875 187.824  1.00  0.00     0.000 C 
BRANCH   5   6
ATOM      6  C   UNL     1      20.001  -9.052 186.550  1.00  0.00     0.006 C 
BRANCH   6   7
ATOM      7  C   UNL     1      19.204  -7.741 186.538  1.00  0.00     0.053 C 
BRANCH   7   8
ATOM      8  C   UNL     1      17.904  -7.890 185.808  1.00  0.00     0.041 C 
ATOM      9  O   UNL     1      17.855  -8.533 184.728  1.00  0.00    -0.550 OA
ATOM     10  O   UNL     1      16.754  -7.288 186.304  1.00  0.00    -0.550 OA
ENDBRANCH   7   8
ENDBRANCH   6   7
ENDBRANCH   5   6
ENDBRANCH   4   5
ENDBRANCH   3   4
ENDBRANCH   2   3
ENDBRANCH   1   2
BRANCH   1  11
ATOM     11  C   UNL     1      16.582 -11.934 184.939  1.00  0.00     0.000 C 
BRANCH  11  12
ATOM     12  C   UNL     1      15.382 -12.741 184.429  1.00  0.00    -0.000 C 
BRANCH  12  13
ATOM     13  C   UNL     1      14.503 -13.216 185.593  1.00  0.00    -0.000 C 
BRANCH  13  14
ATOM     14  C   UNL     1      14.937 -14.607 186.077  1.00  0.00    -0.000 C 
BRANCH  14  15
ATOM     15  C   UNL     1      15.385 -14.608 187.547  1.00  0.00    -0.000 C 
BRANCH  15  16
ATOM     16  C   UNL     1      16.622 -15.489 187.789  1.00  0.00    -0.000 C 
BRANCH  16  17
ATOM     17  C   UNL     1      17.640 -15.404 186.641  1.00  0.00    -0.003 C 
ATOM     18  C   UNL     1      19.074 -15.657 187.103  1.00  0.00     0.004 C 
ENDBRANCH  16  17
ENDBRANCH  15  16
ENDBRANCH  14  15
ENDBRANCH  13  14
ENDBRANCH  12  13
ENDBRANCH  11  12
ENDBRANCH   1  11
TORSDOF 14
ENDMDL
MODEL 2
REMARK VINA RESULT:    -3.389      1.458      3.524
REMARK INTER + INTRA:          -8.307
REMARK INTER:                  -6.054
REMARK INTRA:                  -2.253
REMARK UNBOUND:                -2.145
REMARK SMILES CCCCCCCCCCCCCCCC(=O)[O-]
REMARK SMILES IDX 9 1 10 2 11 3 12 4 13 5 14 6 15 7 16 8 17 9 18 10 8 11 7 12
REMARK SMILES IDX 6 13 5 14 4 15 3 16 2 17 1 18
REMARK H PARENT
REMARK Flexibility Score: inf
ROOT
ATOM      1  C   UNL     1      16.136 -14.372 187.494  1.00  0.00     0.000 C 
ENDROOT
BRANCH   1   2
ATOM      2  C   UNL     1      17.340 -15.182 186.993  1.00  0.00     0.000 C 
BRANCH   2   3
ATOM      3  C   UNL     1      18.629 -14.345 186.901  1.00  0.00     0.000 C 
BRANCH   3   4
ATOM      4  C   UNL     1      18.418 -12.817 186.887  1.00  0.00     0.000 C 
BRANCH   4   5
ATOM      5  C   UNL     1      19.568 -11.995 187.496  1.00  0.00     0.000 C 
BRANCH   5   6
ATOM      6  C   UNL     1      19.549 -10.523 187.050  1.00  0.00     0.006 C 
BRANCH   6   7
ATOM      7  C   UNL     1      19.516  -9.558 188.243  1.00  0.00     0.053 C 
BRANCH   7   8
ATOM      8  C   UNL     1      19.148  -8.168 187.822  1.00  0.00     0.041 C 
ATOM      9  O   UNL     1      18.326  -7.498 188.500  1.00  0.00    -0.550 OA
ATOM     10  O   UNL     1      19.686  -7.627 186.661  1.00  0.00    -0.550 OA
ENDBRANCH   7   8
ENDBRANCH   6   7
ENDBRANCH   5   6
ENDBRANCH   4   5
ENDBRANCH   3   4
ENDBRANCH   2   3
ENDBRANCH   1   2
BRANCH   1  11
ATOM     11  C   UNL     1      14.963 -14.465 186.510  1.00  0.00     0.000 C 
BRANCH  11  12
ATOM     12  C   UNL     1      15.413 -15.057 185.170  1.00  0.00    -0.000 C 
BRANCH  12  13
ATOM     13  C   UNL     1      15.076 -14.114 184.009  1.00  0.00    -0.000 C 
BRANCH  13  14
ATOM     14  C   UNL     1      14.843 -12.682 184.514  1.00  0.00    -0.000 C 
BRANCH  14  15
ATOM     15  C   UNL     1      16.057 -11.769 184.282  1.00  0.00    -0.000 C 
BRANCH  15  16
ATOM     16  C   UNL     1      16.073 -10.554 185.225  1.00  0.00    -0.000 C 
BRANCH  16  17
ATOM     17  C   UNL     1      15.293 -10.806 186.524  1.00  0.00    -0.003 C 
ATOM     18  C   UNL     1      15.966 -10.182 187.747  1.00  0.00     0.004 C 
ENDBRANCH  16  17
ENDBRANCH  15  16
ENDBRANCH  14  15
ENDBRANCH  13  14
ENDBRANCH  12  13
ENDBRANCH  11  12
ENDBRANCH   1  11
TORSDOF 14
ENDMDL
MODEL 3
REMARK VINA RESULT:    -3.268      2.111      3.361
REMARK INTER + INTRA:          -8.088
REMARK INTER:                  -5.984
REMARK INTRA:                  -2.104
REMARK UNBOUND:                -2.145
REMARK SMILES CCCCCCCCCCCCCCCC(=O)[O-]
REMARK SMILES IDX 9 1 10 2 11 3 12 4 13 5 14 6 15 7 16 8 17 9 18 10 8 11 7 12
REMARK SMILES IDX 6 13 5 14 4 15 3 16 2 17 1 18
REMARK H PARENT
REMARK Flexibility Score: inf
ROOT
ATOM      1  C   UNL     1      16.171  -8.161 186.029  1.00  0.00     0.000 C 
ENDROOT
BRANCH   1   2
ATOM      2  C   UNL     1      17.515  -8.388 185.324  1.00  0.00     0.000 C 
BRANCH   2   3
ATOM      3  C   UNL     1      18.723  -8.182 186.256  1.00  0.00     0.000 C 
BRANCH   3   4
ATOM      4  C   UNL     1      19.761  -9.323 186.246  1.00  0.00     0.000 C 
BRANCH   4   5
ATOM      5  C   UNL     1      20.069  -9.936 187.623  1.00  0.00     0.000 C 
BRANCH   5   6
ATOM      6  C   UNL     1      18.983  -9.629 188.668  1.00  0.00     0.006 C 
BRANCH   6   7
ATOM      7  C   UNL     1      19.537  -8.837 189.860  1.00  0.00     0.053 C 
BRANCH   7   8
ATOM      8  C   UNL     1      18.736  -7.599 190.124  1.00  0.00     0.041 C 
ATOM      9  O   UNL     1      17.482  -7.623 190.022  1.00  0.00    -0.550 OA
ATOM     10  O   UNL     1      19.378  -6.410 190.448  1.00  0.00    -0.550 OA
ENDBRANCH   7   8
ENDBRANCH   6   7
ENDBRANCH   5   6
ENDBRANCH   4   5
ENDBRANCH   3   4
ENDBRANCH   2   3
ENDBRANCH   1   2
BRANCH   1  11
ATOM     11  C   UNL     1      15.403  -9.479 186.186  1.00  0.00     0.000 C 
BRANCH  11  12
ATOM     12  C   UNL     1      15.441  -9.970 187.637  1.00  0.00    -0.000 C 
BRANCH  12  13
ATOM     13  C   UNL     1      15.942 -11.418 187.716  1.00  0.00    -0.000 C 
BRANCH  13  14
ATOM     14  C   UNL     1      16.096 -12.023 186.313  1.00  0.00    -0.000 C 
BRANCH  14  15
ATOM     15  C   UNL     1      17.565 -12.260 185.930  1.00  0.00    -0.000 C 
BRANCH  15  16
ATOM     16  C   UNL     1      18.326 -13.085 186.983  1.00  0.00    -0.000 C 
BRANCH  16  17
ATOM     17  C   UNL     1      17.825 -14.534 187.071  1.00  0.00    -0.003 C 
ATOM     18  C   UNL     1      18.959 -15.556 186.991  1.00  0.00     0.004 C 
ENDBRANCH  16  17
ENDBRANCH  15  16
ENDBRANCH  14  15
ENDBRANCH  13  14
ENDBRANCH  12  13
ENDBRANCH  11  12
ENDBRANCH   1  11
TORSDOF 14
ENDMDL
MODEL 4
REMARK VINA RESULT:    -3.199      2.160      4.343
REMARK INTER + INTRA:          -7.962
REMARK INTER:                  -5.902
REMARK INTRA:                  -2.061
REMARK UNBOUND:                -2.145
REMARK SMILES CCCCCCCCCCCCCCCC(=O)[O-]
REMARK SMILES IDX 9 1 10 2 11 3 12 4 13 5 14 6 15 7 16 8 17 9 18 10 8 11 7 12
REMARK SMILES IDX 6 13 5 14 4 15 3 16 2 17 1 18
REMARK H PARENT
REMARK Flexibility Score: inf
ROOT
ATOM      1  C   UNL     1      16.007 -12.947 186.532  1.00  0.00     0.000 C 
ENDROOT
BRANCH   1   2
ATOM      2  C   UNL     1      17.183 -13.808 187.012  1.00  0.00     0.000 C 
BRANCH   2   3
ATOM      3  C   UNL     1      18.539 -13.087 186.895  1.00  0.00     0.000 C 
BRANCH   3   4
ATOM      4  C   UNL     1      18.527 -11.599 187.302  1.00  0.00     0.000 C 
BRANCH   4   5
ATOM      5  C   UNL     1      19.790 -10.808 186.917  1.00  0.00     0.000 C 
BRANCH   5   6
ATOM      6  C   UNL     1      20.104  -9.671 187.904  1.00  0.00     0.006 C 
BRANCH   6   7
ATOM      7  C   UNL     1      19.082  -9.600 189.047  1.00  0.00     0.053 C 
BRANCH   7   8
ATOM      8  C   UNL     1      19.314  -8.407 189.923  1.00  0.00     0.041 C 
ATOM      9  O   UNL     1      19.151  -7.245 189.467  1.00  0.00    -0.550 OA
ATOM     10  O   UNL     1      19.742  -8.579 191.234  1.00  0.00    -0.550 OA
ENDBRANCH   7   8
ENDBRANCH   6   7
ENDBRANCH   5   6
ENDBRANCH   4   5
ENDBRANCH   3   4
ENDBRANCH   2   3
ENDBRANCH   1   2
BRANCH   1  11
ATOM     11  C   UNL     1      15.249 -13.639 185.392  1.00  0.00     0.000 C 
BRANCH  11  12
ATOM     12  C   UNL     1      15.229 -12.765 184.133  1.00  0.00    -0.000 C 
BRANCH  12  13
ATOM     13  C   UNL     1      16.330 -11.698 184.186  1.00  0.00    -0.000 C 
BRANCH  13  14
ATOM     14  C   UNL     1      15.752 -10.300 183.919  1.00  0.00    -0.000 C 
BRANCH  14  15
ATOM     15  C   UNL     1      15.159  -9.655 185.182  1.00  0.00    -0.000 C 
BRANCH  15  16
ATOM     16  C   UNL     1      16.234  -9.034 186.090  1.00  0.00    -0.000 C 
BRANCH  16  17
ATOM     17  C   UNL     1      17.407  -8.440 185.295  1.00  0.00    -0.003 C 
ATOM     18  C   UNL     1      18.081  -7.275 186.019  1.00  0.00     0.004 C 
ENDBRANCH  16  17
ENDBRANCH  15  16
ENDBRANCH  14  15
ENDBRANCH  13  14
ENDBRANCH  12  13
ENDBRANCH  11  12
ENDBRANCH   1  11
TORSDOF 14
ENDMDL
MODEL 5
REMARK VINA RESULT:    -3.184     18.485     20.518
REMARK INTER + INTRA:          -7.935
REMARK INTER:                  -5.624
REMARK INTRA:                  -2.311
REMARK UNBOUND:                -2.145
REMARK SMILES CCCCCCCCCCCCCCCC(=O)[O-]
REMARK SMILES IDX 9 1 10 2 11 3 12 4 13 5 14 6 15 7 16 8 17 9 18 10 8 11 7 12
REMARK SMILES IDX 6 13 5 14 4 15 3 16 2 17 1 18
REMARK H PARENT
REMARK Flexibility Score: inf
ROOT
ATOM      1  C   UNL     1      14.639  -2.310 201.047  1.00  0.00     0.000 C 
ENDROOT
BRANCH   1   2
ATOM      2  C   UNL     1      13.869  -2.964 202.203  1.00  0.00     0.000 C 
BRANCH   2   3
ATOM      3  C   UNL     1      13.648  -2.009 203.391  1.00  0.00     0.000 C 
BRANCH   3   4
ATOM      4  C   UNL     1      12.172  -1.715 203.729  1.00  0.00     0.000 C 
BRANCH   4   5
ATOM      5  C   UNL     1      11.158  -2.152 202.657  1.00  0.00     0.000 C 
BRANCH   5   6
ATOM      6  C   UNL     1      10.709  -0.991 201.753  1.00  0.00     0.006 C 
BRANCH   6   7
ATOM      7  C   UNL     1      10.602   0.332 202.523  1.00  0.00     0.053 C 
BRANCH   7   8
ATOM      8  C   UNL     1       9.340   1.067 202.189  1.00  0.00     0.041 C 
ATOM      9  O   UNL     1       8.571   0.631 201.293  1.00  0.00    -0.550 OA
ATOM     10  O   UNL     1       9.031   2.253 202.844  1.00  0.00    -0.550 OA
ENDBRANCH   7   8
ENDBRANCH   6   7
ENDBRANCH   5   6
ENDBRANCH   4   5
ENDBRANCH   3   4
ENDBRANCH   2   3
ENDBRANCH   1   2
BRANCH   1  11
ATOM     11  C   UNL     1      14.150  -0.878 200.801  1.00  0.00     0.000 C 
BRANCH  11  12
ATOM     12  C   UNL     1      15.231  -0.037 200.113  1.00  0.00    -0.000 C 
BRANCH  12  13
ATOM     13  C   UNL     1      15.310   1.367 200.726  1.00  0.00    -0.000 C 
BRANCH  13  14
ATOM     14  C   UNL     1      14.576   1.420 202.074  1.00  0.00    -0.000 C 
BRANCH  14  15
ATOM     15  C   UNL     1      15.528   1.674 203.254  1.00  0.00    -0.000 C 
BRANCH  15  16
ATOM     16  C   UNL     1      16.065   0.372 203.873  1.00  0.00    -0.000 C 
BRANCH  16  17
ATOM     17  C   UNL     1      17.507   0.065 203.439  1.00  0.00    -0.003 C 
ATOM     18  C   UNL     1      17.654  -1.326 202.823  1.00  0.00     0.004 C 
ENDBRANCH  16  17
ENDBRANCH  15  16
ENDBRANCH  14  15
ENDBRANCH  13  14
ENDBRANCH  12  13
ENDBRANCH  11  12
ENDBRANCH   1  11
TORSDOF 14
ENDMDL
MODEL 6
REMARK VINA RESULT:    -3.168     19.073     20.823
REMARK INTER + INTRA:          -7.906
REMARK INTER:                  -5.524
REMARK INTRA:                  -2.382
REMARK UNBOUND:                -2.145
REMARK SMILES CCCCCCCCCCCCCCCC(=O)[O-]
REMARK SMILES IDX 9 1 10 2 11 3 12 4 13 5 14 6 15 7 16 8 17 9 18 10 8 11 7 12
REMARK SMILES IDX 6 13 5 14 4 15 3 16 2 17 1 18
REMARK H PARENT
REMARK Flexibility Score: inf
ROOT
ATOM      1  C   UNL     1      10.519  -0.804 199.867  1.00  0.00     0.000 C 
ENDROOT
BRANCH   1   2
ATOM      2  C   UNL     1      11.591  -1.296 200.849  1.00  0.00     0.000 C 
BRANCH   2   3
ATOM      3  C   UNL     1      11.004  -2.101 202.023  1.00  0.00     0.000 C 
BRANCH   3   4
ATOM      4  C   UNL     1      11.308  -1.532 203.424  1.00  0.00     0.000 C 
BRANCH   4   5
ATOM      5  C   UNL     1      12.581  -2.084 204.090  1.00  0.00     0.000 C 
BRANCH   5   6
ATOM      6  C   UNL     1      13.757  -1.093 204.042  1.00  0.00     0.006 C 
BRANCH   6   7
ATOM      7  C   UNL     1      14.810  -1.498 203.002  1.00  0.00     0.053 C 
BRANCH   7   8
ATOM      8  C   UNL     1      15.959  -0.537 202.974  1.00  0.00     0.041 C 
ATOM      9  O   UNL     1      16.837  -0.626 202.076  1.00  0.00    -0.550 OA
ATOM     10  O   UNL     1      16.078   0.435 203.960  1.00  0.00    -0.550 OA
ENDBRANCH   7   8
ENDBRANCH   6   7
ENDBRANCH   5   6
ENDBRANCH   4   5
ENDBRANCH   3   4
ENDBRANCH   2   3
ENDBRANCH   1   2
BRANCH   1  11
ATOM     11  C   UNL     1       9.114  -1.181 200.353  1.00  0.00     0.000 C 
BRANCH  11  12
ATOM     12  C   UNL     1       8.154   0.008 200.239  1.00  0.00    -0.000 C 
BRANCH  12  13
ATOM     13  C   UNL     1       8.826   1.306 200.704  1.00  0.00    -0.000 C 
BRANCH  13  14
ATOM     14  C   UNL     1       8.846   1.395 202.238  1.00  0.00    -0.000 C 
BRANCH  14  15
ATOM     15  C   UNL     1      10.196   1.887 202.782  1.00  0.00    -0.000 C 
BRANCH  15  16
ATOM     16  C   UNL     1      11.102   2.468 201.683  1.00  0.00    -0.000 C 
BRANCH  16  17
ATOM     17  C   UNL     1      12.552   1.973 201.792  1.00  0.00    -0.003 C 
ATOM     18  C   UNL     1      13.262   2.497 203.040  1.00  0.00     0.004 C 
ENDBRANCH  16  17
ENDBRANCH  15  16
ENDBRANCH  14  15
ENDBRANCH  13  14
ENDBRANCH  12  13
ENDBRANCH  11  12
ENDBRANCH   1  11
TORSDOF 14
ENDMDL
MODEL 7
REMARK VINA RESULT:    -3.149      2.340      5.774
REMARK INTER + INTRA:          -7.872
REMARK INTER:                  -5.950
REMARK INTRA:                  -1.922
REMARK UNBOUND:                -2.145
REMARK SMILES CCCCCCCCCCCCCCCC(=O)[O-]
REMARK SMILES IDX 9 1 10 2 11 3 12 4 13 5 14 6 15 7 16 8 17 9 18 10 8 11 7 12
REMARK SMILES IDX 6 13 5 14 4 15 3 16 2 17 1 18
REMARK H PARENT
REMARK Flexibility Score: inf
ROOT
ATOM      1  C   UNL     1      18.980 -10.608 188.209  1.00  0.00     0.000 C 
ENDROOT
BRANCH   1   2
ATOM      2  C   UNL     1      19.455 -11.761 187.313  1.00  0.00     0.000 C 
BRANCH   2   3
ATOM      3  C   UNL     1      18.297 -12.639 186.804  1.00  0.00     0.000 C 
BRANCH   3   4
ATOM      4  C   UNL     1      18.546 -14.160 186.880  1.00  0.00     0.000 C 
BRANCH   4   5
ATOM      5  C   UNL     1      17.322 -15.001 187.282  1.00  0.00     0.000 C 
BRANCH   5   6
ATOM      6  C   UNL     1      16.351 -15.237 186.112  1.00  0.00     0.006 C 
BRANCH   6   7
ATOM      7  C   UNL     1      15.106 -14.345 186.207  1.00  0.00     0.053 C 
BRANCH   7   8
ATOM      8  C   UNL     1      14.772 -13.718 184.889  1.00  0.00     0.041 C 
ATOM      9  O   UNL     1      15.582 -12.924 184.342  1.00  0.00    -0.550 OA
ATOM     10  O   UNL     1      13.551 -13.982 184.281  1.00  0.00    -0.550 OA
ENDBRANCH   7   8
ENDBRANCH   6   7
ENDBRANCH   5   6
ENDBRANCH   4   5
ENDBRANCH   3   4
ENDBRANCH   2   3
ENDBRANCH   1   2
BRANCH   1  11
ATOM     11  C   UNL     1      19.859  -9.366 188.017  1.00  0.00     0.000 C 
BRANCH  11  12
ATOM     12  C   UNL     1      19.745  -8.826 186.587  1.00  0.00    -0.000 C 
BRANCH  12  13
ATOM     13  C   UNL     1      18.354  -8.230 186.333  1.00  0.00    -0.000 C 
BRANCH  13  14
ATOM     14  C   UNL     1      17.773  -8.742 185.006  1.00  0.00    -0.000 C 
BRANCH  14  15
ATOM     15  C   UNL     1      16.672  -9.795 185.211  1.00  0.00    -0.000 C 
BRANCH  15  16
ATOM     16  C   UNL     1      15.372  -9.192 185.770  1.00  0.00    -0.000 C 
BRANCH  16  17
ATOM     17  C   UNL     1      14.520 -10.223 186.525  1.00  0.00    -0.003 C 
ATOM     18  C   UNL     1      15.260 -10.846 187.708  1.00  0.00     0.004 C 
ENDBRANCH  16  17
ENDBRANCH  15  16
ENDBRANCH  14  15
ENDBRANCH  13  14
ENDBRANCH  12  13
ENDBRANCH  11  12
ENDBRANCH   1  11
TORSDOF 14
ENDMDL
MODEL 8
REMARK VINA RESULT:    -3.115     18.434     20.571
REMARK INTER + INTRA:          -7.810
REMARK INTER:                  -6.107
REMARK INTRA:                  -1.703
REMARK UNBOUND:                -2.145
REMARK SMILES CCCCCCCCCCCCCCCC(=O)[O-]
REMARK SMILES IDX 9 1 10 2 11 3 12 4 13 5 14 6 15 7 16 8 17 9 18 10 8 11 7 12
REMARK SMILES IDX 6 13 5 14 4 15 3 16 2 17 1 18
REMARK H PARENT
REMARK Flexibility Score: inf
ROOT
ATOM      1  C   UNL     1      15.191  -1.877 202.830  1.00  0.00     0.000 C 
ENDROOT
BRANCH   1   2
ATOM      2  C   UNL     1      13.956  -2.616 203.366  1.00  0.00     0.000 C 
BRANCH   2   3
ATOM      3  C   UNL     1      12.987  -1.690 204.124  1.00  0.00     0.000 C 
BRANCH   3   4
ATOM      4  C   UNL     1      11.505  -1.820 203.717  1.00  0.00     0.000 C 
BRANCH   4   5
ATOM      5  C   UNL     1      11.261  -2.118 202.227  1.00  0.00     0.000 C 
BRANCH   5   6
ATOM      6  C   UNL     1      10.515  -0.981 201.506  1.00  0.00     0.006 C 
BRANCH   6   7
ATOM      7  C   UNL     1      10.607   0.346 202.272  1.00  0.00     0.053 C 
BRANCH   7   8
ATOM      8  C   UNL     1      11.741   1.192 201.780  1.00  0.00     0.041 C 
ATOM      9  O   UNL     1      12.127   1.102 200.585  1.00  0.00    -0.550 OA
ATOM     10  O   UNL     1      12.395   2.055 202.651  1.00  0.00    -0.550 OA
ENDBRANCH   7   8
ENDBRANCH   6   7
ENDBRANCH   5   6
ENDBRANCH   4   5
ENDBRANCH   3   4
ENDBRANCH   2   3
ENDBRANCH   1   2
BRANCH   1  11
ATOM     11  C   UNL     1      15.016  -0.358 202.946  1.00  0.00     0.000 C 
BRANCH  11  12
ATOM     12  C   UNL     1      16.166   0.270 203.741  1.00  0.00    -0.000 C 
BRANCH  12  13
ATOM     13  C   UNL     1      16.938   1.282 202.886  1.00  0.00    -0.000 C 
BRANCH  13  14
ATOM     14  C   UNL     1      18.449   1.009 202.943  1.00  0.00    -0.000 C 
BRANCH  14  15
ATOM     15  C   UNL     1      18.813  -0.087 203.957  1.00  0.00    -0.000 C 
BRANCH  15  16
ATOM     16  C   UNL     1      19.634  -1.226 203.329  1.00  0.00    -0.000 C 
BRANCH  16  17
ATOM     17  C   UNL     1      18.756  -2.396 202.860  1.00  0.00    -0.003 C 
ATOM     18  C   UNL     1      18.485  -2.364 201.356  1.00  0.00     0.004 C 
ENDBRANCH  16  17
ENDBRANCH  15  16
ENDBRANCH  14  15
ENDBRANCH  13  14
ENDBRANCH  12  13
ENDBRANCH  11  12
ENDBRANCH   1  11
TORSDOF 14
ENDMDL
MODEL 9
REMARK VINA RESULT:    -3.036     18.030     19.861
REMARK INTER + INTRA:          -7.667
REMARK INTER:                  -5.012
REMARK INTRA:                  -2.655
REMARK UNBOUND:                -2.145
REMARK SMILES CCCCCCCCCCCCCCCC(=O)[O-]
REMARK SMILES IDX 9 1 10 2 11 3 12 4 13 5 14 6 15 7 16 8 17 9 18 10 8 11 7 12
REMARK SMILES IDX 6 13 5 14 4 15 3 16 2 17 1 18
REMARK H PARENT
REMARK Flexibility Score: inf
ROOT
ATOM      1  C   UNL     1      13.546   0.359 202.999  1.00  0.00     0.000 C 
ENDROOT
BRANCH   1   2
ATOM      2  C   UNL     1      13.932  -0.912 203.768  1.00  0.00     0.000 C 
BRANCH   2   3
ATOM      3  C   UNL     1      12.748  -1.878 203.961  1.00  0.00     0.000 C 
BRANCH   3   4
ATOM      4  C   UNL     1      11.425  -1.432 203.306  1.00  0.00     0.000 C 
BRANCH   4   5
ATOM      5  C   UNL     1      11.078  -2.147 201.988  1.00  0.00     0.000 C 
BRANCH   5   6
ATOM      6  C   UNL     1      10.153  -1.312 201.084  1.00  0.00     0.006 C 
BRANCH   6   7
ATOM      7  C   UNL     1      10.278   0.192 201.362  1.00  0.00     0.053 C 
BRANCH   7   8
ATOM      8  C   UNL     1       8.950   0.809 201.677  1.00  0.00     0.041 C 
ATOM      9  O   UNL     1       8.779   1.427 202.760  1.00  0.00    -0.550 OA
ATOM     10  O   UNL     1       7.890   0.672 200.789  1.00  0.00    -0.550 OA
ENDBRANCH   7   8
ENDBRANCH   6   7
ENDBRANCH   5   6
ENDBRANCH   4   5
ENDBRANCH   3   4
ENDBRANCH   2   3
ENDBRANCH   1   2
BRANCH   1  11
ATOM     11  C   UNL     1      14.444   0.551 201.771  1.00  0.00     0.000 C 
BRANCH  11  12
ATOM     12  C   UNL     1      13.858  -0.158 200.544  1.00  0.00    -0.000 C 
BRANCH  12  13
ATOM     13  C   UNL     1      14.828  -1.217 200.004  1.00  0.00    -0.000 C 
BRANCH  13  14
ATOM     14  C   UNL     1      14.346  -2.632 200.356  1.00  0.00    -0.000 C 
BRANCH  14  15
ATOM     15  C   UNL     1      15.183  -3.282 201.469  1.00  0.00    -0.000 C 
BRANCH  15  16
ATOM     16  C   UNL     1      16.683  -2.964 201.344  1.00  0.00    -0.000 C 
BRANCH  16  17
ATOM     17  C   UNL     1      17.271  -2.377 202.636  1.00  0.00    -0.003 C 
ATOM     18  C   UNL     1      17.676  -0.911 202.487  1.00  0.00     0.004 C 
ENDBRANCH  16  17
ENDBRANCH  15  16
ENDBRANCH  14  15
ENDBRANCH  13  14
ENDBRANCH  12  13
ENDBRANCH  11  12
ENDBRANCH   1  11
TORSDOF 14
ENDMDL
