MODEL 1
REMARK VINA RESULT:    -4.328      0.000      0.000
REMARK INTER + INTRA:          -5.487
REMARK INTER:                  -5.213
REMARK INTRA:                  -0.274
REMARK UNBOUND:                -0.274
REMARK SMILES NC(=O)C[C@H]([NH3+])C(=O)[O-]
REMARK SMILES IDX 4 1 5 2 6 3 7 7 8 8 9 9 2 10 3 11 1 12
REMARK H PARENT 6 4 6 5 6 6 1 13 1 14
REMARK Flexibility Score: inf
ROOT
ATOM      1  C   UNL     1     -24.969  -5.783  15.847  1.00  0.00     0.171 C 
ENDROOT
BRANCH   1   2
ATOM      2  C   UNL     1     -24.996  -7.017  14.923  1.00  0.00     0.237 C 
BRANCH   2   3
ATOM      3  N   UNL     1     -24.445  -6.710  13.596  1.00  0.00    -0.350 N 
ATOM      4  H   UNL     1     -24.545  -5.688  13.398  1.00  0.00     0.345 HD
ATOM      5  H   UNL     1     -23.434  -6.971  13.545  1.00  0.00     0.345 HD
ATOM      6  H   UNL     1     -24.973  -7.231  12.860  1.00  0.00     0.345 HD
ENDBRANCH   2   3
BRANCH   2   7
ATOM      7  C   UNL     1     -26.408  -7.527  14.796  1.00  0.00     0.100 C 
ATOM      8  O   UNL     1     -27.374  -6.721  14.717  1.00  0.00    -0.544 OA
ATOM      9  O   UNL     1     -26.654  -8.893  14.782  1.00  0.00    -0.544 OA
ENDBRANCH   2   7
ENDBRANCH   1   2
BRANCH   1  10
ATOM     10  C   UNL     1     -23.604  -5.159  15.897  1.00  0.00     0.223 C 
ATOM     11  O   UNL     1     -22.586  -5.892  16.021  1.00  0.00    -0.275 OA
ATOM     12  N   UNL     1     -23.448  -3.745  15.773  1.00  0.00    -0.369 N 
ATOM     13  H   UNL     1     -22.495  -3.317  15.797  1.00  0.00     0.159 HD
ATOM     14  H   UNL     1     -24.278  -3.126  15.646  1.00  0.00     0.159 HD
ENDBRANCH   1  10
TORSDOF 4
ENDMDL
MODEL 2
REMARK VINA RESULT:    -4.109      1.932      3.823
REMARK INTER + INTRA:          -5.224
REMARK INTER:                  -5.006
REMARK INTRA:                  -0.218
REMARK UNBOUND:                -0.274
REMARK SMILES NC(=O)C[C@H]([NH3+])C(=O)[O-]
REMARK SMILES IDX 4 1 5 2 6 3 7 7 8 8 9 9 2 10 3 11 1 12
REMARK H PARENT 6 4 6 5 6 6 1 13 1 14
REMARK Flexibility Score: inf
ROOT
ATOM      1  C   UNL     1     -25.241  -7.555  14.755  1.00  0.00     0.171 C 
ENDROOT
BRANCH   1   2
ATOM      2  C   UNL     1     -24.071  -6.562  14.606  1.00  0.00     0.237 C 
BRANCH   2   3
ATOM      3  N   UNL     1     -22.782  -7.260  14.493  1.00  0.00    -0.350 N 
ATOM      4  H   UNL     1     -22.780  -8.103  15.112  1.00  0.00     0.345 HD
ATOM      5  H   UNL     1     -22.608  -7.560  13.506  1.00  0.00     0.345 HD
ATOM      6  H   UNL     1     -22.006  -6.632  14.803  1.00  0.00     0.345 HD
ENDBRANCH   2   3
BRANCH   2   7
ATOM      7  C   UNL     1     -24.051  -5.619  15.780  1.00  0.00     0.100 C 
ATOM      8  O   UNL     1     -22.958  -5.190  16.237  1.00  0.00    -0.544 OA
ATOM      9  O   UNL     1     -25.242  -5.230  16.378  1.00  0.00    -0.544 OA
ENDBRANCH   2   7
ENDBRANCH   1   2
BRANCH   1  10
ATOM     10  C   UNL     1     -26.435  -7.129  13.950  1.00  0.00     0.223 C 
ATOM     11  O   UNL     1     -26.453  -7.327  12.705  1.00  0.00    -0.275 OA
ATOM     12  N   UNL     1     -27.564  -6.532  14.588  1.00  0.00    -0.369 N 
ATOM     13  H   UNL     1     -28.397  -6.249  14.026  1.00  0.00     0.159 HD
ATOM     14  H   UNL     1     -27.576  -6.383  15.621  1.00  0.00     0.159 HD
ENDBRANCH   1  10
TORSDOF 4
ENDMDL
MODEL 3
REMARK VINA RESULT:    -4.099      1.469      1.773
REMARK INTER + INTRA:          -5.212
REMARK INTER:                  -5.146
REMARK INTRA:                  -0.066
REMARK UNBOUND:                -0.274
REMARK SMILES NC(=O)C[C@H]([NH3+])C(=O)[O-]
REMARK SMILES IDX 4 1 5 2 6 3 7 7 8 8 9 9 2 10 3 11 1 12
REMARK H PARENT 6 4 6 5 6 6 1 13 1 14
REMARK Flexibility Score: inf
ROOT
ATOM      1  C   UNL     1     -23.913  -5.535  15.488  1.00  0.00     0.171 C 
ENDROOT
BRANCH   1   2
ATOM      2  C   UNL     1     -24.266  -6.866  14.795  1.00  0.00     0.237 C 
BRANCH   2   3
ATOM      3  N   UNL     1     -23.904  -6.846  13.372  1.00  0.00    -0.350 N 
ATOM      4  H   UNL     1     -22.883  -6.643  13.268  1.00  0.00     0.345 HD
ATOM      5  H   UNL     1     -24.118  -7.765  12.921  1.00  0.00     0.345 HD
ATOM      6  H   UNL     1     -24.432  -6.090  12.878  1.00  0.00     0.345 HD
ENDBRANCH   2   3
BRANCH   2   7
ATOM      7  C   UNL     1     -25.738  -7.148  14.955  1.00  0.00     0.100 C 
ATOM      8  O   UNL     1     -26.271  -8.118  14.352  1.00  0.00    -0.544 OA
ATOM      9  O   UNL     1     -26.519  -6.326  15.756  1.00  0.00    -0.544 OA
ENDBRANCH   2   7
ENDBRANCH   1   2
BRANCH   1  10
ATOM     10  C   UNL     1     -22.670  -5.657  16.322  1.00  0.00     0.223 C 
ATOM     11  O   UNL     1     -22.633  -5.136  17.469  1.00  0.00    -0.275 OA
ATOM     12  N   UNL     1     -21.541  -6.386  15.840  1.00  0.00    -0.369 N 
ATOM     13  H   UNL     1     -20.683  -6.477  16.428  1.00  0.00     0.159 HD
ATOM     14  H   UNL     1     -21.564  -6.843  14.902  1.00  0.00     0.159 HD
ENDBRANCH   1  10
TORSDOF 4
ENDMDL
MODEL 4
REMARK VINA RESULT:    -4.068      2.563      3.585
REMARK INTER + INTRA:          -5.175
REMARK INTER:                  -5.053
REMARK INTRA:                  -0.122
REMARK UNBOUND:                -0.274
REMARK SMILES NC(=O)C[C@H]([NH3+])C(=O)[O-]
REMARK SMILES IDX 4 1 5 2 6 3 7 7 8 8 9 9 2 10 3 11 1 12
REMARK H PARENT 6 4 6 5 6 6 1 13 1 14
REMARK Flexibility Score: inf
ROOT
ATOM      1  C   UNL     1     -22.533  -5.841  16.127  1.00  0.00     0.171 C 
ENDROOT
BRANCH   1   2
ATOM      2  C   UNL     1     -23.722  -4.896  15.862  1.00  0.00     0.237 C 
BRANCH   2   3
ATOM      3  N   UNL     1     -23.297  -3.489  15.835  1.00  0.00    -0.350 N 
ATOM      4  H   UNL     1     -24.117  -2.867  16.021  1.00  0.00     0.345 HD
ATOM      5  H   UNL     1     -22.561  -3.311  16.558  1.00  0.00     0.345 HD
ATOM      6  H   UNL     1     -22.918  -3.247  14.892  1.00  0.00     0.345 HD
ENDBRANCH   2   3
BRANCH   2   7
ATOM      7  C   UNL     1     -24.780  -5.100  16.914  1.00  0.00     0.100 C 
ATOM      8  O   UNL     1     -25.939  -5.473  16.590  1.00  0.00    -0.544 OA
ATOM      9  O   UNL     1     -24.486  -4.861  18.250  1.00  0.00    -0.544 OA
ENDBRANCH   2   7
ENDBRANCH   1   2
BRANCH   1  10
ATOM     10  C   UNL     1     -22.624  -7.091  15.299  1.00  0.00     0.223 C 
ATOM     11  O   UNL     1     -23.504  -7.184  14.401  1.00  0.00    -0.275 OA
ATOM     12  N   UNL     1     -21.700  -8.161  15.497  1.00  0.00    -0.369 N 
ATOM     13  H   UNL     1     -21.759  -9.023  14.911  1.00  0.00     0.159 HD
ATOM     14  H   UNL     1     -20.950  -8.091  16.220  1.00  0.00     0.159 HD
ENDBRANCH   1  10
TORSDOF 4
ENDMDL
MODEL 5
REMARK VINA RESULT:    -3.986      2.270      3.514
REMARK INTER + INTRA:          -5.075
REMARK INTER:                  -4.984
REMARK INTRA:                  -0.091
REMARK UNBOUND:                -0.274
REMARK SMILES NC(=O)C[C@H]([NH3+])C(=O)[O-]
REMARK SMILES IDX 4 1 5 2 6 3 7 7 8 8 9 9 2 10 3 11 1 12
REMARK H PARENT 6 4 6 5 6 6 1 13 1 14
REMARK Flexibility Score: inf
ROOT
ATOM      1  C   UNL     1     -25.571  -7.541  14.763  1.00  0.00     0.171 C 
ENDROOT
BRANCH   1   2
ATOM      2  C   UNL     1     -24.268  -6.793  14.417  1.00  0.00     0.237 C 
BRANCH   2   3
ATOM      3  N   UNL     1     -24.010  -6.801  12.970  1.00  0.00    -0.350 N 
ATOM      4  H   UNL     1     -23.090  -7.260  12.776  1.00  0.00     0.345 HD
ATOM      5  H   UNL     1     -24.764  -7.318  12.462  1.00  0.00     0.345 HD
ATOM      6  H   UNL     1     -23.962  -5.822  12.609  1.00  0.00     0.345 HD
ENDBRANCH   2   3
BRANCH   2   7
ATOM      7  C   UNL     1     -23.112  -7.415  15.155  1.00  0.00     0.100 C 
ATOM      8  O   UNL     1     -22.199  -6.692  15.638  1.00  0.00    -0.544 OA
ATOM      9  O   UNL     1     -23.038  -8.794  15.294  1.00  0.00    -0.544 OA
ENDBRANCH   2   7
ENDBRANCH   1   2
BRANCH   1  10
ATOM     10  C   UNL     1     -26.530  -6.664  15.516  1.00  0.00     0.223 C 
ATOM     11  O   UNL     1     -26.087  -5.765  16.280  1.00  0.00    -0.275 OA
ATOM     12  N   UNL     1     -27.939  -6.818  15.347  1.00  0.00    -0.369 N 
ATOM     13  H   UNL     1     -28.602  -6.198  15.864  1.00  0.00     0.159 HD
ATOM     14  H   UNL     1     -28.322  -7.541  14.700  1.00  0.00     0.159 HD
ENDBRANCH   1  10
TORSDOF 4
ENDMDL
MODEL 6
REMARK VINA RESULT:    -3.938      3.169      4.386
REMARK INTER + INTRA:          -5.017
REMARK INTER:                  -4.783
REMARK INTRA:                  -0.234
REMARK UNBOUND:                -0.274
REMARK SMILES NC(=O)C[C@H]([NH3+])C(=O)[O-]
REMARK SMILES IDX 4 1 5 2 6 3 7 7 8 8 9 9 2 10 3 11 1 12
REMARK H PARENT 6 4 6 5 6 6 1 13 1 14
REMARK Flexibility Score: inf
ROOT
ATOM      1  C   UNL     1     -25.124  -6.773  11.955  1.00  0.00     0.171 C 
ENDROOT
BRANCH   1   2
ATOM      2  C   UNL     1     -26.262  -7.195  12.905  1.00  0.00     0.237 C 
BRANCH   2   3
ATOM      3  N   UNL     1     -27.407  -6.279  12.816  1.00  0.00    -0.350 N 
ATOM      4  H   UNL     1     -27.715  -6.191  11.820  1.00  0.00     0.345 HD
ATOM      5  H   UNL     1     -28.207  -6.627  13.392  1.00  0.00     0.345 HD
ATOM      6  H   UNL     1     -27.131  -5.327  13.150  1.00  0.00     0.345 HD
ENDBRANCH   2   3
BRANCH   2   7
ATOM      7  C   UNL     1     -25.749  -7.252  14.320  1.00  0.00     0.100 C 
ATOM      8  O   UNL     1     -24.579  -7.652  14.560  1.00  0.00    -0.544 OA
ATOM      9  O   UNL     1     -26.575  -6.878  15.373  1.00  0.00    -0.544 OA
ENDBRANCH   2   7
ENDBRANCH   1   2
BRANCH   1  10
ATOM     10  C   UNL     1     -25.623  -6.550  10.557  1.00  0.00     0.223 C 
ATOM     11  O   UNL     1     -26.257  -7.465   9.965  1.00  0.00    -0.275 OA
ATOM     12  N   UNL     1     -25.416  -5.297   9.904  1.00  0.00    -0.369 N 
ATOM     13  H   UNL     1     -25.775  -5.142   8.935  1.00  0.00     0.159 HD
ATOM     14  H   UNL     1     -24.915  -4.520  10.388  1.00  0.00     0.159 HD
ENDBRANCH   1  10
TORSDOF 4
ENDMDL
MODEL 7
REMARK VINA RESULT:    -3.923      2.253      4.063
REMARK INTER + INTRA:          -5.000
REMARK INTER:                  -4.896
REMARK INTRA:                  -0.103
REMARK UNBOUND:                -0.274
REMARK SMILES NC(=O)C[C@H]([NH3+])C(=O)[O-]
REMARK SMILES IDX 4 1 5 2 6 3 7 7 8 8 9 9 2 10 3 11 1 12
REMARK H PARENT 6 4 6 5 6 6 1 13 1 14
REMARK Flexibility Score: inf
ROOT
ATOM      1  C   UNL     1     -26.494  -7.019  14.789  1.00  0.00     0.171 C 
ENDROOT
BRANCH   1   2
ATOM      2  C   UNL     1     -25.176  -6.665  15.506  1.00  0.00     0.237 C 
BRANCH   2   3
ATOM      3  N   UNL     1     -25.189  -5.284  16.008  1.00  0.00    -0.350 N 
ATOM      4  H   UNL     1     -24.604  -4.676  15.389  1.00  0.00     0.345 HD
ATOM      5  H   UNL     1     -26.164  -4.908  16.035  1.00  0.00     0.345 HD
ATOM      6  H   UNL     1     -24.780  -5.248  16.969  1.00  0.00     0.345 HD
ENDBRANCH   2   3
BRANCH   2   7
ATOM      7  C   UNL     1     -24.015  -6.868  14.568  1.00  0.00     0.100 C 
ATOM      8  O   UNL     1     -22.844  -6.989  15.017  1.00  0.00    -0.544 OA
ATOM      9  O   UNL     1     -24.230  -6.905  13.196  1.00  0.00    -0.544 OA
ENDBRANCH   2   7
ENDBRANCH   1   2
BRANCH   1  10
ATOM     10  C   UNL     1     -26.987  -8.383  15.176  1.00  0.00     0.223 C 
ATOM     11  O   UNL     1     -26.343  -9.406  14.817  1.00  0.00    -0.275 OA
ATOM     12  N   UNL     1     -28.161  -8.531  15.975  1.00  0.00    -0.369 N 
ATOM     13  H   UNL     1     -28.493  -9.482  16.252  1.00  0.00     0.159 HD
ATOM     14  H   UNL     1     -28.693  -7.695  16.301  1.00  0.00     0.159 HD
ENDBRANCH   1  10
TORSDOF 4
ENDMDL
MODEL 8
REMARK VINA RESULT:    -3.891      1.604      4.229
REMARK INTER + INTRA:          -4.961
REMARK INTER:                  -4.858
REMARK INTRA:                  -0.103
REMARK UNBOUND:                -0.274
REMARK SMILES NC(=O)C[C@H]([NH3+])C(=O)[O-]
REMARK SMILES IDX 4 1 5 2 6 3 7 7 8 8 9 9 2 10 3 11 1 12
REMARK H PARENT 6 4 6 5 6 6 1 13 1 14
REMARK Flexibility Score: inf
ROOT
ATOM      1  C   UNL     1     -24.053  -6.122  15.026  1.00  0.00     0.171 C 
ENDROOT
BRANCH   1   2
ATOM      2  C   UNL     1     -23.740  -5.120  16.155  1.00  0.00     0.237 C 
BRANCH   2   3
ATOM      3  N   UNL     1     -23.519  -3.766  15.628  1.00  0.00    -0.350 N 
ATOM      4  H   UNL     1     -23.002  -3.191  16.332  1.00  0.00     0.345 HD
ATOM      5  H   UNL     1     -22.967  -3.799  14.741  1.00  0.00     0.345 HD
ATOM      6  H   UNL     1     -24.436  -3.299  15.445  1.00  0.00     0.345 HD
ENDBRANCH   2   3
BRANCH   2   7
ATOM      7  C   UNL     1     -22.532  -5.582  16.927  1.00  0.00     0.100 C 
ATOM      8  O   UNL     1     -21.727  -6.408  16.419  1.00  0.00    -0.544 OA
ATOM      9  O   UNL     1     -22.308  -5.110  18.213  1.00  0.00    -0.544 OA
ENDBRANCH   2   7
ENDBRANCH   1   2
BRANCH   1  10
ATOM     10  C   UNL     1     -25.420  -6.723  15.181  1.00  0.00     0.223 C 
ATOM     11  O   UNL     1     -25.685  -7.826  14.631  1.00  0.00    -0.275 OA
ATOM     12  N   UNL     1     -26.413  -6.073  15.974  1.00  0.00    -0.369 N 
ATOM     13  H   UNL     1     -27.359  -6.500  16.088  1.00  0.00     0.159 HD
ATOM     14  H   UNL     1     -26.204  -5.171  16.456  1.00  0.00     0.159 HD
ENDBRANCH   1  10
TORSDOF 4
ENDMDL
MODEL 9
REMARK VINA RESULT:    -3.641      2.348      3.345
REMARK INTER + INTRA:          -4.659
REMARK INTER:                  -4.499
REMARK INTRA:                  -0.161
REMARK UNBOUND:                -0.274
REMARK SMILES NC(=O)C[C@H]([NH3+])C(=O)[O-]
REMARK SMILES IDX 4 1 5 2 6 3 7 7 8 8 9 9 2 10 3 11 1 12
REMARK H PARENT 6 4 6 5 6 6 1 13 1 14
REMARK Flexibility Score: inf
ROOT
ATOM      1  C   UNL     1     -22.770  -5.202  17.479  1.00  0.00     0.171 C 
ENDROOT
BRANCH   1   2
ATOM      2  C   UNL     1     -23.108  -4.880  16.010  1.00  0.00     0.237 C 
BRANCH   2   3
ATOM      3  N   UNL     1     -23.687  -3.537  15.871  1.00  0.00    -0.350 N 
ATOM      4  H   UNL     1     -24.644  -3.604  15.455  1.00  0.00     0.345 HD
ATOM      5  H   UNL     1     -23.750  -3.062  16.801  1.00  0.00     0.345 HD
ATOM      6  H   UNL     1     -23.099  -2.958  15.229  1.00  0.00     0.345 HD
ENDBRANCH   2   3
BRANCH   2   7
ATOM      7  C   UNL     1     -24.057  -5.915  15.467  1.00  0.00     0.100 C 
ATOM      8  O   UNL     1     -23.656  -6.783  14.646  1.00  0.00    -0.544 OA
ATOM      9  O   UNL     1     -25.390  -5.907  15.857  1.00  0.00    -0.544 OA
ENDBRANCH   2   7
ENDBRANCH   1   2
BRANCH   1  10
ATOM     10  C   UNL     1     -21.484  -5.967  17.598  1.00  0.00     0.223 C 
ATOM     11  O   UNL     1     -20.847  -5.955  18.686  1.00  0.00    -0.275 OA
ATOM     12  N   UNL     1     -20.992  -6.735  16.500  1.00  0.00    -0.369 N 
ATOM     13  H   UNL     1     -20.103  -7.275  16.591  1.00  0.00     0.159 HD
ATOM     14  H   UNL     1     -21.518  -6.776  15.600  1.00  0.00     0.159 HD
ENDBRANCH   1  10
TORSDOF 4
ENDMDL
