MODEL 1
REMARK VINA RESULT:    -6.879      0.000      0.000
REMARK INTER + INTRA:          -8.406
REMARK INTER:                  -8.086
REMARK INTRA:                  -0.320
REMARK UNBOUND:                -0.320
REMARK SMILES O=c1c(O)c(-c2ccc(O)c(O)c2)oc2cc(O)ccc12
REMARK SMILES IDX 5 1 3 2 2 3 1 4 21 5 15 6 14 7 16 8 17 9 19 10 20 11 6 12
REMARK SMILES IDX 7 13 8 14 9 15 13 16 11 17 10 18 12 20 4 22 18 24
REMARK H PARENT 10 19 12 21 4 23 18 25
REMARK Flexibility Score: inf
ROOT
ATOM      1  C   UNL     1      10.241 -16.278  14.701  1.00  0.00     0.180 A 
ATOM      2  C   UNL     1       9.735 -15.299  13.821  1.00  0.00     0.208 A 
ATOM      3  C   UNL     1       8.521 -15.545  13.160  1.00  0.00     0.235 A 
ATOM      4  O   UNL     1       8.043 -14.680  12.377  1.00  0.00    -0.285 OA
ATOM      5  C   UNL     1       7.854 -16.762  13.374  1.00  0.00     0.069 A 
ATOM      6  C   UNL     1       8.438 -17.700  14.251  1.00  0.00     0.142 A 
ATOM      7  O   UNL     1       9.585 -17.425  14.864  1.00  0.00    -0.452 OA
ATOM      8  C   UNL     1       7.809 -18.928  14.482  1.00  0.00     0.094 A 
ATOM      9  C   UNL     1       6.599 -19.232  13.849  1.00  0.00     0.119 A 
ATOM     10  C   UNL     1       6.016 -18.301  12.978  1.00  0.00     0.047 A 
ATOM     11  C   UNL     1       6.638 -17.073  12.740  1.00  0.00     0.020 A 
ENDROOT
BRANCH   1  12
ATOM     12  C   UNL     1      11.505 -16.086  15.449  1.00  0.00     0.025 A 
ATOM     13  C   UNL     1      12.694 -16.638  14.949  1.00  0.00     0.016 A 
ATOM     14  C   UNL     1      13.894 -16.487  15.648  1.00  0.00     0.051 A 
ATOM     15  C   UNL     1      13.921 -15.795  16.864  1.00  0.00     0.157 A 
ATOM     16  C   UNL     1      11.530 -15.409  16.682  1.00  0.00     0.062 A 
ATOM     17  C   UNL     1      12.734 -15.258  17.386  1.00  0.00     0.158 A 
BRANCH  15  18
ATOM     18  O   UNL     1      15.134 -15.659  17.538  1.00  0.00    -0.504 OA
ATOM     19  H   UNL     1      15.506 -14.753  17.799  1.00  0.00     0.293 HD
ENDBRANCH  15  18
BRANCH  17  20
ATOM     20  O   UNL     1      12.751 -14.580  18.604  1.00  0.00    -0.504 OA
ATOM     21  H   UNL     1      12.170 -14.869  19.382  1.00  0.00     0.293 HD
ENDBRANCH  17  20
ENDBRANCH   1  12
BRANCH   2  22
ATOM     22  O   UNL     1      10.446 -14.119  13.590  1.00  0.00    -0.502 OA
ATOM     23  H   UNL     1      11.412 -14.118  13.290  1.00  0.00     0.293 HD
ENDBRANCH   2  22
BRANCH   9  24
ATOM     24  O   UNL     1       5.986 -20.460  14.091  1.00  0.00    -0.508 OA
ATOM     25  H   UNL     1       6.325 -21.088  14.809  1.00  0.00     0.293 HD
ENDBRANCH   9  24
TORSDOF 5
ENDMDL
MODEL 2
REMARK VINA RESULT:    -6.722      4.352      8.720
REMARK INTER + INTRA:          -8.221
REMARK INTER:                  -7.898
REMARK INTRA:                  -0.323
REMARK UNBOUND:                -0.320
REMARK SMILES O=c1c(O)c(-c2ccc(O)c(O)c2)oc2cc(O)ccc12
REMARK SMILES IDX 5 1 3 2 2 3 1 4 21 5 15 6 14 7 16 8 17 9 19 10 20 11 6 12
REMARK SMILES IDX 7 13 8 14 9 15 13 16 11 17 10 18 12 20 4 22 18 24
REMARK H PARENT 10 19 12 21 4 23 18 25
REMARK Flexibility Score: inf
ROOT
ATOM      1  C   UNL     1       4.229 -17.328  15.327  1.00  0.00     0.180 A 
ATOM      2  C   UNL     1       4.997 -18.046  16.267  1.00  0.00     0.208 A 
ATOM      3  C   UNL     1       6.396 -17.978  16.190  1.00  0.00     0.235 A 
ATOM      4  O   UNL     1       7.105 -18.602  17.027  1.00  0.00    -0.285 OA
ATOM      5  C   UNL     1       6.996 -17.219  15.171  1.00  0.00     0.069 A 
ATOM      6  C   UNL     1       6.157 -16.550  14.255  1.00  0.00     0.142 A 
ATOM      7  O   UNL     1       4.836 -16.633  14.368  1.00  0.00    -0.452 OA
ATOM      8  C   UNL     1       6.716 -15.792  13.220  1.00  0.00     0.094 A 
ATOM      9  C   UNL     1       8.105 -15.691  13.090  1.00  0.00     0.119 A 
ATOM     10  C   UNL     1       8.940 -16.353  14.000  1.00  0.00     0.047 A 
ATOM     11  C   UNL     1       8.391 -17.114  15.036  1.00  0.00     0.020 A 
ENDROOT
BRANCH   1  12
ATOM     12  C   UNL     1       2.747 -17.334  15.353  1.00  0.00     0.025 A 
ATOM     13  C   UNL     1       2.046 -18.247  14.551  1.00  0.00     0.016 A 
ATOM     14  C   UNL     1       0.649 -18.256  14.544  1.00  0.00     0.051 A 
ATOM     15  C   UNL     1      -0.068 -17.344  15.326  1.00  0.00     0.157 A 
ATOM     16  C   UNL     1       2.025 -16.404  16.123  1.00  0.00     0.062 A 
ATOM     17  C   UNL     1       0.623 -16.410  16.115  1.00  0.00     0.158 A 
BRANCH  15  18
ATOM     18  O   UNL     1      -1.462 -17.378  15.300  1.00  0.00    -0.504 OA
ATOM     19  H   UNL     1      -2.021 -17.129  16.107  1.00  0.00     0.293 HD
ENDBRANCH  15  18
BRANCH  17  20
ATOM     20  O   UNL     1      -0.085 -15.489  16.886  1.00  0.00    -0.504 OA
ATOM     21  H   UNL     1       0.338 -15.022  17.679  1.00  0.00     0.293 HD
ENDBRANCH  17  20
ENDBRANCH   1  12
BRANCH   2  22
ATOM     22  O   UNL     1       4.373 -18.832  17.239  1.00  0.00    -0.502 OA
ATOM     23  H   UNL     1       4.008 -18.442  18.099  1.00  0.00     0.293 HD
ENDBRANCH   2  22
BRANCH   9  24
ATOM     24  O   UNL     1       8.644 -14.932  12.053  1.00  0.00    -0.508 OA
ATOM     25  H   UNL     1       9.569 -15.120  11.685  1.00  0.00     0.293 HD
ENDBRANCH   9  24
TORSDOF 5
ENDMDL
MODEL 3
REMARK VINA RESULT:    -6.667      3.608      5.846
REMARK INTER + INTRA:          -8.157
REMARK INTER:                  -7.845
REMARK INTRA:                  -0.311
REMARK UNBOUND:                -0.320
REMARK SMILES O=c1c(O)c(-c2ccc(O)c(O)c2)oc2cc(O)ccc12
REMARK SMILES IDX 5 1 3 2 2 3 1 4 21 5 15 6 14 7 16 8 17 9 19 10 20 11 6 12
REMARK SMILES IDX 7 13 8 14 9 15 13 16 11 17 10 18 12 20 4 22 18 24
REMARK H PARENT 10 19 12 21 4 23 18 25
REMARK Flexibility Score: inf
ROOT
ATOM      1  C   UNL     1       5.321 -17.325  13.912  1.00  0.00     0.180 A 
ATOM      2  C   UNL     1       4.724 -18.093  12.891  1.00  0.00     0.208 A 
ATOM      3  C   UNL     1       3.327 -18.222  12.871  1.00  0.00     0.235 A 
ATOM      4  O   UNL     1       2.769 -18.894  11.961  1.00  0.00    -0.285 OA
ATOM      5  C   UNL     1       2.562 -17.605  13.875  1.00  0.00     0.069 A 
ATOM      6  C   UNL     1       3.238 -16.874  14.875  1.00  0.00     0.142 A 
ATOM      7  O   UNL     1       4.562 -16.768  14.854  1.00  0.00    -0.452 OA
ATOM      8  C   UNL     1       2.511 -16.252  15.897  1.00  0.00     0.094 A 
ATOM      9  C   UNL     1       1.117 -16.350  15.932  1.00  0.00     0.119 A 
ATOM     10  C   UNL     1       0.444 -17.074  14.939  1.00  0.00     0.047 A 
ATOM     11  C   UNL     1       1.160 -17.699  13.914  1.00  0.00     0.020 A 
ENDROOT
BRANCH   1  12
ATOM     12  C   UNL     1       6.787 -17.126  13.992  1.00  0.00     0.025 A 
ATOM     13  C   UNL     1       7.577 -18.073  14.661  1.00  0.00     0.016 A 
ATOM     14  C   UNL     1       8.959 -17.895  14.766  1.00  0.00     0.051 A 
ATOM     15  C   UNL     1       9.570 -16.763  14.218  1.00  0.00     0.157 A 
ATOM     16  C   UNL     1       7.400 -15.977  13.460  1.00  0.00     0.062 A 
ATOM     17  C   UNL     1       8.787 -15.797  13.566  1.00  0.00     0.158 A 
BRANCH  15  18
ATOM     18  O   UNL     1      10.951 -16.613  14.337  1.00  0.00    -0.504 OA
ATOM     19  H   UNL     1      11.451 -16.881  15.177  1.00  0.00     0.293 HD
ENDBRANCH  15  18
BRANCH  17  20
ATOM     20  O   UNL     1       9.387 -14.658  13.030  1.00  0.00    -0.504 OA
ATOM     21  H   UNL     1       9.239 -13.740  13.431  1.00  0.00     0.293 HD
ENDBRANCH  17  20
ENDBRANCH   1  12
BRANCH   2  22
ATOM     22  O   UNL     1       5.514 -18.736  11.935  1.00  0.00    -0.502 OA
ATOM     23  H   UNL     1       5.428 -18.546  10.945  1.00  0.00     0.293 HD
ENDBRANCH   2  22
BRANCH   9  24
ATOM     24  O   UNL     1       0.410 -15.725  16.958  1.00  0.00    -0.508 OA
ATOM     25  H   UNL     1       0.031 -16.251  17.736  1.00  0.00     0.293 HD
ENDBRANCH   9  24
TORSDOF 5
ENDMDL
MODEL 4
REMARK VINA RESULT:    -6.572      2.717      4.039
REMARK INTER + INTRA:          -8.045
REMARK INTER:                  -7.728
REMARK INTRA:                  -0.317
REMARK UNBOUND:                -0.320
REMARK SMILES O=c1c(O)c(-c2ccc(O)c(O)c2)oc2cc(O)ccc12
REMARK SMILES IDX 5 1 3 2 2 3 1 4 21 5 15 6 14 7 16 8 17 9 19 10 20 11 6 12
REMARK SMILES IDX 7 13 8 14 9 15 13 16 11 17 10 18 12 20 4 22 18 24
REMARK H PARENT 10 19 12 21 4 23 18 25
REMARK Flexibility Score: inf
ROOT
ATOM      1  C   UNL     1       7.439 -16.958  14.621  1.00  0.00     0.180 A 
ATOM      2  C   UNL     1       7.213 -17.980  13.676  1.00  0.00     0.208 A 
ATOM      3  C   UNL     1       5.898 -18.417  13.454  1.00  0.00     0.235 A 
ATOM      4  O   UNL     1       5.670 -19.322  12.605  1.00  0.00    -0.285 OA
ATOM      5  C   UNL     1       4.847 -17.845  14.188  1.00  0.00     0.069 A 
ATOM      6  C   UNL     1       5.159 -16.844  15.133  1.00  0.00     0.142 A 
ATOM      7  O   UNL     1       6.416 -16.452  15.307  1.00  0.00    -0.452 OA
ATOM      8  C   UNL     1       4.140 -16.256  15.891  1.00  0.00     0.094 A 
ATOM      9  C   UNL     1       2.810 -16.654  15.716  1.00  0.00     0.119 A 
ATOM     10  C   UNL     1       2.498 -17.647  14.778  1.00  0.00     0.047 A 
ATOM     11  C   UNL     1       3.508 -18.241  14.016  1.00  0.00     0.020 A 
ENDROOT
BRANCH   1  12
ATOM     12  C   UNL     1       8.794 -16.429  14.899  1.00  0.00     0.025 A 
ATOM     13  C   UNL     1       9.497 -16.889  16.023  1.00  0.00     0.016 A 
ATOM     14  C   UNL     1      10.768 -16.388  16.317  1.00  0.00     0.051 A 
ATOM     15  C   UNL     1      11.349 -15.412  15.501  1.00  0.00     0.157 A 
ATOM     16  C   UNL     1       9.371 -15.432  14.092  1.00  0.00     0.062 A 
ATOM     17  C   UNL     1      10.646 -14.928  14.386  1.00  0.00     0.158 A 
BRANCH  15  18
ATOM     18  O   UNL     1      12.621 -14.933  15.818  1.00  0.00    -0.504 OA
ATOM     19  H   UNL     1      13.023 -14.128  15.353  1.00  0.00     0.293 HD
ENDBRANCH  15  18
BRANCH  17  20
ATOM     20  O   UNL     1      11.214 -13.944  13.577  1.00  0.00    -0.504 OA
ATOM     21  H   UNL     1      10.653 -13.392  12.939  1.00  0.00     0.293 HD
ENDBRANCH  17  20
ENDBRANCH   1  12
BRANCH   2  22
ATOM     22  O   UNL     1       8.284 -18.565  12.997  1.00  0.00    -0.502 OA
ATOM     23  H   UNL     1       9.031 -18.017  12.588  1.00  0.00     0.293 HD
ENDBRANCH   2  22
BRANCH   9  24
ATOM     24  O   UNL     1       1.809 -16.058  16.480  1.00  0.00    -0.508 OA
ATOM     25  H   UNL     1       0.836 -16.319  16.372  1.00  0.00     0.293 HD
ENDBRANCH   9  24
TORSDOF 5
ENDMDL
MODEL 5
REMARK VINA RESULT:    -6.365      2.929      4.847
REMARK INTER + INTRA:          -7.802
REMARK INTER:                  -7.490
REMARK INTRA:                  -0.312
REMARK UNBOUND:                -0.320
REMARK SMILES O=c1c(O)c(-c2ccc(O)c(O)c2)oc2cc(O)ccc12
REMARK SMILES IDX 5 1 3 2 2 3 1 4 21 5 15 6 14 7 16 8 17 9 19 10 20 11 6 12
REMARK SMILES IDX 7 13 8 14 9 15 13 16 11 17 10 18 12 20 4 22 18 24
REMARK H PARENT 10 19 12 21 4 23 18 25
REMARK Flexibility Score: inf
ROOT
ATOM      1  C   UNL     1       8.524 -18.714  15.600  1.00  0.00     0.180 A 
ATOM      2  C   UNL     1       7.397 -18.745  16.446  1.00  0.00     0.208 A 
ATOM      3  C   UNL     1       6.887 -19.989  16.848  1.00  0.00     0.235 A 
ATOM      4  O   UNL     1       5.887 -20.044  17.615  1.00  0.00    -0.285 OA
ATOM      5  C   UNL     1       7.496 -21.167  16.384  1.00  0.00     0.069 A 
ATOM      6  C   UNL     1       8.606 -21.051  15.520  1.00  0.00     0.142 A 
ATOM      7  O   UNL     1       9.063 -19.854  15.170  1.00  0.00    -0.452 OA
ATOM      8  C   UNL     1       9.233 -22.201  15.029  1.00  0.00     0.094 A 
ATOM      9  C   UNL     1       8.767 -23.469  15.392  1.00  0.00     0.119 A 
ATOM     10  C   UNL     1       7.666 -23.587  16.251  1.00  0.00     0.047 A 
ATOM     11  C   UNL     1       7.032 -22.445  16.746  1.00  0.00     0.020 A 
ENDROOT
BRANCH   1  12
ATOM     12  C   UNL     1       9.133 -17.441  15.146  1.00  0.00     0.025 A 
ATOM     13  C   UNL     1       8.850 -16.962  13.858  1.00  0.00     0.016 A 
ATOM     14  C   UNL     1       9.428 -15.775  13.402  1.00  0.00     0.051 A 
ATOM     15  C   UNL     1      10.308 -15.058  14.219  1.00  0.00     0.157 A 
ATOM     16  C   UNL     1      10.034 -16.730  15.959  1.00  0.00     0.062 A 
ATOM     17  C   UNL     1      10.617 -15.540  15.501  1.00  0.00     0.158 A 
BRANCH  15  18
ATOM     18  O   UNL     1      10.869 -13.875  13.737  1.00  0.00    -0.504 OA
ATOM     19  H   UNL     1      11.727 -13.867  13.198  1.00  0.00     0.293 HD
ENDBRANCH  15  18
BRANCH  17  20
ATOM     20  O   UNL     1      11.505 -14.837  16.316  1.00  0.00    -0.504 OA
ATOM     21  H   UNL     1      11.468 -13.828  16.396  1.00  0.00     0.293 HD
ENDBRANCH  17  20
ENDBRANCH   1  12
BRANCH   2  22
ATOM     22  O   UNL     1       6.783 -17.558  16.852  1.00  0.00    -0.502 OA
ATOM     23  H   UNL     1       6.435 -16.874  16.191  1.00  0.00     0.293 HD
ENDBRANCH   2  22
BRANCH   9  24
ATOM     24  O   UNL     1       9.404 -24.603  14.893  1.00  0.00    -0.508 OA
ATOM     25  H   UNL     1       9.209 -24.953  13.962  1.00  0.00     0.293 HD
ENDBRANCH   9  24
TORSDOF 5
ENDMDL
MODEL 6
REMARK VINA RESULT:    -6.331     11.647     12.819
REMARK INTER + INTRA:          -7.762
REMARK INTER:                  -7.480
REMARK INTRA:                  -0.282
REMARK UNBOUND:                -0.320
REMARK SMILES O=c1c(O)c(-c2ccc(O)c(O)c2)oc2cc(O)ccc12
REMARK SMILES IDX 5 1 3 2 2 3 1 4 21 5 15 6 14 7 16 8 17 9 19 10 20 11 6 12
REMARK SMILES IDX 7 13 8 14 9 15 13 16 11 17 10 18 12 20 4 22 18 24
REMARK H PARENT 10 19 12 21 4 23 18 25
REMARK Flexibility Score: inf
ROOT
ATOM      1  C   UNL     1       8.374 -21.090  26.495  1.00  0.00     0.180 A 
ATOM      2  C   UNL     1       7.485 -19.999  26.407  1.00  0.00     0.208 A 
ATOM      3  C   UNL     1       6.782 -19.795  25.209  1.00  0.00     0.235 A 
ATOM      4  O   UNL     1       5.972 -18.833  25.110  1.00  0.00    -0.285 OA
ATOM      5  C   UNL     1       6.996 -20.663  24.126  1.00  0.00     0.069 A 
ATOM      6  C   UNL     1       7.921 -21.717  24.287  1.00  0.00     0.142 A 
ATOM      7  O   UNL     1       8.560 -21.882  25.440  1.00  0.00    -0.452 OA
ATOM      8  C   UNL     1       8.168 -22.598  23.228  1.00  0.00     0.094 A 
ATOM      9  C   UNL     1       7.501 -22.441  22.009  1.00  0.00     0.119 A 
ATOM     10  C   UNL     1       6.581 -21.397  21.848  1.00  0.00     0.047 A 
ATOM     11  C   UNL     1       6.328 -20.511  22.899  1.00  0.00     0.020 A 
ENDROOT
BRANCH   1  12
ATOM     12  C   UNL     1       9.139 -21.384  27.730  1.00  0.00     0.025 A 
ATOM     13  C   UNL     1      10.311 -20.663  28.004  1.00  0.00     0.016 A 
ATOM     14  C   UNL     1      11.058 -20.937  29.152  1.00  0.00     0.051 A 
ATOM     15  C   UNL     1      10.655 -21.945  30.034  1.00  0.00     0.157 A 
ATOM     16  C   UNL     1       8.746 -22.411  28.607  1.00  0.00     0.062 A 
ATOM     17  C   UNL     1       9.497 -22.689  29.758  1.00  0.00     0.158 A 
BRANCH  15  18
ATOM     18  O   UNL     1      11.421 -22.195  31.173  1.00  0.00    -0.504 OA
ATOM     19  H   UNL     1      11.059 -22.721  31.960  1.00  0.00     0.293 HD
ENDBRANCH  15  18
BRANCH  17  20
ATOM     20  O   UNL     1       9.097 -23.705  30.626  1.00  0.00    -0.504 OA
ATOM     21  H   UNL     1       8.609 -23.504  31.491  1.00  0.00     0.293 HD
ENDBRANCH  17  20
ENDBRANCH   1  12
BRANCH   2  22
ATOM     22  O   UNL     1       7.330 -19.123  27.484  1.00  0.00    -0.502 OA
ATOM     23  H   UNL     1       7.725 -19.311  28.396  1.00  0.00     0.293 HD
ENDBRANCH   2  22
BRANCH   9  24
ATOM     24  O   UNL     1       7.760 -23.328  20.966  1.00  0.00    -0.508 OA
ATOM     25  H   UNL     1       8.143 -23.009  20.084  1.00  0.00     0.293 HD
ENDBRANCH   9  24
TORSDOF 5
ENDMDL
MODEL 7
REMARK VINA RESULT:    -6.194     12.725     14.503
REMARK INTER + INTRA:          -7.600
REMARK INTER:                  -7.567
REMARK INTRA:                  -0.034
REMARK UNBOUND:                -0.320
REMARK SMILES O=c1c(O)c(-c2ccc(O)c(O)c2)oc2cc(O)ccc12
REMARK SMILES IDX 5 1 3 2 2 3 1 4 21 5 15 6 14 7 16 8 17 9 19 10 20 11 6 12
REMARK SMILES IDX 7 13 8 14 9 15 13 16 11 17 10 18 12 20 4 22 18 24
REMARK H PARENT 10 19 12 21 4 23 18 25
REMARK Flexibility Score: inf
ROOT
ATOM      1  C   UNL     1       6.487 -20.712  26.849  1.00  0.00     0.180 A 
ATOM      2  C   UNL     1       7.648 -20.125  27.394  1.00  0.00     0.208 A 
ATOM      3  C   UNL     1       8.552 -20.939  28.094  1.00  0.00     0.235 A 
ATOM      4  O   UNL     1       9.603 -20.439  28.580  1.00  0.00    -0.285 OA
ATOM      5  C   UNL     1       8.272 -22.306  28.251  1.00  0.00     0.069 A 
ATOM      6  C   UNL     1       7.076 -22.811  27.696  1.00  0.00     0.142 A 
ATOM      7  O   UNL     1       6.250 -22.009  27.034  1.00  0.00    -0.452 OA
ATOM      8  C   UNL     1       6.757 -24.166  27.841  1.00  0.00     0.094 A 
ATOM      9  C   UNL     1       7.618 -25.025  28.531  1.00  0.00     0.119 A 
ATOM     10  C   UNL     1       8.806 -24.526  29.082  1.00  0.00     0.047 A 
ATOM     11  C   UNL     1       9.134 -23.174  28.944  1.00  0.00     0.020 A 
ENDROOT
BRANCH   1  12
ATOM     12  C   UNL     1       5.493 -19.924  26.083  1.00  0.00     0.025 A 
ATOM     13  C   UNL     1       4.131 -20.038  26.398  1.00  0.00     0.016 A 
ATOM     14  C   UNL     1       3.174 -19.321  25.674  1.00  0.00     0.051 A 
ATOM     15  C   UNL     1       3.563 -18.492  24.617  1.00  0.00     0.157 A 
ATOM     16  C   UNL     1       5.881 -19.106  25.006  1.00  0.00     0.062 A 
ATOM     17  C   UNL     1       4.922 -18.388  24.278  1.00  0.00     0.158 A 
BRANCH  15  18
ATOM     18  O   UNL     1       2.586 -17.787  23.915  1.00  0.00    -0.504 OA
ATOM     19  H   UNL     1       2.822 -17.072  23.237  1.00  0.00     0.293 HD
ENDBRANCH  15  18
BRANCH  17  20
ATOM     20  O   UNL     1       5.315 -17.574  23.215  1.00  0.00    -0.504 OA
ATOM     21  H   UNL     1       6.286 -17.327  23.066  1.00  0.00     0.293 HD
ENDBRANCH  17  20
ENDBRANCH   1  12
BRANCH   2  22
ATOM     22  O   UNL     1       7.875 -18.752  27.264  1.00  0.00    -0.502 OA
ATOM     23  H   UNL     1       8.805 -18.353  27.293  1.00  0.00     0.293 HD
ENDBRANCH   2  22
BRANCH   9  24
ATOM     24  O   UNL     1       7.284 -26.371  28.665  1.00  0.00    -0.508 OA
ATOM     25  H   UNL     1       7.945 -27.105  28.441  1.00  0.00     0.293 HD
ENDBRANCH   9  24
TORSDOF 5
ENDMDL
MODEL 8
REMARK VINA RESULT:    -6.115     13.015     15.676
REMARK INTER + INTRA:          -7.507
REMARK INTER:                  -7.323
REMARK INTRA:                  -0.185
REMARK UNBOUND:                -0.320
REMARK SMILES O=c1c(O)c(-c2ccc(O)c(O)c2)oc2cc(O)ccc12
REMARK SMILES IDX 5 1 3 2 2 3 1 4 21 5 15 6 14 7 16 8 17 9 19 10 20 11 6 12
REMARK SMILES IDX 7 13 8 14 9 15 13 16 11 17 10 18 12 20 4 22 18 24
REMARK H PARENT 10 19 12 21 4 23 18 25
REMARK Flexibility Score: inf
ROOT
ATOM      1  C   UNL     1       8.950 -20.938  28.317  1.00  0.00     0.180 A 
ATOM      2  C   UNL     1       8.217 -20.950  29.521  1.00  0.00     0.208 A 
ATOM      3  C   UNL     1       8.915 -20.936  30.739  1.00  0.00     0.235 A 
ATOM      4  O   UNL     1       8.282 -20.935  31.829  1.00  0.00    -0.285 OA
ATOM      5  C   UNL     1      10.320 -20.931  30.729  1.00  0.00     0.069 A 
ATOM      6  C   UNL     1      10.979 -20.944  29.481  1.00  0.00     0.142 A 
ATOM      7  O   UNL     1      10.281 -20.949  28.351  1.00  0.00    -0.452 OA
ATOM      8  C   UNL     1      12.378 -20.950  29.430  1.00  0.00     0.094 A 
ATOM      9  C   UNL     1      13.127 -20.940  30.610  1.00  0.00     0.119 A 
ATOM     10  C   UNL     1      12.475 -20.926  31.850  1.00  0.00     0.047 A 
ATOM     11  C   UNL     1      11.079 -20.922  31.912  1.00  0.00     0.020 A 
ENDROOT
BRANCH   1  12
ATOM     12  C   UNL     1       8.286 -20.934  26.992  1.00  0.00     0.025 A 
ATOM     13  C   UNL     1       8.494 -22.007  26.112  1.00  0.00     0.016 A 
ATOM     14  C   UNL     1       7.896 -22.013  24.850  1.00  0.00     0.051 A 
ATOM     15  C   UNL     1       7.093 -20.943  24.443  1.00  0.00     0.157 A 
ATOM     16  C   UNL     1       7.496 -19.848  26.573  1.00  0.00     0.062 A 
ATOM     17  C   UNL     1       6.896 -19.853  25.306  1.00  0.00     0.158 A 
BRANCH  15  18
ATOM     18  O   UNL     1       6.507 -20.979  23.178  1.00  0.00    -0.504 OA
ATOM     19  H   UNL     1       6.999 -20.668  22.348  1.00  0.00     0.293 HD
ENDBRANCH  15  18
BRANCH  17  20
ATOM     20  O   UNL     1       6.108 -18.775  24.900  1.00  0.00    -0.504 OA
ATOM     21  H   UNL     1       6.386 -18.172  24.136  1.00  0.00     0.293 HD
ENDBRANCH  17  20
ENDBRANCH   1  12
BRANCH   2  22
ATOM     22  O   UNL     1       6.821 -21.005  29.500  1.00  0.00    -0.502 OA
ATOM     23  H   UNL     1       6.283 -20.796  28.669  1.00  0.00     0.293 HD
ENDBRANCH   2  22
BRANCH   9  24
ATOM     24  O   UNL     1      14.519 -20.946  30.540  1.00  0.00    -0.508 OA
ATOM     25  H   UNL     1      15.064 -21.716  30.909  1.00  0.00     0.293 HD
ENDBRANCH   9  24
TORSDOF 5
ENDMDL
