MODEL 1
REMARK VINA RESULT:    -4.482      0.000      0.000
REMARK INTER + INTRA:          -4.775
REMARK INTER:                  -5.530
REMARK INTRA:                   0.755
REMARK UNBOUND:                 0.755
REMARK SMILES CC1=CC=CC(C)(C)CC1=O
REMARK SMILES IDX 1 1 2 2 3 3 10 4 11 5 9 6 4 8 5 9 6 10 7 11 8 12
REMARK H PARENT
REMARK Flexibility Score: 80.00
ROOT
ATOM      1  C   UNL     1      -5.261 -14.750  32.119  1.00  0.00     0.048 C 
ATOM      2  C   UNL     1      -4.876 -14.380  30.707  1.00  0.00    -0.008 C 
ATOM      3  C   UNL     1      -5.734 -14.708  29.717  1.00  0.00     0.007 C 
ENDROOT
BRANCH   2   4
ATOM      4  C   UNL     1      -3.616 -13.614  30.529  1.00  0.00     0.159 C 
ATOM      5  O   UNL     1      -3.056 -13.120  31.546  1.00  0.00    -0.295 OA
BRANCH   4   6
ATOM      6  C   UNL     1      -2.959 -13.401  29.200  1.00  0.00     0.091 CG0
ATOM      7  G   UNL     1      -3.850 -12.639  28.194  1.00  0.00     0.000 G0
ENDBRANCH   4   6
ENDBRANCH   2   4
BRANCH   3   8
ATOM      8  C   UNL     1      -5.646 -14.459  28.259  1.00  0.00    -0.003 C 
ATOM      9  C   UNL     1      -4.873 -13.587  27.598  1.00  0.00    -0.020 C 
BRANCH   9  10
ATOM     10  C   UNL     1      -3.859 -12.645  28.203  1.00  0.00    -0.010 CG0
ATOM     11  C   UNL     1      -2.956 -12.110  27.070  1.00  0.00     0.016 C 
ATOM     12  C   UNL     1      -4.579 -11.439  28.849  1.00  0.00     0.016 C 
ATOM     13  G   UNL     1      -2.969 -13.414  29.206  1.00  0.00     0.000 G0
ENDBRANCH   9  10
ENDBRANCH   3   8
TORSDOF 0
ENDMDL
MODEL 2
REMARK VINA RESULT:    -4.471      1.966      2.911
REMARK INTER + INTRA:          -4.761
REMARK INTER:                  -5.517
REMARK INTRA:                   0.756
REMARK UNBOUND:                 0.755
REMARK SMILES CC1=CC=CC(C)(C)CC1=O
REMARK SMILES IDX 1 1 2 2 3 3 10 4 11 5 9 6 4 8 5 9 6 10 7 11 8 12
REMARK H PARENT
REMARK Flexibility Score: 80.00
ROOT
ATOM      1  C   UNL     1      -0.185 -12.708  31.609  1.00  0.00     0.048 C 
ATOM      2  C   UNL     1      -1.363 -13.063  30.734  1.00  0.00    -0.008 C 
ATOM      3  C   UNL     1      -2.597 -12.958  31.272  1.00  0.00     0.007 C 
ENDROOT
BRANCH   2   4
ATOM      4  C   UNL     1      -1.072 -13.428  29.324  1.00  0.00     0.159 C 
ATOM      5  O   UNL     1       0.091 -13.235  28.874  1.00  0.00    -0.295 OA
BRANCH   4   6
ATOM      6  C   UNL     1      -2.085 -14.029  28.400  1.00  0.00     0.091 CG0
ATOM      7  G   UNL     1      -3.323 -13.130  28.185  1.00  0.00     0.000 G0
ENDBRANCH   4   6
ENDBRANCH   2   4
BRANCH   3   8
ATOM      8  C   UNL     1      -3.925 -13.209  30.664  1.00  0.00    -0.003 C 
ATOM      9  C   UNL     1      -4.260 -13.277  29.369  1.00  0.00    -0.020 C 
BRANCH   9  10
ATOM     10  C   UNL     1      -3.326 -13.137  28.191  1.00  0.00    -0.010 CG0
ATOM     11  C   UNL     1      -4.060 -13.642  26.928  1.00  0.00     0.016 C 
ATOM     12  C   UNL     1      -2.970 -11.648  27.973  1.00  0.00     0.016 C 
ATOM     13  G   UNL     1      -2.079 -14.022  28.408  1.00  0.00     0.000 G0
ENDBRANCH   9  10
ENDBRANCH   3   8
TORSDOF 0
ENDMDL
MODEL 3
REMARK VINA RESULT:    -4.406      1.421      2.457
REMARK INTER + INTRA:          -4.681
REMARK INTER:                  -5.432
REMARK INTRA:                   0.752
REMARK UNBOUND:                 0.755
REMARK SMILES CC1=CC=CC(C)(C)CC1=O
REMARK SMILES IDX 1 1 2 2 3 3 10 4 11 5 9 6 4 8 5 9 6 10 7 11 8 12
REMARK H PARENT
REMARK Flexibility Score: 80.00
ROOT
ATOM      1  C   UNL     1      -6.404 -14.755  28.216  1.00  0.00     0.048 C 
ATOM      2  C   UNL     1      -5.094 -14.017  28.353  1.00  0.00    -0.008 C 
ATOM      3  C   UNL     1      -4.605 -13.399  27.256  1.00  0.00     0.007 C 
ENDROOT
BRANCH   2   4
ATOM      4  C   UNL     1      -4.485 -13.967  29.706  1.00  0.00     0.159 C 
ATOM      5  O   UNL     1      -5.166 -14.356  30.694  1.00  0.00    -0.295 OA
BRANCH   4   6
ATOM      6  C   UNL     1      -3.090 -13.488  29.968  1.00  0.00     0.091 CG0
ATOM      7  G   UNL     1      -2.847 -12.035  29.503  1.00  0.00     0.000 G0
ENDBRANCH   4   6
ENDBRANCH   2   4
BRANCH   3   8
ATOM      8  C   UNL     1      -3.376 -12.589  27.088  1.00  0.00    -0.003 C 
ATOM      9  C   UNL     1      -2.626 -11.990  28.023  1.00  0.00    -0.020 C 
BRANCH   9  10
ATOM     10  C   UNL     1      -2.852 -12.028  29.516  1.00  0.00    -0.010 CG0
ATOM     11  C   UNL     1      -1.568 -11.525  30.214  1.00  0.00     0.016 C 
ATOM     12  C   UNL     1      -4.007 -11.075  29.899  1.00  0.00     0.016 C 
ATOM     13  G   UNL     1      -3.106 -13.483  29.967  1.00  0.00     0.000 G0
ENDBRANCH   9  10
ENDBRANCH   3   8
TORSDOF 0
ENDMDL
MODEL 4
REMARK VINA RESULT:    -4.343      1.973      3.202
REMARK INTER + INTRA:          -4.603
REMARK INTER:                  -5.359
REMARK INTRA:                   0.756
REMARK UNBOUND:                 0.755
REMARK SMILES CC1=CC=CC(C)(C)CC1=O
REMARK SMILES IDX 1 1 2 2 3 3 10 4 11 5 9 6 4 8 5 9 6 10 7 11 8 12
REMARK H PARENT
REMARK Flexibility Score: 80.00
ROOT
ATOM      1  C   UNL     1      -5.667 -14.406  27.890  1.00  0.00     0.048 C 
ATOM      2  C   UNL     1      -4.870 -13.607  28.893  1.00  0.00    -0.008 C 
ATOM      3  C   UNL     1      -4.822 -14.065  30.163  1.00  0.00     0.007 C 
ENDROOT
BRANCH   2   4
ATOM      4  C   UNL     1      -4.138 -12.421  28.382  1.00  0.00     0.159 C 
ATOM      5  O   UNL     1      -4.046 -12.252  27.136  1.00  0.00    -0.295 OA
BRANCH   4   6
ATOM      6  C   UNL     1      -3.504 -11.395  29.271  1.00  0.00     0.091 CG0
ATOM      7  G   UNL     1      -2.433 -11.984  30.216  1.00  0.00     0.000 G0
ENDBRANCH   4   6
ENDBRANCH   2   4
BRANCH   3   8
ATOM      8  C   UNL     1      -4.113 -13.521  31.344  1.00  0.00    -0.003 C 
ATOM      9  C   UNL     1      -3.092 -12.655  31.390  1.00  0.00    -0.020 C 
BRANCH   9  10
ATOM     10  C   UNL     1      -2.426 -11.988  30.211  1.00  0.00    -0.010 CG0
ATOM     11  C   UNL     1      -1.568 -10.815  30.737  1.00  0.00     0.016 C 
ATOM     12  C   UNL     1      -1.484 -12.988  29.502  1.00  0.00     0.016 C 
ATOM     13  G   UNL     1      -3.501 -11.409  29.264  1.00  0.00     0.000 G0
ENDBRANCH   9  10
ENDBRANCH   3   8
TORSDOF 0
ENDMDL
MODEL 5
REMARK VINA RESULT:    -4.325      1.523      2.518
REMARK INTER + INTRA:          -4.581
REMARK INTER:                  -5.345
REMARK INTRA:                   0.764
REMARK UNBOUND:                 0.755
REMARK SMILES CC1=CC=CC(C)(C)CC1=O
REMARK SMILES IDX 1 1 2 2 3 3 10 4 11 5 9 6 4 8 5 9 6 10 7 11 8 12
REMARK H PARENT
REMARK Flexibility Score: 80.00
ROOT
ATOM      1  C   UNL     1      -5.068 -14.749  31.798  1.00  0.00     0.048 C 
ATOM      2  C   UNL     1      -4.478 -13.771  30.811  1.00  0.00    -0.008 C 
ATOM      3  C   UNL     1      -3.485 -12.965  31.244  1.00  0.00     0.007 C 
ENDROOT
BRANCH   2   4
ATOM      4  C   UNL     1      -4.989 -13.828  29.418  1.00  0.00     0.159 C 
ATOM      5  O   UNL     1      -5.721 -14.797  29.077  1.00  0.00    -0.295 OA
BRANCH   4   6
ATOM      6  C   UNL     1      -4.693 -12.784  28.386  1.00  0.00     0.091 CG0
ATOM      7  G   UNL     1      -3.182 -12.611  28.109  1.00  0.00     0.000 G0
ENDBRANCH   4   6
ENDBRANCH   2   4
BRANCH   3   8
ATOM      8  C   UNL     1      -2.706 -11.938  30.513  1.00  0.00    -0.003 C 
ATOM      9  C   UNL     1      -2.553 -11.777  29.192  1.00  0.00    -0.020 C 
BRANCH   9  10
ATOM     10  C   UNL     1      -3.183 -12.616  28.106  1.00  0.00    -0.010 CG0
ATOM     11  C   UNL     1      -3.026 -11.868  26.762  1.00  0.00     0.016 C 
ATOM     12  C   UNL     1      -2.444 -13.969  27.988  1.00  0.00     0.016 C 
ATOM     13  G   UNL     1      -4.692 -12.785  28.388  1.00  0.00     0.000 G0
ENDBRANCH   9  10
ENDBRANCH   3   8
TORSDOF 0
ENDMDL
MODEL 6
REMARK VINA RESULT:    -4.277      2.135      3.302
REMARK INTER + INTRA:          -4.522
REMARK INTER:                  -5.272
REMARK INTRA:                   0.750
REMARK UNBOUND:                 0.755
REMARK SMILES CC1=CC=CC(C)(C)CC1=O
REMARK SMILES IDX 1 1 2 2 3 3 10 4 11 5 9 6 4 8 5 9 6 10 7 11 8 12
REMARK H PARENT
REMARK Flexibility Score: 80.00
ROOT
ATOM      1  C   UNL     1       0.313 -12.541  31.658  1.00  0.00     0.048 C 
ATOM      2  C   UNL     1      -0.624 -12.738  30.491  1.00  0.00    -0.008 C 
ATOM      3  C   UNL     1      -0.515 -13.886  29.787  1.00  0.00     0.007 C 
ENDROOT
BRANCH   2   4
ATOM      4  C   UNL     1      -1.642 -11.683  30.256  1.00  0.00     0.159 C 
ATOM      5  O   UNL     1      -1.807 -10.792  31.133  1.00  0.00    -0.295 OA
BRANCH   4   6
ATOM      6  C   UNL     1      -2.487 -11.610  29.021  1.00  0.00     0.091 CG0
ATOM      7  G   UNL     1      -3.349 -12.872  28.796  1.00  0.00     0.000 G0
ENDBRANCH   4   6
ENDBRANCH   2   4
BRANCH   3   8
ATOM      8  C   UNL     1      -1.299 -14.368  28.625  1.00  0.00    -0.003 C 
ATOM      9  C   UNL     1      -2.501 -13.967  28.194  1.00  0.00    -0.020 C 
BRANCH   9  10
ATOM     10  C   UNL     1      -3.353 -12.874  28.796  1.00  0.00    -0.010 CG0
ATOM     11  C   UNL     1      -4.461 -12.508  27.782  1.00  0.00     0.016 C 
ATOM     12  C   UNL     1      -4.036 -13.387  30.085  1.00  0.00     0.016 C 
ATOM     13  G   UNL     1      -2.490 -11.616  29.040  1.00  0.00     0.000 G0
ENDBRANCH   9  10
ENDBRANCH   3   8
TORSDOF 0
ENDMDL
MODEL 7
REMARK VINA RESULT:    -4.203      2.082      3.308
REMARK INTER + INTRA:          -4.431
REMARK INTER:                  -5.172
REMARK INTRA:                   0.741
REMARK UNBOUND:                 0.755
REMARK SMILES CC1=CC=CC(C)(C)CC1=O
REMARK SMILES IDX 1 1 2 2 3 3 10 4 11 5 9 6 4 8 5 9 6 10 7 11 8 12
REMARK H PARENT
REMARK Flexibility Score: 80.00
ROOT
ATOM      1  C   UNL     1      -4.658 -14.389  27.021  1.00  0.00     0.048 C 
ATOM      2  C   UNL     1      -4.058 -13.282  27.855  1.00  0.00    -0.008 C 
ATOM      3  C   UNL     1      -4.873 -12.279  28.245  1.00  0.00     0.007 C 
ENDROOT
BRANCH   2   4
ATOM      4  C   UNL     1      -2.631 -13.426  28.241  1.00  0.00     0.159 C 
ATOM      5  O   UNL     1      -2.051 -14.526  28.028  1.00  0.00    -0.295 OA
BRANCH   4   6
ATOM      6  C   UNL     1      -1.830 -12.326  28.866  1.00  0.00     0.091 CG0
ATOM      7  G   UNL     1      -2.420 -11.825  30.204  1.00  0.00     0.000 G0
ENDBRANCH   4   6
ENDBRANCH   2   4
BRANCH   3   8
ATOM      8  C   UNL     1      -4.584 -11.087  29.077  1.00  0.00    -0.003 C 
ATOM      9  C   UNL     1      -3.565 -10.873  29.919  1.00  0.00    -0.020 C 
BRANCH   9  10
ATOM     10  C   UNL     1      -2.421 -11.817  30.204  1.00  0.00    -0.010 CG0
ATOM     11  C   UNL     1      -1.311 -11.028  30.933  1.00  0.00     0.016 C 
ATOM     12  C   UNL     1      -2.895 -12.951  31.141  1.00  0.00     0.016 C 
ATOM     13  G   UNL     1      -1.840 -12.347  28.874  1.00  0.00     0.000 G0
ENDBRANCH   9  10
ENDBRANCH   3   8
TORSDOF 0
ENDMDL
MODEL 8
REMARK VINA RESULT:    -4.038      2.387      3.752
REMARK INTER + INTRA:          -4.227
REMARK INTER:                  -4.996
REMARK INTRA:                   0.769
REMARK UNBOUND:                 0.755
REMARK SMILES CC1=CC=CC(C)(C)CC1=O
REMARK SMILES IDX 1 1 2 2 3 3 10 4 11 5 9 6 4 8 5 9 6 10 7 11 8 12
REMARK H PARENT
REMARK Flexibility Score: 80.00
ROOT
ATOM      1  C   UNL     1      -0.124 -14.287  28.537  1.00  0.00     0.048 C 
ATOM      2  C   UNL     1      -1.075 -13.163  28.871  1.00  0.00    -0.008 C 
ATOM      3  C   UNL     1      -2.106 -12.942  28.027  1.00  0.00     0.007 C 
ENDROOT
BRANCH   2   4
ATOM      4  C   UNL     1      -0.843 -12.439  30.146  1.00  0.00     0.159 C 
ATOM      5  O   UNL     1      -0.007 -12.906  30.968  1.00  0.00    -0.295 OA
BRANCH   4   6
ATOM      6  C   UNL     1      -1.541 -11.165  30.512  1.00  0.00     0.091 CG0
ATOM      7  G   UNL     1      -3.080 -11.303  30.553  1.00  0.00     0.000 G0
ENDBRANCH   4   6
ENDBRANCH   2   4
BRANCH   3   8
ATOM      8  C   UNL     1      -3.200 -11.946  28.101  1.00  0.00    -0.003 C 
ATOM      9  C   UNL     1      -3.639 -11.252  29.159  1.00  0.00    -0.020 C 
BRANCH   9  10
ATOM     10  C   UNL     1      -3.083 -11.306  30.562  1.00  0.00    -0.010 CG0
ATOM     11  C   UNL     1      -3.653 -10.109  31.356  1.00  0.00     0.016 C 
ATOM     12  C   UNL     1      -3.544 -12.606  31.262  1.00  0.00     0.016 C 
ATOM     13  G   UNL     1      -1.545 -11.166  30.519  1.00  0.00     0.000 G0
ENDBRANCH   9  10
ENDBRANCH   3   8
TORSDOF 0
ENDMDL
MODEL 9
REMARK VINA RESULT:    -3.835      2.278      3.753
REMARK INTER + INTRA:          -3.977
REMARK INTER:                  -4.731
REMARK INTRA:                   0.754
REMARK UNBOUND:                 0.755
REMARK SMILES CC1=CC=CC(C)(C)CC1=O
REMARK SMILES IDX 1 1 2 2 3 3 10 4 11 5 9 6 4 8 5 9 6 10 7 11 8 12
REMARK H PARENT
REMARK Flexibility Score: 80.00
ROOT
ATOM      1  C   UNL     1      -0.222 -14.375  28.750  1.00  0.00     0.048 C 
ATOM      2  C   UNL     1      -1.210 -13.337  29.225  1.00  0.00    -0.008 C 
ATOM      3  C   UNL     1      -0.743 -12.338  30.004  1.00  0.00     0.007 C 
ENDROOT
BRANCH   2   4
ATOM      4  C   UNL     1      -2.606 -13.458  28.732  1.00  0.00     0.159 C 
ATOM      5  O   UNL     1      -2.855 -14.278  27.807  1.00  0.00    -0.295 OA
BRANCH   4   6
ATOM      6  C   UNL     1      -3.748 -12.662  29.284  1.00  0.00     0.091 CG0
ATOM      7  G   UNL     1      -3.551 -11.136  29.148  1.00  0.00     0.000 G0
ENDBRANCH   4   6
ENDBRANCH   2   4
BRANCH   3   8
ATOM      8  C   UNL     1      -1.454 -11.179  30.594  1.00  0.00    -0.003 C 
ATOM      9  C   UNL     1      -2.631 -10.645  30.244  1.00  0.00    -0.020 C 
BRANCH   9  10
ATOM     10  C   UNL     1      -3.551 -11.135  29.151  1.00  0.00    -0.010 CG0
ATOM     11  C   UNL     1      -4.930 -10.464  29.340  1.00  0.00     0.016 C 
ATOM     12  C   UNL     1      -3.000 -10.713  27.770  1.00  0.00     0.016 C 
ATOM     13  G   UNL     1      -3.739 -12.664  29.275  1.00  0.00     0.000 G0
ENDBRANCH   9  10
ENDBRANCH   3   8
TORSDOF 0
ENDMDL
